MODEL 1
REMARK VINA RESULT:     -13.5      0.000      0.000
REMARK SMILES Cc1cc(C(=O)NCCCNC(=O)c2ccc(-c3c4nc(c(-c5c(F)c(F)c(F)c(F)c5F)c5ccc([nH]5)c(-c5c(F)c(F)c(F)c(F)c5F)c5nc(c(-c6c(F)c(F)c(F)c(F)c6F)c6ccc3[nH]6)C=C5)C=C4)cc2)c(C#Cc2ccccc2)s1
REMARK SMILES IDX 9 1 8 2 7 3 5 4 6 5 4 7 1 8 2 9 3 10 86 11 77 12 78 13 79 14
REMARK SMILES IDX 80 15 81 16 85 17 82 18 84 19 83 20 10 21 11 22 12 23 13 25
REMARK SMILES IDX 14 26 15 27 76 28 16 29 75 30 17 31 18 32 19 33 69 34 20 35
REMARK SMILES IDX 74 36 68 37 70 38 21 39 73 40 67 41 66 42 22 44 54 45 34 46
REMARK SMILES IDX 53 47 35 48 38 49 52 50 71 51 36 52 37 53 51 55 72 56 39 57
REMARK SMILES IDX 23 58 24 59 32 60 25 61 26 62 30 63 33 64 27 65 28 66 31 67
REMARK SMILES IDX 29 68 55 69 56 70 64 71 57 72 58 73 62 74 65 75 59 76 60 77
REMARK SMILES IDX 63 78 61 79 40 80 41 81 49 82 42 83 43 84 47 85 50 86 44 87
REMARK SMILES IDX 45 88 48 89 46 90
REMARK H PARENT 7 6 11 24 70 43 38 54
REMARK Flexibility Score: inf
ROOT
ATOM      1  C   UNL A   1      38.780  21.058  25.608  1.00  0.00     0.042 C 
ENDROOT
BRANCH   1   2
ATOM      2  C   UNL A   1      37.866  22.285  25.513  1.00  0.00     0.118 C 
BRANCH   2   3
ATOM      3  N   UNL A   1      37.319  22.451  24.178  1.00  0.00    -0.352 N 
ATOM      4  C   UNL A   1      36.162  22.959  23.644  1.00  0.00     0.253 C 
ATOM      5  O   UNL A   1      36.134  22.954  22.411  1.00  0.00    -0.269 OA
ATOM      6  H   UNL A   1      37.931  22.115  23.483  1.00  0.00     0.163 HD
BRANCH   4   7
ATOM      7  C   UNL A   1      35.047  23.486  24.452  1.00  0.00     0.066 A 
ATOM      8  C   UNL A   1      33.061  26.269  26.143  1.00  0.00     0.056 C 
ATOM      9  C   UNL A   1      33.625  25.004  25.593  1.00  0.00     0.004 A 
ATOM     10  C   UNL A   1      34.814  24.832  24.915  1.00  0.00     0.030 A 
ATOM     11  S   UNL A   1      32.806  23.531  25.776  1.00  0.00    -0.131 S 
ATOM     12  C   UNL A   1      34.025  22.666  24.937  1.00  0.00     0.090 A 
BRANCH  12  13
ATOM     13  C   UNL A   1      33.899  21.242  24.812  1.00  0.00    -0.050 C 
ATOM     14  C   UNL A   1      33.793  20.049  24.774  1.00  0.00    -0.061 C 
BRANCH  14  15
ATOM     15  C   UNL A   1      33.646  18.623  24.759  1.00  0.00     0.025 A 
ATOM     16  C   UNL A   1      34.412  17.848  23.887  1.00  0.00     0.017 A 
ATOM     17  C   UNL A   1      32.720  18.006  25.605  1.00  0.00     0.017 A 
ATOM     18  C   UNL A   1      34.242  16.461  23.850  1.00  0.00     0.001 A 
ATOM     19  C   UNL A   1      32.550  16.619  25.568  1.00  0.00     0.001 A 
ATOM     20  C   UNL A   1      33.308  15.849  24.687  1.00  0.00     0.000 A 
ENDBRANCH  14  15
ENDBRANCH  12  13
ENDBRANCH   4   7
ENDBRANCH   2   3
ENDBRANCH   1   2
BRANCH   1  21
ATOM     21  C   UNL A   1      39.970  21.266  26.551  1.00  0.00     0.118 C 
BRANCH  21  22
ATOM     22  N   UNL A   1      41.141  21.819  25.897  1.00  0.00    -0.352 N 
ATOM     23  C   UNL A   1      41.842  22.986  25.950  1.00  0.00     0.251 C 
ATOM     24  H   UNL A   1      41.530  21.188  25.249  1.00  0.00     0.163 HD
ATOM     25  O   UNL A   1      42.867  23.023  25.263  1.00  0.00    -0.269 OA
BRANCH  23  26
ATOM     26  C   UNL A   1      41.434  24.218  26.673  1.00  0.00     0.039 A 
ATOM     27  C   UNL A   1      40.521  25.173  26.227  1.00  0.00     0.014 A 
ATOM     28  C   UNL A   1      42.126  24.455  27.878  1.00  0.00     0.014 A 
ATOM     29  C   UNL A   1      40.446  26.408  26.867  1.00  0.00     0.010 A 
ATOM     30  C   UNL A   1      42.029  25.668  28.536  1.00  0.00     0.010 A 
ATOM     31  C   UNL A   1      41.263  26.676  27.972  1.00  0.00    -0.014 A 
BRANCH  31  32
ATOM     32  C   UNL A   1      41.205  27.984  28.614  1.00  0.00     0.031 A 
ATOM     33  C   UNL A   1      42.347  28.863  28.247  1.00  0.00     0.074 A 
ATOM     34  C   UNL A   1      40.167  28.385  29.383  1.00  0.00     0.049 A 
ATOM     35  N   UNL A   1      43.267  29.310  29.036  1.00  0.00    -0.248 NA
ATOM     36  C   UNL A   1      42.607  29.129  26.822  1.00  0.00     0.031 C 
ATOM     37  C   UNL A   1      38.911  27.686  29.666  1.00  0.00     0.029 A 
ATOM     38  N   UNL A   1      39.995  29.573  30.037  1.00  0.00    -0.354 N 
ATOM     39  C   UNL A   1      44.120  30.074  28.244  1.00  0.00     0.074 A 
ATOM     40  C   UNL A   1      43.760  29.800  26.878  1.00  0.00     0.031 C 
ATOM     41  C   UNL A   1      38.025  28.544  30.225  1.00  0.00     0.029 A 
ATOM     42  C   UNL A   1      38.686  29.811  30.467  1.00  0.00     0.049 A 
ATOM     43  H   UNL A   1      40.732  30.208  30.191  1.00  0.00     0.167 HD
ATOM     44  C   UNL A   1      44.901  31.040  28.800  1.00  0.00     0.037 A 
ATOM     45  C   UNL A   1      38.200  30.994  30.938  1.00  0.00     0.037 A 
ATOM     46  C   UNL A   1      45.037  30.836  30.218  1.00  0.00     0.049 A 
ATOM     47  C   UNL A   1      39.371  31.777  31.418  1.00  0.00     0.074 A 
ATOM     48  C   UNL A   1      45.579  29.831  30.995  1.00  0.00     0.029 A 
ATOM     49  N   UNL A   1      44.211  31.553  31.049  1.00  0.00    -0.354 N 
ATOM     50  N   UNL A   1      40.079  31.420  32.456  1.00  0.00    -0.248 NA
ATOM     51  C   UNL A   1      40.057  32.608  30.439  1.00  0.00     0.031 C 
ATOM     52  C   UNL A   1      44.676  29.687  32.086  1.00  0.00     0.029 A 
ATOM     53  C   UNL A   1      43.699  30.677  31.972  1.00  0.00     0.049 A 
ATOM     54  H   UNL A   1      44.021  32.517  30.993  1.00  0.00     0.167 HD
ATOM     55  C   UNL A   1      41.393  31.593  32.052  1.00  0.00     0.074 A 
ATOM     56  C   UNL A   1      41.318  32.359  30.808  1.00  0.00     0.031 C 
ATOM     57  C   UNL A   1      42.401  30.839  32.578  1.00  0.00     0.037 A 
BRANCH  44  58
ATOM     58  C   UNL A   1      45.210  32.364  28.149  1.00  0.00     0.064 A 
ATOM     59  C   UNL A   1      44.153  33.253  27.870  1.00  0.00     0.173 A 
ATOM     60  C   UNL A   1      46.433  32.648  27.506  1.00  0.00     0.173 A 
ATOM     61  F   UNL A   1      42.941  33.067  28.415  1.00  0.00    -0.203 F 
ATOM     62  C   UNL A   1      44.288  34.292  26.947  1.00  0.00     0.198 A 
ATOM     63  C   UNL A   1      46.578  33.716  26.623  1.00  0.00     0.198 A 
ATOM     64  F   UNL A   1      47.499  31.846  27.612  1.00  0.00    -0.203 F 
ATOM     65  F   UNL A   1      43.221  35.030  26.614  1.00  0.00    -0.200 F 
ATOM     66  C   UNL A   1      45.499  34.517  26.318  1.00  0.00     0.200 A 
ATOM     67  F   UNL A   1      47.754  33.904  26.007  1.00  0.00    -0.200 F 
ATOM     68  F   UNL A   1      45.615  35.470  25.385  1.00  0.00    -0.200 F 
ENDBRANCH  44  58
BRANCH  45  69
ATOM     69  C   UNL A   1      36.881  31.628  30.658  1.00  0.00     0.064 A 
ATOM     70  C   UNL A   1      35.951  31.894  31.682  1.00  0.00     0.173 A 
ATOM     71  C   UNL A   1      36.625  32.252  29.420  1.00  0.00     0.173 A 
ATOM     72  F   UNL A   1      36.134  31.386  32.910  1.00  0.00    -0.203 F 
ATOM     73  C   UNL A   1      34.851  32.743  31.483  1.00  0.00     0.198 A 
ATOM     74  C   UNL A   1      35.531  33.098  29.223  1.00  0.00     0.198 A 
ATOM     75  F   UNL A   1      37.486  32.130  28.401  1.00  0.00    -0.203 F 
ATOM     76  F   UNL A   1      34.018  33.015  32.498  1.00  0.00    -0.200 F 
ATOM     77  C   UNL A   1      34.651  33.354  30.257  1.00  0.00     0.200 A 
ATOM     78  F   UNL A   1      35.373  33.713  28.042  1.00  0.00    -0.200 F 
ATOM     79  F   UNL A   1      33.639  34.216  30.082  1.00  0.00    -0.200 F 
ENDBRANCH  45  69
BRANCH  57  80
ATOM     80  C   UNL A   1      42.095  29.940  33.744  1.00  0.00     0.064 A 
ATOM     81  C   UNL A   1      41.662  28.608  33.618  1.00  0.00     0.173 A 
ATOM     82  C   UNL A   1      42.456  30.381  35.024  1.00  0.00     0.173 A 
ATOM     83  F   UNL A   1      41.395  28.081  32.417  1.00  0.00    -0.203 F 
ATOM     84  C   UNL A   1      41.575  27.768  34.728  1.00  0.00     0.198 A 
ATOM     85  C   UNL A   1      42.402  29.530  36.123  1.00  0.00     0.198 A 
ATOM     86  F   UNL A   1      42.935  31.623  35.193  1.00  0.00    -0.203 F 
ATOM     87  F   UNL A   1      41.173  26.496  34.580  1.00  0.00    -0.200 F 
ATOM     88  C   UNL A   1      41.957  28.227  35.977  1.00  0.00     0.200 A 
ATOM     89  F   UNL A   1      42.828  29.962  37.318  1.00  0.00    -0.200 F 
ATOM     90  F   UNL A   1      41.929  27.403  37.035  1.00  0.00    -0.200 F 
ENDBRANCH  57  80
ENDBRANCH  31  32
ENDBRANCH  23  26
ENDBRANCH  21  22
ENDBRANCH   1  21
TORSDOF 12
ENDMDL
MODEL 2
REMARK VINA RESULT:     -13.5      3.958      9.615
REMARK SMILES Cc1cc(C(=O)NCCCNC(=O)c2ccc(-c3c4nc(c(-c5c(F)c(F)c(F)c(F)c5F)c5ccc([nH]5)c(-c5c(F)c(F)c(F)c(F)c5F)c5nc(c(-c6c(F)c(F)c(F)c(F)c6F)c6ccc3[nH]6)C=C5)C=C4)cc2)c(C#Cc2ccccc2)s1
REMARK SMILES IDX 9 1 8 2 7 3 5 4 6 5 4 7 1 8 2 9 3 10 86 11 77 12 78 13 79 14
REMARK SMILES IDX 80 15 81 16 85 17 82 18 84 19 83 20 10 21 11 22 12 23 13 25
REMARK SMILES IDX 14 26 15 27 76 28 16 29 75 30 17 31 18 32 19 33 69 34 20 35
REMARK SMILES IDX 74 36 68 37 70 38 21 39 73 40 67 41 66 42 22 44 54 45 34 46
REMARK SMILES IDX 53 47 35 48 38 49 52 50 71 51 36 52 37 53 51 55 72 56 39 57
REMARK SMILES IDX 23 58 24 59 32 60 25 61 26 62 30 63 33 64 27 65 28 66 31 67
REMARK SMILES IDX 29 68 55 69 56 70 64 71 57 72 58 73 62 74 65 75 59 76 60 77
REMARK SMILES IDX 63 78 61 79 40 80 41 81 49 82 42 83 43 84 47 85 50 86 44 87
REMARK SMILES IDX 45 88 48 89 46 90
REMARK H PARENT 7 6 11 24 70 43 38 54
REMARK Flexibility Score: inf
ROOT
ATOM      1  C   UNL A   1      32.076  29.602  26.960  1.00  0.00     0.042 C 
ENDROOT
BRANCH   1   2
ATOM      2  C   UNL A   1      32.368  28.207  27.526  1.00  0.00     0.118 C 
BRANCH   2   3
ATOM      3  N   UNL A   1      31.289  27.275  27.251  1.00  0.00    -0.352 N 
ATOM      4  C   UNL A   1      31.047  26.299  26.317  1.00  0.00     0.253 C 
ATOM      5  O   UNL A   1      29.989  25.689  26.493  1.00  0.00    -0.269 OA
ATOM      6  H   UNL A   1      30.549  27.365  27.893  1.00  0.00     0.163 HD
BRANCH   4   7
ATOM      7  C   UNL A   1      31.961  25.979  25.206  1.00  0.00     0.066 A 
ATOM      8  C   UNL A   1      34.776  24.010  23.548  1.00  0.00     0.056 C 
ATOM      9  C   UNL A   1      33.667  24.927  23.937  1.00  0.00     0.004 A 
ATOM     10  C   UNL A   1      33.053  25.037  25.167  1.00  0.00     0.030 A 
ATOM     11  S   UNL A   1      33.012  26.025  22.824  1.00  0.00    -0.131 S 
ATOM     12  C   UNL A   1      31.897  26.636  23.974  1.00  0.00     0.090 A 
BRANCH  12  13
ATOM     13  C   UNL A   1      31.035  27.719  23.594  1.00  0.00    -0.050 C 
ATOM     14  C   UNL A   1      30.364  28.666  23.296  1.00  0.00    -0.061 C 
BRANCH  14  15
ATOM     15  C   UNL A   1      29.591  29.816  22.930  1.00  0.00     0.025 A 
ATOM     16  C   UNL A   1      29.388  30.846  23.849  1.00  0.00     0.017 A 
ATOM     17  C   UNL A   1      29.022  29.900  21.656  1.00  0.00     0.017 A 
ATOM     18  C   UNL A   1      28.605  31.951  23.502  1.00  0.00     0.001 A 
ATOM     19  C   UNL A   1      28.239  31.005  21.308  1.00  0.00     0.001 A 
ATOM     20  C   UNL A   1      28.028  32.027  22.233  1.00  0.00     0.000 A 
ENDBRANCH  14  15
ENDBRANCH  12  13
ENDBRANCH   4   7
ENDBRANCH   2   3
ENDBRANCH   1   2
BRANCH   1  21
ATOM     21  C   UNL A   1      33.337  30.452  26.776  1.00  0.00     0.118 C 
BRANCH  21  22
ATOM     22  N   UNL A   1      33.676  31.248  27.941  1.00  0.00    -0.352 N 
ATOM     23  C   UNL A   1      34.803  31.517  28.658  1.00  0.00     0.251 C 
ATOM     24  H   UNL A   1      32.890  31.715  28.306  1.00  0.00     0.163 HD
ATOM     25  O   UNL A   1      34.672  32.345  29.565  1.00  0.00    -0.269 OA
BRANCH  23  26
ATOM     26  C   UNL A   1      36.119  30.845  28.503  1.00  0.00     0.039 A 
ATOM     27  C   UNL A   1      36.333  29.550  28.033  1.00  0.00     0.014 A 
ATOM     28  C   UNL A   1      37.222  31.586  28.973  1.00  0.00     0.014 A 
ATOM     29  C   UNL A   1      37.580  28.951  28.206  1.00  0.00     0.010 A 
ATOM     30  C   UNL A   1      38.470  31.006  29.115  1.00  0.00     0.010 A 
ATOM     31  C   UNL A   1      38.619  29.660  28.822  1.00  0.00    -0.014 A 
BRANCH  31  32
ATOM     32  C   UNL A   1      39.909  29.013  29.033  1.00  0.00     0.031 A 
ATOM     33  C   UNL A   1      40.225  28.802  30.470  1.00  0.00     0.074 A 
ATOM     34  C   UNL A   1      40.686  28.567  28.020  1.00  0.00     0.049 A 
ATOM     35  N   UNL A   1      41.190  29.340  31.139  1.00  0.00    -0.248 NA
ATOM     36  C   UNL A   1      39.266  28.059  31.305  1.00  0.00     0.031 C 
ATOM     37  C   UNL A   1      40.402  28.551  26.582  1.00  0.00     0.029 A 
ATOM     38  N   UNL A   1      41.905  27.952  28.084  1.00  0.00    -0.354 N 
ATOM     39  C   UNL A   1      41.078  28.855  32.440  1.00  0.00     0.074 A 
ATOM     40  C   UNL A   1      39.797  28.204  32.521  1.00  0.00     0.031 C 
ATOM     41  C   UNL A   1      41.295  27.757  25.947  1.00  0.00     0.029 A 
ATOM     42  C   UNL A   1      42.295  27.317  26.900  1.00  0.00     0.049 A 
ATOM     43  H   UNL A   1      42.462  27.956  28.896  1.00  0.00     0.167 HD
ATOM     44  C   UNL A   1      42.157  28.842  33.270  1.00  0.00     0.037 A 
ATOM     45  C   UNL A   1      43.342  26.457  26.759  1.00  0.00     0.037 A 
ATOM     46  C   UNL A   1      43.177  29.741  32.799  1.00  0.00     0.049 A 
ATOM     47  C   UNL A   1      44.279  26.737  27.881  1.00  0.00     0.074 A 
ATOM     48  C   UNL A   1      43.236  31.108  32.604  1.00  0.00     0.029 A 
ATOM     49  N   UNL A   1      44.207  29.209  32.063  1.00  0.00    -0.354 N 
ATOM     50  N   UNL A   1      44.947  27.856  27.977  1.00  0.00    -0.248 NA
ATOM     51  C   UNL A   1      44.046  26.028  29.132  1.00  0.00     0.031 C 
ATOM     52  C   UNL A   1      43.954  31.271  31.386  1.00  0.00     0.029 A 
ATOM     53  C   UNL A   1      44.383  30.012  30.965  1.00  0.00     0.049 A 
ATOM     54  H   UNL A   1      44.725  28.401  32.283  1.00  0.00     0.167 HD
ATOM     55  C   UNL A   1      44.825  28.214  29.310  1.00  0.00     0.074 A 
ATOM     56  C   UNL A   1      44.284  27.032  29.981  1.00  0.00     0.031 C 
ATOM     57  C   UNL A   1      44.868  29.522  29.699  1.00  0.00     0.037 A 
BRANCH  44  58
ATOM     58  C   UNL A   1      42.451  27.749  34.265  1.00  0.00     0.064 A 
ATOM     59  C   UNL A   1      43.029  26.547  33.810  1.00  0.00     0.173 A 
ATOM     60  C   UNL A   1      41.901  27.709  35.563  1.00  0.00     0.173 A 
ATOM     61  F   UNL A   1      43.568  26.468  32.584  1.00  0.00    -0.203 F 
ATOM     62  C   UNL A   1      42.977  25.373  34.565  1.00  0.00     0.198 A 
ATOM     63  C   UNL A   1      41.894  26.548  36.333  1.00  0.00     0.198 A 
ATOM     64  F   UNL A   1      41.247  28.749  36.093  1.00  0.00    -0.203 F 
ATOM     65  F   UNL A   1      43.421  24.224  34.039  1.00  0.00    -0.200 F 
ATOM     66  C   UNL A   1      42.401  25.373  35.822  1.00  0.00     0.200 A 
ATOM     67  F   UNL A   1      41.311  26.564  37.540  1.00  0.00    -0.200 F 
ATOM     68  F   UNL A   1      42.290  24.236  36.521  1.00  0.00    -0.200 F 
ENDBRANCH  44  58
BRANCH  45  69
ATOM     69  C   UNL A   1      43.401  25.193  25.971  1.00  0.00     0.064 A 
ATOM     70  C   UNL A   1      44.492  24.888  25.135  1.00  0.00     0.173 A 
ATOM     71  C   UNL A   1      42.522  24.126  26.247  1.00  0.00     0.173 A 
ATOM     72  F   UNL A   1      45.410  25.823  24.855  1.00  0.00    -0.203 F 
ATOM     73  C   UNL A   1      44.698  23.595  24.628  1.00  0.00     0.198 A 
ATOM     74  C   UNL A   1      42.728  22.840  25.743  1.00  0.00     0.198 A 
ATOM     75  F   UNL A   1      41.495  24.286  27.093  1.00  0.00    -0.203 F 
ATOM     76  F   UNL A   1      45.778  23.331  23.879  1.00  0.00    -0.200 F 
ATOM     77  C   UNL A   1      43.822  22.571  24.943  1.00  0.00     0.200 A 
ATOM     78  F   UNL A   1      41.894  21.850  26.090  1.00  0.00    -0.200 F 
ATOM     79  F   UNL A   1      44.051  21.321  24.513  1.00  0.00    -0.200 F 
ENDBRANCH  45  69
BRANCH  57  80
ATOM     80  C   UNL A   1      45.239  30.564  28.680  1.00  0.00     0.064 A 
ATOM     81  C   UNL A   1      44.314  31.195  27.829  1.00  0.00     0.173 A 
ATOM     82  C   UNL A   1      46.538  31.086  28.720  1.00  0.00     0.173 A 
ATOM     83  F   UNL A   1      43.029  30.822  27.809  1.00  0.00    -0.203 F 
ATOM     84  C   UNL A   1      44.686  32.284  27.039  1.00  0.00     0.198 A 
ATOM     85  C   UNL A   1      46.896  32.193  27.957  1.00  0.00     0.198 A 
ATOM     86  F   UNL A   1      47.444  30.561  29.559  1.00  0.00    -0.203 F 
ATOM     87  F   UNL A   1      43.782  32.879  26.245  1.00  0.00    -0.200 F 
ATOM     88  C   UNL A   1      45.973  32.789  27.114  1.00  0.00     0.200 A 
ATOM     89  F   UNL A   1      48.125  32.712  28.078  1.00  0.00    -0.200 F 
ATOM     90  F   UNL A   1      46.315  33.870  26.399  1.00  0.00    -0.200 F 
ENDBRANCH  57  80
ENDBRANCH  31  32
ENDBRANCH  23  26
ENDBRANCH  21  22
ENDBRANCH   1  21
TORSDOF 12
ENDMDL
MODEL 3
REMARK VINA RESULT:     -13.4      3.717      8.944
REMARK SMILES Cc1cc(C(=O)NCCCNC(=O)c2ccc(-c3c4nc(c(-c5c(F)c(F)c(F)c(F)c5F)c5ccc([nH]5)c(-c5c(F)c(F)c(F)c(F)c5F)c5nc(c(-c6c(F)c(F)c(F)c(F)c6F)c6ccc3[nH]6)C=C5)C=C4)cc2)c(C#Cc2ccccc2)s1
REMARK SMILES IDX 9 1 8 2 7 3 5 4 6 5 4 7 1 8 2 9 3 10 86 11 77 12 78 13 79 14
REMARK SMILES IDX 80 15 81 16 85 17 82 18 84 19 83 20 10 21 11 22 12 23 13 25
REMARK SMILES IDX 14 26 15 27 76 28 16 29 75 30 17 31 18 32 19 33 69 34 20 35
REMARK SMILES IDX 74 36 68 37 70 38 21 39 73 40 67 41 66 42 22 44 54 45 34 46
REMARK SMILES IDX 53 47 35 48 38 49 52 50 71 51 36 52 37 53 51 55 72 56 39 57
REMARK SMILES IDX 23 58 24 59 32 60 25 61 26 62 30 63 33 64 27 65 28 66 31 67
REMARK SMILES IDX 29 68 55 69 56 70 64 71 57 72 58 73 62 74 65 75 59 76 60 77
REMARK SMILES IDX 63 78 61 79 40 80 41 81 49 82 42 83 43 84 47 85 50 86 44 87
REMARK SMILES IDX 45 88 48 89 46 90
REMARK H PARENT 7 6 11 24 70 43 38 54
REMARK Flexibility Score: inf
ROOT
ATOM      1  C   UNL A   1      33.068  28.662  27.292  1.00  0.00     0.042 C 
ENDROOT
BRANCH   1   2
ATOM      2  C   UNL A   1      31.620  28.422  27.735  1.00  0.00     0.118 C 
BRANCH   2   3
ATOM      3  N   UNL A   1      31.131  27.124  27.304  1.00  0.00    -0.352 N 
ATOM      4  C   UNL A   1      30.896  26.512  26.099  1.00  0.00     0.253 C 
ATOM      5  O   UNL A   1      30.521  25.340  26.196  1.00  0.00    -0.269 OA
ATOM      6  H   UNL A   1      30.916  26.538  28.065  1.00  0.00     0.163 HD
BRANCH   4   7
ATOM      7  C   UNL A   1      31.084  27.169  24.794  1.00  0.00     0.066 A 
ATOM      8  C   UNL A   1      30.117  29.588  22.008  1.00  0.00     0.056 C 
ATOM      9  C   UNL A   1      30.728  28.582  22.921  1.00  0.00     0.004 A 
ATOM     10  C   UNL A   1      30.216  28.092  24.104  1.00  0.00     0.030 A 
ATOM     11  S   UNL A   1      32.224  27.870  22.559  1.00  0.00    -0.131 S 
ATOM     12  C   UNL A   1      32.199  26.921  23.987  1.00  0.00     0.090 A 
BRANCH  12  13
ATOM     13  C   UNL A   1      33.271  25.996  24.220  1.00  0.00    -0.050 C 
ATOM     14  C   UNL A   1      34.139  25.184  24.369  1.00  0.00    -0.061 C 
BRANCH  14  15
ATOM     15  C   UNL A   1      35.176  24.205  24.511  1.00  0.00     0.025 A 
ATOM     16  C   UNL A   1      35.812  24.029  25.741  1.00  0.00     0.017 A 
ATOM     17  C   UNL A   1      35.568  23.436  23.411  1.00  0.00     0.017 A 
ATOM     18  C   UNL A   1      36.846  23.097  25.868  1.00  0.00     0.001 A 
ATOM     19  C   UNL A   1      36.602  22.504  23.539  1.00  0.00     0.001 A 
ATOM     20  C   UNL A   1      37.243  22.339  24.766  1.00  0.00     0.000 A 
ENDBRANCH  14  15
ENDBRANCH  12  13
ENDBRANCH   4   7
ENDBRANCH   2   3
ENDBRANCH   1   2
BRANCH   1  21
ATOM     21  C   UNL A   1      33.317  30.093  26.802  1.00  0.00     0.118 C 
BRANCH  21  22
ATOM     22  N   UNL A   1      33.643  31.023  27.867  1.00  0.00    -0.352 N 
ATOM     23  C   UNL A   1      34.773  31.427  28.513  1.00  0.00     0.251 C 
ATOM     24  H   UNL A   1      32.842  31.482  28.209  1.00  0.00     0.163 HD
ATOM     25  O   UNL A   1      34.620  32.336  29.334  1.00  0.00    -0.269 OA
BRANCH  23  26
ATOM     26  C   UNL A   1      36.119  30.814  28.383  1.00  0.00     0.039 A 
ATOM     27  C   UNL A   1      36.410  29.572  27.822  1.00  0.00     0.014 A 
ATOM     28  C   UNL A   1      37.165  31.549  28.978  1.00  0.00     0.014 A 
ATOM     29  C   UNL A   1      37.667  29.002  28.019  1.00  0.00     0.010 A 
ATOM     30  C   UNL A   1      38.424  31.001  29.147  1.00  0.00     0.010 A 
ATOM     31  C   UNL A   1      38.641  29.691  28.753  1.00  0.00    -0.014 A 
BRANCH  31  32
ATOM     32  C   UNL A   1      39.940  29.072  28.987  1.00  0.00     0.031 A 
ATOM     33  C   UNL A   1      40.226  28.846  30.429  1.00  0.00     0.074 A 
ATOM     34  C   UNL A   1      40.753  28.660  27.988  1.00  0.00     0.049 A 
ATOM     35  N   UNL A   1      41.160  29.397  31.130  1.00  0.00    -0.248 NA
ATOM     36  C   UNL A   1      39.264  28.068  31.228  1.00  0.00     0.031 C 
ATOM     37  C   UNL A   1      40.506  28.660  26.544  1.00  0.00     0.029 A 
ATOM     38  N   UNL A   1      41.986  28.074  28.074  1.00  0.00    -0.354 N 
ATOM     39  C   UNL A   1      41.027  28.890  32.420  1.00  0.00     0.074 A 
ATOM     40  C   UNL A   1      39.761  28.207  32.459  1.00  0.00     0.031 C 
ATOM     41  C   UNL A   1      41.435  27.897  25.919  1.00  0.00     0.029 A 
ATOM     42  C   UNL A   1      42.421  27.467  26.891  1.00  0.00     0.049 A 
ATOM     43  H   UNL A   1      42.522  28.079  28.900  1.00  0.00     0.167 HD
ATOM     44  C   UNL A   1      42.085  28.889  33.277  1.00  0.00     0.037 A 
ATOM     45  C   UNL A   1      43.491  26.634  26.765  1.00  0.00     0.037 A 
ATOM     46  C   UNL A   1      43.094  29.820  32.846  1.00  0.00     0.049 A 
ATOM     47  C   UNL A   1      44.393  26.920  27.914  1.00  0.00     0.074 A 
ATOM     48  C   UNL A   1      43.125  31.191  32.673  1.00  0.00     0.029 A 
ATOM     49  N   UNL A   1      44.156  29.324  32.129  1.00  0.00    -0.354 N 
ATOM     50  N   UNL A   1      45.031  28.052  28.044  1.00  0.00    -0.248 NA
ATOM     51  C   UNL A   1      44.145  26.186  29.148  1.00  0.00     0.031 C 
ATOM     52  C   UNL A   1      43.869  31.390  31.476  1.00  0.00     0.029 A 
ATOM     53  C   UNL A   1      44.339  30.148  31.047  1.00  0.00     0.049 A 
ATOM     54  H   UNL A   1      44.687  28.526  32.350  1.00  0.00     0.167 HD
ATOM     55  C   UNL A   1      44.866  28.387  29.378  1.00  0.00     0.074 A 
ATOM     56  C   UNL A   1      44.338  27.182  30.018  1.00  0.00     0.031 C 
ATOM     57  C   UNL A   1      44.868  29.689  29.787  1.00  0.00     0.037 A 
BRANCH  44  58
ATOM     58  C   UNL A   1      42.381  27.789  34.263  1.00  0.00     0.064 A 
ATOM     59  C   UNL A   1      42.991  26.604  33.804  1.00  0.00     0.173 A 
ATOM     60  C   UNL A   1      41.805  27.721  35.549  1.00  0.00     0.173 A 
ATOM     61  F   UNL A   1      43.555  26.553  32.588  1.00  0.00    -0.203 F 
ATOM     62  C   UNL A   1      42.946  25.419  34.542  1.00  0.00     0.198 A 
ATOM     63  C   UNL A   1      41.806  26.549  36.303  1.00  0.00     0.198 A 
ATOM     64  F   UNL A   1      41.121  28.740  36.080  1.00  0.00    -0.203 F 
ATOM     65  F   UNL A   1      43.423  24.286  34.009  1.00  0.00    -0.200 F 
ATOM     66  C   UNL A   1      42.346  25.391  35.787  1.00  0.00     0.200 A 
ATOM     67  F   UNL A   1      41.199  26.537  37.498  1.00  0.00    -0.200 F 
ATOM     68  F   UNL A   1      42.243  24.242  36.468  1.00  0.00    -0.200 F 
ENDBRANCH  44  58
BRANCH  45  69
ATOM     69  C   UNL A   1      43.601  25.384  25.960  1.00  0.00     0.064 A 
ATOM     70  C   UNL A   1      44.745  25.091  25.193  1.00  0.00     0.173 A 
ATOM     71  C   UNL A   1      42.703  24.315  26.157  1.00  0.00     0.173 A 
ATOM     72  F   UNL A   1      45.681  26.029  24.991  1.00  0.00    -0.203 F 
ATOM     73  C   UNL A   1      44.982  23.807  24.677  1.00  0.00     0.198 A 
ATOM     74  C   UNL A   1      42.941  23.037  25.644  1.00  0.00     0.198 A 
ATOM     75  F   UNL A   1      41.623  24.463  26.935  1.00  0.00    -0.203 F 
ATOM     76  F   UNL A   1      46.110  23.553  23.998  1.00  0.00    -0.200 F 
ATOM     77  C   UNL A   1      44.086  22.780  24.915  1.00  0.00     0.200 A 
ATOM     78  F   UNL A   1      42.084  22.044  25.917  1.00  0.00    -0.200 F 
ATOM     79  F   UNL A   1      44.341  21.537  24.479  1.00  0.00    -0.200 F 
ENDBRANCH  45  69
BRANCH  57  80
ATOM     80  C   UNL A   1      45.239  30.756  28.794  1.00  0.00     0.064 A 
ATOM     81  C   UNL A   1      44.323  31.365  27.917  1.00  0.00     0.173 A 
ATOM     82  C   UNL A   1      46.517  31.320  28.885  1.00  0.00     0.173 A 
ATOM     83  F   UNL A   1      43.053  30.950  27.847  1.00  0.00    -0.203 F 
ATOM     84  C   UNL A   1      44.685  32.476  27.153  1.00  0.00     0.198 A 
ATOM     85  C   UNL A   1      46.864  32.448  28.148  1.00  0.00     0.198 A 
ATOM     86  F   UNL A   1      47.410  30.816  29.751  1.00  0.00    -0.203 F 
ATOM     87  F   UNL A   1      43.790  33.049  26.334  1.00  0.00    -0.200 F 
ATOM     88  C   UNL A   1      45.951  33.023  27.279  1.00  0.00     0.200 A 
ATOM     89  F   UNL A   1      48.069  33.007  28.318  1.00  0.00    -0.200 F 
ATOM     90  F   UNL A   1      46.281  34.124  26.589  1.00  0.00    -0.200 F 
ENDBRANCH  57  80
ENDBRANCH  31  32
ENDBRANCH  23  26
ENDBRANCH  21  22
ENDBRANCH   1  21
TORSDOF 12
ENDMDL
