MODEL 1
REMARK VINA RESULT:     -12.6      0.000      0.000
REMARK SMILES Cc1c(Br)c(C)c2c(c1Br)O[C@H](C(F)(F)F)C(C(=O)NCCCNC(=O)c1ccc(-c3c4nc(c(-c5c(F)c(F)c(F)c(F)c5F)c5ccc([nH]5)c(-c5c(F)c(F)c(F)c(F)c5F)c5nc(c(-c6c(F)c(F)c(F)c(F)c6F)c6ccc3[nH]6)C=C5)C=C4)cc1)=C2
REMARK SMILES IDX 22 1 21 2 20 3 18 4 19 5 17 7 1 8 2 9 3 10 9 11 4 12 5 13
REMARK SMILES IDX 8 14 10 15 6 16 7 17 11 18 90 19 12 20 13 21 14 22 15 23
REMARK SMILES IDX 16 24 23 25 24 26 25 27 26 29 27 30 28 31 89 32 29 33 88 34
REMARK SMILES IDX 30 35 31 36 32 37 82 38 33 39 87 40 81 41 83 42 34 43 86 44
REMARK SMILES IDX 80 45 79 46 35 48 67 49 47 50 66 51 48 52 51 53 65 54 84 55
REMARK SMILES IDX 49 56 50 57 64 59 85 60 52 61 36 62 37 63 45 64 38 65 39 66
REMARK SMILES IDX 43 67 46 68 40 69 41 70 44 71 42 72 68 73 69 74 77 75 70 76
REMARK SMILES IDX 71 77 75 78 78 79 72 80 73 81 76 82 74 83 53 84 54 85 62 86
REMARK SMILES IDX 55 87 56 88 60 89 63 90 57 91 58 92 61 93 59 94
REMARK H PARENT 20 6 24 28 83 47 51 58
REMARK Flexibility Score: inf
ROOT
ATOM      1  C   UNL A   1      33.971  28.333  25.131  1.00  0.00     0.042 C 
ENDROOT
BRANCH   1   2
ATOM      2  C   UNL A   1      33.133  27.200  24.558  1.00  0.00     0.118 C 
BRANCH   2   3
ATOM      3  N   UNL A   1      32.232  26.639  25.554  1.00  0.00    -0.352 N 
ATOM      4  C   UNL A   1      31.986  25.425  26.096  1.00  0.00     0.251 C 
ATOM      5  O   UNL A   1      31.086  25.400  26.941  1.00  0.00    -0.270 OA
ATOM      6  H   UNL A   1      31.642  27.329  25.933  1.00  0.00     0.163 HD
BRANCH   4   7
ATOM      7  C   UNL A   1      32.709  24.169  25.746  1.00  0.00     0.067 C 
ATOM      8  C   UNL A   1      36.902  19.225  24.792  1.00  0.00     0.047 C 
ATOM      9  C   UNL A   1      36.200  20.526  25.101  1.00  0.00    -0.019 A 
ATOM     10  C   UNL A   1      36.902  21.689  25.508  1.00  0.00     0.025 A 
ATOM     11  C   UNL A   1      34.795  20.585  25.053  1.00  0.00     0.064 A 
ATOM     12  Br  UNL A   1      38.807  21.594  25.728  1.00  0.00    -0.050 Br
ATOM     13  C   UNL A   1      36.226  22.906  25.794  1.00  0.00    -0.026 A 
ATOM     14  C   UNL A   1      34.117  21.778  25.341  1.00  0.00     0.142 A 
ATOM     15  Br  UNL A   1      33.748  19.041  24.610  1.00  0.00    -0.046 Br
ATOM     16  C   UNL A   1      36.957  24.167  26.204  1.00  0.00     0.046 C 
ATOM     17  C   UNL A   1      34.813  22.937  25.709  1.00  0.00     0.022 A 
ATOM     18  O   UNL A   1      32.748  21.742  25.310  1.00  0.00    -0.474 OA
ATOM     19  C   UNL A   1      34.020  24.129  26.045  1.00  0.00     0.026 C 
ATOM     20  C   UNL A   1      32.065  22.995  25.082  1.00  0.00     0.314 C 
BRANCH  20  21
ATOM     21  C   UNL A   1      31.837  23.208  23.573  1.00  0.00     0.429 C 
ATOM     22  F   UNL A   1      30.557  23.591  23.339  1.00  0.00    -0.167 F 
ATOM     23  F   UNL A   1      32.628  24.181  23.063  1.00  0.00    -0.167 F 
ATOM     24  F   UNL A   1      32.070  22.093  22.846  1.00  0.00    -0.167 F 
ENDBRANCH  20  21
ENDBRANCH   4   7
ENDBRANCH   2   3
ENDBRANCH   1   2
BRANCH   1  25
ATOM     25  C   UNL A   1      33.814  28.448  26.641  1.00  0.00     0.118 C 
BRANCH  25  26
ATOM     26  N   UNL A   1      33.696  29.843  27.066  1.00  0.00    -0.352 N 
ATOM     27  C   UNL A   1      34.486  30.579  27.910  1.00  0.00     0.251 C 
ATOM     28  H   UNL A   1      32.929  30.328  26.687  1.00  0.00     0.163 HD
ATOM     29  O   UNL A   1      34.073  31.641  28.371  1.00  0.00    -0.269 OA
BRANCH  27  30
ATOM     30  C   UNL A   1      35.832  30.094  28.265  1.00  0.00     0.039 A 
ATOM     31  C   UNL A   1      36.875  30.226  27.346  1.00  0.00     0.014 A 
ATOM     32  C   UNL A   1      36.055  29.492  29.505  1.00  0.00     0.014 A 
ATOM     33  C   UNL A   1      38.158  29.811  27.702  1.00  0.00     0.010 A 
ATOM     34  C   UNL A   1      37.347  29.180  29.898  1.00  0.00     0.010 A 
ATOM     35  C   UNL A   1      38.408  29.320  28.995  1.00  0.00    -0.014 A 
BRANCH  35  36
ATOM     36  C   UNL A   1      39.769  28.912  29.416  1.00  0.00     0.031 A 
ATOM     37  C   UNL A   1      40.547  29.782  30.361  1.00  0.00     0.074 A 
ATOM     38  C   UNL A   1      40.315  27.793  28.903  1.00  0.00     0.049 A 
ATOM     39  N   UNL A   1      41.771  29.634  30.803  1.00  0.00    -0.248 NA
ATOM     40  C   UNL A   1      39.878  30.998  30.854  1.00  0.00     0.031 C 
ATOM     41  C   UNL A   1      39.666  26.900  27.942  1.00  0.00     0.029 A 
ATOM     42  N   UNL A   1      41.540  27.217  29.117  1.00  0.00    -0.354 N 
ATOM     43  C   UNL A   1      42.011  30.733  31.615  1.00  0.00     0.074 A 
ATOM     44  C   UNL A   1      40.843  31.579  31.548  1.00  0.00     0.031 C 
ATOM     45  C   UNL A   1      40.481  25.867  27.682  1.00  0.00     0.029 A 
ATOM     46  C   UNL A   1      41.726  26.046  28.424  1.00  0.00     0.049 A 
ATOM     47  H   UNL A   1      42.222  27.606  29.711  1.00  0.00     0.167 HD
ATOM     48  C   UNL A   1      43.097  30.992  32.379  1.00  0.00     0.037 A 
ATOM     49  C   UNL A   1      42.782  25.211  28.396  1.00  0.00     0.037 A 
ATOM     50  C   UNL A   1      44.243  30.129  32.461  1.00  0.00     0.049 A 
ATOM     51  C   UNL A   1      43.988  25.536  29.235  1.00  0.00     0.074 A 
ATOM     52  C   UNL A   1      45.377  30.275  33.239  1.00  0.00     0.029 A 
ATOM     53  N   UNL A   1      44.397  28.953  31.741  1.00  0.00    -0.354 N 
ATOM     54  N   UNL A   1      44.183  26.548  30.045  1.00  0.00    -0.248 NA
ATOM     55  C   UNL A   1      45.120  24.602  29.160  1.00  0.00     0.031 C 
ATOM     56  C   UNL A   1      46.239  29.213  32.953  1.00  0.00     0.029 A 
ATOM     57  C   UNL A   1      45.619  28.375  32.039  1.00  0.00     0.049 A 
ATOM     58  H   UNL A   1      43.735  28.584  31.111  1.00  0.00     0.167 HD
ATOM     59  C   UNL A   1      45.444  26.361  30.594  1.00  0.00     0.074 A 
ATOM     60  C   UNL A   1      45.963  25.130  30.036  1.00  0.00     0.031 C 
ATOM     61  C   UNL A   1      46.113  27.142  31.479  1.00  0.00     0.037 A 
BRANCH  48  62
ATOM     62  C   UNL A   1      43.088  32.244  33.207  1.00  0.00     0.064 A 
ATOM     63  C   UNL A   1      43.581  33.458  32.703  1.00  0.00     0.173 A 
ATOM     64  C   UNL A   1      42.528  32.247  34.493  1.00  0.00     0.173 A 
ATOM     65  F   UNL A   1      44.138  33.507  31.484  1.00  0.00    -0.203 F 
ATOM     66  C   UNL A   1      43.532  34.623  33.463  1.00  0.00     0.198 A 
ATOM     67  C   UNL A   1      42.453  33.421  35.239  1.00  0.00     0.198 A 
ATOM     68  F   UNL A   1      42.041  31.114  35.022  1.00  0.00    -0.203 F 
ATOM     69  F   UNL A   1      44.046  35.760  32.977  1.00  0.00    -0.200 F 
ATOM     70  C   UNL A   1      42.957  34.606  34.726  1.00  0.00     0.200 A 
ATOM     71  F   UNL A   1      41.885  33.405  36.453  1.00  0.00    -0.200 F 
ATOM     72  F   UNL A   1      42.895  35.731  35.450  1.00  0.00    -0.200 F 
ENDBRANCH  48  62
BRANCH  49  73
ATOM     73  C   UNL A   1      42.721  23.971  27.581  1.00  0.00     0.064 A 
ATOM     74  C   UNL A   1      43.038  23.995  26.215  1.00  0.00     0.173 A 
ATOM     75  C   UNL A   1      42.374  22.735  28.146  1.00  0.00     0.173 A 
ATOM     76  F   UNL A   1      43.359  25.155  25.624  1.00  0.00    -0.203 F 
ATOM     77  C   UNL A   1      43.000  22.834  25.445  1.00  0.00     0.198 A 
ATOM     78  C   UNL A   1      42.365  21.569  27.381  1.00  0.00     0.198 A 
ATOM     79  F   UNL A   1      42.069  22.654  29.449  1.00  0.00    -0.203 F 
ATOM     80  F   UNL A   1      43.275  22.894  24.134  1.00  0.00    -0.200 F 
ATOM     81  C   UNL A   1      42.672  21.621  26.030  1.00  0.00     0.200 A 
ATOM     82  F   UNL A   1      42.064  20.396  27.955  1.00  0.00    -0.200 F 
ATOM     83  F   UNL A   1      42.649  20.503  25.292  1.00  0.00    -0.200 F 
ENDBRANCH  49  73
BRANCH  61  84
ATOM     84  C   UNL A   1      47.472  26.687  31.920  1.00  0.00     0.064 A 
ATOM     85  C   UNL A   1      47.633  25.808  33.001  1.00  0.00     0.173 A 
ATOM     86  C   UNL A   1      48.615  27.055  31.194  1.00  0.00     0.173 A 
ATOM     87  F   UNL A   1      46.571  25.437  33.733  1.00  0.00    -0.203 F 
ATOM     88  C   UNL A   1      48.891  25.324  33.346  1.00  0.00     0.198 A 
ATOM     89  C   UNL A   1      49.866  26.542  31.521  1.00  0.00     0.198 A 
ATOM     90  F   UNL A   1      48.511  27.884  30.144  1.00  0.00    -0.203 F 
ATOM     91  F   UNL A   1      49.027  24.509  34.401  1.00  0.00    -0.200 F 
ATOM     92  C   UNL A   1      50.004  25.681  32.598  1.00  0.00     0.200 A 
ATOM     93  F   UNL A   1      50.937  26.873  30.786  1.00  0.00    -0.200 F 
ATOM     94  F   UNL A   1      51.211  25.193  32.917  1.00  0.00    -0.200 F 
ENDBRANCH  61  84
ENDBRANCH  35  36
ENDBRANCH  27  30
ENDBRANCH  25  26
ENDBRANCH   1  25
TORSDOF 11
ENDMDL
MODEL 2
REMARK VINA RESULT:     -12.6      3.735      8.930
REMARK SMILES Cc1c(Br)c(C)c2c(c1Br)O[C@H](C(F)(F)F)C(C(=O)NCCCNC(=O)c1ccc(-c3c4nc(c(-c5c(F)c(F)c(F)c(F)c5F)c5ccc([nH]5)c(-c5c(F)c(F)c(F)c(F)c5F)c5nc(c(-c6c(F)c(F)c(F)c(F)c6F)c6ccc3[nH]6)C=C5)C=C4)cc1)=C2
REMARK SMILES IDX 22 1 21 2 20 3 18 4 19 5 17 7 1 8 2 9 3 10 9 11 4 12 5 13
REMARK SMILES IDX 8 14 10 15 6 16 7 17 11 18 90 19 12 20 13 21 14 22 15 23
REMARK SMILES IDX 16 24 23 25 24 26 25 27 26 29 27 30 28 31 89 32 29 33 88 34
REMARK SMILES IDX 30 35 31 36 32 37 82 38 33 39 87 40 81 41 83 42 34 43 86 44
REMARK SMILES IDX 80 45 79 46 35 48 67 49 47 50 66 51 48 52 51 53 65 54 84 55
REMARK SMILES IDX 49 56 50 57 64 59 85 60 52 61 36 62 37 63 45 64 38 65 39 66
REMARK SMILES IDX 43 67 46 68 40 69 41 70 44 71 42 72 68 73 69 74 77 75 70 76
REMARK SMILES IDX 71 77 75 78 78 79 72 80 73 81 76 82 74 83 53 84 54 85 62 86
REMARK SMILES IDX 55 87 56 88 60 89 63 90 57 91 58 92 61 93 59 94
REMARK H PARENT 20 6 24 28 83 47 51 58
REMARK Flexibility Score: inf
ROOT
ATOM      1  C   UNL A   1      35.190  23.025  26.633  1.00  0.00     0.042 C 
ENDROOT
BRANCH   1   2
ATOM      2  C   UNL A   1      33.912  23.110  25.813  1.00  0.00     0.118 C 
BRANCH   2   3
ATOM      3  N   UNL A   1      34.192  23.312  24.398  1.00  0.00    -0.352 N 
ATOM      4  C   UNL A   1      33.906  24.236  23.453  1.00  0.00     0.251 C 
ATOM      5  O   UNL A   1      34.358  23.996  22.330  1.00  0.00    -0.270 OA
ATOM      6  H   UNL A   1      34.734  22.578  24.031  1.00  0.00     0.163 HD
BRANCH   4   7
ATOM      7  C   UNL A   1      33.110  25.476  23.682  1.00  0.00     0.067 C 
ATOM      8  C   UNL A   1      30.653  31.311  25.372  1.00  0.00     0.047 C 
ATOM      9  C   UNL A   1      31.447  30.038  25.198  1.00  0.00    -0.019 A 
ATOM     10  C   UNL A   1      32.600  29.751  25.973  1.00  0.00     0.025 A 
ATOM     11  C   UNL A   1      31.085  29.125  24.191  1.00  0.00     0.064 A 
ATOM     12  Br  UNL A   1      33.205  31.050  27.252  1.00  0.00    -0.050 Br
ATOM     13  C   UNL A   1      33.336  28.547  25.798  1.00  0.00    -0.026 A 
ATOM     14  C   UNL A   1      31.808  27.939  24.004  1.00  0.00     0.142 A 
ATOM     15  Br  UNL A   1      29.603  29.468  23.024  1.00  0.00    -0.046 Br
ATOM     16  C   UNL A   1      34.552  28.208  26.633  1.00  0.00     0.046 C 
ATOM     17  C   UNL A   1      32.926  27.639  24.793  1.00  0.00     0.022 A 
ATOM     18  O   UNL A   1      31.415  27.122  22.977  1.00  0.00    -0.474 OA
ATOM     19  C   UNL A   1      33.657  26.399  24.494  1.00  0.00     0.026 C 
ATOM     20  C   UNL A   1      31.764  25.724  23.081  1.00  0.00     0.314 C 
BRANCH  20  21
ATOM     21  C   UNL A   1      30.636  24.947  23.789  1.00  0.00     0.429 C 
ATOM     22  F   UNL A   1      31.023  24.588  25.038  1.00  0.00    -0.167 F 
ATOM     23  F   UNL A   1      29.511  25.687  23.933  1.00  0.00    -0.167 F 
ATOM     24  F   UNL A   1      30.283  23.822  23.130  1.00  0.00    -0.167 F 
ENDBRANCH  20  21
ENDBRANCH   4   7
ENDBRANCH   2   3
ENDBRANCH   1   2
BRANCH   1  25
ATOM     25  C   UNL A   1      36.414  23.430  25.823  1.00  0.00     0.118 C 
BRANCH  25  26
ATOM     26  N   UNL A   1      37.535  22.518  26.046  1.00  0.00    -0.352 N 
ATOM     27  C   UNL A   1      38.836  22.783  26.383  1.00  0.00     0.251 C 
ATOM     28  H   UNL A   1      37.321  21.564  25.936  1.00  0.00     0.163 HD
ATOM     29  O   UNL A   1      39.696  21.916  26.247  1.00  0.00    -0.269 OA
BRANCH  27  30
ATOM     30  C   UNL A   1      39.202  24.110  26.909  1.00  0.00     0.039 A 
ATOM     31  C   UNL A   1      38.903  24.432  28.234  1.00  0.00     0.014 A 
ATOM     32  C   UNL A   1      39.827  25.044  26.079  1.00  0.00     0.014 A 
ATOM     33  C   UNL A   1      39.293  25.670  28.744  1.00  0.00     0.010 A 
ATOM     34  C   UNL A   1      40.309  26.228  26.614  1.00  0.00     0.010 A 
ATOM     35  C   UNL A   1      40.032  26.560  27.947  1.00  0.00    -0.014 A 
BRANCH  35  36
ATOM     36  C   UNL A   1      40.498  27.864  28.474  1.00  0.00     0.031 A 
ATOM     37  C   UNL A   1      41.959  28.079  28.746  1.00  0.00     0.074 A 
ATOM     38  C   UNL A   1      39.598  28.826  28.756  1.00  0.00     0.049 A 
ATOM     39  N   UNL A   1      42.560  29.121  29.262  1.00  0.00    -0.248 NA
ATOM     40  C   UNL A   1      42.867  26.963  28.427  1.00  0.00     0.031 C 
ATOM     41  C   UNL A   1      38.150  28.708  28.575  1.00  0.00     0.029 A 
ATOM     42  N   UNL A   1      39.768  30.091  29.256  1.00  0.00    -0.354 N 
ATOM     43  C   UNL A   1      43.904  28.783  29.330  1.00  0.00     0.074 A 
ATOM     44  C   UNL A   1      44.026  27.416  28.877  1.00  0.00     0.031 C 
ATOM     45  C   UNL A   1      37.569  29.868  28.917  1.00  0.00     0.029 A 
ATOM     46  C   UNL A   1      38.595  30.795  29.382  1.00  0.00     0.049 A 
ATOM     47  H   UNL A   1      40.647  30.460  29.502  1.00  0.00     0.167 HD
ATOM     48  C   UNL A   1      44.949  29.559  29.701  1.00  0.00     0.037 A 
ATOM     49  C   UNL A   1      38.379  32.050  29.820  1.00  0.00     0.037 A 
ATOM     50  C   UNL A   1      44.820  30.927  30.122  1.00  0.00     0.049 A 
ATOM     51  C   UNL A   1      39.554  32.883  30.251  1.00  0.00     0.074 A 
ATOM     52  C   UNL A   1      45.817  31.816  30.476  1.00  0.00     0.029 A 
ATOM     53  N   UNL A   1      43.615  31.605  30.240  1.00  0.00    -0.354 N 
ATOM     54  N   UNL A   1      40.828  32.574  30.256  1.00  0.00    -0.248 NA
ATOM     55  C   UNL A   1      39.265  34.240  30.734  1.00  0.00     0.031 C 
ATOM     56  C   UNL A   1      45.214  33.017  30.856  1.00  0.00     0.029 A 
ATOM     57  C   UNL A   1      43.843  32.896  30.686  1.00  0.00     0.049 A 
ATOM     58  H   UNL A   1      42.729  31.224  30.038  1.00  0.00     0.167 HD
ATOM     59  C   UNL A   1      41.494  33.702  30.718  1.00  0.00     0.074 A 
ATOM     60  C   UNL A   1      40.483  34.708  30.967  1.00  0.00     0.031 C 
ATOM     61  C   UNL A   1      42.822  33.885  30.919  1.00  0.00     0.037 A 
BRANCH  48  62
ATOM     62  C   UNL A   1      46.322  28.957  29.643  1.00  0.00     0.064 A 
ATOM     63  C   UNL A   1      46.875  28.288  30.746  1.00  0.00     0.173 A 
ATOM     64  C   UNL A   1      47.072  28.999  28.458  1.00  0.00     0.173 A 
ATOM     65  F   UNL A   1      46.205  28.231  31.907  1.00  0.00    -0.203 F 
ATOM     66  C   UNL A   1      48.133  27.698  30.670  1.00  0.00     0.198 A 
ATOM     67  C   UNL A   1      48.318  28.382  28.376  1.00  0.00     0.198 A 
ATOM     68  F   UNL A   1      46.591  29.625  27.374  1.00  0.00    -0.203 F 
ATOM     69  F   UNL A   1      48.657  27.100  31.749  1.00  0.00    -0.200 F 
ATOM     70  C   UNL A   1      48.849  27.736  29.482  1.00  0.00     0.200 A 
ATOM     71  F   UNL A   1      49.002  28.407  27.224  1.00  0.00    -0.200 F 
ATOM     72  F   UNL A   1      50.053  27.154  29.406  1.00  0.00    -0.200 F 
ENDBRANCH  48  62
BRANCH  49  73
ATOM     73  C   UNL A   1      36.999  32.601  29.825  1.00  0.00     0.064 A 
ATOM     74  C   UNL A   1      36.175  32.457  30.951  1.00  0.00     0.173 A 
ATOM     75  C   UNL A   1      36.483  33.304  28.726  1.00  0.00     0.173 A 
ATOM     76  F   UNL A   1      36.616  31.779  32.020  1.00  0.00    -0.203 F 
ATOM     77  C   UNL A   1      34.885  32.985  30.972  1.00  0.00     0.198 A 
ATOM     78  C   UNL A   1      35.204  33.856  28.760  1.00  0.00     0.198 A 
ATOM     79  F   UNL A   1      37.232  33.476  27.627  1.00  0.00    -0.203 F 
ATOM     80  F   UNL A   1      34.108  32.803  32.049  1.00  0.00    -0.200 F 
ATOM     81  C   UNL A   1      34.403  33.691  29.881  1.00  0.00     0.200 A 
ATOM     82  F   UNL A   1      34.748  34.552  27.709  1.00  0.00    -0.200 F 
ATOM     83  F   UNL A   1      33.169  34.211  29.908  1.00  0.00    -0.200 F 
ENDBRANCH  49  73
BRANCH  61  84
ATOM     84  C   UNL A   1      43.272  35.228  31.415  1.00  0.00     0.064 A 
ATOM     85  C   UNL A   1      43.649  36.246  30.527  1.00  0.00     0.173 A 
ATOM     86  C   UNL A   1      43.232  35.529  32.784  1.00  0.00     0.173 A 
ATOM     87  F   UNL A   1      43.714  36.002  29.209  1.00  0.00    -0.203 F 
ATOM     88  C   UNL A   1      43.980  37.514  30.995  1.00  0.00     0.198 A 
ATOM     89  C   UNL A   1      43.531  36.807  33.245  1.00  0.00     0.198 A 
ATOM     90  F   UNL A   1      42.866  34.592  33.672  1.00  0.00    -0.203 F 
ATOM     91  F   UNL A   1      44.367  38.464  30.132  1.00  0.00    -0.200 F 
ATOM     92  C   UNL A   1      43.908  37.797  32.351  1.00  0.00     0.200 A 
ATOM     93  F   UNL A   1      43.443  37.084  34.554  1.00  0.00    -0.200 F 
ATOM     94  F   UNL A   1      44.204  39.026  32.797  1.00  0.00    -0.200 F 
ENDBRANCH  61  84
ENDBRANCH  35  36
ENDBRANCH  27  30
ENDBRANCH  25  26
ENDBRANCH   1  25
TORSDOF 11
ENDMDL
MODEL 3
REMARK VINA RESULT:     -12.6      2.413      7.680
REMARK SMILES Cc1c(Br)c(C)c2c(c1Br)O[C@H](C(F)(F)F)C(C(=O)NCCCNC(=O)c1ccc(-c3c4nc(c(-c5c(F)c(F)c(F)c(F)c5F)c5ccc([nH]5)c(-c5c(F)c(F)c(F)c(F)c5F)c5nc(c(-c6c(F)c(F)c(F)c(F)c6F)c6ccc3[nH]6)C=C5)C=C4)cc1)=C2
REMARK SMILES IDX 22 1 21 2 20 3 18 4 19 5 17 7 1 8 2 9 3 10 9 11 4 12 5 13
REMARK SMILES IDX 8 14 10 15 6 16 7 17 11 18 90 19 12 20 13 21 14 22 15 23
REMARK SMILES IDX 16 24 23 25 24 26 25 27 26 29 27 30 28 31 89 32 29 33 88 34
REMARK SMILES IDX 30 35 31 36 32 37 82 38 33 39 87 40 81 41 83 42 34 43 86 44
REMARK SMILES IDX 80 45 79 46 35 48 67 49 47 50 66 51 48 52 51 53 65 54 84 55
REMARK SMILES IDX 49 56 50 57 64 59 85 60 52 61 36 62 37 63 45 64 38 65 39 66
REMARK SMILES IDX 43 67 46 68 40 69 41 70 44 71 42 72 68 73 69 74 77 75 70 76
REMARK SMILES IDX 71 77 75 78 78 79 72 80 73 81 76 82 74 83 53 84 54 85 62 86
REMARK SMILES IDX 55 87 56 88 60 89 63 90 57 91 58 92 61 93 59 94
REMARK H PARENT 20 6 24 28 83 47 51 58
REMARK Flexibility Score: inf
ROOT
ATOM      1  C   UNL A   1      33.028  28.548  23.758  1.00  0.00     0.042 C 
ENDROOT
BRANCH   1   2
ATOM      2  C   UNL A   1      32.407  27.160  23.737  1.00  0.00     0.118 C 
BRANCH   2   3
ATOM      3  N   UNL A   1      31.833  26.807  25.028  1.00  0.00    -0.352 N 
ATOM      4  C   UNL A   1      31.794  25.720  25.832  1.00  0.00     0.251 C 
ATOM      5  O   UNL A   1      31.159  25.865  26.880  1.00  0.00    -0.270 OA
ATOM      6  H   UNL A   1      31.340  27.562  25.420  1.00  0.00     0.163 HD
BRANCH   4   7
ATOM      7  C   UNL A   1      32.447  24.413  25.536  1.00  0.00     0.067 C 
ATOM      8  C   UNL A   1      36.370  19.219  24.782  1.00  0.00     0.047 C 
ATOM      9  C   UNL A   1      35.739  20.567  25.035  1.00  0.00    -0.019 A 
ATOM     10  C   UNL A   1      36.504  21.710  25.380  1.00  0.00     0.025 A 
ATOM     11  C   UNL A   1      34.338  20.697  24.997  1.00  0.00     0.064 A 
ATOM     12  Br  UNL A   1      38.405  21.527  25.586  1.00  0.00    -0.050 Br
ATOM     13  C   UNL A   1      35.895  22.973  25.612  1.00  0.00    -0.026 A 
ATOM     14  C   UNL A   1      33.726  21.936  25.234  1.00  0.00     0.142 A 
ATOM     15  Br  UNL A   1      33.209  19.190  24.639  1.00  0.00    -0.046 Br
ATOM     16  C   UNL A   1      36.695  24.212  25.955  1.00  0.00     0.046 C 
ATOM     17  C   UNL A   1      34.485  23.073  25.539  1.00  0.00     0.022 A 
ATOM     18  O   UNL A   1      32.357  21.970  25.217  1.00  0.00    -0.474 OA
ATOM     19  C   UNL A   1      33.759  24.319  25.824  1.00  0.00     0.026 C 
ATOM     20  C   UNL A   1      31.737  23.244  24.936  1.00  0.00     0.314 C 
BRANCH  20  21
ATOM     21  C   UNL A   1      31.502  23.396  23.420  1.00  0.00     0.429 C 
ATOM     22  F   UNL A   1      30.326  24.029  23.186  1.00  0.00    -0.167 F 
ATOM     23  F   UNL A   1      32.463  24.138  22.820  1.00  0.00    -0.167 F 
ATOM     24  F   UNL A   1      31.464  22.210  22.775  1.00  0.00    -0.167 F 
ENDBRANCH  20  21
ENDBRANCH   4   7
ENDBRANCH   2   3
ENDBRANCH   1   2
BRANCH   1  25
ATOM     25  C   UNL A   1      33.577  28.905  25.132  1.00  0.00     0.118 C 
BRANCH  25  26
ATOM     26  N   UNL A   1      33.017  30.162  25.627  1.00  0.00    -0.352 N 
ATOM     27  C   UNL A   1      33.323  30.884  26.750  1.00  0.00     0.251 C 
ATOM     28  H   UNL A   1      32.310  30.550  25.064  1.00  0.00     0.163 HD
ATOM     29  O   UNL A   1      32.557  31.758  27.149  1.00  0.00    -0.269 OA
BRANCH  27  30
ATOM     30  C   UNL A   1      34.574  30.610  27.481  1.00  0.00     0.039 A 
ATOM     31  C   UNL A   1      35.522  31.625  27.628  1.00  0.00     0.014 A 
ATOM     32  C   UNL A   1      34.814  29.338  28.005  1.00  0.00     0.014 A 
ATOM     33  C   UNL A   1      36.682  31.378  28.360  1.00  0.00     0.010 A 
ATOM     34  C   UNL A   1      35.914  29.125  28.822  1.00  0.00     0.010 A 
ATOM     35  C   UNL A   1      36.867  30.138  28.994  1.00  0.00    -0.014 A 
BRANCH  35  36
ATOM     36  C   UNL A   1      38.069  29.861  29.814  1.00  0.00     0.031 A 
ATOM     37  C   UNL A   1      39.138  28.949  29.284  1.00  0.00     0.074 A 
ATOM     38  C   UNL A   1      38.164  30.386  31.051  1.00  0.00     0.049 A 
ATOM     39  N   UNL A   1      40.234  28.533  29.867  1.00  0.00    -0.248 NA
ATOM     40  C   UNL A   1      38.938  28.403  27.931  1.00  0.00     0.031 C 
ATOM     41  C   UNL A   1      37.163  31.246  31.683  1.00  0.00     0.029 A 
ATOM     42  N   UNL A   1      39.150  30.272  31.997  1.00  0.00    -0.354 N 
ATOM     43  C   UNL A   1      40.843  27.681  28.957  1.00  0.00     0.074 A 
ATOM     44  C   UNL A   1      39.965  27.576  27.815  1.00  0.00     0.031 C 
ATOM     45  C   UNL A   1      37.604  31.618  32.894  1.00  0.00     0.029 A 
ATOM     46  C   UNL A   1      38.898  30.987  33.142  1.00  0.00     0.049 A 
ATOM     47  H   UNL A   1      39.961  29.729  31.869  1.00  0.00     0.167 HD
ATOM     48  C   UNL A   1      42.048  27.072  29.050  1.00  0.00     0.037 A 
ATOM     49  C   UNL A   1      39.633  31.120  34.262  1.00  0.00     0.037 A 
ATOM     50  C   UNL A   1      42.927  27.208  30.179  1.00  0.00     0.049 A 
ATOM     51  C   UNL A   1      40.957  30.412  34.352  1.00  0.00     0.074 A 
ATOM     52  C   UNL A   1      44.189  26.670  30.356  1.00  0.00     0.029 A 
ATOM     53  N   UNL A   1      42.636  27.938  31.322  1.00  0.00    -0.354 N 
ATOM     54  N   UNL A   1      41.552  29.657  33.461  1.00  0.00    -0.248 NA
ATOM     55  C   UNL A   1      41.715  30.578  35.600  1.00  0.00     0.031 C 
ATOM     56  C   UNL A   1      44.642  27.034  31.627  1.00  0.00     0.029 A 
ATOM     57  C   UNL A   1      43.686  27.845  32.220  1.00  0.00     0.049 A 
ATOM     58  H   UNL A   1      41.806  28.446  31.473  1.00  0.00     0.167 HD
ATOM     59  C   UNL A   1      42.761  29.276  34.028  1.00  0.00     0.074 A 
ATOM     60  C   UNL A   1      42.822  29.898  35.333  1.00  0.00     0.031 C 
ATOM     61  C   UNL A   1      43.731  28.481  33.512  1.00  0.00     0.037 A 
BRANCH  48  62
ATOM     62  C   UNL A   1      42.497  26.228  27.894  1.00  0.00     0.064 A 
ATOM     63  C   UNL A   1      42.050  24.908  27.735  1.00  0.00     0.173 A 
ATOM     64  C   UNL A   1      43.335  26.761  26.902  1.00  0.00     0.173 A 
ATOM     65  F   UNL A   1      41.259  24.346  28.660  1.00  0.00    -0.203 F 
ATOM     66  C   UNL A   1      42.441  24.145  26.638  1.00  0.00     0.198 A 
ATOM     67  C   UNL A   1      43.699  26.006  25.790  1.00  0.00     0.198 A 
ATOM     68  F   UNL A   1      43.790  28.019  27.005  1.00  0.00    -0.203 F 
ATOM     69  F   UNL A   1      42.035  22.873  26.529  1.00  0.00    -0.200 F 
ATOM     70  C   UNL A   1      43.256  24.699  25.661  1.00  0.00     0.200 A 
ATOM     71  F   UNL A   1      44.475  26.546  24.841  1.00  0.00    -0.200 F 
ATOM     72  F   UNL A   1      43.617  23.970  24.597  1.00  0.00    -0.200 F 
ENDBRANCH  48  62
BRANCH  49  73
ATOM     73  C   UNL A   1      39.149  31.995  35.362  1.00  0.00     0.064 A 
ATOM     74  C   UNL A   1      38.407  31.463  36.426  1.00  0.00     0.173 A 
ATOM     75  C   UNL A   1      39.439  33.367  35.393  1.00  0.00     0.173 A 
ATOM     76  F   UNL A   1      38.090  30.160  36.434  1.00  0.00    -0.203 F 
ATOM     77  C   UNL A   1      37.963  32.271  37.471  1.00  0.00     0.198 A 
ATOM     78  C   UNL A   1      39.019  34.169  36.453  1.00  0.00     0.198 A 
ATOM     79  F   UNL A   1      40.152  33.925  34.404  1.00  0.00    -0.203 F 
ATOM     80  F   UNL A   1      37.226  31.741  38.457  1.00  0.00    -0.200 F 
ATOM     81  C   UNL A   1      38.277  33.621  37.489  1.00  0.00     0.200 A 
ATOM     82  F   UNL A   1      39.339  35.470  36.475  1.00  0.00    -0.200 F 
ATOM     83  F   UNL A   1      37.862  34.395  38.501  1.00  0.00    -0.200 F 
ENDBRANCH  49  73
BRANCH  61  84
ATOM     84  C   UNL A   1      44.955  28.248  34.346  1.00  0.00     0.064 A 
ATOM     85  C   UNL A   1      46.041  29.135  34.314  1.00  0.00     0.173 A 
ATOM     86  C   UNL A   1      45.002  27.183  35.258  1.00  0.00     0.173 A 
ATOM     87  F   UNL A   1      46.048  30.163  33.450  1.00  0.00    -0.203 F 
ATOM     88  C   UNL A   1      47.134  28.957  35.157  1.00  0.00     0.198 A 
ATOM     89  C   UNL A   1      46.082  27.027  36.122  1.00  0.00     0.198 A 
ATOM     90  F   UNL A   1      43.983  26.314  35.335  1.00  0.00    -0.203 F 
ATOM     91  F   UNL A   1      48.175  29.799  35.088  1.00  0.00    -0.200 F 
ATOM     92  C   UNL A   1      47.148  27.911  36.068  1.00  0.00     0.200 A 
ATOM     93  F   UNL A   1      46.084  26.027  37.015  1.00  0.00    -0.200 F 
ATOM     94  F   UNL A   1      48.190  27.755  36.896  1.00  0.00    -0.200 F 
ENDBRANCH  61  84
ENDBRANCH  35  36
ENDBRANCH  27  30
ENDBRANCH  25  26
ENDBRANCH   1  25
TORSDOF 11
ENDMDL
