MODEL 1
REMARK VINA RESULT:     -12.0      0.000      0.000
REMARK SMILES CN(c1ccc(C(=O)NCCCNC(=O)c2ccc(-c3c4nc(c(-c5c(F)c(F)c(F)c(F)c5F)c5ccc([nH]5)c(-c5c(F)c(F)c(F)c(F)c5F)c5nc(c(-c6c(F)c(F)c(F)c(F)c6F)c6ccc3[nH]6)C=C5)C=C4)cc2)cc1)S(C)(=O)=O
REMARK SMILES IDX 11 1 10 2 9 3 7 4 8 5 6 7 3 8 4 9 80 10 5 11 79 12 2 13 1 14
REMARK SMILES IDX 81 15 82 16 83 17 84 18 12 19 13 20 14 21 15 23 16 24 17 25
REMARK SMILES IDX 78 26 18 27 77 28 19 29 20 30 21 31 71 32 22 33 76 34 70 35
REMARK SMILES IDX 72 36 23 37 75 38 69 39 68 40 24 42 56 43 36 44 55 45 37 46
REMARK SMILES IDX 40 47 54 48 73 49 38 50 39 51 53 53 74 54 41 55 25 56 26 57
REMARK SMILES IDX 34 58 27 59 28 60 32 61 35 62 29 63 30 64 33 65 31 66 57 67
REMARK SMILES IDX 58 68 66 69 59 70 60 71 64 72 67 73 61 74 62 75 65 76 63 77
REMARK SMILES IDX 42 78 43 79 51 80 44 81 45 82 49 83 52 84 46 85 47 86 50 87
REMARK SMILES IDX 48 88
REMARK H PARENT 9 6 13 22 72 41 40 52
REMARK Flexibility Score: inf
ROOT
ATOM      1  C   UNL A   1      31.471  32.264  26.838  1.00  0.00     0.042 C 
ENDROOT
BRANCH   1   2
ATOM      2  C   UNL A   1      31.682  30.759  26.681  1.00  0.00     0.118 C 
BRANCH   2   3
ATOM      3  N   UNL A   1      32.991  30.374  27.173  1.00  0.00    -0.352 N 
ATOM      4  C   UNL A   1      33.659  29.179  27.176  1.00  0.00     0.251 C 
ATOM      5  O   UNL A   1      34.796  29.169  27.649  1.00  0.00    -0.269 OA
ATOM      6  H   UNL A   1      33.495  31.114  27.582  1.00  0.00     0.163 HD
BRANCH   4   7
ATOM      7  C   UNL A   1      33.104  27.928  26.587  1.00  0.00     0.039 A 
ATOM      8  C   UNL A   1      31.896  25.569  25.628  1.00  0.00     0.051 A 
ATOM      9  C   UNL A   1      31.184  26.442  26.451  1.00  0.00     0.028 A 
ATOM     10  C   UNL A   1      33.198  25.899  25.248  1.00  0.00     0.028 A 
ATOM     11  C   UNL A   1      31.782  27.612  26.924  1.00  0.00     0.016 A 
ATOM     12  C   UNL A   1      33.790  27.084  25.708  1.00  0.00     0.016 A 
BRANCH   8  13
ATOM     13  N   UNL A   1      31.292  24.343  25.210  1.00  0.00    -0.274 N 
ATOM     14  C   UNL A   1      30.650  24.264  23.892  1.00  0.00     0.163 C 
BRANCH  13  15
ATOM     15  S   UNL A   1      30.971  23.131  26.347  1.00  0.00     0.231 S 
ATOM     16  C   UNL A   1      32.497  23.082  27.263  1.00  0.00     0.183 C 
ATOM     17  O   UNL A   1      29.953  23.633  27.250  1.00  0.00    -0.207 OA
ATOM     18  O   UNL A   1      30.815  21.853  25.689  1.00  0.00    -0.207 OA
ENDBRANCH  13  15
ENDBRANCH   8  13
ENDBRANCH   4   7
ENDBRANCH   2   3
ENDBRANCH   1   2
BRANCH   1  19
ATOM     19  C   UNL A   1      32.772  33.028  27.076  1.00  0.00     0.118 C 
BRANCH  19  20
ATOM     20  N   UNL A   1      32.528  34.355  27.624  1.00  0.00    -0.352 N 
ATOM     21  C   UNL A   1      33.035  34.954  28.748  1.00  0.00     0.251 C 
ATOM     22  H   UNL A   1      31.901  34.908  27.106  1.00  0.00     0.163 HD
ATOM     23  O   UNL A   1      32.510  35.975  29.180  1.00  0.00    -0.269 OA
BRANCH  21  24
ATOM     24  C   UNL A   1      34.203  34.377  29.445  1.00  0.00     0.039 A 
ATOM     25  C   UNL A   1      34.001  33.697  30.648  1.00  0.00     0.014 A 
ATOM     26  C   UNL A   1      35.497  34.546  28.944  1.00  0.00     0.014 A 
ATOM     27  C   UNL A   1      35.089  33.142  31.323  1.00  0.00     0.010 A 
ATOM     28  C   UNL A   1      36.571  33.922  29.573  1.00  0.00     0.010 A 
ATOM     29  C   UNL A   1      36.380  33.221  30.773  1.00  0.00    -0.014 A 
BRANCH  29  30
ATOM     30  C   UNL A   1      37.536  32.574  31.439  1.00  0.00     0.031 A 
ATOM     31  C   UNL A   1      38.238  31.416  30.789  1.00  0.00     0.074 A 
ATOM     32  C   UNL A   1      37.906  32.985  32.667  1.00  0.00     0.049 A 
ATOM     33  N   UNL A   1      39.223  30.684  31.243  1.00  0.00    -0.248 NA
ATOM     34  C   UNL A   1      37.745  31.005  29.465  1.00  0.00     0.031 C 
ATOM     35  C   UNL A   1      37.262  34.060  33.423  1.00  0.00     0.029 A 
ATOM     36  N   UNL A   1      38.899  32.539  33.501  1.00  0.00    -0.354 N 
ATOM     37  C   UNL A   1      39.454  29.717  30.273  1.00  0.00     0.074 A 
ATOM     38  C   UNL A   1      38.470  29.922  29.232  1.00  0.00     0.031 C 
ATOM     39  C   UNL A   1      37.885  34.200  34.603  1.00  0.00     0.029 A 
ATOM     40  C   UNL A   1      38.942  33.199  34.704  1.00  0.00     0.049 A 
ATOM     41  H   UNL A   1      39.521  31.815  33.260  1.00  0.00     0.167 HD
ATOM     42  C   UNL A   1      40.411  28.758  30.246  1.00  0.00     0.037 A 
ATOM     43  C   UNL A   1      39.732  33.007  35.778  1.00  0.00     0.037 A 
ATOM     44  C   UNL A   1      41.394  28.573  31.282  1.00  0.00     0.049 A 
ATOM     45  C   UNL A   1      40.790  31.941  35.725  1.00  0.00     0.074 A 
ATOM     46  C   UNL A   1      42.458  27.690  31.315  1.00  0.00     0.029 A 
ATOM     47  N   UNL A   1      41.423  29.278  32.478  1.00  0.00    -0.354 N 
ATOM     48  N   UNL A   1      41.061  31.091  34.764  1.00  0.00    -0.248 NA
ATOM     49  C   UNL A   1      41.660  31.813  36.902  1.00  0.00     0.031 C 
ATOM     50  C   UNL A   1      43.085  27.807  32.559  1.00  0.00     0.029 A 
ATOM     51  C   UNL A   1      42.461  28.817  33.274  1.00  0.00     0.049 A 
ATOM     52  H   UNL A   1      40.798  29.997  32.726  1.00  0.00     0.167 HD
ATOM     53  C   UNL A   1      42.142  30.342  35.208  1.00  0.00     0.074 A 
ATOM     54  C   UNL A   1      42.488  30.851  36.519  1.00  0.00     0.031 C 
ATOM     55  C   UNL A   1      42.789  29.326  34.583  1.00  0.00     0.037 A 
BRANCH  42  56
ATOM     56  C   UNL A   1      40.422  27.820  29.070  1.00  0.00     0.064 A 
ATOM     57  C   UNL A   1      41.182  28.079  27.918  1.00  0.00     0.173 A 
ATOM     58  C   UNL A   1      39.666  26.638  29.099  1.00  0.00     0.173 A 
ATOM     59  F   UNL A   1      41.918  29.197  27.831  1.00  0.00    -0.203 F 
ATOM     60  C   UNL A   1      41.146  27.217  26.824  1.00  0.00     0.198 A 
ATOM     61  C   UNL A   1      39.663  25.758  28.019  1.00  0.00     0.198 A 
ATOM     62  F   UNL A   1      38.926  26.333  30.176  1.00  0.00    -0.203 F 
ATOM     63  F   UNL A   1      41.825  27.522  25.709  1.00  0.00    -0.200 F 
ATOM     64  C   UNL A   1      40.392  26.055  26.878  1.00  0.00     0.200 A 
ATOM     65  F   UNL A   1      38.946  24.628  28.080  1.00  0.00    -0.200 F 
ATOM     66  F   UNL A   1      40.358  25.226  25.825  1.00  0.00    -0.200 F 
ENDBRANCH  42  56
BRANCH  43  67
ATOM     67  C   UNL A   1      39.549  33.860  36.980  1.00  0.00     0.064 A 
ATOM     68  C   UNL A   1      38.752  33.442  38.053  1.00  0.00     0.173 A 
ATOM     69  C   UNL A   1      40.204  35.097  37.096  1.00  0.00     0.173 A 
ATOM     70  F   UNL A   1      38.094  32.275  37.982  1.00  0.00    -0.203 F 
ATOM     71  C   UNL A   1      38.607  34.230  39.192  1.00  0.00     0.198 A 
ATOM     72  C   UNL A   1      40.083  35.870  38.249  1.00  0.00     0.198 A 
ATOM     73  F   UNL A   1      40.988  35.538  36.102  1.00  0.00    -0.203 F 
ATOM     74  F   UNL A   1      37.813  33.821  40.191  1.00  0.00    -0.200 F 
ATOM     75  C   UNL A   1      39.280  35.438  39.294  1.00  0.00     0.200 A 
ATOM     76  F   UNL A   1      40.754  37.026  38.352  1.00  0.00    -0.200 F 
ATOM     77  F   UNL A   1      39.156  36.187  40.398  1.00  0.00    -0.200 F 
ENDBRANCH  43  67
BRANCH  55  78
ATOM     78  C   UNL A   1      43.958  28.711  35.301  1.00  0.00     0.064 A 
ATOM     79  C   UNL A   1      43.797  27.642  36.195  1.00  0.00     0.173 A 
ATOM     80  C   UNL A   1      45.262  29.169  35.055  1.00  0.00     0.173 A 
ATOM     81  F   UNL A   1      42.571  27.176  36.478  1.00  0.00    -0.203 F 
ATOM     82  C   UNL A   1      44.895  27.074  36.839  1.00  0.00     0.198 A 
ATOM     83  C   UNL A   1      46.359  28.575  35.672  1.00  0.00     0.198 A 
ATOM     84  F   UNL A   1      45.474  30.183  34.203  1.00  0.00    -0.203 F 
ATOM     85  F   UNL A   1      44.712  26.091  37.730  1.00  0.00    -0.200 F 
ATOM     86  C   UNL A   1      46.175  27.535  36.569  1.00  0.00     0.200 A 
ATOM     87  F   UNL A   1      47.598  29.011  35.396  1.00  0.00    -0.200 F 
ATOM     88  F   UNL A   1      47.231  26.981  37.180  1.00  0.00    -0.200 F 
ENDBRANCH  55  78
ENDBRANCH  29  30
ENDBRANCH  21  24
ENDBRANCH  19  20
ENDBRANCH   1  19
TORSDOF 12
ENDMDL
MODEL 2
REMARK VINA RESULT:     -12.0      5.948     11.327
REMARK SMILES CN(c1ccc(C(=O)NCCCNC(=O)c2ccc(-c3c4nc(c(-c5c(F)c(F)c(F)c(F)c5F)c5ccc([nH]5)c(-c5c(F)c(F)c(F)c(F)c5F)c5nc(c(-c6c(F)c(F)c(F)c(F)c6F)c6ccc3[nH]6)C=C5)C=C4)cc2)cc1)S(C)(=O)=O
REMARK SMILES IDX 11 1 10 2 9 3 7 4 8 5 6 7 3 8 4 9 80 10 5 11 79 12 2 13 1 14
REMARK SMILES IDX 81 15 82 16 83 17 84 18 12 19 13 20 14 21 15 23 16 24 17 25
REMARK SMILES IDX 78 26 18 27 77 28 19 29 20 30 21 31 71 32 22 33 76 34 70 35
REMARK SMILES IDX 72 36 23 37 75 38 69 39 68 40 24 42 56 43 36 44 55 45 37 46
REMARK SMILES IDX 40 47 54 48 73 49 38 50 39 51 53 53 74 54 41 55 25 56 26 57
REMARK SMILES IDX 34 58 27 59 28 60 32 61 35 62 29 63 30 64 33 65 31 66 57 67
REMARK SMILES IDX 58 68 66 69 59 70 60 71 64 72 67 73 61 74 62 75 65 76 63 77
REMARK SMILES IDX 42 78 43 79 51 80 44 81 45 82 49 83 52 84 46 85 47 86 50 87
REMARK SMILES IDX 48 88
REMARK H PARENT 9 6 13 22 72 41 40 52
REMARK Flexibility Score: inf
ROOT
ATOM      1  C   UNL A   1      38.311  19.623  24.968  1.00  0.00     0.042 C 
ENDROOT
BRANCH   1   2
ATOM      2  C   UNL A   1      37.401  20.804  24.634  1.00  0.00     0.118 C 
BRANCH   2   3
ATOM      3  N   UNL A   1      37.937  22.033  25.186  1.00  0.00    -0.352 N 
ATOM      4  C   UNL A   1      37.350  23.218  25.540  1.00  0.00     0.251 C 
ATOM      5  O   UNL A   1      38.077  24.088  26.020  1.00  0.00    -0.269 OA
ATOM      6  H   UNL A   1      38.910  22.011  25.334  1.00  0.00     0.163 HD
BRANCH   4   7
ATOM      7  C   UNL A   1      35.886  23.472  25.430  1.00  0.00     0.039 A 
ATOM      8  C   UNL A   1      33.159  24.062  25.031  1.00  0.00     0.051 A 
ATOM      9  C   UNL A   1      34.059  24.140  23.969  1.00  0.00     0.028 A 
ATOM     10  C   UNL A   1      33.614  23.645  26.283  1.00  0.00     0.028 A 
ATOM     11  C   UNL A   1      35.411  23.845  24.165  1.00  0.00     0.016 A 
ATOM     12  C   UNL A   1      34.968  23.332  26.474  1.00  0.00     0.016 A 
BRANCH   8  13
ATOM     13  N   UNL A   1      31.794  24.434  24.828  1.00  0.00    -0.274 N 
ATOM     14  C   UNL A   1      30.997  23.736  23.811  1.00  0.00     0.163 C 
BRANCH  13  15
ATOM     15  S   UNL A   1      31.217  25.896  25.454  1.00  0.00     0.231 S 
ATOM     16  C   UNL A   1      29.940  26.310  24.285  1.00  0.00     0.183 C 
ATOM     17  O   UNL A   1      30.557  25.606  26.713  1.00  0.00    -0.207 OA
ATOM     18  O   UNL A   1      32.236  26.918  25.368  1.00  0.00    -0.207 OA
ENDBRANCH  13  15
ENDBRANCH   8  13
ENDBRANCH   4   7
ENDBRANCH   2   3
ENDBRANCH   1   2
BRANCH   1  19
ATOM     19  C   UNL A   1      39.318  19.939  26.072  1.00  0.00     0.118 C 
BRANCH  19  20
ATOM     20  N   UNL A   1      40.445  19.017  26.056  1.00  0.00    -0.352 N 
ATOM     21  C   UNL A   1      41.792  19.269  26.052  1.00  0.00     0.251 C 
ATOM     22  H   UNL A   1      40.201  18.064  26.047  1.00  0.00     0.163 HD
ATOM     23  O   UNL A   1      42.577  18.367  25.775  1.00  0.00    -0.269 OA
BRANCH  21  24
ATOM     24  C   UNL A   1      42.306  20.617  26.372  1.00  0.00     0.039 A 
ATOM     25  C   UNL A   1      42.689  21.457  25.323  1.00  0.00     0.014 A 
ATOM     26  C   UNL A   1      42.456  21.036  27.696  1.00  0.00     0.014 A 
ATOM     27  C   UNL A   1      43.175  22.736  25.602  1.00  0.00     0.010 A 
ATOM     28  C   UNL A   1      42.862  22.339  27.970  1.00  0.00     0.010 A 
ATOM     29  C   UNL A   1      43.234  23.199  26.926  1.00  0.00    -0.014 A 
BRANCH  29  30
ATOM     30  C   UNL A   1      43.679  24.581  27.235  1.00  0.00     0.031 A 
ATOM     31  C   UNL A   1      42.689  25.612  27.697  1.00  0.00     0.074 A 
ATOM     32  C   UNL A   1      44.964  24.923  27.026  1.00  0.00     0.049 A 
ATOM     33  N   UNL A   1      42.876  26.882  27.953  1.00  0.00    -0.248 NA
ATOM     34  C   UNL A   1      41.297  25.165  27.861  1.00  0.00     0.031 C 
ATOM     35  C   UNL A   1      46.002  24.023  26.523  1.00  0.00     0.029 A 
ATOM     36  N   UNL A   1      45.611  26.120  27.193  1.00  0.00    -0.354 N 
ATOM     37  C   UNL A   1      41.626  27.388  28.288  1.00  0.00     0.074 A 
ATOM     38  C   UNL A   1      40.681  26.301  28.149  1.00  0.00     0.031 C 
ATOM     39  C   UNL A   1      47.161  24.694  26.437  1.00  0.00     0.029 A 
ATOM     40  C   UNL A   1      46.937  26.080  26.836  1.00  0.00     0.049 A 
ATOM     41  H   UNL A   1      45.170  26.929  27.537  1.00  0.00     0.167 HD
ATOM     42  C   UNL A   1      41.302  28.639  28.692  1.00  0.00     0.037 A 
ATOM     43  C   UNL A   1      47.865  27.056  26.813  1.00  0.00     0.037 A 
ATOM     44  C   UNL A   1      42.254  29.709  28.841  1.00  0.00     0.049 A 
ATOM     45  C   UNL A   1      47.485  28.437  27.270  1.00  0.00     0.074 A 
ATOM     46  C   UNL A   1      42.047  30.989  29.324  1.00  0.00     0.029 A 
ATOM     47  N   UNL A   1      43.596  29.627  28.493  1.00  0.00    -0.354 N 
ATOM     48  N   UNL A   1      46.320  28.883  27.674  1.00  0.00    -0.248 NA
ATOM     49  C   UNL A   1      48.550  29.448  27.278  1.00  0.00     0.031 C 
ATOM     50  C   UNL A   1      43.243  31.703  29.199  1.00  0.00     0.029 A 
ATOM     51  C   UNL A   1      44.218  30.847  28.710  1.00  0.00     0.049 A 
ATOM     52  H   UNL A   1      44.040  28.822  28.142  1.00  0.00     0.167 HD
ATOM     53  C   UNL A   1      46.513  30.217  28.004  1.00  0.00     0.074 A 
ATOM     54  C   UNL A   1      47.914  30.503  27.768  1.00  0.00     0.031 C 
ATOM     55  C   UNL A   1      45.612  31.122  28.462  1.00  0.00     0.037 A 
BRANCH  42  56
ATOM     56  C   UNL A   1      39.851  28.923  28.977  1.00  0.00     0.064 A 
ATOM     57  C   UNL A   1      39.303  28.780  30.261  1.00  0.00     0.173 A 
ATOM     58  C   UNL A   1      39.000  29.355  27.949  1.00  0.00     0.173 A 
ATOM     59  F   UNL A   1      40.068  28.363  31.281  1.00  0.00    -0.203 F 
ATOM     60  C   UNL A   1      37.948  29.009  30.494  1.00  0.00     0.198 A 
ATOM     61  C   UNL A   1      37.654  29.622  28.194  1.00  0.00     0.198 A 
ATOM     62  F   UNL A   1      39.469  29.519  26.703  1.00  0.00    -0.203 F 
ATOM     63  F   UNL A   1      37.434  28.797  31.714  1.00  0.00    -0.200 F 
ATOM     64  C   UNL A   1      37.127  29.436  29.462  1.00  0.00     0.200 A 
ATOM     65  F   UNL A   1      36.866  30.050  27.198  1.00  0.00    -0.200 F 
ATOM     66  F   UNL A   1      35.825  29.657  29.687  1.00  0.00    -0.200 F 
ENDBRANCH  42  56
BRANCH  43  67
ATOM     67  C   UNL A   1      49.242  26.743  26.352  1.00  0.00     0.064 A 
ATOM     68  C   UNL A   1      49.634  26.975  25.027  1.00  0.00     0.173 A 
ATOM     69  C   UNL A   1      50.206  26.243  27.241  1.00  0.00     0.173 A 
ATOM     70  F   UNL A   1      48.744  27.438  24.137  1.00  0.00    -0.203 F 
ATOM     71  C   UNL A   1      50.935  26.709  24.605  1.00  0.00     0.198 A 
ATOM     72  C   UNL A   1      51.515  26.007  26.825  1.00  0.00     0.198 A 
ATOM     73  F   UNL A   1      49.885  26.015  28.523  1.00  0.00    -0.203 F 
ATOM     74  F   UNL A   1      51.275  26.910  23.325  1.00  0.00    -0.200 F 
ATOM     75  C   UNL A   1      51.877  26.236  25.506  1.00  0.00     0.200 A 
ATOM     76  F   UNL A   1      52.427  25.571  27.705  1.00  0.00    -0.200 F 
ATOM     77  F   UNL A   1      53.133  25.999  25.104  1.00  0.00    -0.200 F 
ENDBRANCH  43  67
BRANCH  55  78
ATOM     78  C   UNL A   1      46.117  32.505  28.764  1.00  0.00     0.064 A 
ATOM     79  C   UNL A   1      46.086  33.529  27.806  1.00  0.00     0.173 A 
ATOM     80  C   UNL A   1      46.597  32.820  30.045  1.00  0.00     0.173 A 
ATOM     81  F   UNL A   1      45.651  33.278  26.562  1.00  0.00    -0.203 F 
ATOM     82  C   UNL A   1      46.544  34.809  28.110  1.00  0.00     0.198 A 
ATOM     83  C   UNL A   1      47.020  34.109  30.356  1.00  0.00     0.198 A 
ATOM     84  F   UNL A   1      46.642  31.880  31.001  1.00  0.00    -0.203 F 
ATOM     85  F   UNL A   1      46.556  35.757  27.164  1.00  0.00    -0.200 F 
ATOM     86  C   UNL A   1      47.002  35.100  29.387  1.00  0.00     0.200 A 
ATOM     87  F   UNL A   1      47.446  34.391  31.596  1.00  0.00    -0.200 F 
ATOM     88  F   UNL A   1      47.433  36.334  29.682  1.00  0.00    -0.200 F 
ENDBRANCH  55  78
ENDBRANCH  29  30
ENDBRANCH  21  24
ENDBRANCH  19  20
ENDBRANCH   1  19
TORSDOF 12
ENDMDL
MODEL 3
REMARK VINA RESULT:     -12.0      1.626      2.115
REMARK SMILES CN(c1ccc(C(=O)NCCCNC(=O)c2ccc(-c3c4nc(c(-c5c(F)c(F)c(F)c(F)c5F)c5ccc([nH]5)c(-c5c(F)c(F)c(F)c(F)c5F)c5nc(c(-c6c(F)c(F)c(F)c(F)c6F)c6ccc3[nH]6)C=C5)C=C4)cc2)cc1)S(C)(=O)=O
REMARK SMILES IDX 11 1 10 2 9 3 7 4 8 5 6 7 3 8 4 9 80 10 5 11 79 12 2 13 1 14
REMARK SMILES IDX 81 15 82 16 83 17 84 18 12 19 13 20 14 21 15 23 16 24 17 25
REMARK SMILES IDX 78 26 18 27 77 28 19 29 20 30 21 31 71 32 22 33 76 34 70 35
REMARK SMILES IDX 72 36 23 37 75 38 69 39 68 40 24 42 56 43 36 44 55 45 37 46
REMARK SMILES IDX 40 47 54 48 73 49 38 50 39 51 53 53 74 54 41 55 25 56 26 57
REMARK SMILES IDX 34 58 27 59 28 60 32 61 35 62 29 63 30 64 33 65 31 66 57 67
REMARK SMILES IDX 58 68 66 69 59 70 60 71 64 72 67 73 61 74 62 75 65 76 63 77
REMARK SMILES IDX 42 78 43 79 51 80 44 81 45 82 49 83 52 84 46 85 47 86 50 87
REMARK SMILES IDX 48 88
REMARK H PARENT 9 6 13 22 72 41 40 52
REMARK Flexibility Score: inf
ROOT
ATOM      1  C   UNL A   1      31.250  32.309  26.501  1.00  0.00     0.042 C 
ENDROOT
BRANCH   1   2
ATOM      2  C   UNL A   1      31.423  30.908  25.918  1.00  0.00     0.118 C 
BRANCH   2   3
ATOM      3  N   UNL A   1      30.558  30.722  24.769  1.00  0.00    -0.352 N 
ATOM      4  C   UNL A   1      30.477  29.734  23.826  1.00  0.00     0.251 C 
ATOM      5  O   UNL A   1      29.600  29.840  22.969  1.00  0.00    -0.269 OA
ATOM      6  H   UNL A   1      29.902  31.446  24.645  1.00  0.00     0.163 HD
BRANCH   4   7
ATOM      7  C   UNL A   1      31.349  28.526  23.828  1.00  0.00     0.039 A 
ATOM      8  C   UNL A   1      32.840  26.137  23.949  1.00  0.00     0.051 A 
ATOM      9  C   UNL A   1      31.465  26.122  24.180  1.00  0.00     0.028 A 
ATOM     10  C   UNL A   1      33.463  27.340  23.612  1.00  0.00     0.028 A 
ATOM     11  C   UNL A   1      30.725  27.305  24.119  1.00  0.00     0.016 A 
ATOM     12  C   UNL A   1      32.715  28.524  23.532  1.00  0.00     0.016 A 
BRANCH   8  13
ATOM     13  N   UNL A   1      33.591  24.929  24.084  1.00  0.00    -0.274 N 
ATOM     14  C   UNL A   1      34.461  24.744  25.253  1.00  0.00     0.163 C 
BRANCH  13  15
ATOM     15  S   UNL A   1      33.789  23.906  22.751  1.00  0.00     0.231 S 
ATOM     16  C   UNL A   1      32.636  22.601  23.124  1.00  0.00     0.183 C 
ATOM     17  O   UNL A   1      33.278  24.599  21.585  1.00  0.00    -0.207 OA
ATOM     18  O   UNL A   1      35.116  23.330  22.751  1.00  0.00    -0.207 OA
ENDBRANCH  13  15
ENDBRANCH   8  13
ENDBRANCH   4   7
ENDBRANCH   2   3
ENDBRANCH   1   2
BRANCH   1  19
ATOM     19  C   UNL A   1      32.486  32.800  27.251  1.00  0.00     0.118 C 
BRANCH  19  20
ATOM     20  N   UNL A   1      32.369  34.203  27.626  1.00  0.00    -0.352 N 
ATOM     21  C   UNL A   1      32.987  34.903  28.630  1.00  0.00     0.251 C 
ATOM     22  H   UNL A   1      31.750  34.730  27.073  1.00  0.00     0.163 HD
ATOM     23  O   UNL A   1      32.562  36.010  28.948  1.00  0.00    -0.269 OA
BRANCH  21  24
ATOM     24  C   UNL A   1      34.155  34.335  29.335  1.00  0.00     0.039 A 
ATOM     25  C   UNL A   1      33.944  33.617  30.515  1.00  0.00     0.014 A 
ATOM     26  C   UNL A   1      35.453  34.546  28.866  1.00  0.00     0.014 A 
ATOM     27  C   UNL A   1      35.032  33.069  31.197  1.00  0.00     0.010 A 
ATOM     28  C   UNL A   1      36.529  33.930  29.499  1.00  0.00     0.010 A 
ATOM     29  C   UNL A   1      36.330  33.193  30.676  1.00  0.00    -0.014 A 
BRANCH  29  30
ATOM     30  C   UNL A   1      37.489  32.555  31.348  1.00  0.00     0.031 A 
ATOM     31  C   UNL A   1      38.200  31.400  30.703  1.00  0.00     0.074 A 
ATOM     32  C   UNL A   1      37.851  32.970  32.576  1.00  0.00     0.049 A 
ATOM     33  N   UNL A   1      39.188  30.674  31.162  1.00  0.00    -0.248 NA
ATOM     34  C   UNL A   1      37.715  30.982  29.378  1.00  0.00     0.031 C 
ATOM     35  C   UNL A   1      37.197  34.042  33.327  1.00  0.00     0.029 A 
ATOM     36  N   UNL A   1      38.843  32.532  33.414  1.00  0.00    -0.354 N 
ATOM     37  C   UNL A   1      39.428  29.707  30.195  1.00  0.00     0.074 A 
ATOM     38  C   UNL A   1      38.447  29.903  29.150  1.00  0.00     0.031 C 
ATOM     39  C   UNL A   1      37.815  34.189  34.509  1.00  0.00     0.029 A 
ATOM     40  C   UNL A   1      38.877  33.195  34.617  1.00  0.00     0.049 A 
ATOM     41  H   UNL A   1      39.471  31.812  33.178  1.00  0.00     0.167 HD
ATOM     42  C   UNL A   1      40.391  28.754  30.174  1.00  0.00     0.037 A 
ATOM     43  C   UNL A   1      39.665  33.010  35.694  1.00  0.00     0.037 A 
ATOM     44  C   UNL A   1      41.372  28.578  31.214  1.00  0.00     0.049 A 
ATOM     45  C   UNL A   1      40.730  31.951  35.648  1.00  0.00     0.074 A 
ATOM     46  C   UNL A   1      42.441  27.701  31.253  1.00  0.00     0.029 A 
ATOM     47  N   UNL A   1      41.392  29.285  32.409  1.00  0.00    -0.354 N 
ATOM     48  N   UNL A   1      41.010  31.100  34.689  1.00  0.00    -0.248 NA
ATOM     49  C   UNL A   1      41.596  31.830  36.828  1.00  0.00     0.031 C 
ATOM     50  C   UNL A   1      43.063  27.825  32.500  1.00  0.00     0.029 A 
ATOM     51  C   UNL A   1      42.430  28.832  33.210  1.00  0.00     0.049 A 
ATOM     52  H   UNL A   1      40.762  30.000  32.653  1.00  0.00     0.167 HD
ATOM     53  C   UNL A   1      42.094  30.359  35.139  1.00  0.00     0.074 A 
ATOM     54  C   UNL A   1      42.431  30.873  36.451  1.00  0.00     0.031 C 
ATOM     55  C   UNL A   1      42.750  29.346  34.519  1.00  0.00     0.037 A 
BRANCH  42  56
ATOM     56  C   UNL A   1      40.413  27.813  28.999  1.00  0.00     0.064 A 
ATOM     57  C   UNL A   1      41.185  28.068  27.856  1.00  0.00     0.173 A 
ATOM     58  C   UNL A   1      39.654  26.633  29.023  1.00  0.00     0.173 A 
ATOM     59  F   UNL A   1      41.925  29.185  27.774  1.00  0.00    -0.203 F 
ATOM     60  C   UNL A   1      41.159  27.204  26.763  1.00  0.00     0.198 A 
ATOM     61  C   UNL A   1      39.660  25.751  27.945  1.00  0.00     0.198 A 
ATOM     62  F   UNL A   1      38.903  26.332  30.093  1.00  0.00    -0.203 F 
ATOM     63  F   UNL A   1      41.850  27.506  25.655  1.00  0.00    -0.200 F 
ATOM     64  C   UNL A   1      40.402  26.044  26.811  1.00  0.00     0.200 A 
ATOM     65  F   UNL A   1      38.941  24.622  28.001  1.00  0.00    -0.200 F 
ATOM     66  F   UNL A   1      40.377  25.213  25.760  1.00  0.00    -0.200 F 
ENDBRANCH  42  56
BRANCH  43  67
ATOM     67  C   UNL A   1      39.472  33.865  36.893  1.00  0.00     0.064 A 
ATOM     68  C   UNL A   1      38.701  33.429  37.979  1.00  0.00     0.173 A 
ATOM     69  C   UNL A   1      40.091  35.121  36.994  1.00  0.00     0.173 A 
ATOM     70  F   UNL A   1      38.077  32.244  37.923  1.00  0.00    -0.203 F 
ATOM     71  C   UNL A   1      38.547  34.220  39.115  1.00  0.00     0.198 A 
ATOM     72  C   UNL A   1      39.962  35.897  38.144  1.00  0.00     0.198 A 
ATOM     73  F   UNL A   1      40.850  35.579  35.988  1.00  0.00    -0.203 F 
ATOM     74  F   UNL A   1      37.778  33.793  40.126  1.00  0.00    -0.200 F 
ATOM     75  C   UNL A   1      39.185  35.448  39.202  1.00  0.00     0.200 A 
ATOM     76  F   UNL A   1      40.600  37.073  38.232  1.00  0.00    -0.200 F 
ATOM     77  F   UNL A   1      39.053  36.199  40.303  1.00  0.00    -0.200 F 
ENDBRANCH  43  67
BRANCH  55  78
ATOM     78  C   UNL A   1      43.919  28.739  35.242  1.00  0.00     0.064 A 
ATOM     79  C   UNL A   1      45.224  29.228  35.080  1.00  0.00     0.173 A 
ATOM     80  C   UNL A   1      43.723  27.681  36.144  1.00  0.00     0.173 A 
ATOM     81  F   UNL A   1      45.469  30.228  34.220  1.00  0.00    -0.203 F 
ATOM     82  C   UNL A   1      46.293  28.663  35.772  1.00  0.00     0.198 A 
ATOM     83  C   UNL A   1      44.789  27.143  36.861  1.00  0.00     0.198 A 
ATOM     84  F   UNL A   1      42.496  27.180  36.343  1.00  0.00    -0.203 F 
ATOM     85  F   UNL A   1      47.538  29.110  35.560  1.00  0.00    -0.200 F 
ATOM     86  C   UNL A   1      46.073  27.627  36.668  1.00  0.00     0.200 A 
ATOM     87  F   UNL A   1      44.570  26.153  37.739  1.00  0.00    -0.200 F 
ATOM     88  F   UNL A   1      47.100  27.091  37.341  1.00  0.00    -0.200 F 
ENDBRANCH  55  78
ENDBRANCH  29  30
ENDBRANCH  21  24
ENDBRANCH  19  20
ENDBRANCH   1  19
TORSDOF 12
ENDMDL
