MODEL 1
REMARK VINA RESULT:     -12.0      0.000      0.000
REMARK SMILES CSc1ncccc1C(=O)N1CSC[C@H]1C(=O)NCCCNC(=O)c1ccc(-c2c3nc(c(-c4c(F)c(F)c(F)c(F)c4F)c4ccc([nH]4)c(-c4c(F)c(F)c(F)c(F)c4F)c4nc(c(-c5c(F)c(F)c(F)c(F)c5F)c5ccc2[nH]5)C=C4)C=C3)cc1
REMARK SMILES IDX 19 1 18 2 16 3 17 4 15 6 11 7 12 8 13 9 14 10 9 11 10 12
REMARK SMILES IDX 8 13 3 14 4 15 5 16 7 17 6 18 2 19 1 20 20 21 21 22 22 23
REMARK SMILES IDX 23 24 24 26 25 27 26 28 87 29 27 30 86 31 28 32 29 33 30 34
REMARK SMILES IDX 80 35 31 36 85 37 79 38 81 39 32 40 84 41 78 42 77 43 33 45
REMARK SMILES IDX 65 46 45 47 64 48 46 49 49 50 63 51 82 52 47 53 48 54 62 56
REMARK SMILES IDX 83 57 50 58 34 59 35 60 43 61 36 62 37 63 41 64 44 65 38 66
REMARK SMILES IDX 39 67 42 68 40 69 66 70 67 71 75 72 68 73 69 74 73 75 76 76
REMARK SMILES IDX 70 77 71 78 74 79 72 80 51 81 52 82 60 83 53 84 54 85 58 86
REMARK SMILES IDX 61 87 55 88 56 89 59 90 57 91
REMARK H PARENT 18 5 22 25 81 44 49 55
REMARK Flexibility Score: inf
ROOT
ATOM      1  C   UNL A   1      32.500  28.132  22.898  1.00  0.00     0.117 C 
ENDROOT
BRANCH   1   2
ATOM      2  N   UNL A   1      32.909  27.290  21.798  1.00  0.00    -0.354 N 
ATOM      3  C   UNL A   1      32.725  25.961  21.571  1.00  0.00     0.243 C 
ATOM      4  O   UNL A   1      32.946  25.574  20.419  1.00  0.00    -0.273 OA
ATOM      5  H   UNL A   1      33.409  27.758  21.090  1.00  0.00     0.163 HD
BRANCH   3   6
ATOM      6  C   UNL A   1      32.133  24.995  22.621  1.00  0.00     0.185 C 
ATOM      7  N   UNL A   1      32.994  24.598  23.748  1.00  0.00    -0.316 N 
ATOM      8  C   UNL A   1      32.604  25.132  25.033  1.00  0.00     0.190 C 
ATOM      9  S   UNL A   1      30.817  25.353  24.953  1.00  0.00    -0.138 SA
ATOM     10  C   UNL A   1      30.774  25.472  23.137  1.00  0.00     0.106 C 
BRANCH   7  11
ATOM     11  C   UNL A   1      33.931  23.594  23.500  1.00  0.00     0.257 C 
ATOM     12  O   UNL A   1      34.878  23.794  22.743  1.00  0.00    -0.269 OA
BRANCH  11  13
ATOM     13  C   UNL A   1      33.695  22.207  23.985  1.00  0.00     0.072 A 
ATOM     14  C   UNL A   1      34.531  21.551  24.894  1.00  0.00     0.108 A 
ATOM     15  N   UNL A   1      34.349  20.242  25.231  1.00  0.00    -0.249 NA
ATOM     16  C   UNL A   1      33.359  19.553  24.630  1.00  0.00     0.112 A 
ATOM     17  C   UNL A   1      32.705  21.437  23.348  1.00  0.00     0.018 A 
ATOM     18  C   UNL A   1      32.516  20.103  23.688  1.00  0.00     0.021 A 
BRANCH  14  19
ATOM     19  S   UNL A   1      35.904  22.313  25.744  1.00  0.00    -0.109 SA
ATOM     20  C   UNL A   1      37.243  21.765  24.645  1.00  0.00     0.092 C 
ENDBRANCH  14  19
ENDBRANCH  11  13
ENDBRANCH   7  11
ENDBRANCH   3   6
ENDBRANCH   1   2
BRANCH   1  21
ATOM     21  C   UNL A   1      33.668  28.868  23.534  1.00  0.00     0.042 C 
BRANCH  21  22
ATOM     22  C   UNL A   1      33.605  28.895  25.055  1.00  0.00     0.118 C 
BRANCH  22  23
ATOM     23  N   UNL A   1      33.000  30.123  25.560  1.00  0.00    -0.352 N 
ATOM     24  C   UNL A   1      33.282  30.852  26.684  1.00  0.00     0.251 C 
ATOM     25  H   UNL A   1      32.271  30.485  25.005  1.00  0.00     0.163 HD
ATOM     26  O   UNL A   1      32.501  31.736  27.047  1.00  0.00    -0.269 OA
BRANCH  24  27
ATOM     27  C   UNL A   1      34.505  30.592  27.466  1.00  0.00     0.039 A 
ATOM     28  C   UNL A   1      35.441  31.617  27.626  1.00  0.00     0.014 A 
ATOM     29  C   UNL A   1      34.756  29.328  28.006  1.00  0.00     0.014 A 
ATOM     30  C   UNL A   1      36.602  31.389  28.368  1.00  0.00     0.010 A 
ATOM     31  C   UNL A   1      35.863  29.128  28.822  1.00  0.00     0.010 A 
ATOM     32  C   UNL A   1      36.808  30.150  28.994  1.00  0.00    -0.014 A 
BRANCH  32  33
ATOM     33  C   UNL A   1      38.023  29.882  29.801  1.00  0.00     0.031 A 
ATOM     34  C   UNL A   1      39.089  28.968  29.265  1.00  0.00     0.074 A 
ATOM     35  C   UNL A   1      38.134  30.409  31.035  1.00  0.00     0.049 A 
ATOM     36  N   UNL A   1      40.185  28.542  29.842  1.00  0.00    -0.248 NA
ATOM     37  C   UNL A   1      38.880  28.434  27.910  1.00  0.00     0.031 C 
ATOM     38  C   UNL A   1      37.145  31.275  31.677  1.00  0.00     0.029 A 
ATOM     39  N   UNL A   1      39.127  30.283  31.973  1.00  0.00    -0.354 N 
ATOM     40  C   UNL A   1      40.781  27.683  28.930  1.00  0.00     0.074 A 
ATOM     41  C   UNL A   1      39.897  27.595  27.788  1.00  0.00     0.031 C 
ATOM     42  C   UNL A   1      37.594  31.628  32.893  1.00  0.00     0.029 A 
ATOM     43  C   UNL A   1      38.880  30.980  33.130  1.00  0.00     0.049 A 
ATOM     44  H   UNL A   1      39.938  29.745  31.830  1.00  0.00     0.167 HD
ATOM     45  C   UNL A   1      41.974  27.046  29.021  1.00  0.00     0.037 A 
ATOM     46  C   UNL A   1      39.611  31.080  34.255  1.00  0.00     0.037 A 
ATOM     47  C   UNL A   1      42.858  27.154  30.152  1.00  0.00     0.049 A 
ATOM     48  C   UNL A   1      40.926  30.352  34.339  1.00  0.00     0.074 A 
ATOM     49  C   UNL A   1      44.106  26.586  30.331  1.00  0.00     0.029 A 
ATOM     50  N   UNL A   1      42.581  27.885  31.300  1.00  0.00    -0.354 N 
ATOM     51  N   UNL A   1      41.511  29.589  33.448  1.00  0.00    -0.248 NA
ATOM     52  C   UNL A   1      41.688  30.509  35.586  1.00  0.00     0.031 C 
ATOM     53  C   UNL A   1      44.567  26.936  31.604  1.00  0.00     0.029 A 
ATOM     54  C   UNL A   1      43.631  27.769  32.197  1.00  0.00     0.049 A 
ATOM     55  H   UNL A   1      41.761  28.408  31.453  1.00  0.00     0.167 HD
ATOM     56  C   UNL A   1      42.722  29.206  34.007  1.00  0.00     0.074 A 
ATOM     57  C   UNL A   1      42.793  29.830  35.312  1.00  0.00     0.031 C 
ATOM     58  C   UNL A   1      43.690  28.412  33.485  1.00  0.00     0.037 A 
BRANCH  45  59
ATOM     59  C   UNL A   1      42.385  26.179  27.865  1.00  0.00     0.064 A 
ATOM     60  C   UNL A   1      41.940  24.853  27.745  1.00  0.00     0.173 A 
ATOM     61  C   UNL A   1      43.222  26.681  26.858  1.00  0.00     0.173 A 
ATOM     62  F   UNL A   1      41.147  24.318  28.686  1.00  0.00    -0.203 F 
ATOM     63  C   UNL A   1      42.350  24.051  26.683  1.00  0.00     0.198 A 
ATOM     64  C   UNL A   1      43.603  25.887  25.779  1.00  0.00     0.198 A 
ATOM     65  F   UNL A   1      43.673  27.944  26.918  1.00  0.00    -0.203 F 
ATOM     66  F   UNL A   1      41.962  22.770  26.624  1.00  0.00    -0.200 F 
ATOM     67  C   UNL A   1      43.176  24.571  25.697  1.00  0.00     0.200 A 
ATOM     68  F   UNL A   1      44.389  26.395  24.820  1.00  0.00    -0.200 F 
ATOM     69  F   UNL A   1      43.568  23.799  24.674  1.00  0.00    -0.200 F 
ENDBRANCH  45  59
BRANCH  46  70
ATOM     70  C   UNL A   1      39.138  31.934  35.375  1.00  0.00     0.064 A 
ATOM     71  C   UNL A   1      38.392  31.383  36.427  1.00  0.00     0.173 A 
ATOM     72  C   UNL A   1      39.417  33.306  35.423  1.00  0.00     0.173 A 
ATOM     73  F   UNL A   1      38.083  30.078  36.418  1.00  0.00    -0.203 F 
ATOM     74  C   UNL A   1      37.924  32.178  37.472  1.00  0.00     0.198 A 
ATOM     75  C   UNL A   1      38.974  34.095  36.484  1.00  0.00     0.198 A 
ATOM     76  F   UNL A   1      40.134  33.880  34.445  1.00  0.00    -0.203 F 
ATOM     77  F   UNL A   1      37.175  31.634  38.441  1.00  0.00    -0.200 F 
ATOM     78  C   UNL A   1      38.221  33.531  37.503  1.00  0.00     0.200 A 
ATOM     79  F   UNL A   1      39.277  35.399  36.518  1.00  0.00    -0.200 F 
ATOM     80  F   UNL A   1      37.777  34.295  38.510  1.00  0.00    -0.200 F 
ENDBRANCH  46  70
BRANCH  58  81
ATOM     81  C   UNL A   1      44.934  28.220  34.304  1.00  0.00     0.064 A 
ATOM     82  C   UNL A   1      46.025  29.096  34.210  1.00  0.00     0.173 A 
ATOM     83  C   UNL A   1      45.018  27.163  35.222  1.00  0.00     0.173 A 
ATOM     84  F   UNL A   1      46.001  30.114  33.335  1.00  0.00    -0.203 F 
ATOM     85  C   UNL A   1      47.167  28.902  34.983  1.00  0.00     0.198 A 
ATOM     86  C   UNL A   1      46.146  26.991  36.018  1.00  0.00     0.198 A 
ATOM     87  F   UNL A   1      43.998  26.301  35.357  1.00  0.00    -0.203 F 
ATOM     88  F   UNL A   1      48.219  29.719  34.838  1.00  0.00    -0.200 F 
ATOM     89  C   UNL A   1      47.223  27.855  35.891  1.00  0.00     0.200 A 
ATOM     90  F   UNL A   1      46.192  25.988  36.906  1.00  0.00    -0.200 F 
ATOM     91  F   UNL A   1      48.320  27.674  36.640  1.00  0.00    -0.200 F 
ENDBRANCH  58  81
ENDBRANCH  32  33
ENDBRANCH  24  27
ENDBRANCH  22  23
ENDBRANCH  21  22
ENDBRANCH   1  21
TORSDOF 13
ENDMDL
MODEL 2
REMARK VINA RESULT:     -11.8      4.062      7.197
REMARK SMILES CSc1ncccc1C(=O)N1CSC[C@H]1C(=O)NCCCNC(=O)c1ccc(-c2c3nc(c(-c4c(F)c(F)c(F)c(F)c4F)c4ccc([nH]4)c(-c4c(F)c(F)c(F)c(F)c4F)c4nc(c(-c5c(F)c(F)c(F)c(F)c5F)c5ccc2[nH]5)C=C4)C=C3)cc1
REMARK SMILES IDX 19 1 18 2 16 3 17 4 15 6 11 7 12 8 13 9 14 10 9 11 10 12
REMARK SMILES IDX 8 13 3 14 4 15 5 16 7 17 6 18 2 19 1 20 20 21 21 22 22 23
REMARK SMILES IDX 23 24 24 26 25 27 26 28 87 29 27 30 86 31 28 32 29 33 30 34
REMARK SMILES IDX 80 35 31 36 85 37 79 38 81 39 32 40 84 41 78 42 77 43 33 45
REMARK SMILES IDX 65 46 45 47 64 48 46 49 49 50 63 51 82 52 47 53 48 54 62 56
REMARK SMILES IDX 83 57 50 58 34 59 35 60 43 61 36 62 37 63 41 64 44 65 38 66
REMARK SMILES IDX 39 67 42 68 40 69 66 70 67 71 75 72 68 73 69 74 73 75 76 76
REMARK SMILES IDX 70 77 71 78 74 79 72 80 51 81 52 82 60 83 53 84 54 85 58 86
REMARK SMILES IDX 61 87 55 88 56 89 59 90 57 91
REMARK H PARENT 18 5 22 25 81 44 49 55
REMARK Flexibility Score: inf
ROOT
ATOM      1  C   UNL A   1      34.620  22.963  26.086  1.00  0.00     0.117 C 
ENDROOT
BRANCH   1   2
ATOM      2  N   UNL A   1      33.473  23.348  26.878  1.00  0.00    -0.354 N 
ATOM      3  C   UNL A   1      32.205  23.680  26.514  1.00  0.00     0.243 C 
ATOM      4  O   UNL A   1      31.368  23.696  27.424  1.00  0.00    -0.273 OA
ATOM      5  H   UNL A   1      33.638  23.376  27.848  1.00  0.00     0.163 HD
BRANCH   3   6
ATOM      6  C   UNL A   1      31.768  23.880  25.046  1.00  0.00     0.185 C 
ATOM      7  N   UNL A   1      31.867  25.236  24.482  1.00  0.00    -0.316 N 
ATOM      8  C   UNL A   1      32.889  25.408  23.475  1.00  0.00     0.190 C 
ATOM      9  S   UNL A   1      33.074  23.799  22.683  1.00  0.00    -0.138 SA
ATOM     10  C   UNL A   1      32.428  22.869  24.108  1.00  0.00     0.106 C 
BRANCH   7  11
ATOM     11  C   UNL A   1      30.841  26.128  24.804  1.00  0.00     0.257 C 
ATOM     12  O   UNL A   1      29.701  25.946  24.386  1.00  0.00    -0.269 OA
BRANCH  11  13
ATOM     13  C   UNL A   1      31.149  27.414  25.488  1.00  0.00     0.072 A 
ATOM     14  C   UNL A   1      31.402  28.610  24.810  1.00  0.00     0.108 A 
ATOM     15  N   UNL A   1      31.792  29.743  25.462  1.00  0.00    -0.249 NA
ATOM     16  C   UNL A   1      31.982  29.688  26.795  1.00  0.00     0.112 A 
ATOM     17  C   UNL A   1      31.405  27.389  26.870  1.00  0.00     0.018 A 
ATOM     18  C   UNL A   1      31.803  28.541  27.539  1.00  0.00     0.021 A 
BRANCH  14  19
ATOM     19  S   UNL A   1      31.232  28.835  23.046  1.00  0.00    -0.109 SA
ATOM     20  C   UNL A   1      29.471  29.279  22.998  1.00  0.00     0.092 C 
ENDBRANCH  14  19
ENDBRANCH  11  13
ENDBRANCH   7  11
ENDBRANCH   3   6
ENDBRANCH   1   2
BRANCH   1  21
ATOM     21  C   UNL A   1      35.557  24.128  25.816  1.00  0.00     0.042 C 
BRANCH  21  22
ATOM     22  C   UNL A   1      36.746  23.753  24.942  1.00  0.00     0.118 C 
BRANCH  22  23
ATOM     23  N   UNL A   1      37.552  22.690  25.534  1.00  0.00    -0.352 N 
ATOM     24  C   UNL A   1      38.704  22.758  26.270  1.00  0.00     0.251 C 
ATOM     25  H   UNL A   1      37.214  21.778  25.378  1.00  0.00     0.163 HD
ATOM     26  O   UNL A   1      39.350  21.729  26.484  1.00  0.00    -0.269 OA
BRANCH  24  27
ATOM     27  C   UNL A   1      39.183  24.045  26.808  1.00  0.00     0.039 A 
ATOM     28  C   UNL A   1      39.962  24.874  25.996  1.00  0.00     0.014 A 
ATOM     29  C   UNL A   1      38.905  24.420  28.125  1.00  0.00     0.014 A 
ATOM     30  C   UNL A   1      40.419  26.098  26.488  1.00  0.00     0.010 A 
ATOM     31  C   UNL A   1      39.279  25.678  28.583  1.00  0.00     0.010 A 
ATOM     32  C   UNL A   1      40.058  26.521  27.777  1.00  0.00    -0.014 A 
BRANCH  32  33
ATOM     33  C   UNL A   1      40.515  27.822  28.322  1.00  0.00     0.031 A 
ATOM     34  C   UNL A   1      41.972  28.036  28.624  1.00  0.00     0.074 A 
ATOM     35  C   UNL A   1      39.614  28.781  28.603  1.00  0.00     0.049 A 
ATOM     36  N   UNL A   1      42.564  29.065  29.176  1.00  0.00    -0.248 NA
ATOM     37  C   UNL A   1      42.884  26.929  28.289  1.00  0.00     0.031 C 
ATOM     38  C   UNL A   1      38.169  28.673  28.393  1.00  0.00     0.029 A 
ATOM     39  N   UNL A   1      39.780  30.034  29.135  1.00  0.00    -0.354 N 
ATOM     40  C   UNL A   1      43.906  28.723  29.269  1.00  0.00     0.074 A 
ATOM     41  C   UNL A   1      44.034  27.368  28.777  1.00  0.00     0.031 C 
ATOM     42  C   UNL A   1      37.584  29.824  28.764  1.00  0.00     0.029 A 
ATOM     43  C   UNL A   1      38.605  30.732  29.276  1.00  0.00     0.049 A 
ATOM     44  H   UNL A   1      40.658  30.399  29.392  1.00  0.00     0.167 HD
ATOM     45  C   UNL A   1      44.945  29.480  29.697  1.00  0.00     0.037 A 
ATOM     46  C   UNL A   1      38.382  31.965  29.765  1.00  0.00     0.037 A 
ATOM     47  C   UNL A   1      44.813  30.834  30.166  1.00  0.00     0.049 A 
ATOM     48  C   UNL A   1      39.551  32.782  30.249  1.00  0.00     0.074 A 
ATOM     49  C   UNL A   1      45.803  31.705  30.584  1.00  0.00     0.029 A 
ATOM     50  N   UNL A   1      43.607  31.514  30.277  1.00  0.00    -0.354 N 
ATOM     51  N   UNL A   1      40.824  32.473  30.277  1.00  0.00    -0.248 NA
ATOM     52  C   UNL A   1      39.248  34.127  30.759  1.00  0.00     0.031 C 
ATOM     53  C   UNL A   1      45.193  32.897  30.989  1.00  0.00     0.029 A 
ATOM     54  C   UNL A   1      43.829  32.789  30.771  1.00  0.00     0.049 A 
ATOM     55  H   UNL A   1      42.726  31.145  30.039  1.00  0.00     0.167 HD
ATOM     56  C   UNL A   1      41.479  33.593  30.771  1.00  0.00     0.074 A 
ATOM     57  C   UNL A   1      40.461  34.593  31.020  1.00  0.00     0.031 C 
ATOM     58  C   UNL A   1      42.803  33.777  30.996  1.00  0.00     0.037 A 
BRANCH  45  59
ATOM     59  C   UNL A   1      46.311  28.854  29.675  1.00  0.00     0.064 A 
ATOM     60  C   UNL A   1      47.131  28.919  28.537  1.00  0.00     0.173 A 
ATOM     61  C   UNL A   1      46.813  28.194  30.806  1.00  0.00     0.173 A 
ATOM     62  F   UNL A   1      46.695  29.529  27.423  1.00  0.00    -0.203 F 
ATOM     63  C   UNL A   1      48.383  28.312  28.519  1.00  0.00     0.198 A 
ATOM     64  C   UNL A   1      48.081  27.617  30.796  1.00  0.00     0.198 A 
ATOM     65  F   UNL A   1      46.075  28.106  31.923  1.00  0.00    -0.203 F 
ATOM     66  F   UNL A   1      49.121  28.334  27.400  1.00  0.00    -0.200 F 
ATOM     67  C   UNL A   1      48.860  27.667  29.650  1.00  0.00     0.200 A 
ATOM     68  F   UNL A   1      48.546  27.006  31.895  1.00  0.00    -0.200 F 
ATOM     69  F   UNL A   1      50.068  27.085  29.633  1.00  0.00    -0.200 F 
ENDBRANCH  45  59
BRANCH  46  70
ATOM     70  C   UNL A   1      37.003  32.518  29.784  1.00  0.00     0.064 A 
ATOM     71  C   UNL A   1      36.509  33.244  28.690  1.00  0.00     0.173 A 
ATOM     72  C   UNL A   1      36.152  32.337  30.883  1.00  0.00     0.173 A 
ATOM     73  F   UNL A   1      37.292  33.460  27.622  1.00  0.00    -0.203 F 
ATOM     74  C   UNL A   1      35.225  33.785  28.704  1.00  0.00     0.198 A 
ATOM     75  C   UNL A   1      34.858  32.853  30.884  1.00  0.00     0.198 A 
ATOM     76  F   UNL A   1      36.574  31.644  31.951  1.00  0.00    -0.203 F 
ATOM     77  F   UNL A   1      34.796  34.512  27.664  1.00  0.00    -0.200 F 
ATOM     78  C   UNL A   1      34.399  33.584  29.799  1.00  0.00     0.200 A 
ATOM     79  F   UNL A   1      34.056  32.643  31.937  1.00  0.00    -0.200 F 
ATOM     80  F   UNL A   1      33.162  34.099  29.811  1.00  0.00    -0.200 F 
ENDBRANCH  46  70
BRANCH  58  81
ATOM     81  C   UNL A   1      43.235  35.131  31.483  1.00  0.00     0.064 A 
ATOM     82  C   UNL A   1      43.225  35.464  32.845  1.00  0.00     0.173 A 
ATOM     83  C   UNL A   1      43.698  36.093  30.573  1.00  0.00     0.173 A 
ATOM     84  F   UNL A   1      42.776  34.585  33.754  1.00  0.00    -0.203 F 
ATOM     85  C   UNL A   1      43.636  36.724  33.275  1.00  0.00     0.198 A 
ATOM     86  C   UNL A   1      44.140  37.338  31.009  1.00  0.00     0.198 A 
ATOM     87  F   UNL A   1      43.735  35.820  29.260  1.00  0.00    -0.203 F 
ATOM     88  F   UNL A   1      43.567  37.041  34.575  1.00  0.00    -0.200 F 
ATOM     89  C   UNL A   1      44.099  37.656  32.358  1.00  0.00     0.200 A 
ATOM     90  F   UNL A   1      44.601  38.232  30.124  1.00  0.00    -0.200 F 
ATOM     91  F   UNL A   1      44.500  38.865  32.775  1.00  0.00    -0.200 F 
ENDBRANCH  58  81
ENDBRANCH  32  33
ENDBRANCH  24  27
ENDBRANCH  22  23
ENDBRANCH  21  22
ENDBRANCH   1  21
TORSDOF 13
ENDMDL
MODEL 3
REMARK VINA RESULT:     -11.8      4.118      7.262
REMARK SMILES CSc1ncccc1C(=O)N1CSC[C@H]1C(=O)NCCCNC(=O)c1ccc(-c2c3nc(c(-c4c(F)c(F)c(F)c(F)c4F)c4ccc([nH]4)c(-c4c(F)c(F)c(F)c(F)c4F)c4nc(c(-c5c(F)c(F)c(F)c(F)c5F)c5ccc2[nH]5)C=C4)C=C3)cc1
REMARK SMILES IDX 19 1 18 2 16 3 17 4 15 6 11 7 12 8 13 9 14 10 9 11 10 12
REMARK SMILES IDX 8 13 3 14 4 15 5 16 7 17 6 18 2 19 1 20 20 21 21 22 22 23
REMARK SMILES IDX 23 24 24 26 25 27 26 28 87 29 27 30 86 31 28 32 29 33 30 34
REMARK SMILES IDX 80 35 31 36 85 37 79 38 81 39 32 40 84 41 78 42 77 43 33 45
REMARK SMILES IDX 65 46 45 47 64 48 46 49 49 50 63 51 82 52 47 53 48 54 62 56
REMARK SMILES IDX 83 57 50 58 34 59 35 60 43 61 36 62 37 63 41 64 44 65 38 66
REMARK SMILES IDX 39 67 42 68 40 69 66 70 67 71 75 72 68 73 69 74 73 75 76 76
REMARK SMILES IDX 70 77 71 78 74 79 72 80 51 81 52 82 60 83 53 84 54 85 58 86
REMARK SMILES IDX 61 87 55 88 56 89 59 90 57 91
REMARK H PARENT 18 5 22 25 81 44 49 55
REMARK Flexibility Score: inf
ROOT
ATOM      1  C   UNL A   1      34.665  25.136  25.192  1.00  0.00     0.117 C 
ENDROOT
BRANCH   1   2
ATOM      2  N   UNL A   1      33.538  25.424  26.050  1.00  0.00    -0.354 N 
ATOM      3  C   UNL A   1      32.928  26.600  26.360  1.00  0.00     0.243 C 
ATOM      4  O   UNL A   1      31.821  26.507  26.902  1.00  0.00    -0.273 OA
ATOM      5  H   UNL A   1      33.145  24.634  26.486  1.00  0.00     0.163 HD
BRANCH   3   6
ATOM      6  C   UNL A   1      33.480  27.980  25.941  1.00  0.00     0.185 C 
ATOM      7  N   UNL A   1      32.515  28.988  25.470  1.00  0.00    -0.316 N 
ATOM      8  C   UNL A   1      32.318  30.109  26.360  1.00  0.00     0.190 C 
ATOM      9  S   UNL A   1      33.872  30.310  27.251  1.00  0.00    -0.138 SA
ATOM     10  C   UNL A   1      34.392  28.582  27.010  1.00  0.00     0.106 C 
BRANCH   7  11
ATOM     11  C   UNL A   1      32.080  28.872  24.148  1.00  0.00     0.257 C 
ATOM     12  O   UNL A   1      32.878  28.943  23.218  1.00  0.00    -0.269 OA
BRANCH  11  13
ATOM     13  C   UNL A   1      30.625  28.861  23.833  1.00  0.00     0.072 A 
ATOM     14  C   UNL A   1      29.909  27.702  23.519  1.00  0.00     0.108 A 
ATOM     15  N   UNL A   1      28.603  27.742  23.126  1.00  0.00    -0.249 NA
ATOM     16  C   UNL A   1      28.006  28.942  22.992  1.00  0.00     0.112 A 
ATOM     17  C   UNL A   1      29.976  30.093  23.635  1.00  0.00     0.018 A 
ATOM     18  C   UNL A   1      28.646  30.139  23.233  1.00  0.00     0.021 A 
BRANCH  14  19
ATOM     19  S   UNL A   1      30.568  26.044  23.610  1.00  0.00    -0.109 SA
ATOM     20  C   UNL A   1      31.418  26.002  22.005  1.00  0.00     0.092 C 
ENDBRANCH  14  19
ENDBRANCH  11  13
ENDBRANCH   7  11
ENDBRANCH   3   6
ENDBRANCH   1   2
BRANCH   1  21
ATOM     21  C   UNL A   1      35.567  24.053  25.761  1.00  0.00     0.042 C 
BRANCH  21  22
ATOM     22  C   UNL A   1      36.759  23.733  24.870  1.00  0.00     0.118 C 
BRANCH  22  23
ATOM     23  N   UNL A   1      37.615  22.699  25.443  1.00  0.00    -0.352 N 
ATOM     24  C   UNL A   1      38.771  22.809  26.167  1.00  0.00     0.251 C 
ATOM     25  H   UNL A   1      37.313  21.776  25.284  1.00  0.00     0.163 HD
ATOM     26  O   UNL A   1      39.462  21.806  26.365  1.00  0.00    -0.269 OA
BRANCH  24  27
ATOM     27  C   UNL A   1      39.204  24.111  26.710  1.00  0.00     0.039 A 
ATOM     28  C   UNL A   1      38.853  24.452  28.019  1.00  0.00     0.014 A 
ATOM     29  C   UNL A   1      39.915  25.017  25.919  1.00  0.00     0.014 A 
ATOM     30  C   UNL A   1      39.259  25.679  28.549  1.00  0.00     0.010 A 
ATOM     31  C   UNL A   1      40.398  26.195  26.475  1.00  0.00     0.010 A 
ATOM     32  C   UNL A   1      40.057  26.547  27.790  1.00  0.00    -0.014 A 
BRANCH  32  33
ATOM     33  C   UNL A   1      40.517  27.849  28.331  1.00  0.00     0.031 A 
ATOM     34  C   UNL A   1      41.976  28.063  28.626  1.00  0.00     0.074 A 
ATOM     35  C   UNL A   1      39.617  28.809  28.614  1.00  0.00     0.049 A 
ATOM     36  N   UNL A   1      42.570  29.094  29.173  1.00  0.00    -0.248 NA
ATOM     37  C   UNL A   1      42.886  26.957  28.289  1.00  0.00     0.031 C 
ATOM     38  C   UNL A   1      38.172  28.701  28.411  1.00  0.00     0.029 A 
ATOM     39  N   UNL A   1      39.787  30.063  29.143  1.00  0.00    -0.354 N 
ATOM     40  C   UNL A   1      43.912  28.752  29.260  1.00  0.00     0.074 A 
ATOM     41  C   UNL A   1      44.038  27.396  28.771  1.00  0.00     0.031 C 
ATOM     42  C   UNL A   1      37.589  29.852  28.783  1.00  0.00     0.029 A 
ATOM     43  C   UNL A   1      38.612  30.761  29.288  1.00  0.00     0.049 A 
ATOM     44  H   UNL A   1      40.665  30.428  29.395  1.00  0.00     0.167 HD
ATOM     45  C   UNL A   1      44.953  29.509  29.682  1.00  0.00     0.037 A 
ATOM     46  C   UNL A   1      38.392  31.996  29.776  1.00  0.00     0.037 A 
ATOM     47  C   UNL A   1      44.824  30.864  30.149  1.00  0.00     0.049 A 
ATOM     48  C   UNL A   1      39.562  32.813  30.253  1.00  0.00     0.074 A 
ATOM     49  C   UNL A   1      45.816  31.736  30.560  1.00  0.00     0.029 A 
ATOM     50  N   UNL A   1      43.619  31.545  30.264  1.00  0.00    -0.354 N 
ATOM     51  N   UNL A   1      40.836  32.504  30.276  1.00  0.00    -0.248 NA
ATOM     52  C   UNL A   1      39.262  34.159  30.762  1.00  0.00     0.031 C 
ATOM     53  C   UNL A   1      45.208  32.929  30.967  1.00  0.00     0.029 A 
ATOM     54  C   UNL A   1      43.843  32.821  30.755  1.00  0.00     0.049 A 
ATOM     55  H   UNL A   1      42.736  31.175  30.032  1.00  0.00     0.167 HD
ATOM     56  C   UNL A   1      41.493  33.625  30.765  1.00  0.00     0.074 A 
ATOM     57  C   UNL A   1      40.477  34.625  31.016  1.00  0.00     0.031 C 
ATOM     58  C   UNL A   1      42.818  33.809  30.983  1.00  0.00     0.037 A 
BRANCH  45  59
ATOM     59  C   UNL A   1      46.319  28.884  29.655  1.00  0.00     0.064 A 
ATOM     60  C   UNL A   1      47.145  28.969  28.522  1.00  0.00     0.173 A 
ATOM     61  C   UNL A   1      46.815  28.202  30.775  1.00  0.00     0.173 A 
ATOM     62  F   UNL A   1      46.715  29.600  27.418  1.00  0.00    -0.203 F 
ATOM     63  C   UNL A   1      48.397  28.362  28.499  1.00  0.00     0.198 A 
ATOM     64  C   UNL A   1      48.083  27.624  30.760  1.00  0.00     0.198 A 
ATOM     65  F   UNL A   1      46.072  28.093  31.887  1.00  0.00    -0.203 F 
ATOM     66  F   UNL A   1      49.140  28.405  27.384  1.00  0.00    -0.200 F 
ATOM     67  C   UNL A   1      48.868  27.696  29.620  1.00  0.00     0.200 A 
ATOM     68  F   UNL A   1      48.543  26.993  31.850  1.00  0.00    -0.200 F 
ATOM     69  F   UNL A   1      50.075  27.113  29.597  1.00  0.00    -0.200 F 
ENDBRANCH  45  59
BRANCH  46  70
ATOM     70  C   UNL A   1      37.013  32.549  29.800  1.00  0.00     0.064 A 
ATOM     71  C   UNL A   1      36.509  33.262  28.703  1.00  0.00     0.173 A 
ATOM     72  C   UNL A   1      36.171  32.380  30.908  1.00  0.00     0.173 A 
ATOM     73  F   UNL A   1      37.282  33.465  27.625  1.00  0.00    -0.203 F 
ATOM     74  C   UNL A   1      35.225  33.803  28.722  1.00  0.00     0.198 A 
ATOM     75  C   UNL A   1      34.877  32.896  30.915  1.00  0.00     0.198 A 
ATOM     76  F   UNL A   1      36.602  31.699  31.981  1.00  0.00    -0.203 F 
ATOM     77  F   UNL A   1      34.787  34.517  27.677  1.00  0.00    -0.200 F 
ATOM     78  C   UNL A   1      34.408  33.614  29.825  1.00  0.00     0.200 A 
ATOM     79  F   UNL A   1      34.084  32.698  31.977  1.00  0.00    -0.200 F 
ATOM     80  F   UNL A   1      33.172  34.130  29.842  1.00  0.00    -0.200 F 
ENDBRANCH  46  70
BRANCH  58  81
ATOM     81  C   UNL A   1      43.252  35.164  31.466  1.00  0.00     0.064 A 
ATOM     82  C   UNL A   1      43.258  35.497  32.828  1.00  0.00     0.173 A 
ATOM     83  C   UNL A   1      43.702  36.127  30.551  1.00  0.00     0.173 A 
ATOM     84  F   UNL A   1      42.823  34.616  33.741  1.00  0.00    -0.203 F 
ATOM     85  C   UNL A   1      43.671  36.757  33.253  1.00  0.00     0.198 A 
ATOM     86  C   UNL A   1      44.146  37.374  30.982  1.00  0.00     0.198 A 
ATOM     87  F   UNL A   1      43.724  35.855  29.237  1.00  0.00    -0.203 F 
ATOM     88  F   UNL A   1      43.617  37.073  34.554  1.00  0.00    -0.200 F 
ATOM     89  C   UNL A   1      44.121  37.691  32.332  1.00  0.00     0.200 A 
ATOM     90  F   UNL A   1      44.594  38.269  30.091  1.00  0.00    -0.200 F 
ATOM     91  F   UNL A   1      44.524  38.900  32.744  1.00  0.00    -0.200 F 
ENDBRANCH  58  81
ENDBRANCH  32  33
ENDBRANCH  24  27
ENDBRANCH  22  23
ENDBRANCH  21  22
ENDBRANCH   1  21
TORSDOF 13
ENDMDL
