MODEL 1
REMARK VINA RESULT:     -12.2      0.000      0.000
REMARK SMILES O=C(NCCCNC(=O)[C@H]1C[NH2+]CCN1c1ncc(C(F)(F)F)cc1Cl)c1ccc(-c2c3nc(c(-c4c(F)c(F)c(F)c(F)c4F)c4ccc([nH]4)c(-c4c(F)c(F)c(F)c(F)c4F)c4nc(c(-c5c(F)c(F)c(F)c(F)c5F)c5ccc2[nH]5)C=C4)C=C3)cc1
REMARK SMILES IDX 5 1 4 2 3 3 1 4 2 5 27 7 28 8 89 9 29 10 88 11 30 12 31 13
REMARK SMILES IDX 32 14 82 15 33 16 87 17 81 18 83 19 34 20 86 21 80 22 79 23
REMARK SMILES IDX 35 25 67 26 47 27 66 28 48 29 51 30 65 31 84 32 49 33 50 34
REMARK SMILES IDX 64 36 85 37 52 38 36 39 37 40 45 41 38 42 39 43 43 44 46 45
REMARK SMILES IDX 40 46 41 47 44 48 42 49 68 50 69 51 77 52 70 53 71 54 75 55
REMARK SMILES IDX 78 56 72 57 73 58 76 59 74 60 53 61 54 62 62 63 55 64 56 65
REMARK SMILES IDX 60 66 63 67 57 68 58 69 61 70 59 71 6 72 7 73 8 74 9 76
REMARK SMILES IDX 10 77 11 78 15 79 12 80 14 81 13 82 16 85 17 86 25 87 18 88
REMARK SMILES IDX 24 89 26 90 19 91 20 92 21 93 22 94 23 95
REMARK H PARENT 3 6 83 24 51 35 7 75 12 83 12 84
REMARK Flexibility Score: inf
ROOT
ATOM      1  C   UNL A   1      33.717  28.919  23.505  1.00  0.00     0.042 C 
ENDROOT
BRANCH   1   2
ATOM      2  C   UNL A   1      33.608  28.883  25.019  1.00  0.00     0.118 C 
BRANCH   2   3
ATOM      3  N   UNL A   1      33.004  30.099  25.554  1.00  0.00    -0.352 N 
ATOM      4  O   UNL A   1      32.479  31.655  27.091  1.00  0.00    -0.269 OA
ATOM      5  C   UNL A   1      33.279  30.816  26.695  1.00  0.00     0.251 C 
ATOM      6  H   UNL A   1      32.277  30.469  25.005  1.00  0.00     0.163 HD
BRANCH   5   7
ATOM      7  C   UNL A   1      34.520  30.565  27.459  1.00  0.00     0.039 A 
ATOM      8  C   UNL A   1      34.795  29.299  27.973  1.00  0.00     0.014 A 
ATOM      9  C   UNL A   1      35.448  31.597  27.626  1.00  0.00     0.014 A 
ATOM     10  C   UNL A   1      35.877  29.110  28.817  1.00  0.00     0.010 A 
ATOM     11  C   UNL A   1      36.615  31.368  28.362  1.00  0.00     0.010 A 
ATOM     12  C   UNL A   1      36.820  30.131  28.993  1.00  0.00    -0.014 A 
BRANCH  12  13
ATOM     13  C   UNL A   1      38.050  29.858  29.775  1.00  0.00     0.031 A 
ATOM     14  C   UNL A   1      39.122  28.960  29.232  1.00  0.00     0.074 A 
ATOM     15  C   UNL A   1      38.187  30.431  30.986  1.00  0.00     0.049 A 
ATOM     16  N   UNL A   1      40.219  28.540  29.811  1.00  0.00    -0.248 NA
ATOM     17  C   UNL A   1      38.933  28.455  27.864  1.00  0.00     0.031 C 
ATOM     18  C   UNL A   1      37.212  31.332  31.607  1.00  0.00     0.029 A 
ATOM     19  N   UNL A   1      39.195  30.348  31.912  1.00  0.00    -0.354 N 
ATOM     20  C   UNL A   1      40.833  27.698  28.893  1.00  0.00     0.074 A 
ATOM     21  C   UNL A   1      39.975  27.647  27.728  1.00  0.00     0.031 C 
ATOM     22  C   UNL A   1      37.680  31.740  32.793  1.00  0.00     0.029 A 
ATOM     23  C   UNL A   1      38.942  31.061  33.057  1.00  0.00     0.049 A 
ATOM     24  H   UNL A   1      40.018  29.827  31.769  1.00  0.00     0.167 HD
ATOM     25  C   UNL A   1      42.005  27.031  29.020  1.00  0.00     0.037 A 
ATOM     26  C   UNL A   1      39.624  31.127  34.214  1.00  0.00     0.037 A 
ATOM     27  C   UNL A   1      42.848  27.101  30.186  1.00  0.00     0.049 A 
ATOM     28  C   UNL A   1      40.894  30.341  34.349  1.00  0.00     0.074 A 
ATOM     29  C   UNL A   1      44.068  26.490  30.409  1.00  0.00     0.029 A 
ATOM     30  N   UNL A   1      42.548  27.822  31.335  1.00  0.00    -0.354 N 
ATOM     31  N   UNL A   1      41.473  29.557  33.472  1.00  0.00    -0.248 NA
ATOM     32  C   UNL A   1      41.602  30.444  35.629  1.00  0.00     0.031 C 
ATOM     33  C   UNL A   1      44.476  26.788  31.714  1.00  0.00     0.029 A 
ATOM     34  C   UNL A   1      43.546  27.647  32.280  1.00  0.00     0.049 A 
ATOM     35  H   UNL A   1      41.744  28.376  31.460  1.00  0.00     0.167 HD
ATOM     36  C   UNL A   1      42.631  29.095  34.082  1.00  0.00     0.074 A 
ATOM     37  C   UNL A   1      42.671  29.691  35.402  1.00  0.00     0.031 C 
ATOM     38  C   UNL A   1      43.576  28.258  33.586  1.00  0.00     0.037 A 
BRANCH  25  39
ATOM     39  C   UNL A   1      42.419  26.133  27.886  1.00  0.00     0.064 A 
ATOM     40  C   UNL A   1      43.299  26.557  26.879  1.00  0.00     0.173 A 
ATOM     41  C   UNL A   1      41.931  24.818  27.812  1.00  0.00     0.173 A 
ATOM     42  F   UNL A   1      43.788  27.807  26.893  1.00  0.00    -0.203 F 
ATOM     43  C   UNL A   1      43.637  25.718  25.819  1.00  0.00     0.198 A 
ATOM     44  C   UNL A   1      42.300  23.970  26.772  1.00  0.00     0.198 A 
ATOM     45  F   UNL A   1      41.094  24.352  28.752  1.00  0.00    -0.203 F 
ATOM     46  F   UNL A   1      44.426  26.171  24.834  1.00  0.00    -0.200 F 
ATOM     47  C   UNL A   1      43.142  24.425  25.769  1.00  0.00     0.200 A 
ATOM     48  F   UNL A   1      41.833  22.714  26.734  1.00  0.00    -0.200 F 
ATOM     49  F   UNL A   1      43.468  23.619  24.748  1.00  0.00    -0.200 F 
ENDBRANCH  25  39
BRANCH  26  50
ATOM     50  C   UNL A   1      39.090  31.955  35.325  1.00  0.00     0.064 A 
ATOM     51  C   UNL A   1      38.335  31.382  36.356  1.00  0.00     0.173 A 
ATOM     52  C   UNL A   1      39.377  33.327  35.409  1.00  0.00     0.173 A 
ATOM     53  F   UNL A   1      38.025  30.078  36.314  1.00  0.00    -0.203 F 
ATOM     54  C   UNL A   1      37.881  32.151  37.425  1.00  0.00     0.198 A 
ATOM     55  C   UNL A   1      38.950  34.087  36.495  1.00  0.00     0.198 A 
ATOM     56  F   UNL A   1      40.109  33.920  34.454  1.00  0.00    -0.203 F 
ATOM     57  F   UNL A   1      37.137  31.584  38.385  1.00  0.00    -0.200 F 
ATOM     58  C   UNL A   1      38.198  33.500  37.500  1.00  0.00     0.200 A 
ATOM     59  F   UNL A   1      39.281  35.383  36.574  1.00  0.00    -0.200 F 
ATOM     60  F   UNL A   1      37.779  34.232  38.541  1.00  0.00    -0.200 F 
ENDBRANCH  26  50
BRANCH  38  61
ATOM     61  C   UNL A   1      44.769  27.980  34.453  1.00  0.00     0.064 A 
ATOM     62  C   UNL A   1      44.831  26.860  35.294  1.00  0.00     0.173 A 
ATOM     63  C   UNL A   1      45.891  28.819  34.389  1.00  0.00     0.173 A 
ATOM     64  F   UNL A   1      43.777  26.038  35.404  1.00  0.00    -0.203 F 
ATOM     65  C   UNL A   1      45.970  26.600  36.052  1.00  0.00     0.198 A 
ATOM     66  C   UNL A   1      47.040  28.539  35.123  1.00  0.00     0.198 A 
ATOM     67  F   UNL A   1      45.882  29.903  33.597  1.00  0.00    -0.203 F 
ATOM     68  F   UNL A   1      45.995  25.547  36.880  1.00  0.00    -0.200 F 
ATOM     69  C   UNL A   1      47.076  27.432  35.956  1.00  0.00     0.200 A 
ATOM     70  F   UNL A   1      48.112  29.334  35.017  1.00  0.00    -0.200 F 
ATOM     71  F   UNL A   1      48.178  27.168  36.673  1.00  0.00    -0.200 F 
ENDBRANCH  38  61
ENDBRANCH  12  13
ENDBRANCH   5   7
ENDBRANCH   2   3
ENDBRANCH   1   2
BRANCH   1  72
ATOM     72  C   UNL A   1      32.427  28.503  22.819  1.00  0.00     0.117 C 
BRANCH  72  73
ATOM     73  N   UNL A   1      32.630  27.422  21.873  1.00  0.00    -0.354 N 
ATOM     74  C   UNL A   1      32.790  26.079  21.966  1.00  0.00     0.248 C 
ATOM     75  H   UNL A   1      32.660  27.739  20.942  1.00  0.00     0.163 HD
ATOM     76  O   UNL A   1      33.041  25.534  20.879  1.00  0.00    -0.272 OA
BRANCH  74  77
ATOM     77  C   UNL A   1      32.663  25.206  23.256  1.00  0.00     0.228 C 
ATOM     78  C   UNL A   1      31.302  24.557  23.608  1.00  0.00     0.296 C 
ATOM     79  N   UNL A   1      33.681  24.134  23.214  1.00  0.00    -0.333 N 
ATOM     80  N   UNL A   1      30.915  23.346  22.832  1.00  0.00    -0.343 N 
ATOM     81  C   UNL A   1      33.376  22.995  22.352  1.00  0.00     0.180 C 
ATOM     82  C   UNL A   1      32.036  22.378  22.821  1.00  0.00     0.282 C 
ATOM     83  H   UNL A   1      30.691  23.616  21.874  1.00  0.00     0.346 HD
ATOM     84  H   UNL A   1      30.100  22.913  23.267  1.00  0.00     0.346 HD
BRANCH  79  85
ATOM     85  C   UNL A   1      34.758  24.031  24.060  1.00  0.00     0.148 A 
ATOM     86  N   UNL A   1      35.933  23.705  23.462  1.00  0.00    -0.237 NA
ATOM     87  C   UNL A   1      34.711  24.176  25.458  1.00  0.00     0.084 A 
ATOM     88  C   UNL A   1      37.054  23.576  24.214  1.00  0.00     0.126 A 
ATOM     89  C   UNL A   1      35.874  24.001  26.214  1.00  0.00     0.039 A 
ATOM     90  Cl  UNL A   1      33.279  24.457  26.382  1.00  0.00    -0.080 Cl
ATOM     91  C   UNL A   1      37.080  23.703  25.588  1.00  0.00     0.075 A 
BRANCH  91  92
ATOM     92  C   UNL A   1      38.352  23.525  26.350  1.00  0.00     0.417 C 
ATOM     93  F   UNL A   1      39.412  24.135  25.753  1.00  0.00    -0.166 F 
ATOM     94  F   UNL A   1      38.281  24.036  27.609  1.00  0.00    -0.166 F 
ATOM     95  F   UNL A   1      38.711  22.219  26.499  1.00  0.00    -0.166 F 
ENDBRANCH  91  92
ENDBRANCH  79  85
ENDBRANCH  74  77
ENDBRANCH  72  73
ENDBRANCH   1  72
TORSDOF 12
ENDMDL
MODEL 2
REMARK VINA RESULT:     -12.2      2.965      3.934
REMARK SMILES O=C(NCCCNC(=O)[C@H]1C[NH2+]CCN1c1ncc(C(F)(F)F)cc1Cl)c1ccc(-c2c3nc(c(-c4c(F)c(F)c(F)c(F)c4F)c4ccc([nH]4)c(-c4c(F)c(F)c(F)c(F)c4F)c4nc(c(-c5c(F)c(F)c(F)c(F)c5F)c5ccc2[nH]5)C=C4)C=C3)cc1
REMARK SMILES IDX 5 1 4 2 3 3 1 4 2 5 27 7 28 8 89 9 29 10 88 11 30 12 31 13
REMARK SMILES IDX 32 14 82 15 33 16 87 17 81 18 83 19 34 20 86 21 80 22 79 23
REMARK SMILES IDX 35 25 67 26 47 27 66 28 48 29 51 30 65 31 84 32 49 33 50 34
REMARK SMILES IDX 64 36 85 37 52 38 36 39 37 40 45 41 38 42 39 43 43 44 46 45
REMARK SMILES IDX 40 46 41 47 44 48 42 49 68 50 69 51 77 52 70 53 71 54 75 55
REMARK SMILES IDX 78 56 72 57 73 58 76 59 74 60 53 61 54 62 62 63 55 64 56 65
REMARK SMILES IDX 60 66 63 67 57 68 58 69 61 70 59 71 6 72 7 73 8 74 9 76
REMARK SMILES IDX 10 77 11 78 15 79 12 80 14 81 13 82 16 85 17 86 25 87 18 88
REMARK SMILES IDX 24 89 26 90 19 91 20 92 21 93 22 94 23 95
REMARK H PARENT 3 6 83 24 51 35 7 75 12 83 12 84
REMARK Flexibility Score: inf
ROOT
ATOM      1  C   UNL A   1      34.016  29.111  23.446  1.00  0.00     0.042 C 
ENDROOT
BRANCH   1   2
ATOM      2  C   UNL A   1      33.782  28.946  24.937  1.00  0.00     0.118 C 
BRANCH   2   3
ATOM      3  N   UNL A   1      33.126  30.110  25.522  1.00  0.00    -0.352 N 
ATOM      4  O   UNL A   1      32.521  31.567  27.125  1.00  0.00    -0.269 OA
ATOM      5  C   UNL A   1      33.358  30.779  26.701  1.00  0.00     0.251 C 
ATOM      6  H   UNL A   1      32.392  30.480  24.980  1.00  0.00     0.163 HD
BRANCH   5   7
ATOM      7  C   UNL A   1      34.598  30.537  27.470  1.00  0.00     0.039 A 
ATOM      8  C   UNL A   1      34.870  29.278  28.000  1.00  0.00     0.014 A 
ATOM      9  C   UNL A   1      35.526  31.571  27.626  1.00  0.00     0.014 A 
ATOM     10  C   UNL A   1      35.951  29.098  28.849  1.00  0.00     0.010 A 
ATOM     11  C   UNL A   1      36.691  31.350  28.367  1.00  0.00     0.010 A 
ATOM     12  C   UNL A   1      36.894  30.121  29.013  1.00  0.00    -0.014 A 
BRANCH  12  13
ATOM     13  C   UNL A   1      38.123  29.857  29.801  1.00  0.00     0.031 A 
ATOM     14  C   UNL A   1      39.204  28.967  29.263  1.00  0.00     0.074 A 
ATOM     15  C   UNL A   1      38.251  30.431  31.012  1.00  0.00     0.049 A 
ATOM     16  N   UNL A   1      40.301  28.555  29.846  1.00  0.00    -0.248 NA
ATOM     17  C   UNL A   1      39.025  28.462  27.894  1.00  0.00     0.031 C 
ATOM     18  C   UNL A   1      37.266  31.324  31.630  1.00  0.00     0.029 A 
ATOM     19  N   UNL A   1      39.254  30.355  31.943  1.00  0.00    -0.354 N 
ATOM     20  C   UNL A   1      40.926  27.718  28.931  1.00  0.00     0.074 A 
ATOM     21  C   UNL A   1      40.074  27.661  27.762  1.00  0.00     0.031 C 
ATOM     22  C   UNL A   1      37.725  31.735  32.817  1.00  0.00     0.029 A 
ATOM     23  C   UNL A   1      38.991  31.065  33.087  1.00  0.00     0.049 A 
ATOM     24  H   UNL A   1      40.082  29.840  31.804  1.00  0.00     0.167 HD
ATOM     25  C   UNL A   1      42.102  27.059  29.063  1.00  0.00     0.037 A 
ATOM     26  C   UNL A   1      39.667  31.136  34.247  1.00  0.00     0.037 A 
ATOM     27  C   UNL A   1      42.939  27.136  30.233  1.00  0.00     0.049 A 
ATOM     28  C   UNL A   1      40.942  30.360  34.387  1.00  0.00     0.074 A 
ATOM     29  C   UNL A   1      44.164  26.534  30.461  1.00  0.00     0.029 A 
ATOM     30  N   UNL A   1      42.629  27.854  31.381  1.00  0.00    -0.354 N 
ATOM     31  N   UNL A   1      41.532  29.581  33.513  1.00  0.00    -0.248 NA
ATOM     32  C   UNL A   1      41.644  30.468  35.671  1.00  0.00     0.031 C 
ATOM     33  C   UNL A   1      44.562  26.835  31.768  1.00  0.00     0.029 A 
ATOM     34  C   UNL A   1      43.624  27.687  32.331  1.00  0.00     0.049 A 
ATOM     35  H   UNL A   1      41.820  28.402  31.503  1.00  0.00     0.167 HD
ATOM     36  C   UNL A   1      42.690  29.127  34.128  1.00  0.00     0.074 A 
ATOM     37  C   UNL A   1      42.719  29.724  35.449  1.00  0.00     0.031 C 
ATOM     38  C   UNL A   1      43.643  28.298  33.637  1.00  0.00     0.037 A 
BRANCH  25  39
ATOM     39  C   UNL A   1      42.528  26.165  27.931  1.00  0.00     0.064 A 
ATOM     40  C   UNL A   1      43.437  26.585  26.948  1.00  0.00     0.173 A 
ATOM     41  C   UNL A   1      42.022  24.859  27.834  1.00  0.00     0.173 A 
ATOM     42  F   UNL A   1      43.945  27.827  26.983  1.00  0.00    -0.203 F 
ATOM     43  C   UNL A   1      43.787  25.750  25.888  1.00  0.00     0.198 A 
ATOM     44  C   UNL A   1      42.402  24.014  26.795  1.00  0.00     0.198 A 
ATOM     45  F   UNL A   1      41.157  24.398  28.751  1.00  0.00    -0.203 F 
ATOM     46  F   UNL A   1      44.604  26.199  24.925  1.00  0.00    -0.200 F 
ATOM     47  C   UNL A   1      43.273  24.464  25.816  1.00  0.00     0.200 A 
ATOM     48  F   UNL A   1      41.917  22.766  26.736  1.00  0.00    -0.200 F 
ATOM     49  F   UNL A   1      43.610  23.663  24.795  1.00  0.00    -0.200 F 
ENDBRANCH  25  39
BRANCH  26  50
ATOM     50  C   UNL A   1      39.122  31.960  35.356  1.00  0.00     0.064 A 
ATOM     51  C   UNL A   1      38.361  31.382  36.380  1.00  0.00     0.173 A 
ATOM     52  C   UNL A   1      39.404  33.333  35.446  1.00  0.00     0.173 A 
ATOM     53  F   UNL A   1      38.055  30.078  36.332  1.00  0.00    -0.203 F 
ATOM     54  C   UNL A   1      37.896  32.148  37.447  1.00  0.00     0.198 A 
ATOM     55  C   UNL A   1      38.966  34.089  36.530  1.00  0.00     0.198 A 
ATOM     56  F   UNL A   1      40.142  33.930  34.497  1.00  0.00    -0.203 F 
ATOM     57  F   UNL A   1      37.146  31.576  38.400  1.00  0.00    -0.200 F 
ATOM     58  C   UNL A   1      38.208  33.497  37.527  1.00  0.00     0.200 A 
ATOM     59  F   UNL A   1      39.292  35.385  36.615  1.00  0.00    -0.200 F 
ATOM     60  F   UNL A   1      37.778  34.226  38.567  1.00  0.00    -0.200 F 
ENDBRANCH  26  50
BRANCH  38  61
ATOM     61  C   UNL A   1      44.835  28.028  34.509  1.00  0.00     0.064 A 
ATOM     62  C   UNL A   1      44.890  26.923  35.370  1.00  0.00     0.173 A 
ATOM     63  C   UNL A   1      45.961  28.860  34.431  1.00  0.00     0.173 A 
ATOM     64  F   UNL A   1      43.831  26.109  35.494  1.00  0.00    -0.203 F 
ATOM     65  C   UNL A   1      46.027  26.670  36.133  1.00  0.00     0.198 A 
ATOM     66  C   UNL A   1      47.108  28.586  35.170  1.00  0.00     0.198 A 
ATOM     67  F   UNL A   1      45.959  29.930  33.620  1.00  0.00    -0.203 F 
ATOM     68  F   UNL A   1      46.046  25.631  36.979  1.00  0.00    -0.200 F 
ATOM     69  C   UNL A   1      47.138  27.494  36.023  1.00  0.00     0.200 A 
ATOM     70  F   UNL A   1      48.185  29.374  35.050  1.00  0.00    -0.200 F 
ATOM     71  F   UNL A   1      48.238  27.237  36.745  1.00  0.00    -0.200 F 
ENDBRANCH  38  61
ENDBRANCH  12  13
ENDBRANCH   5   7
ENDBRANCH   2   3
ENDBRANCH   1   2
BRANCH   1  72
ATOM     72  C   UNL A   1      33.562  27.901  22.648  1.00  0.00     0.117 C 
BRANCH  72  73
ATOM     73  N   UNL A   1      33.776  26.658  23.365  1.00  0.00    -0.354 N 
ATOM     74  C   UNL A   1      32.975  25.685  23.866  1.00  0.00     0.248 C 
ATOM     75  H   UNL A   1      34.730  26.477  23.527  1.00  0.00     0.163 HD
ATOM     76  O   UNL A   1      33.591  24.822  24.511  1.00  0.00    -0.272 OA
BRANCH  74  77
ATOM     77  C   UNL A   1      31.429  25.557  23.683  1.00  0.00     0.228 C 
ATOM     78  C   UNL A   1      30.731  24.212  24.005  1.00  0.00     0.296 C 
ATOM     79  N   UNL A   1      30.760  26.616  24.470  1.00  0.00    -0.333 N 
ATOM     80  N   UNL A   1      30.519  23.894  25.444  1.00  0.00    -0.343 N 
ATOM     81  C   UNL A   1      30.662  26.378  25.908  1.00  0.00     0.180 C 
ATOM     82  C   UNL A   1      29.897  25.051  26.128  1.00  0.00     0.282 C 
ATOM     83  H   UNL A   1      31.417  23.685  25.880  1.00  0.00     0.346 HD
ATOM     84  H   UNL A   1      29.902  23.085  25.523  1.00  0.00     0.346 HD
BRANCH  79  85
ATOM     85  C   UNL A   1      30.060  27.672  23.942  1.00  0.00     0.148 A 
ATOM     86  N   UNL A   1      30.771  28.820  23.793  1.00  0.00    -0.237 NA
ATOM     87  C   UNL A   1      28.692  27.660  23.615  1.00  0.00     0.084 A 
ATOM     88  C   UNL A   1      30.167  29.921  23.282  1.00  0.00     0.126 A 
ATOM     89  C   UNL A   1      28.084  28.820  23.126  1.00  0.00     0.039 A 
ATOM     90  Cl  UNL A   1      27.621  26.329  23.869  1.00  0.00    -0.080 Cl
ATOM     91  C   UNL A   1      28.831  29.980  22.942  1.00  0.00     0.075 A 
BRANCH  91  92
ATOM     92  C   UNL A   1      28.230  31.238  22.406  1.00  0.00     0.417 C 
ATOM     93  F   UNL A   1      27.629  31.058  21.198  1.00  0.00    -0.166 F 
ATOM     94  F   UNL A   1      27.278  31.753  23.229  1.00  0.00    -0.166 F 
ATOM     95  F   UNL A   1      29.143  32.233  22.223  1.00  0.00    -0.166 F 
ENDBRANCH  91  92
ENDBRANCH  79  85
ENDBRANCH  74  77
ENDBRANCH  72  73
ENDBRANCH   1  72
TORSDOF 12
ENDMDL
MODEL 3
REMARK VINA RESULT:     -12.1      4.952      9.988
REMARK SMILES O=C(NCCCNC(=O)[C@H]1C[NH2+]CCN1c1ncc(C(F)(F)F)cc1Cl)c1ccc(-c2c3nc(c(-c4c(F)c(F)c(F)c(F)c4F)c4ccc([nH]4)c(-c4c(F)c(F)c(F)c(F)c4F)c4nc(c(-c5c(F)c(F)c(F)c(F)c5F)c5ccc2[nH]5)C=C4)C=C3)cc1
REMARK SMILES IDX 5 1 4 2 3 3 1 4 2 5 27 7 28 8 89 9 29 10 88 11 30 12 31 13
REMARK SMILES IDX 32 14 82 15 33 16 87 17 81 18 83 19 34 20 86 21 80 22 79 23
REMARK SMILES IDX 35 25 67 26 47 27 66 28 48 29 51 30 65 31 84 32 49 33 50 34
REMARK SMILES IDX 64 36 85 37 52 38 36 39 37 40 45 41 38 42 39 43 43 44 46 45
REMARK SMILES IDX 40 46 41 47 44 48 42 49 68 50 69 51 77 52 70 53 71 54 75 55
REMARK SMILES IDX 78 56 72 57 73 58 76 59 74 60 53 61 54 62 62 63 55 64 56 65
REMARK SMILES IDX 60 66 63 67 57 68 58 69 61 70 59 71 6 72 7 73 8 74 9 76
REMARK SMILES IDX 10 77 11 78 15 79 12 80 14 81 13 82 16 85 17 86 25 87 18 88
REMARK SMILES IDX 24 89 26 90 19 91 20 92 21 93 22 94 23 95
REMARK H PARENT 3 6 83 24 51 35 7 75 12 83 12 84
REMARK Flexibility Score: inf
ROOT
ATOM      1  C   UNL A   1      38.002  19.580  24.867  1.00  0.00     0.042 C 
ENDROOT
BRANCH   1   2
ATOM      2  C   UNL A   1      39.041  20.118  25.834  1.00  0.00     0.118 C 
BRANCH   2   3
ATOM      3  N   UNL A   1      40.204  19.242  25.934  1.00  0.00    -0.352 N 
ATOM      4  O   UNL A   1      42.372  18.650  25.855  1.00  0.00    -0.269 OA
ATOM      5  C   UNL A   1      41.543  19.530  26.054  1.00  0.00     0.251 C 
ATOM      6  H   UNL A   1      39.993  18.281  25.911  1.00  0.00     0.163 HD
BRANCH   5   7
ATOM      7  C   UNL A   1      41.989  20.897  26.399  1.00  0.00     0.039 A 
ATOM      8  C   UNL A   1      42.073  21.885  25.421  1.00  0.00     0.014 A 
ATOM      9  C   UNL A   1      42.284  21.212  27.729  1.00  0.00     0.014 A 
ATOM     10  C   UNL A   1      42.638  23.115  25.719  1.00  0.00     0.010 A 
ATOM     11  C   UNL A   1      42.722  22.499  28.056  1.00  0.00     0.010 A 
ATOM     12  C   UNL A   1      42.936  23.449  27.046  1.00  0.00    -0.014 A 
BRANCH  12  13
ATOM     13  C   UNL A   1      43.394  24.823  27.363  1.00  0.00     0.031 A 
ATOM     14  C   UNL A   1      42.456  25.827  27.965  1.00  0.00     0.074 A 
ATOM     15  C   UNL A   1      44.673  25.156  27.100  1.00  0.00     0.049 A 
ATOM     16  N   UNL A   1      42.658  27.094  28.225  1.00  0.00    -0.248 NA
ATOM     17  C   UNL A   1      41.108  25.350  28.308  1.00  0.00     0.031 C 
ATOM     18  C   UNL A   1      45.676  24.255  26.526  1.00  0.00     0.029 A 
ATOM     19  N   UNL A   1      45.351  26.334  27.278  1.00  0.00    -0.354 N 
ATOM     20  C   UNL A   1      41.456  27.573  28.731  1.00  0.00     0.074 A 
ATOM     21  C   UNL A   1      40.523  26.467  28.719  1.00  0.00     0.031 C 
ATOM     22  C   UNL A   1      46.845  24.900  26.427  1.00  0.00     0.029 A 
ATOM     23  C   UNL A   1      46.652  26.284  26.843  1.00  0.00     0.049 A 
ATOM     24  H   UNL A   1      44.944  27.136  27.677  1.00  0.00     0.167 HD
ATOM     25  C   UNL A   1      41.166  28.824  29.162  1.00  0.00     0.037 A 
ATOM     26  C   UNL A   1      47.578  27.253  26.744  1.00  0.00     0.037 A 
ATOM     27  C   UNL A   1      42.113  29.910  29.172  1.00  0.00     0.049 A 
ATOM     28  C   UNL A   1      47.220  28.641  27.182  1.00  0.00     0.074 A 
ATOM     29  C   UNL A   1      41.935  31.208  29.614  1.00  0.00     0.029 A 
ATOM     30  N   UNL A   1      43.420  29.824  28.707  1.00  0.00    -0.354 N 
ATOM     31  N   UNL A   1      46.085  29.083  27.670  1.00  0.00    -0.248 NA
ATOM     32  C   UNL A   1      48.262  29.665  27.055  1.00  0.00     0.031 C 
ATOM     33  C   UNL A   1      43.109  31.924  29.357  1.00  0.00     0.029 A 
ATOM     34  C   UNL A   1      44.048  31.054  28.824  1.00  0.00     0.049 A 
ATOM     35  H   UNL A   1      43.838  29.009  28.346  1.00  0.00     0.167 HD
ATOM     36  C   UNL A   1      46.285  30.430  27.936  1.00  0.00     0.074 A 
ATOM     37  C   UNL A   1      47.652  30.730  27.558  1.00  0.00     0.031 C 
ATOM     38  C   UNL A   1      45.414  31.331  28.453  1.00  0.00     0.037 A 
BRANCH  25  39
ATOM     39  C   UNL A   1      39.757  29.094  29.614  1.00  0.00     0.064 A 
ATOM     40  C   UNL A   1      39.358  28.938  30.950  1.00  0.00     0.173 A 
ATOM     41  C   UNL A   1      38.790  29.526  28.691  1.00  0.00     0.173 A 
ATOM     42  F   UNL A   1      40.236  28.517  31.872  1.00  0.00    -0.203 F 
ATOM     43  C   UNL A   1      38.036  29.158  31.336  1.00  0.00     0.198 A 
ATOM     44  C   UNL A   1      37.480  29.782  29.087  1.00  0.00     0.198 A 
ATOM     45  F   UNL A   1      39.116  29.703  27.401  1.00  0.00    -0.203 F 
ATOM     46  F   UNL A   1      37.666  28.936  32.604  1.00  0.00    -0.200 F 
ATOM     47  C   UNL A   1      37.101  29.584  30.405  1.00  0.00     0.200 A 
ATOM     48  F   UNL A   1      36.581  30.209  28.190  1.00  0.00    -0.200 F 
ATOM     49  F   UNL A   1      35.831  29.795  30.778  1.00  0.00    -0.200 F 
ENDBRANCH  25  39
BRANCH  26  50
ATOM     50  C   UNL A   1      48.915  26.926  26.187  1.00  0.00     0.064 A 
ATOM     51  C   UNL A   1      49.925  26.393  26.998  1.00  0.00     0.173 A 
ATOM     52  C   UNL A   1      49.190  27.084  24.819  1.00  0.00     0.173 A 
ATOM     53  F   UNL A   1      49.715  26.235  28.312  1.00  0.00    -0.203 F 
ATOM     54  C   UNL A   1      51.162  26.036  26.463  1.00  0.00     0.198 A 
ATOM     55  C   UNL A   1      50.414  26.697  24.281  1.00  0.00     0.198 A 
ATOM     56  F   UNL A   1      48.250  27.577  23.998  1.00  0.00    -0.203 F 
ATOM     57  F   UNL A   1      52.121  25.554  27.265  1.00  0.00    -0.200 F 
ATOM     58  C   UNL A   1      51.401  26.178  25.103  1.00  0.00     0.200 A 
ATOM     59  F   UNL A   1      50.630  26.812  22.963  1.00  0.00    -0.200 F 
ATOM     60  F   UNL A   1      52.583  25.814  24.588  1.00  0.00    -0.200 F 
ENDBRANCH  26  50
BRANCH  38  61
ATOM     61  C   UNL A   1      45.928  32.720  28.698  1.00  0.00     0.064 A 
ATOM     62  C   UNL A   1      45.805  33.737  27.741  1.00  0.00     0.173 A 
ATOM     63  C   UNL A   1      46.497  33.047  29.938  1.00  0.00     0.173 A 
ATOM     64  F   UNL A   1      45.285  33.470  26.534  1.00  0.00    -0.203 F 
ATOM     65  C   UNL A   1      46.247  35.029  28.012  1.00  0.00     0.198 A 
ATOM     66  C   UNL A   1      46.908  34.347  30.218  1.00  0.00     0.198 A 
ATOM     67  F   UNL A   1      46.634  32.109  30.889  1.00  0.00    -0.203 F 
ATOM     68  F   UNL A   1      46.157  35.978  27.071  1.00  0.00    -0.200 F 
ATOM     69  C   UNL A   1      46.786  35.335  29.254  1.00  0.00     0.200 A 
ATOM     70  F   UNL A   1      47.413  34.643  31.423  1.00  0.00    -0.200 F 
ATOM     71  F   UNL A   1      47.195  36.584  29.519  1.00  0.00    -0.200 F 
ENDBRANCH  38  61
ENDBRANCH  12  13
ENDBRANCH   5   7
ENDBRANCH   2   3
ENDBRANCH   1   2
BRANCH   1  72
ATOM     72  C   UNL A   1      36.663  20.285  25.001  1.00  0.00     0.117 C 
BRANCH  72  73
ATOM     73  N   UNL A   1      36.614  21.521  24.242  1.00  0.00    -0.354 N 
ATOM     74  C   UNL A   1      35.656  22.435  23.953  1.00  0.00     0.248 C 
ATOM     75  H   UNL A   1      37.484  21.749  23.840  1.00  0.00     0.163 HD
ATOM     76  O   UNL A   1      36.035  23.316  23.164  1.00  0.00    -0.272 OA
BRANCH  74  77
ATOM     77  C   UNL A   1      34.202  22.483  24.523  1.00  0.00     0.228 C 
ATOM     78  C   UNL A   1      33.472  21.161  24.864  1.00  0.00     0.296 C 
ATOM     79  N   UNL A   1      34.185  23.338  25.730  1.00  0.00    -0.333 N 
ATOM     80  N   UNL A   1      33.871  20.480  26.127  1.00  0.00    -0.343 N 
ATOM     81  C   UNL A   1      34.699  22.725  26.953  1.00  0.00     0.180 C 
ATOM     82  C   UNL A   1      33.868  21.453  27.243  1.00  0.00     0.282 C 
ATOM     83  H   UNL A   1      34.808  20.091  26.019  1.00  0.00     0.346 HD
ATOM     84  H   UNL A   1      33.209  19.731  26.330  1.00  0.00     0.346 HD
BRANCH  79  85
ATOM     85  C   UNL A   1      33.548  24.549  25.834  1.00  0.00     0.148 A 
ATOM     86  N   UNL A   1      34.344  25.637  25.663  1.00  0.00    -0.237 NA
ATOM     87  C   UNL A   1      32.190  24.730  26.153  1.00  0.00     0.084 A 
ATOM     88  C   UNL A   1      33.808  26.879  25.750  1.00  0.00     0.126 A 
ATOM     89  C   UNL A   1      31.671  26.022  26.275  1.00  0.00     0.039 A 
ATOM     90  Cl  UNL A   1      31.080  23.463  26.531  1.00  0.00    -0.080 Cl
ATOM     91  C   UNL A   1      32.487  27.129  26.061  1.00  0.00     0.075 A 
BRANCH  91  92
ATOM     92  C   UNL A   1      31.975  28.529  26.162  1.00  0.00     0.417 C 
ATOM     93  F   UNL A   1      31.028  28.809  25.225  1.00  0.00    -0.166 F 
ATOM     94  F   UNL A   1      31.402  28.789  27.368  1.00  0.00    -0.166 F 
ATOM     95  F   UNL A   1      32.947  29.469  26.000  1.00  0.00    -0.166 F 
ENDBRANCH  91  92
ENDBRANCH  79  85
ENDBRANCH  74  77
ENDBRANCH  72  73
ENDBRANCH   1  72
TORSDOF 12
ENDMDL
