MODEL 1
REMARK VINA RESULT:     -14.4      0.000      0.000
REMARK SMILES C[N@H+]1CCO[C@H](c2noc(-c3ccccc3C(=O)NCCCNC(=O)c3ccc(-c4c5nc(c(-c6c(F)c(F)c(F)c(F)c6F)c6ccc([nH]6)c(-c6c(F)c(F)c(F)c(F)c6F)c6nc(c(-c7c(F)c(F)c(F)c(F)c7F)c7ccc4[nH]7)C=C6)C=C5)cc3)n2)C1
REMARK SMILES IDX 21 1 20 2 19 3 17 4 18 5 16 7 11 8 12 9 13 10 15 11 14 12
REMARK SMILES IDX 10 13 7 14 8 15 89 16 9 17 6 18 1 19 2 20 3 21 90 22 4 24
REMARK SMILES IDX 5 25 22 26 23 27 24 28 25 30 26 31 27 32 88 33 28 34 87 35
REMARK SMILES IDX 29 36 30 37 31 38 81 39 32 40 86 41 80 42 82 43 33 44 85 45
REMARK SMILES IDX 79 46 78 47 34 49 66 50 46 51 65 52 47 53 50 54 64 55 83 56
REMARK SMILES IDX 48 57 49 58 63 60 84 61 51 62 35 63 36 64 44 65 37 66 38 67
REMARK SMILES IDX 42 68 45 69 39 70 40 71 43 72 41 73 67 74 68 75 76 76 69 77
REMARK SMILES IDX 70 78 74 79 77 80 71 81 72 82 75 83 73 84 52 85 53 86 61 87
REMARK SMILES IDX 54 88 55 89 59 90 62 91 56 92 57 93 60 94 58 95
REMARK H PARENT 19 6 2 23 23 29 82 48 50 59
REMARK Flexibility Score: inf
ROOT
ATOM      1  C   UNL A   1      38.030  22.182  25.285  1.00  0.00     0.042 C 
ENDROOT
BRANCH   1   2
ATOM      2  C   UNL A   1      36.675  21.498  25.436  1.00  0.00     0.118 C 
BRANCH   2   3
ATOM      3  N   UNL A   1      35.828  21.995  26.503  1.00  0.00    -0.352 N 
ATOM      4  C   UNL A   1      34.660  22.713  26.498  1.00  0.00     0.252 C 
ATOM      5  O   UNL A   1      34.039  22.782  27.562  1.00  0.00    -0.269 OA
ATOM      6  H   UNL A   1      36.155  21.773  27.405  1.00  0.00     0.163 HD
BRANCH   4   7
ATOM      7  C   UNL A   1      34.166  23.539  25.361  1.00  0.00     0.052 A 
ATOM      8  C   UNL A   1      33.396  23.120  24.263  1.00  0.00     0.053 A 
ATOM      9  C   UNL A   1      32.992  24.091  23.314  1.00  0.00     0.015 A 
ATOM     10  C   UNL A   1      33.303  25.443  23.463  1.00  0.00     0.001 A 
ATOM     11  C   UNL A   1      34.455  24.916  25.504  1.00  0.00     0.014 A 
ATOM     12  C   UNL A   1      34.029  25.859  24.568  1.00  0.00     0.001 A 
BRANCH   8  13
ATOM     13  C   UNL A   1      32.955  21.750  24.051  1.00  0.00     0.258 A 
ATOM     14  C   UNL A   1      32.631  19.681  23.917  1.00  0.00     0.206 A 
ATOM     15  N   UNL A   1      32.048  20.150  22.804  1.00  0.00    -0.059 NA
ATOM     16  N   UNL A   1      33.176  20.652  24.732  1.00  0.00    -0.189 NA
ATOM     17  O   UNL A   1      32.259  21.525  22.891  1.00  0.00    -0.334 OA
BRANCH  14  18
ATOM     18  C   UNL A   1      32.805  18.215  24.172  1.00  0.00     0.245 C 
ATOM     19  C   UNL A   1      32.114  15.630  25.853  1.00  0.00     0.332 C 
ATOM     20  N   UNL A   1      33.248  16.529  26.051  1.00  0.00    -0.333 N 
ATOM     21  C   UNL A   1      34.418  16.117  25.252  1.00  0.00     0.290 C 
ATOM     22  C   UNL A   1      32.918  17.931  25.694  1.00  0.00     0.303 C 
ATOM     23  H   UNL A   1      33.471  16.477  27.046  1.00  0.00     0.348 HD
ATOM     24  C   UNL A   1      34.226  16.354  23.751  1.00  0.00     0.222 C 
ATOM     25  O   UNL A   1      33.967  17.728  23.461  1.00  0.00    -0.358 OA
ENDBRANCH  14  18
ENDBRANCH   8  13
ENDBRANCH   4   7
ENDBRANCH   2   3
ENDBRANCH   1   2
BRANCH   1  26
ATOM     26  C   UNL A   1      39.139  21.703  26.214  1.00  0.00     0.118 C 
BRANCH  26  27
ATOM     27  N   UNL A   1      40.489  21.790  25.686  1.00  0.00    -0.352 N 
ATOM     28  C   UNL A   1      41.474  22.735  25.815  1.00  0.00     0.251 C 
ATOM     29  H   UNL A   1      40.748  21.021  25.128  1.00  0.00     0.163 HD
ATOM     30  O   UNL A   1      42.585  22.516  25.337  1.00  0.00    -0.269 OA
BRANCH  28  31
ATOM     31  C   UNL A   1      41.254  24.026  26.500  1.00  0.00     0.039 A 
ATOM     32  C   UNL A   1      41.965  25.152  26.050  1.00  0.00     0.014 A 
ATOM     33  C   UNL A   1      40.505  24.105  27.671  1.00  0.00     0.014 A 
ATOM     34  C   UNL A   1      41.922  26.356  26.762  1.00  0.00     0.010 A 
ATOM     35  C   UNL A   1      40.434  25.312  28.362  1.00  0.00     0.010 A 
ATOM     36  C   UNL A   1      41.161  26.436  27.931  1.00  0.00    -0.014 A 
BRANCH  36  37
ATOM     37  C   UNL A   1      41.161  27.621  28.821  1.00  0.00     0.031 A 
ATOM     38  C   UNL A   1      42.039  27.585  30.035  1.00  0.00     0.074 A 
ATOM     39  C   UNL A   1      40.258  28.600  28.652  1.00  0.00     0.049 A 
ATOM     40  N   UNL A   1      41.909  28.207  31.176  1.00  0.00    -0.248 NA
ATOM     41  C   UNL A   1      43.198  26.681  29.963  1.00  0.00     0.031 C 
ATOM     42  C   UNL A   1      39.379  28.751  27.495  1.00  0.00     0.029 A 
ATOM     43  N   UNL A   1      39.877  29.609  29.503  1.00  0.00    -0.354 N 
ATOM     44  C   UNL A   1      42.920  27.709  31.987  1.00  0.00     0.074 A 
ATOM     45  C   UNL A   1      43.673  26.757  31.199  1.00  0.00     0.031 C 
ATOM     46  C   UNL A   1      38.511  29.747  27.735  1.00  0.00     0.029 A 
ATOM     47  C   UNL A   1      38.739  30.255  29.086  1.00  0.00     0.049 A 
ATOM     48  H   UNL A   1      40.368  29.844  30.324  1.00  0.00     0.167 HD
ATOM     49  C   UNL A   1      43.170  28.011  33.283  1.00  0.00     0.037 A 
ATOM     50  C   UNL A   1      37.926  31.098  29.752  1.00  0.00     0.037 A 
ATOM     51  C   UNL A   1      42.438  29.002  34.026  1.00  0.00     0.049 A 
ATOM     52  C   UNL A   1      38.239  31.444  31.182  1.00  0.00     0.074 A 
ATOM     53  C   UNL A   1      42.654  29.454  35.316  1.00  0.00     0.029 A 
ATOM     54  N   UNL A   1      41.347  29.701  33.532  1.00  0.00    -0.354 N 
ATOM     55  N   UNL A   1      39.186  30.972  31.957  1.00  0.00    -0.248 NA
ATOM     56  C   UNL A   1      37.366  32.430  31.833  1.00  0.00     0.031 C 
ATOM     57  C   UNL A   1      41.674  30.407  35.613  1.00  0.00     0.029 A 
ATOM     58  C   UNL A   1      40.868  30.572  34.496  1.00  0.00     0.049 A 
ATOM     59  H   UNL A   1      40.968  29.595  32.629  1.00  0.00     0.167 HD
ATOM     60  C   UNL A   1      39.028  31.605  33.183  1.00  0.00     0.074 A 
ATOM     61  C   UNL A   1      37.903  32.508  33.044  1.00  0.00     0.031 C 
ATOM     62  C   UNL A   1      39.745  31.454  34.324  1.00  0.00     0.037 A 
BRANCH  49  63
ATOM     63  C   UNL A   1      44.246  27.242  33.989  1.00  0.00     0.064 A 
ATOM     64  C   UNL A   1      45.574  27.686  34.033  1.00  0.00     0.173 A 
ATOM     65  C   UNL A   1      43.928  26.055  34.669  1.00  0.00     0.173 A 
ATOM     66  F   UNL A   1      45.933  28.805  33.388  1.00  0.00    -0.203 F 
ATOM     67  C   UNL A   1      46.549  26.960  34.716  1.00  0.00     0.198 A 
ATOM     68  C   UNL A   1      44.899  25.346  35.371  1.00  0.00     0.198 A 
ATOM     69  F   UNL A   1      42.670  25.586  34.659  1.00  0.00    -0.203 F 
ATOM     70  F   UNL A   1      47.820  27.385  34.714  1.00  0.00    -0.200 F 
ATOM     71  C   UNL A   1      46.209  25.797  35.391  1.00  0.00     0.200 A 
ATOM     72  F   UNL A   1      44.566  24.227  36.031  1.00  0.00    -0.200 F 
ATOM     73  F   UNL A   1      47.147  25.107  36.055  1.00  0.00    -0.200 F 
ENDBRANCH  49  63
BRANCH  50  74
ATOM     74  C   UNL A   1      36.701  31.613  29.089  1.00  0.00     0.064 A 
ATOM     75  C   UNL A   1      35.598  30.779  28.864  1.00  0.00     0.173 A 
ATOM     76  C   UNL A   1      36.600  32.954  28.688  1.00  0.00     0.173 A 
ATOM     77  F   UNL A   1      35.660  29.484  29.206  1.00  0.00    -0.203 F 
ATOM     78  C   UNL A   1      34.442  31.265  28.259  1.00  0.00     0.198 A 
ATOM     79  C   UNL A   1      35.434  33.445  28.105  1.00  0.00     0.198 A 
ATOM     80  F   UNL A   1      37.628  33.792  28.882  1.00  0.00    -0.203 F 
ATOM     81  F   UNL A   1      33.412  30.440  28.028  1.00  0.00    -0.200 F 
ATOM     82  C   UNL A   1      34.357  32.600  27.888  1.00  0.00     0.200 A 
ATOM     83  F   UNL A   1      35.352  34.736  27.758  1.00  0.00    -0.200 F 
ATOM     84  F   UNL A   1      33.239  33.069  27.317  1.00  0.00    -0.200 F 
ENDBRANCH  50  74
BRANCH  62  85
ATOM     85  C   UNL A   1      39.341  32.294  35.495  1.00  0.00     0.064 A 
ATOM     86  C   UNL A   1      38.485  31.796  36.487  1.00  0.00     0.173 A 
ATOM     87  C   UNL A   1      39.853  33.590  35.649  1.00  0.00     0.173 A 
ATOM     88  F   UNL A   1      37.962  30.567  36.373  1.00  0.00    -0.203 F 
ATOM     89  C   UNL A   1      38.143  32.577  37.588  1.00  0.00     0.198 A 
ATOM     90  C   UNL A   1      39.523  34.360  36.761  1.00  0.00     0.198 A 
ATOM     91  F   UNL A   1      40.679  34.105  34.726  1.00  0.00    -0.203 F 
ATOM     92  F   UNL A   1      37.298  32.096  38.511  1.00  0.00    -0.200 F 
ATOM     93  C   UNL A   1      38.666  33.854  37.726  1.00  0.00     0.200 A 
ATOM     94  F   UNL A   1      40.035  35.592  36.896  1.00  0.00    -0.200 F 
ATOM     95  F   UNL A   1      38.338  34.601  38.789  1.00  0.00    -0.200 F 
ENDBRANCH  62  85
ENDBRANCH  36  37
ENDBRANCH  28  31
ENDBRANCH  26  27
ENDBRANCH   1  26
TORSDOF 12
ENDMDL
MODEL 2
REMARK VINA RESULT:     -14.1      0.774      1.813
REMARK SMILES C[N@H+]1CCO[C@H](c2noc(-c3ccccc3C(=O)NCCCNC(=O)c3ccc(-c4c5nc(c(-c6c(F)c(F)c(F)c(F)c6F)c6ccc([nH]6)c(-c6c(F)c(F)c(F)c(F)c6F)c6nc(c(-c7c(F)c(F)c(F)c(F)c7F)c7ccc4[nH]7)C=C6)C=C5)cc3)n2)C1
REMARK SMILES IDX 21 1 20 2 19 3 17 4 18 5 16 7 11 8 12 9 13 10 15 11 14 12
REMARK SMILES IDX 10 13 7 14 8 15 89 16 9 17 6 18 1 19 2 20 3 21 90 22 4 24
REMARK SMILES IDX 5 25 22 26 23 27 24 28 25 30 26 31 27 32 88 33 28 34 87 35
REMARK SMILES IDX 29 36 30 37 31 38 81 39 32 40 86 41 80 42 82 43 33 44 85 45
REMARK SMILES IDX 79 46 78 47 34 49 66 50 46 51 65 52 47 53 50 54 64 55 83 56
REMARK SMILES IDX 48 57 49 58 63 60 84 61 51 62 35 63 36 64 44 65 37 66 38 67
REMARK SMILES IDX 42 68 45 69 39 70 40 71 43 72 41 73 67 74 68 75 76 76 69 77
REMARK SMILES IDX 70 78 74 79 77 80 71 81 72 82 75 83 73 84 52 85 53 86 61 87
REMARK SMILES IDX 54 88 55 89 59 90 62 91 56 92 57 93 60 94 58 95
REMARK H PARENT 19 6 2 23 23 29 82 48 50 59
REMARK Flexibility Score: inf
ROOT
ATOM      1  C   UNL A   1      38.181  22.760  25.679  1.00  0.00     0.042 C 
ENDROOT
BRANCH   1   2
ATOM      2  C   UNL A   1      36.843  22.098  25.364  1.00  0.00     0.118 C 
BRANCH   2   3
ATOM      3  N   UNL A   1      36.309  22.347  24.039  1.00  0.00    -0.352 N 
ATOM      4  C   UNL A   1      35.275  23.130  23.592  1.00  0.00     0.252 C 
ATOM      5  O   UNL A   1      35.210  23.332  22.376  1.00  0.00    -0.269 OA
ATOM      6  H   UNL A   1      36.779  21.863  23.323  1.00  0.00     0.163 HD
BRANCH   4   7
ATOM      7  C   UNL A   1      34.147  23.622  24.431  1.00  0.00     0.052 A 
ATOM      8  C   UNL A   1      32.989  22.924  24.814  1.00  0.00     0.053 A 
ATOM      9  C   UNL A   1      32.061  23.574  25.664  1.00  0.00     0.015 A 
ATOM     10  C   UNL A   1      32.286  24.860  26.155  1.00  0.00     0.001 A 
ATOM     11  C   UNL A   1      34.365  24.918  24.955  1.00  0.00     0.014 A 
ATOM     12  C   UNL A   1      33.447  25.532  25.808  1.00  0.00     0.001 A 
BRANCH   8  13
ATOM     13  C   UNL A   1      32.694  21.555  24.420  1.00  0.00     0.258 A 
ATOM     14  C   UNL A   1      32.549  19.491  24.072  1.00  0.00     0.206 A 
ATOM     15  N   UNL A   1      32.154  20.022  22.905  1.00  0.00    -0.059 NA
ATOM     16  N   UNL A   1      32.861  20.416  25.047  1.00  0.00    -0.189 NA
ATOM     17  O   UNL A   1      32.246  21.393  23.134  1.00  0.00    -0.334 OA
BRANCH  14  18
ATOM     18  C   UNL A   1      32.777  18.020  24.244  1.00  0.00     0.245 C 
ATOM     19  C   UNL A   1      32.150  15.314  25.751  1.00  0.00     0.332 C 
ATOM     20  N   UNL A   1      33.241  16.244  26.033  1.00  0.00    -0.333 N 
ATOM     21  C   UNL A   1      34.447  15.927  25.244  1.00  0.00     0.290 C 
ATOM     22  C   UNL A   1      32.863  17.650  25.750  1.00  0.00     0.303 C 
ATOM     23  H   UNL A   1      33.441  16.141  27.028  1.00  0.00     0.348 HD
ATOM     24  C   UNL A   1      34.283  16.245  23.754  1.00  0.00     0.222 C 
ATOM     25  O   UNL A   1      33.975  17.622  23.538  1.00  0.00    -0.358 OA
ENDBRANCH  14  18
ENDBRANCH   8  13
ENDBRANCH   4   7
ENDBRANCH   2   3
ENDBRANCH   1   2
BRANCH   1  26
ATOM     26  C   UNL A   1      39.252  21.867  26.295  1.00  0.00     0.118 C 
BRANCH  26  27
ATOM     27  N   UNL A   1      40.591  22.017  25.752  1.00  0.00    -0.352 N 
ATOM     28  C   UNL A   1      41.541  22.996  25.890  1.00  0.00     0.251 C 
ATOM     29  H   UNL A   1      40.870  21.272  25.173  1.00  0.00     0.163 HD
ATOM     30  O   UNL A   1      42.653  22.830  25.393  1.00  0.00    -0.269 OA
BRANCH  28  31
ATOM     31  C   UNL A   1      41.282  24.261  26.608  1.00  0.00     0.039 A 
ATOM     32  C   UNL A   1      41.942  25.424  26.175  1.00  0.00     0.014 A 
ATOM     33  C   UNL A   1      40.549  24.285  27.792  1.00  0.00     0.014 A 
ATOM     34  C   UNL A   1      41.864  26.609  26.914  1.00  0.00     0.010 A 
ATOM     35  C   UNL A   1      40.443  25.472  28.512  1.00  0.00     0.010 A 
ATOM     36  C   UNL A   1      41.119  26.633  28.096  1.00  0.00    -0.014 A 
BRANCH  36  37
ATOM     37  C   UNL A   1      41.087  27.797  29.013  1.00  0.00     0.031 A 
ATOM     38  C   UNL A   1      41.946  27.745  30.241  1.00  0.00     0.074 A 
ATOM     39  C   UNL A   1      40.172  28.766  28.852  1.00  0.00     0.049 A 
ATOM     40  N   UNL A   1      41.788  28.338  31.393  1.00  0.00    -0.248 NA
ATOM     41  C   UNL A   1      43.119  26.860  30.167  1.00  0.00     0.031 C 
ATOM     42  C   UNL A   1      39.310  28.931  27.685  1.00  0.00     0.029 A 
ATOM     43  N   UNL A   1      39.763  29.749  29.720  1.00  0.00    -0.354 N 
ATOM     44  C   UNL A   1      42.794  27.836  32.209  1.00  0.00     0.074 A 
ATOM     45  C   UNL A   1      43.573  26.913  31.411  1.00  0.00     0.031 C 
ATOM     46  C   UNL A   1      38.424  29.909  27.934  1.00  0.00     0.029 A 
ATOM     47  C   UNL A   1      38.622  30.389  29.300  1.00  0.00     0.049 A 
ATOM     48  H   UNL A   1      40.237  29.972  30.554  1.00  0.00     0.167 HD
ATOM     49  C   UNL A   1      43.018  28.111  33.516  1.00  0.00     0.037 A 
ATOM     50  C   UNL A   1      37.787  31.204  29.972  1.00  0.00     0.037 A 
ATOM     51  C   UNL A   1      42.260  29.074  34.269  1.00  0.00     0.049 A 
ATOM     52  C   UNL A   1      38.071  31.520  31.415  1.00  0.00     0.074 A 
ATOM     53  C   UNL A   1      42.449  29.498  35.573  1.00  0.00     0.029 A 
ATOM     54  N   UNL A   1      41.167  29.768  33.774  1.00  0.00    -0.354 N 
ATOM     55  N   UNL A   1      39.012  31.044  32.194  1.00  0.00    -0.248 NA
ATOM     56  C   UNL A   1      37.173  32.479  32.074  1.00  0.00     0.031 C 
ATOM     57  C   UNL A   1      41.450  30.430  35.875  1.00  0.00     0.029 A 
ATOM     58  C   UNL A   1      40.660  30.609  34.750  1.00  0.00     0.049 A 
ATOM     59  H   UNL A   1      40.804  29.677  32.863  1.00  0.00     0.167 HD
ATOM     60  C   UNL A   1      38.826  31.646  33.431  1.00  0.00     0.074 A 
ATOM     61  C   UNL A   1      37.690  32.536  33.295  1.00  0.00     0.031 C 
ATOM     62  C   UNL A   1      39.526  31.479  34.580  1.00  0.00     0.037 A 
BRANCH  49  63
ATOM     63  C   UNL A   1      44.094  27.341  34.221  1.00  0.00     0.064 A 
ATOM     64  C   UNL A   1      43.858  26.084  34.794  1.00  0.00     0.173 A 
ATOM     65  C   UNL A   1      45.398  27.858  34.288  1.00  0.00     0.173 A 
ATOM     66  F   UNL A   1      42.628  25.552  34.770  1.00  0.00    -0.203 F 
ATOM     67  C   UNL A   1      44.883  25.381  35.424  1.00  0.00     0.198 A 
ATOM     68  C   UNL A   1      46.425  27.142  34.896  1.00  0.00     0.198 A 
ATOM     69  F   UNL A   1      45.678  29.058  33.754  1.00  0.00    -0.203 F 
ATOM     70  F   UNL A   1      44.627  24.197  35.997  1.00  0.00    -0.200 F 
ATOM     71  C   UNL A   1      46.167  25.906  35.467  1.00  0.00     0.200 A 
ATOM     72  F   UNL A   1      47.667  27.647  34.928  1.00  0.00    -0.200 F 
ATOM     73  F   UNL A   1      47.153  25.224  36.066  1.00  0.00    -0.200 F 
ENDBRANCH  49  63
BRANCH  50  74
ATOM     74  C   UNL A   1      36.565  31.717  29.301  1.00  0.00     0.064 A 
ATOM     75  C   UNL A   1      36.453  33.066  28.941  1.00  0.00     0.173 A 
ATOM     76  C   UNL A   1      35.495  30.865  28.985  1.00  0.00     0.173 A 
ATOM     77  F   UNL A   1      37.439  33.922  29.247  1.00  0.00    -0.203 F 
ATOM     78  C   UNL A   1      35.316  33.545  28.295  1.00  0.00     0.198 A 
ATOM     79  C   UNL A   1      34.369  31.340  28.317  1.00  0.00     0.198 A 
ATOM     80  F   UNL A   1      35.554  29.565  29.309  1.00  0.00    -0.203 F 
ATOM     81  F   UNL A   1      35.221  34.846  27.988  1.00  0.00    -0.200 F 
ATOM     82  C   UNL A   1      34.279  32.680  27.976  1.00  0.00     0.200 A 
ATOM     83  F   UNL A   1      33.375  30.500  28.001  1.00  0.00    -0.200 F 
ATOM     84  F   UNL A   1      33.191  33.141  27.343  1.00  0.00    -0.200 F 
ENDBRANCH  50  74
BRANCH  62  85
ATOM     85  C   UNL A   1      39.092  32.285  35.764  1.00  0.00     0.064 A 
ATOM     86  C   UNL A   1      38.255  31.741  36.747  1.00  0.00     0.173 A 
ATOM     87  C   UNL A   1      39.555  33.597  35.938  1.00  0.00     0.173 A 
ATOM     88  F   UNL A   1      37.778  30.494  36.614  1.00  0.00    -0.203 F 
ATOM     89  C   UNL A   1      37.884  32.491  37.860  1.00  0.00     0.198 A 
ATOM     90  C   UNL A   1      39.196  34.336  37.061  1.00  0.00     0.198 A 
ATOM     91  F   UNL A   1      40.361  34.156  35.023  1.00  0.00    -0.203 F 
ATOM     92  F   UNL A   1      37.057  31.965  38.775  1.00  0.00    -0.200 F 
ATOM     93  C   UNL A   1      38.359  33.785  38.018  1.00  0.00     0.200 A 
ATOM     94  F   UNL A   1      39.662  35.584  37.215  1.00  0.00    -0.200 F 
ATOM     95  F   UNL A   1      38.003  34.503  39.092  1.00  0.00    -0.200 F 
ENDBRANCH  62  85
ENDBRANCH  36  37
ENDBRANCH  28  31
ENDBRANCH  26  27
ENDBRANCH   1  26
TORSDOF 12
ENDMDL
MODEL 3
REMARK VINA RESULT:     -14.1      5.567     10.410
REMARK SMILES C[N@H+]1CCO[C@H](c2noc(-c3ccccc3C(=O)NCCCNC(=O)c3ccc(-c4c5nc(c(-c6c(F)c(F)c(F)c(F)c6F)c6ccc([nH]6)c(-c6c(F)c(F)c(F)c(F)c6F)c6nc(c(-c7c(F)c(F)c(F)c(F)c7F)c7ccc4[nH]7)C=C6)C=C5)cc3)n2)C1
REMARK SMILES IDX 21 1 20 2 19 3 17 4 18 5 16 7 11 8 12 9 13 10 15 11 14 12
REMARK SMILES IDX 10 13 7 14 8 15 89 16 9 17 6 18 1 19 2 20 3 21 90 22 4 24
REMARK SMILES IDX 5 25 22 26 23 27 24 28 25 30 26 31 27 32 88 33 28 34 87 35
REMARK SMILES IDX 29 36 30 37 31 38 81 39 32 40 86 41 80 42 82 43 33 44 85 45
REMARK SMILES IDX 79 46 78 47 34 49 66 50 46 51 65 52 47 53 50 54 64 55 83 56
REMARK SMILES IDX 48 57 49 58 63 60 84 61 51 62 35 63 36 64 44 65 37 66 38 67
REMARK SMILES IDX 42 68 45 69 39 70 40 71 43 72 41 73 67 74 68 75 76 76 69 77
REMARK SMILES IDX 70 78 74 79 77 80 71 81 72 82 75 83 73 84 52 85 53 86 61 87
REMARK SMILES IDX 54 88 55 89 59 90 62 91 56 92 57 93 60 94 58 95
REMARK H PARENT 19 6 2 23 23 29 82 48 50 59
REMARK Flexibility Score: inf
ROOT
ATOM      1  C   UNL A   1      32.119  29.362  26.925  1.00  0.00     0.042 C 
ENDROOT
BRANCH   1   2
ATOM      2  C   UNL A   1      32.073  28.008  27.627  1.00  0.00     0.118 C 
BRANCH   2   3
ATOM      3  N   UNL A   1      31.080  27.073  27.134  1.00  0.00    -0.352 N 
ATOM      4  C   UNL A   1      31.185  25.869  26.485  1.00  0.00     0.252 C 
ATOM      5  O   UNL A   1      30.163  25.183  26.408  1.00  0.00    -0.269 OA
ATOM      6  H   UNL A   1      30.151  27.356  27.298  1.00  0.00     0.163 HD
BRANCH   4   7
ATOM      7  C   UNL A   1      32.386  25.399  25.740  1.00  0.00     0.052 A 
ATOM      8  C   UNL A   1      32.818  25.798  24.463  1.00  0.00     0.053 A 
ATOM      9  C   UNL A   1      34.026  25.254  23.962  1.00  0.00     0.015 A 
ATOM     10  C   UNL A   1      34.808  24.375  24.712  1.00  0.00     0.001 A 
ATOM     11  C   UNL A   1      33.202  24.522  26.492  1.00  0.00     0.014 A 
ATOM     12  C   UNL A   1      34.399  24.015  25.987  1.00  0.00     0.001 A 
BRANCH   8  13
ATOM     13  C   UNL A   1      32.119  26.763  23.630  1.00  0.00     0.258 A 
ATOM     14  C   UNL A   1      30.941  28.253  22.739  1.00  0.00     0.206 A 
ATOM     15  N   UNL A   1      31.070  27.346  21.760  1.00  0.00    -0.059 NA
ATOM     16  N   UNL A   1      31.608  27.938  23.905  1.00  0.00    -0.189 NA
ATOM     17  O   UNL A   1      31.855  26.356  22.348  1.00  0.00    -0.334 OA
BRANCH  14  18
ATOM     18  C   UNL A   1      30.023  29.432  22.621  1.00  0.00     0.245 C 
ATOM     19  C   UNL A   1      27.659  31.183  23.774  1.00  0.00     0.332 C 
ATOM     20  N   UNL A   1      27.554  30.097  22.803  1.00  0.00    -0.333 N 
ATOM     21  C   UNL A   1      27.701  30.586  21.419  1.00  0.00     0.290 C 
ATOM     22  C   UNL A   1      28.576  29.046  23.030  1.00  0.00     0.303 C 
ATOM     23  H   UNL A   1      26.624  29.699  22.934  1.00  0.00     0.348 HD
ATOM     24  C   UNL A   1      29.133  31.020  21.090  1.00  0.00     0.222 C 
ATOM     25  O   UNL A   1      30.065  29.954  21.273  1.00  0.00    -0.358 OA
ENDBRANCH  14  18
ENDBRANCH   8  13
ENDBRANCH   4   7
ENDBRANCH   2   3
ENDBRANCH   1   2
BRANCH   1  26
ATOM     26  C   UNL A   1      33.465  30.078  26.921  1.00  0.00     0.118 C 
BRANCH  26  27
ATOM     27  N   UNL A   1      33.651  31.085  27.951  1.00  0.00    -0.352 N 
ATOM     28  C   UNL A   1      34.698  31.368  28.790  1.00  0.00     0.251 C 
ATOM     29  H   UNL A   1      32.875  31.679  28.070  1.00  0.00     0.163 HD
ATOM     30  O   UNL A   1      34.636  32.358  29.517  1.00  0.00    -0.269 OA
BRANCH  28  31
ATOM     31  C   UNL A   1      35.907  30.522  28.868  1.00  0.00     0.039 A 
ATOM     32  C   UNL A   1      36.254  29.965  30.111  1.00  0.00     0.014 A 
ATOM     33  C   UNL A   1      36.787  30.416  27.794  1.00  0.00     0.014 A 
ATOM     34  C   UNL A   1      37.471  29.296  30.280  1.00  0.00     0.010 A 
ATOM     35  C   UNL A   1      37.984  29.722  27.951  1.00  0.00     0.010 A 
ATOM     36  C   UNL A   1      38.348  29.181  29.198  1.00  0.00    -0.014 A 
BRANCH  36  37
ATOM     37  C   UNL A   1      39.711  28.611  29.313  1.00  0.00     0.031 A 
ATOM     38  C   UNL A   1      40.859  29.564  29.458  1.00  0.00     0.074 A 
ATOM     39  C   UNL A   1      39.924  27.304  29.092  1.00  0.00     0.049 A 
ATOM     40  N   UNL A   1      42.111  29.417  29.119  1.00  0.00    -0.248 NA
ATOM     41  C   UNL A   1      40.531  30.885  30.019  1.00  0.00     0.031 C 
ATOM     42  C   UNL A   1      38.884  26.285  28.970  1.00  0.00     0.029 A 
ATOM     43  N   UNL A   1      41.094  26.627  28.849  1.00  0.00    -0.354 N 
ATOM     44  C   UNL A   1      42.704  30.652  29.350  1.00  0.00     0.074 A 
ATOM     45  C   UNL A   1      41.682  31.527  29.883  1.00  0.00     0.031 C 
ATOM     46  C   UNL A   1      39.453  25.125  28.605  1.00  0.00     0.029 A 
ATOM     47  C   UNL A   1      40.885  25.343  28.409  1.00  0.00     0.049 A 
ATOM     48  H   UNL A   1      41.989  27.021  28.976  1.00  0.00     0.167 HD
ATOM     49  C   UNL A   1      43.986  31.016  29.106  1.00  0.00     0.037 A 
ATOM     50  C   UNL A   1      41.737  24.473  27.834  1.00  0.00     0.037 A 
ATOM     51  C   UNL A   1      44.994  30.109  28.625  1.00  0.00     0.049 A 
ATOM     52  C   UNL A   1      43.164  24.887  27.601  1.00  0.00     0.074 A 
ATOM     53  C   UNL A   1      46.343  30.342  28.422  1.00  0.00     0.029 A 
ATOM     54  N   UNL A   1      44.757  28.788  28.279  1.00  0.00    -0.354 N 
ATOM     55  N   UNL A   1      43.729  26.052  27.806  1.00  0.00    -0.248 NA
ATOM     56  C   UNL A   1      44.068  23.870  27.046  1.00  0.00     0.031 C 
ATOM     57  C   UNL A   1      46.916  29.166  27.924  1.00  0.00     0.029 A 
ATOM     58  C   UNL A   1      45.930  28.194  27.849  1.00  0.00     0.049 A 
ATOM     59  H   UNL A   1      43.882  28.338  28.331  1.00  0.00     0.167 HD
ATOM     60  C   UNL A   1      45.054  25.909  27.414  1.00  0.00     0.074 A 
ATOM     61  C   UNL A   1      45.212  24.538  26.972  1.00  0.00     0.031 C 
ATOM     62  C   UNL A   1      46.051  26.828  27.414  1.00  0.00     0.037 A 
BRANCH  49  63
ATOM     63  C   UNL A   1      44.360  32.452  29.317  1.00  0.00     0.064 A 
ATOM     64  C   UNL A   1      44.737  32.949  30.572  1.00  0.00     0.173 A 
ATOM     65  C   UNL A   1      44.380  33.339  28.228  1.00  0.00     0.173 A 
ATOM     66  F   UNL A   1      44.721  32.147  31.647  1.00  0.00    -0.203 F 
ATOM     67  C   UNL A   1      45.102  34.284  30.734  1.00  0.00     0.198 A 
ATOM     68  C   UNL A   1      44.769  34.666  28.388  1.00  0.00     0.198 A 
ATOM     69  F   UNL A   1      44.028  32.915  27.004  1.00  0.00    -0.203 F 
ATOM     70  F   UNL A   1      45.423  34.746  31.950  1.00  0.00    -0.200 F 
ATOM     71  C   UNL A   1      45.125  35.139  29.641  1.00  0.00     0.200 A 
ATOM     72  F   UNL A   1      44.800  35.488  27.330  1.00  0.00    -0.200 F 
ATOM     73  F   UNL A   1      45.485  36.420  29.798  1.00  0.00    -0.200 F 
ENDBRANCH  49  63
BRANCH  50  74
ATOM     74  C   UNL A   1      41.238  23.150  27.378  1.00  0.00     0.064 A 
ATOM     75  C   UNL A   1      41.741  21.963  27.925  1.00  0.00     0.173 A 
ATOM     76  C   UNL A   1      40.232  23.048  26.405  1.00  0.00     0.173 A 
ATOM     77  F   UNL A   1      42.721  22.011  28.838  1.00  0.00    -0.203 F 
ATOM     78  C   UNL A   1      41.260  20.722  27.512  1.00  0.00     0.198 A 
ATOM     79  C   UNL A   1      39.735  21.808  26.010  1.00  0.00     0.198 A 
ATOM     80  F   UNL A   1      39.718  24.156  25.851  1.00  0.00    -0.203 F 
ATOM     81  F   UNL A   1      41.780  19.600  28.028  1.00  0.00    -0.200 F 
ATOM     82  C   UNL A   1      40.253  20.646  26.561  1.00  0.00     0.200 A 
ATOM     83  F   UNL A   1      38.754  21.738  25.101  1.00  0.00    -0.200 F 
ATOM     84  F   UNL A   1      39.783  19.452  26.174  1.00  0.00    -0.200 F 
ENDBRANCH  50  74
BRANCH  62  85
ATOM     85  C   UNL A   1      47.395  26.371  26.940  1.00  0.00     0.064 A 
ATOM     86  C   UNL A   1      47.807  26.575  25.616  1.00  0.00     0.173 A 
ATOM     87  C   UNL A   1      48.294  25.766  27.830  1.00  0.00     0.173 A 
ATOM     88  F   UNL A   1      46.974  27.137  24.727  1.00  0.00    -0.203 F 
ATOM     89  C   UNL A   1      49.073  26.173  25.195  1.00  0.00     0.198 A 
ATOM     90  C   UNL A   1      49.564  25.383  27.409  1.00  0.00     0.198 A 
ATOM     91  F   UNL A   1      47.942  25.555  29.106  1.00  0.00    -0.203 F 
ATOM     92  F   UNL A   1      49.438  26.347  23.918  1.00  0.00    -0.200 F 
ATOM     93  C   UNL A   1      49.950  25.583  26.093  1.00  0.00     0.200 A 
ATOM     94  F   UNL A   1      50.414  24.820  28.279  1.00  0.00    -0.200 F 
ATOM     95  F   UNL A   1      51.169  25.202  25.686  1.00  0.00    -0.200 F 
ENDBRANCH  62  85
ENDBRANCH  36  37
ENDBRANCH  28  31
ENDBRANCH  26  27
ENDBRANCH   1  26
TORSDOF 12
ENDMDL
