MODEL 1
REMARK VINA RESULT:     -14.1      0.000      0.000
REMARK SMILES C[NH+]1CCC2(CC1)OC[C@@H](C(=O)NCCCNC(=O)c1ccc(-c3c4nc(c(-c5c(F)c(F)c(F)c(F)c5F)c5ccc([nH]5)c(-c5c(F)c(F)c(F)c(F)c5F)c5nc(c(-c6c(F)c(F)c(F)c(F)c6F)c6ccc3[nH]6)C=C5)C=C4)cc1)N2C(=O)c1ccc2ccccc2c1
REMARK SMILES IDX 15 1 14 2 13 3 11 4 12 5 10 7 1 8 2 9 3 10 7 11 4 13 6 14
REMARK SMILES IDX 5 15 8 16 83 17 9 18 84 19 85 20 86 21 87 22 95 23 88 24
REMARK SMILES IDX 94 25 89 26 93 27 90 28 92 29 91 30 16 31 17 32 18 33 19 35
REMARK SMILES IDX 20 36 21 37 82 38 22 39 81 40 23 41 24 42 25 43 75 44 26 45
REMARK SMILES IDX 80 46 74 47 76 48 27 49 79 50 73 51 72 52 28 54 60 55 40 56
REMARK SMILES IDX 59 57 41 58 44 59 58 60 77 61 42 62 43 63 57 65 78 66 45 67
REMARK SMILES IDX 29 68 30 69 38 70 31 71 32 72 36 73 39 74 33 75 34 76 37 77
REMARK SMILES IDX 35 78 61 79 62 80 70 81 63 82 64 83 68 84 71 85 65 86 66 87
REMARK SMILES IDX 69 88 67 89 46 90 47 91 55 92 48 93 49 94 53 95 56 96 50 97
REMARK SMILES IDX 51 98 54 99 52 100
REMARK H PARENT 13 6 2 12 17 34 76 53 44 64
REMARK Flexibility Score: inf
ROOT
ATOM      1  C   UNL A   1      37.642  19.891  24.913  1.00  0.00     0.042 C 
ENDROOT
BRANCH   1   2
ATOM      2  C   UNL A   1      36.505  20.885  24.818  1.00  0.00     0.117 C 
BRANCH   2   3
ATOM      3  N   UNL A   1      35.916  21.093  26.120  1.00  0.00    -0.354 N 
ATOM      4  C   UNL A   1      34.981  21.996  26.528  1.00  0.00     0.245 C 
ATOM      5  O   UNL A   1      34.618  21.901  27.707  1.00  0.00    -0.273 OA
ATOM      6  H   UNL A   1      36.243  20.488  26.824  1.00  0.00     0.163 HD
BRANCH   4   7
ATOM      7  C   UNL A   1      34.203  22.894  25.546  1.00  0.00     0.203 C 
ATOM      8  C   UNL A   1      29.620  26.744  23.605  1.00  0.00     0.332 C 
ATOM      9  N   UNL A   1      29.981  25.463  24.187  1.00  0.00    -0.337 N 
ATOM     10  C   UNL A   1      30.969  24.730  23.406  1.00  0.00     0.267 C 
ATOM     11  C   UNL A   1      30.184  25.523  25.630  1.00  0.00     0.267 C 
ATOM     12  H   UNL A   1      29.163  24.858  24.110  1.00  0.00     0.347 HD
ATOM     13  C   UNL A   1      32.402  24.906  23.860  1.00  0.00     0.120 C 
ATOM     14  C   UNL A   1      31.609  25.494  26.158  1.00  0.00     0.120 C 
ATOM     15  C   UNL A   1      32.591  24.641  25.363  1.00  0.00     0.155 C 
ATOM     16  O   UNL A   1      33.882  25.237  25.681  1.00  0.00    -0.352 OA
ATOM     17  N   UNL A   1      32.783  23.221  25.717  1.00  0.00    -0.295 N 
ATOM     18  C   UNL A   1      34.904  24.244  25.548  1.00  0.00     0.198 C 
BRANCH  17  19
ATOM     19  C   UNL A   1      31.888  22.141  25.664  1.00  0.00     0.256 C 
ATOM     20  O   UNL A   1      30.750  22.225  26.123  1.00  0.00    -0.269 OA
BRANCH  19  21
ATOM     21  C   UNL A   1      32.197  20.883  24.940  1.00  0.00     0.040 A 
ATOM     22  C   UNL A   1      32.111  20.853  23.547  1.00  0.00     0.014 A 
ATOM     23  C   UNL A   1      32.464  19.688  25.619  1.00  0.00     0.022 A 
ATOM     24  C   UNL A   1      32.444  19.707  22.827  1.00  0.00     0.009 A 
ATOM     25  C   UNL A   1      32.881  18.538  24.907  1.00  0.00    -0.018 A 
ATOM     26  C   UNL A   1      32.902  18.570  23.492  1.00  0.00    -0.018 A 
ATOM     27  C   UNL A   1      33.332  17.373  25.552  1.00  0.00     0.009 A 
ATOM     28  C   UNL A   1      33.410  17.484  22.766  1.00  0.00     0.009 A 
ATOM     29  C   UNL A   1      33.836  16.294  24.816  1.00  0.00     0.001 A 
ATOM     30  C   UNL A   1      33.891  16.357  23.426  1.00  0.00     0.001 A 
ENDBRANCH  19  21
ENDBRANCH  17  19
ENDBRANCH   4   7
ENDBRANCH   2   3
ENDBRANCH   1   2
BRANCH   1  31
ATOM     31  C   UNL A   1      38.834  20.332  25.743  1.00  0.00     0.118 C 
BRANCH  31  32
ATOM     32  N   UNL A   1      39.869  19.320  25.842  1.00  0.00    -0.352 N 
ATOM     33  C   UNL A   1      41.215  19.444  26.078  1.00  0.00     0.251 C 
ATOM     34  H   UNL A   1      39.555  18.395  25.722  1.00  0.00     0.163 HD
ATOM     35  O   UNL A   1      41.938  18.454  25.973  1.00  0.00    -0.269 OA
BRANCH  33  36
ATOM     36  C   UNL A   1      41.814  20.755  26.419  1.00  0.00     0.039 A 
ATOM     37  C   UNL A   1      42.082  21.655  25.384  1.00  0.00     0.014 A 
ATOM     38  C   UNL A   1      42.135  21.098  27.735  1.00  0.00     0.014 A 
ATOM     39  C   UNL A   1      42.608  22.915  25.675  1.00  0.00     0.010 A 
ATOM     40  C   UNL A   1      42.561  22.390  28.033  1.00  0.00     0.010 A 
ATOM     41  C   UNL A   1      42.813  23.310  27.006  1.00  0.00    -0.014 A 
BRANCH  41  42
ATOM     42  C   UNL A   1      43.302  24.673  27.340  1.00  0.00     0.031 A 
ATOM     43  C   UNL A   1      42.362  25.695  27.919  1.00  0.00     0.074 A 
ATOM     44  C   UNL A   1      44.580  25.007  27.072  1.00  0.00     0.049 A 
ATOM     45  N   UNL A   1      42.587  26.950  28.223  1.00  0.00    -0.248 NA
ATOM     46  C   UNL A   1      40.979  25.260  28.164  1.00  0.00     0.031 C 
ATOM     47  C   UNL A   1      45.576  24.121  26.470  1.00  0.00     0.029 A 
ATOM     48  N   UNL A   1      45.258  26.186  27.264  1.00  0.00    -0.354 N 
ATOM     49  C   UNL A   1      41.374  27.451  28.680  1.00  0.00     0.074 A 
ATOM     50  C   UNL A   1      40.403  26.387  28.556  1.00  0.00     0.031 C 
ATOM     51  C   UNL A   1      46.744  24.776  26.367  1.00  0.00     0.029 A 
ATOM     52  C   UNL A   1      46.567  26.141  26.851  1.00  0.00     0.049 A 
ATOM     53  H   UNL A   1      44.844  26.987  27.660  1.00  0.00     0.167 HD
ATOM     54  C   UNL A   1      41.101  28.679  29.183  1.00  0.00     0.037 A 
ATOM     55  C   UNL A   1      47.516  27.097  26.854  1.00  0.00     0.037 A 
ATOM     56  C   UNL A   1      42.076  29.729  29.320  1.00  0.00     0.049 A 
ATOM     57  C   UNL A   1      47.181  28.461  27.396  1.00  0.00     0.074 A 
ATOM     58  C   UNL A   1      41.913  30.990  29.868  1.00  0.00     0.029 A 
ATOM     59  N   UNL A   1      43.394  29.645  28.896  1.00  0.00    -0.354 N 
ATOM     60  N   UNL A   1      46.050  28.900  27.895  1.00  0.00    -0.248 NA
ATOM     61  C   UNL A   1      48.257  29.461  27.384  1.00  0.00     0.031 C 
ATOM     62  C   UNL A   1      43.115  31.688  29.722  1.00  0.00     0.029 A 
ATOM     63  C   UNL A   1      44.048  30.842  29.144  1.00  0.00     0.049 A 
ATOM     64  H   UNL A   1      43.804  28.853  28.481  1.00  0.00     0.167 HD
ATOM     65  C   UNL A   1      46.287  30.212  28.282  1.00  0.00     0.074 A 
ATOM     66  C   UNL A   1      47.674  30.493  27.977  1.00  0.00     0.031 C 
ATOM     67  C   UNL A   1      45.432  31.104  28.841  1.00  0.00     0.037 A 
BRANCH  54  68
ATOM     68  C   UNL A   1      39.689  28.954  29.618  1.00  0.00     0.064 A 
ATOM     69  C   UNL A   1      38.723  29.447  28.726  1.00  0.00     0.173 A 
ATOM     70  C   UNL A   1      39.286  28.690  30.937  1.00  0.00     0.173 A 
ATOM     71  F   UNL A   1      39.056  29.726  27.457  1.00  0.00    -0.203 F 
ATOM     72  C   UNL A   1      37.419  29.698  29.147  1.00  0.00     0.198 A 
ATOM     73  C   UNL A   1      37.973  28.909  31.344  1.00  0.00     0.198 A 
ATOM     74  F   UNL A   1      40.165  28.210  31.830  1.00  0.00    -0.203 F 
ATOM     75  F   UNL A   1      36.531  30.222  28.291  1.00  0.00    -0.200 F 
ATOM     76  C   UNL A   1      37.043  29.421  30.452  1.00  0.00     0.200 A 
ATOM     77  F   UNL A   1      37.606  28.623  32.601  1.00  0.00    -0.200 F 
ATOM     78  F   UNL A   1      35.785  29.655  30.853  1.00  0.00    -0.200 F 
ENDBRANCH  54  68
BRANCH  55  79
ATOM     79  C   UNL A   1      48.879  26.794  26.341  1.00  0.00     0.064 A 
ATOM     80  C   UNL A   1      49.221  27.050  25.006  1.00  0.00     0.173 A 
ATOM     81  C   UNL A   1      49.865  26.237  27.170  1.00  0.00     0.173 A 
ATOM     82  F   UNL A   1      48.310  27.566  24.169  1.00  0.00    -0.203 F 
ATOM     83  C   UNL A   1      50.486  26.739  24.513  1.00  0.00     0.198 A 
ATOM     84  C   UNL A   1      51.140  25.958  26.686  1.00  0.00     0.198 A 
ATOM     85  F   UNL A   1      49.594  25.982  28.458  1.00  0.00    -0.203 F 
ATOM     86  F   UNL A   1      50.770  26.948  23.220  1.00  0.00    -0.200 F 
ATOM     87  C   UNL A   1      51.447  26.198  25.355  1.00  0.00     0.200 A 
ATOM     88  F   UNL A   1      52.072  25.456  27.508  1.00  0.00    -0.200 F 
ATOM     89  F   UNL A   1      52.666  25.904  24.882  1.00  0.00    -0.200 F 
ENDBRANCH  55  79
BRANCH  67  90
ATOM     90  C   UNL A   1      45.982  32.457  29.198  1.00  0.00     0.064 A 
ATOM     91  C   UNL A   1      45.931  33.537  28.304  1.00  0.00     0.173 A 
ATOM     92  C   UNL A   1      46.532  32.684  30.469  1.00  0.00     0.173 A 
ATOM     93  F   UNL A   1      45.428  33.370  27.071  1.00  0.00    -0.203 F 
ATOM     94  C   UNL A   1      46.436  34.785  28.659  1.00  0.00     0.198 A 
ATOM     95  C   UNL A   1      47.004  33.942  30.833  1.00  0.00     0.198 A 
ATOM     96  F   UNL A   1      46.599  31.688  31.366  1.00  0.00    -0.203 F 
ATOM     97  F   UNL A   1      46.427  35.787  27.769  1.00  0.00    -0.200 F 
ATOM     98  C   UNL A   1      46.964  34.988  29.925  1.00  0.00     0.200 A 
ATOM     99  F   UNL A   1      47.498  34.140  32.063  1.00  0.00    -0.200 F 
ATOM    100  F   UNL A   1      47.443  36.193  30.268  1.00  0.00    -0.200 F 
ENDBRANCH  67  90
ENDBRANCH  41  42
ENDBRANCH  33  36
ENDBRANCH  31  32
ENDBRANCH   1  31
TORSDOF 12
ENDMDL
MODEL 2
REMARK VINA RESULT:     -14.1      4.139      9.531
REMARK SMILES C[NH+]1CCC2(CC1)OC[C@@H](C(=O)NCCCNC(=O)c1ccc(-c3c4nc(c(-c5c(F)c(F)c(F)c(F)c5F)c5ccc([nH]5)c(-c5c(F)c(F)c(F)c(F)c5F)c5nc(c(-c6c(F)c(F)c(F)c(F)c6F)c6ccc3[nH]6)C=C5)C=C4)cc1)N2C(=O)c1ccc2ccccc2c1
REMARK SMILES IDX 15 1 14 2 13 3 11 4 12 5 10 7 1 8 2 9 3 10 7 11 4 13 6 14
REMARK SMILES IDX 5 15 8 16 83 17 9 18 84 19 85 20 86 21 87 22 95 23 88 24
REMARK SMILES IDX 94 25 89 26 93 27 90 28 92 29 91 30 16 31 17 32 18 33 19 35
REMARK SMILES IDX 20 36 21 37 82 38 22 39 81 40 23 41 24 42 25 43 75 44 26 45
REMARK SMILES IDX 80 46 74 47 76 48 27 49 79 50 73 51 72 52 28 54 60 55 40 56
REMARK SMILES IDX 59 57 41 58 44 59 58 60 77 61 42 62 43 63 57 65 78 66 45 67
REMARK SMILES IDX 29 68 30 69 38 70 31 71 32 72 36 73 39 74 33 75 34 76 37 77
REMARK SMILES IDX 35 78 61 79 62 80 70 81 63 82 64 83 68 84 71 85 65 86 66 87
REMARK SMILES IDX 69 88 67 89 46 90 47 91 55 92 48 93 49 94 53 95 56 96 50 97
REMARK SMILES IDX 51 98 54 99 52 100
REMARK H PARENT 13 6 2 12 17 34 76 53 44 64
REMARK Flexibility Score: inf
ROOT
ATOM      1  C   UNL A   1      33.397  27.631  25.992  1.00  0.00     0.042 C 
ENDROOT
BRANCH   1   2
ATOM      2  C   UNL A   1      33.824  26.373  25.267  1.00  0.00     0.117 C 
BRANCH   2   3
ATOM      3  N   UNL A   1      33.845  26.605  23.841  1.00  0.00    -0.354 N 
ATOM      4  C   UNL A   1      33.676  25.735  22.806  1.00  0.00     0.245 C 
ATOM      5  O   UNL A   1      33.687  26.234  21.674  1.00  0.00    -0.273 OA
ATOM      6  H   UNL A   1      34.007  27.538  23.575  1.00  0.00     0.163 HD
BRANCH   4   7
ATOM      7  C   UNL A   1      33.217  24.277  23.008  1.00  0.00     0.203 C 
ATOM      8  C   UNL A   1      32.808  18.671  25.838  1.00  0.00     0.332 C 
ATOM      9  N   UNL A   1      33.663  19.697  25.267  1.00  0.00    -0.337 N 
ATOM     10  C   UNL A   1      33.282  20.084  23.914  1.00  0.00     0.267 C 
ATOM     11  C   UNL A   1      33.976  20.771  26.203  1.00  0.00     0.267 C 
ATOM     12  H   UNL A   1      34.578  19.273  25.113  1.00  0.00     0.347 HD
ATOM     13  C   UNL A   1      32.400  21.311  23.824  1.00  0.00     0.120 C 
ATOM     14  C   UNL A   1      33.267  22.105  26.032  1.00  0.00     0.120 C 
ATOM     15  C   UNL A   1      32.968  22.514  24.594  1.00  0.00     0.155 C 
ATOM     16  O   UNL A   1      31.839  23.426  24.735  1.00  0.00    -0.352 OA
ATOM     17  N   UNL A   1      33.952  23.317  23.840  1.00  0.00    -0.295 N 
ATOM     18  C   UNL A   1      31.834  24.342  23.637  1.00  0.00     0.198 C 
BRANCH  17  19
ATOM     19  C   UNL A   1      35.253  23.002  23.421  1.00  0.00     0.256 C 
ATOM     20  O   UNL A   1      35.565  23.004  22.231  1.00  0.00    -0.269 OA
BRANCH  19  21
ATOM     21  C   UNL A   1      36.368  22.779  24.375  1.00  0.00     0.040 A 
ATOM     22  C   UNL A   1      36.952  21.514  24.466  1.00  0.00     0.014 A 
ATOM     23  C   UNL A   1      36.780  23.772  25.273  1.00  0.00     0.022 A 
ATOM     24  C   UNL A   1      38.035  21.278  25.310  1.00  0.00     0.009 A 
ATOM     25  C   UNL A   1      37.927  23.577  26.079  1.00  0.00    -0.018 A 
ATOM     26  C   UNL A   1      38.577  22.319  26.063  1.00  0.00    -0.018 A 
ATOM     27  C   UNL A   1      38.485  24.603  26.860  1.00  0.00     0.009 A 
ATOM     28  C   UNL A   1      39.774  22.132  26.769  1.00  0.00     0.009 A 
ATOM     29  C   UNL A   1      39.679  24.404  27.562  1.00  0.00     0.001 A 
ATOM     30  C   UNL A   1      40.331  23.175  27.502  1.00  0.00     0.001 A 
ENDBRANCH  19  21
ENDBRANCH  17  19
ENDBRANCH   4   7
ENDBRANCH   2   3
ENDBRANCH   1   2
BRANCH   1  31
ATOM     31  C   UNL A   1      33.847  28.937  25.365  1.00  0.00     0.118 C 
BRANCH  31  32
ATOM     32  N   UNL A   1      33.209  30.103  25.948  1.00  0.00    -0.352 N 
ATOM     33  C   UNL A   1      33.580  30.879  27.017  1.00  0.00     0.251 C 
ATOM     34  H   UNL A   1      32.376  30.383  25.505  1.00  0.00     0.163 HD
ATOM     35  O   UNL A   1      32.805  31.740  27.433  1.00  0.00    -0.269 OA
BRANCH  33  36
ATOM     36  C   UNL A   1      34.879  30.673  27.697  1.00  0.00     0.039 A 
ATOM     37  C   UNL A   1      35.803  31.722  27.700  1.00  0.00     0.014 A 
ATOM     38  C   UNL A   1      35.207  29.461  28.309  1.00  0.00     0.014 A 
ATOM     39  C   UNL A   1      37.020  31.577  28.368  1.00  0.00     0.010 A 
ATOM     40  C   UNL A   1      36.374  29.354  29.062  1.00  0.00     0.010 A 
ATOM     41  C   UNL A   1      37.299  30.407  29.091  1.00  0.00    -0.014 A 
BRANCH  41  42
ATOM     42  C   UNL A   1      38.557  30.263  29.869  1.00  0.00     0.031 A 
ATOM     43  C   UNL A   1      39.710  29.476  29.308  1.00  0.00     0.074 A 
ATOM     44  C   UNL A   1      38.642  30.797  31.104  1.00  0.00     0.049 A 
ATOM     45  N   UNL A   1      40.865  29.192  29.857  1.00  0.00    -0.248 NA
ATOM     46  C   UNL A   1      39.532  28.907  27.963  1.00  0.00     0.031 C 
ATOM     47  C   UNL A   1      37.579  31.543  31.777  1.00  0.00     0.029 A 
ATOM     48  N   UNL A   1      39.669  30.787  32.016  1.00  0.00    -0.354 N 
ATOM     49  C   UNL A   1      41.541  28.405  28.932  1.00  0.00     0.074 A 
ATOM     50  C   UNL A   1      40.645  28.204  27.815  1.00  0.00     0.031 C 
ATOM     51  C   UNL A   1      38.016  31.942  32.982  1.00  0.00     0.029 A 
ATOM     52  C   UNL A   1      39.371  31.441  33.186  1.00  0.00     0.049 A 
ATOM     53  H   UNL A   1      40.535  30.350  31.848  1.00  0.00     0.167 HD
ATOM     54  C   UNL A   1      42.803  27.917  28.996  1.00  0.00     0.037 A 
ATOM     55  C   UNL A   1      40.105  31.610  34.303  1.00  0.00     0.037 A 
ATOM     56  C   UNL A   1      43.696  28.135  30.104  1.00  0.00     0.049 A 
ATOM     57  C   UNL A   1      41.497  31.039  34.358  1.00  0.00     0.074 A 
ATOM     58  C   UNL A   1      45.013  27.730  30.242  1.00  0.00     0.029 A 
ATOM     59  N   UNL A   1      43.361  28.809  31.269  1.00  0.00    -0.354 N 
ATOM     60  N   UNL A   1      42.151  30.361  33.447  1.00  0.00    -0.248 NA
ATOM     61  C   UNL A   1      42.255  31.262  35.597  1.00  0.00     0.031 C 
ATOM     62  C   UNL A   1      45.454  28.107  31.513  1.00  0.00     0.029 A 
ATOM     63  C   UNL A   1      44.437  28.806  32.143  1.00  0.00     0.049 A 
ATOM     64  H   UNL A   1      42.489  29.227  31.449  1.00  0.00     0.167 HD
ATOM     65  C   UNL A   1      43.405  30.105  33.987  1.00  0.00     0.074 A 
ATOM     66  C   UNL A   1      43.425  30.715  35.300  1.00  0.00     0.031 C 
ATOM     67  C   UNL A   1      44.445  29.424  33.445  1.00  0.00     0.037 A 
BRANCH  54  68
ATOM     68  C   UNL A   1      43.291  27.096  27.836  1.00  0.00     0.064 A 
ATOM     69  C   UNL A   1      43.897  27.687  26.716  1.00  0.00     0.173 A 
ATOM     70  C   UNL A   1      43.183  25.696  27.858  1.00  0.00     0.173 A 
ATOM     71  F   UNL A   1      44.017  29.020  26.638  1.00  0.00    -0.203 F 
ATOM     72  C   UNL A   1      44.343  26.911  25.648  1.00  0.00     0.198 A 
ATOM     73  C   UNL A   1      43.663  24.922  26.805  1.00  0.00     0.198 A 
ATOM     74  F   UNL A   1      42.621  25.077  28.907  1.00  0.00    -0.203 F 
ATOM     75  F   UNL A   1      44.866  27.503  24.565  1.00  0.00    -0.200 F 
ATOM     76  C   UNL A   1      44.234  25.530  25.697  1.00  0.00     0.200 A 
ATOM     77  F   UNL A   1      43.573  23.586  26.862  1.00  0.00    -0.200 F 
ATOM     78  F   UNL A   1      44.672  24.784  24.673  1.00  0.00    -0.200 F 
ENDBRANCH  54  68
BRANCH  55  79
ATOM     79  C   UNL A   1      39.546  32.369  35.453  1.00  0.00     0.064 A 
ATOM     80  C   UNL A   1      39.799  33.740  35.604  1.00  0.00     0.173 A 
ATOM     81  C   UNL A   1      38.753  31.744  36.426  1.00  0.00     0.173 A 
ATOM     82  F   UNL A   1      40.564  34.382  34.710  1.00  0.00    -0.203 F 
ATOM     83  C   UNL A   1      39.303  34.449  36.696  1.00  0.00     0.198 A 
ATOM     84  C   UNL A   1      38.229  32.460  37.499  1.00  0.00     0.198 A 
ATOM     85  F   UNL A   1      38.471  30.436  36.325  1.00  0.00    -0.203 F 
ATOM     86  F   UNL A   1      39.602  35.747  36.842  1.00  0.00    -0.200 F 
ATOM     87  C   UNL A   1      38.513  33.810  37.640  1.00  0.00     0.200 A 
ATOM     88  F   UNL A   1      37.448  31.843  38.397  1.00  0.00    -0.200 F 
ATOM     89  F   UNL A   1      38.031  34.493  38.687  1.00  0.00    -0.200 F 
ENDBRANCH  55  79
BRANCH  67  90
ATOM     90  C   UNL A   1      45.710  29.339  34.252  1.00  0.00     0.064 A 
ATOM     91  C   UNL A   1      45.931  28.308  35.176  1.00  0.00     0.173 A 
ATOM     92  C   UNL A   1      46.733  30.283  34.067  1.00  0.00     0.173 A 
ATOM     93  F   UNL A   1      44.980  27.387  35.402  1.00  0.00    -0.203 F 
ATOM     94  C   UNL A   1      47.115  28.241  35.906  1.00  0.00     0.198 A 
ATOM     95  C   UNL A   1      47.929  30.193  34.773  1.00  0.00     0.198 A 
ATOM     96  F   UNL A   1      46.577  31.287  33.190  1.00  0.00    -0.203 F 
ATOM     97  F   UNL A   1      47.281  27.279  36.823  1.00  0.00    -0.200 F 
ATOM     98  C   UNL A   1      48.115  29.178  35.697  1.00  0.00     0.200 A 
ATOM     99  F   UNL A   1      48.901  31.090  34.556  1.00  0.00    -0.200 F 
ATOM    100  F   UNL A   1      49.259  29.108  36.394  1.00  0.00    -0.200 F 
ENDBRANCH  67  90
ENDBRANCH  41  42
ENDBRANCH  33  36
ENDBRANCH  31  32
ENDBRANCH   1  31
TORSDOF 12
ENDMDL
MODEL 3
REMARK VINA RESULT:     -14.0      4.154      7.454
REMARK SMILES C[NH+]1CCC2(CC1)OC[C@@H](C(=O)NCCCNC(=O)c1ccc(-c3c4nc(c(-c5c(F)c(F)c(F)c(F)c5F)c5ccc([nH]5)c(-c5c(F)c(F)c(F)c(F)c5F)c5nc(c(-c6c(F)c(F)c(F)c(F)c6F)c6ccc3[nH]6)C=C5)C=C4)cc1)N2C(=O)c1ccc2ccccc2c1
REMARK SMILES IDX 15 1 14 2 13 3 11 4 12 5 10 7 1 8 2 9 3 10 7 11 4 13 6 14
REMARK SMILES IDX 5 15 8 16 83 17 9 18 84 19 85 20 86 21 87 22 95 23 88 24
REMARK SMILES IDX 94 25 89 26 93 27 90 28 92 29 91 30 16 31 17 32 18 33 19 35
REMARK SMILES IDX 20 36 21 37 82 38 22 39 81 40 23 41 24 42 25 43 75 44 26 45
REMARK SMILES IDX 80 46 74 47 76 48 27 49 79 50 73 51 72 52 28 54 60 55 40 56
REMARK SMILES IDX 59 57 41 58 44 59 58 60 77 61 42 62 43 63 57 65 78 66 45 67
REMARK SMILES IDX 29 68 30 69 38 70 31 71 32 72 36 73 39 74 33 75 34 76 37 77
REMARK SMILES IDX 35 78 61 79 62 80 70 81 63 82 64 83 68 84 71 85 65 86 66 87
REMARK SMILES IDX 69 88 67 89 46 90 47 91 55 92 48 93 49 94 53 95 56 96 50 97
REMARK SMILES IDX 51 98 54 99 52 100
REMARK H PARENT 13 6 2 12 17 34 76 53 44 64
REMARK Flexibility Score: inf
ROOT
ATOM      1  C   UNL A   1      33.151  27.699  25.905  1.00  0.00     0.042 C 
ENDROOT
BRANCH   1   2
ATOM      2  C   UNL A   1      33.647  26.426  25.253  1.00  0.00     0.117 C 
BRANCH   2   3
ATOM      3  N   UNL A   1      33.739  26.604  23.823  1.00  0.00    -0.354 N 
ATOM      4  C   UNL A   1      33.635  25.694  22.814  1.00  0.00     0.245 C 
ATOM      5  O   UNL A   1      33.699  26.150  21.666  1.00  0.00    -0.273 OA
ATOM      6  H   UNL A   1      33.904  27.530  23.529  1.00  0.00     0.163 HD
BRANCH   4   7
ATOM      7  C   UNL A   1      33.185  24.238  23.048  1.00  0.00     0.203 C 
ATOM      8  C   UNL A   1      32.846  18.678  25.976  1.00  0.00     0.332 C 
ATOM      9  N   UNL A   1      33.687  19.697  25.372  1.00  0.00    -0.337 N 
ATOM     10  C   UNL A   1      33.279  20.060  24.020  1.00  0.00     0.267 C 
ATOM     11  C   UNL A   1      34.014  20.787  26.284  1.00  0.00     0.267 C 
ATOM     12  H   UNL A   1      34.600  19.273  25.208  1.00  0.00     0.347 HD
ATOM     13  C   UNL A   1      32.392  21.283  23.927  1.00  0.00     0.120 C 
ATOM     14  C   UNL A   1      33.298  22.116  26.105  1.00  0.00     0.120 C 
ATOM     15  C   UNL A   1      32.971  22.500  24.667  1.00  0.00     0.155 C 
ATOM     16  O   UNL A   1      31.842  23.411  24.814  1.00  0.00    -0.352 OA
ATOM     17  N   UNL A   1      33.938  23.294  23.882  1.00  0.00    -0.295 N 
ATOM     18  C   UNL A   1      31.814  24.310  23.702  1.00  0.00     0.198 C 
BRANCH  17  19
ATOM     19  C   UNL A   1      35.232  22.975  23.443  1.00  0.00     0.256 C 
ATOM     20  O   UNL A   1      35.529  22.990  22.249  1.00  0.00    -0.269 OA
BRANCH  19  21
ATOM     21  C   UNL A   1      36.356  22.733  24.381  1.00  0.00     0.040 A 
ATOM     22  C   UNL A   1      36.923  21.460  24.460  1.00  0.00     0.014 A 
ATOM     23  C   UNL A   1      36.796  23.718  25.275  1.00  0.00     0.022 A 
ATOM     24  C   UNL A   1      38.014  21.206  25.288  1.00  0.00     0.009 A 
ATOM     25  C   UNL A   1      37.950  23.503  26.065  1.00  0.00    -0.018 A 
ATOM     26  C   UNL A   1      38.582  22.236  26.037  1.00  0.00    -0.018 A 
ATOM     27  C   UNL A   1      38.534  24.520  26.841  1.00  0.00     0.009 A 
ATOM     28  C   UNL A   1      39.785  22.030  26.725  1.00  0.00     0.009 A 
ATOM     29  C   UNL A   1      39.735  24.301  27.525  1.00  0.00     0.001 A 
ATOM     30  C   UNL A   1      40.368  23.063  27.453  1.00  0.00     0.001 A 
ENDBRANCH  19  21
ENDBRANCH  17  19
ENDBRANCH   4   7
ENDBRANCH   2   3
ENDBRANCH   1   2
BRANCH   1  31
ATOM     31  C   UNL A   1      33.811  28.981  25.432  1.00  0.00     0.118 C 
BRANCH  31  32
ATOM     32  N   UNL A   1      33.262  30.171  26.055  1.00  0.00    -0.352 N 
ATOM     33  C   UNL A   1      33.709  30.901  27.127  1.00  0.00     0.251 C 
ATOM     34  H   UNL A   1      32.435  30.510  25.641  1.00  0.00     0.163 HD
ATOM     35  O   UNL A   1      33.001  31.799  27.582  1.00  0.00    -0.269 OA
BRANCH  33  36
ATOM     36  C   UNL A   1      35.011  30.602  27.766  1.00  0.00     0.039 A 
ATOM     37  C   UNL A   1      36.010  31.579  27.730  1.00  0.00     0.014 A 
ATOM     38  C   UNL A   1      35.268  29.373  28.376  1.00  0.00     0.014 A 
ATOM     39  C   UNL A   1      37.235  31.348  28.359  1.00  0.00     0.010 A 
ATOM     40  C   UNL A   1      36.449  29.183  29.091  1.00  0.00     0.010 A 
ATOM     41  C   UNL A   1      37.450  30.163  29.081  1.00  0.00    -0.014 A 
BRANCH  41  42
ATOM     42  C   UNL A   1      38.719  29.930  29.818  1.00  0.00     0.031 A 
ATOM     43  C   UNL A   1      38.926  30.533  31.181  1.00  0.00     0.074 A 
ATOM     44  C   UNL A   1      39.706  29.218  29.239  1.00  0.00     0.049 A 
ATOM     45  N   UNL A   1      39.982  30.489  31.956  1.00  0.00    -0.248 NA
ATOM     46  C   UNL A   1      37.810  31.314  31.737  1.00  0.00     0.031 C 
ATOM     47  C   UNL A   1      39.645  28.619  27.905  1.00  0.00     0.029 A 
ATOM     48  N   UNL A   1      40.957  28.883  29.695  1.00  0.00    -0.354 N 
ATOM     49  C   UNL A   1      39.660  31.243  33.077  1.00  0.00     0.074 A 
ATOM     50  C   UNL A   1      38.337  31.784  32.857  1.00  0.00     0.031 C 
ATOM     51  C   UNL A   1      40.794  27.969  27.662  1.00  0.00     0.029 A 
ATOM     52  C   UNL A   1      41.690  28.143  28.800  1.00  0.00     0.049 A 
ATOM     53  H   UNL A   1      41.297  29.150  30.580  1.00  0.00     0.167 HD
ATOM     54  C   UNL A   1      40.391  31.445  34.200  1.00  0.00     0.037 A 
ATOM     55  C   UNL A   1      42.947  27.667  28.883  1.00  0.00     0.037 A 
ATOM     56  C   UNL A   1      41.700  30.890  34.421  1.00  0.00     0.049 A 
ATOM     57  C   UNL A   1      43.746  27.923  30.133  1.00  0.00     0.074 A 
ATOM     58  C   UNL A   1      42.500  30.989  35.547  1.00  0.00     0.029 A 
ATOM     59  N   UNL A   1      42.408  30.139  33.493  1.00  0.00    -0.354 N 
ATOM     60  N   UNL A   1      43.402  28.575  31.218  1.00  0.00    -0.248 NA
ATOM     61  C   UNL A   1      45.107  27.371  30.173  1.00  0.00     0.031 C 
ATOM     62  C   UNL A   1      43.713  30.349  35.278  1.00  0.00     0.029 A 
ATOM     63  C   UNL A   1      43.646  29.793  34.010  1.00  0.00     0.049 A 
ATOM     64  H   UNL A   1      42.078  29.889  32.600  1.00  0.00     0.167 HD
ATOM     65  C   UNL A   1      44.488  28.485  32.078  1.00  0.00     0.074 A 
ATOM     66  C   UNL A   1      45.497  27.701  31.396  1.00  0.00     0.031 C 
ATOM     67  C   UNL A   1      44.638  29.006  33.321  1.00  0.00     0.037 A 
BRANCH  54  68
ATOM     68  C   UNL A   1      39.790  32.305  35.276  1.00  0.00     0.064 A 
ATOM     69  C   UNL A   1      38.954  31.770  36.269  1.00  0.00     0.173 A 
ATOM     70  C   UNL A   1      40.080  33.678  35.336  1.00  0.00     0.173 A 
ATOM     71  F   UNL A   1      38.636  30.467  36.254  1.00  0.00    -0.203 F 
ATOM     72  C   UNL A   1      38.403  32.582  37.258  1.00  0.00     0.198 A 
ATOM     73  C   UNL A   1      39.556  34.479  36.348  1.00  0.00     0.198 A 
ATOM     74  F   UNL A   1      40.879  34.241  34.418  1.00  0.00    -0.203 F 
ATOM     75  F   UNL A   1      37.563  32.057  38.161  1.00  0.00    -0.200 F 
ATOM     76  C   UNL A   1      38.712  33.932  37.302  1.00  0.00     0.200 A 
ATOM     77  F   UNL A   1      39.870  35.781  36.399  1.00  0.00    -0.200 F 
ATOM     78  F   UNL A   1      38.189  34.711  38.260  1.00  0.00    -0.200 F 
ENDBRANCH  54  68
BRANCH  55  79
ATOM     79  C   UNL A   1      43.521  26.883  27.758  1.00  0.00     0.064 A 
ATOM     80  C   UNL A   1      44.182  27.520  26.698  1.00  0.00     0.173 A 
ATOM     81  C   UNL A   1      43.420  25.484  27.713  1.00  0.00     0.173 A 
ATOM     82  F   UNL A   1      44.292  28.856  26.685  1.00  0.00    -0.203 F 
ATOM     83  C   UNL A   1      44.694  26.793  25.625  1.00  0.00     0.198 A 
ATOM     84  C   UNL A   1      43.962  24.755  26.658  1.00  0.00     0.198 A 
ATOM     85  F   UNL A   1      42.808  24.823  28.706  1.00  0.00    -0.203 F 
ATOM     86  F   UNL A   1      45.276  27.433  24.601  1.00  0.00    -0.200 F 
ATOM     87  C   UNL A   1      44.589  25.410  25.609  1.00  0.00     0.200 A 
ATOM     88  F   UNL A   1      43.878  23.417  26.657  1.00  0.00    -0.200 F 
ATOM     89  F   UNL A   1      45.087  24.711  24.581  1.00  0.00    -0.200 F 
ENDBRANCH  55  79
BRANCH  67  90
ATOM     90  C   UNL A   1      45.921  28.709  34.044  1.00  0.00     0.064 A 
ATOM     91  C   UNL A   1      47.034  29.559  33.957  1.00  0.00     0.173 A 
ATOM     92  C   UNL A   1      46.025  27.578  34.869  1.00  0.00     0.173 A 
ATOM     93  F   UNL A   1      46.993  30.646  33.171  1.00  0.00    -0.203 F 
ATOM     94  C   UNL A   1      48.211  29.272  34.644  1.00  0.00     0.198 A 
ATOM     95  C   UNL A   1      47.190  27.313  35.582  1.00  0.00     0.198 A 
ATOM     96  F   UNL A   1      44.988  26.736  34.996  1.00  0.00    -0.203 F 
ATOM     97  F   UNL A   1      49.279  30.068  34.501  1.00  0.00    -0.200 F 
ATOM     98  C   UNL A   1      48.284  28.155  35.462  1.00  0.00     0.200 A 
ATOM     99  F   UNL A   1      47.253  26.243  36.386  1.00  0.00    -0.200 F 
ATOM    100  F   UNL A   1      49.415  27.884  36.130  1.00  0.00    -0.200 F 
ENDBRANCH  67  90
ENDBRANCH  41  42
ENDBRANCH  33  36
ENDBRANCH  31  32
ENDBRANCH   1  31
TORSDOF 12
ENDMDL
