MODEL 1
REMARK VINA RESULT:     -13.1      0.000      0.000
REMARK SMILES O=C(NCCCNC(=O)c1ccc2c(=O)[nH][nH]c(=O)c2c1)c1ccc(-c2c3nc(c(-c4c(F)c(F)c(F)c(F)c4F)c4ccc([nH]4)c(-c4c(F)c(F)c(F)c(F)c4F)c4nc(c(-c5c(F)c(F)c(F)c(F)c5F)c5ccc2[nH]5)C=C4)C=C3)cc1
REMARK SMILES IDX 4 1 3 2 1 3 2 4 22 6 23 7 84 8 24 9 83 10 25 11 26 12 27 13
REMARK SMILES IDX 77 14 28 15 82 16 76 17 78 18 29 19 81 20 75 21 74 22 30 24
REMARK SMILES IDX 62 25 42 26 61 27 43 28 46 29 60 30 79 31 44 32 45 33 59 35
REMARK SMILES IDX 80 36 47 37 31 38 32 39 40 40 33 41 34 42 38 43 41 44 35 45
REMARK SMILES IDX 36 46 39 47 37 48 63 49 64 50 72 51 65 52 66 53 70 54 73 55
REMARK SMILES IDX 67 56 68 57 71 58 69 59 48 60 49 61 57 62 50 63 51 64 55 65
REMARK SMILES IDX 58 66 52 67 53 68 56 69 54 70 5 71 6 72 7 73 8 74 9 76 10 77
REMARK SMILES IDX 11 78 21 79 12 80 20 81 13 82 18 83 14 84 17 85 19 86 15 87
REMARK SMILES IDX 16 88
REMARK H PARENT 3 5 78 23 46 34 7 75 17 89 16 90
REMARK Flexibility Score: inf
ROOT
ATOM      1  C   UNL A   1      32.777  32.770  27.291  1.00  0.00     0.118 C 
ENDROOT
BRANCH   1   2
ATOM      2  N   UNL A   1      32.529  34.164  27.626  1.00  0.00    -0.352 N 
ATOM      3  O   UNL A   1      32.528  36.035  28.865  1.00  0.00    -0.269 OA
ATOM      4  C   UNL A   1      33.043  34.947  28.627  1.00  0.00     0.251 C 
ATOM      5  H   UNL A   1      31.884  34.620  27.037  1.00  0.00     0.163 HD
BRANCH   4   6
ATOM      6  C   UNL A   1      34.215  34.506  29.415  1.00  0.00     0.039 A 
ATOM      7  C   UNL A   1      35.485  34.579  28.829  1.00  0.00     0.014 A 
ATOM      8  C   UNL A   1      34.066  33.929  30.677  1.00  0.00     0.014 A 
ATOM      9  C   UNL A   1      36.599  34.082  29.511  1.00  0.00     0.010 A 
ATOM     10  C   UNL A   1      35.184  33.517  31.394  1.00  0.00     0.010 A 
ATOM     11  C   UNL A   1      36.455  33.545  30.798  1.00  0.00    -0.014 A 
BRANCH  11  12
ATOM     12  C   UNL A   1      37.580  32.881  31.499  1.00  0.00     0.031 A 
ATOM     13  C   UNL A   1      38.241  31.693  30.853  1.00  0.00     0.074 A 
ATOM     14  C   UNL A   1      37.980  33.300  32.711  1.00  0.00     0.049 A 
ATOM     15  N   UNL A   1      39.133  30.868  31.340  1.00  0.00    -0.248 NA
ATOM     16  C   UNL A   1      37.815  31.376  29.480  1.00  0.00     0.031 C 
ATOM     17  C   UNL A   1      37.435  34.447  33.432  1.00  0.00     0.029 A 
ATOM     18  N   UNL A   1      38.940  32.797  33.551  1.00  0.00    -0.354 N 
ATOM     19  C   UNL A   1      39.357  29.929  30.342  1.00  0.00     0.074 A 
ATOM     20  C   UNL A   1      38.460  30.244  29.253  1.00  0.00     0.031 C 
ATOM     21  C   UNL A   1      38.086  34.577  34.599  1.00  0.00     0.029 A 
ATOM     22  C   UNL A   1      39.057  33.492  34.727  1.00  0.00     0.049 A 
ATOM     23  H   UNL A   1      39.492  32.012  33.332  1.00  0.00     0.167 HD
ATOM     24  C   UNL A   1      40.253  28.913  30.320  1.00  0.00     0.037 A 
ATOM     25  C   UNL A   1      39.850  33.270  35.792  1.00  0.00     0.037 A 
ATOM     26  C   UNL A   1      41.155  28.612  31.400  1.00  0.00     0.049 A 
ATOM     27  C   UNL A   1      40.789  32.094  35.780  1.00  0.00     0.074 A 
ATOM     28  C   UNL A   1      42.109  27.614  31.478  1.00  0.00     0.029 A 
ATOM     29  N   UNL A   1      41.216  29.317  32.596  1.00  0.00    -0.354 N 
ATOM     30  N   UNL A   1      40.994  31.206  34.837  1.00  0.00    -0.248 NA
ATOM     31  C   UNL A   1      41.601  31.890  36.986  1.00  0.00     0.031 C 
ATOM     32  C   UNL A   1      42.713  27.683  32.739  1.00  0.00     0.029 A 
ATOM     33  C   UNL A   1      42.176  28.760  33.427  1.00  0.00     0.049 A 
ATOM     34  H   UNL A   1      40.659  30.098  32.820  1.00  0.00     0.167 HD
ATOM     35  C   UNL A   1      41.969  30.346  35.326  1.00  0.00     0.074 A 
ATOM     36  C   UNL A   1      42.331  30.837  36.641  1.00  0.00     0.031 C 
ATOM     37  C   UNL A   1      42.512  29.248  34.743  1.00  0.00     0.037 A 
BRANCH  24  38
ATOM     38  C   UNL A   1      40.285  28.055  29.087  1.00  0.00     0.064 A 
ATOM     39  C   UNL A   1      39.598  26.832  29.021  1.00  0.00     0.173 A 
ATOM     40  C   UNL A   1      41.015  28.453  27.956  1.00  0.00     0.173 A 
ATOM     41  F   UNL A   1      38.897  26.394  30.079  1.00  0.00    -0.203 F 
ATOM     42  C   UNL A   1      39.677  26.021  27.892  1.00  0.00     0.198 A 
ATOM     43  C   UNL A   1      41.061  27.658  26.814  1.00  0.00     0.198 A 
ATOM     44  F   UNL A   1      41.689  29.613  27.960  1.00  0.00    -0.203 F 
ATOM     45  F   UNL A   1      39.071  24.825  27.884  1.00  0.00    -0.200 F 
ATOM     46  C   UNL A   1      40.403  26.437  26.787  1.00  0.00     0.200 A 
ATOM     47  F   UNL A   1      41.752  28.067  25.741  1.00  0.00    -0.200 F 
ATOM     48  F   UNL A   1      40.478  25.657  25.700  1.00  0.00    -0.200 F 
ENDBRANCH  24  38
BRANCH  25  49
ATOM     49  C   UNL A   1      39.812  34.214  36.938  1.00  0.00     0.064 A 
ATOM     50  C   UNL A   1      38.972  33.967  38.032  1.00  0.00     0.173 A 
ATOM     51  C   UNL A   1      40.644  35.340  36.994  1.00  0.00     0.173 A 
ATOM     52  F   UNL A   1      38.141  32.914  38.013  1.00  0.00    -0.203 F 
ATOM     53  C   UNL A   1      38.969  34.808  39.142  1.00  0.00     0.198 A 
ATOM     54  C   UNL A   1      40.659  36.168  38.115  1.00  0.00     0.198 A 
ATOM     55  F   UNL A   1      41.467  35.619  35.972  1.00  0.00    -0.203 F 
ATOM     56  F   UNL A   1      38.142  34.560  40.166  1.00  0.00    -0.200 F 
ATOM     57  C   UNL A   1      39.822  35.901  39.187  1.00  0.00     0.200 A 
ATOM     58  F   UNL A   1      41.496  37.214  38.163  1.00  0.00    -0.200 F 
ATOM     59  F   UNL A   1      39.836  36.697  40.265  1.00  0.00    -0.200 F 
ENDBRANCH  25  49
BRANCH  37  60
ATOM     60  C   UNL A   1      43.558  28.502  35.523  1.00  0.00     0.064 A 
ATOM     61  C   UNL A   1      44.925  28.788  35.378  1.00  0.00     0.173 A 
ATOM     62  C   UNL A   1      43.193  27.511  36.448  1.00  0.00     0.173 A 
ATOM     63  F   UNL A   1      45.330  29.718  34.499  1.00  0.00    -0.203 F 
ATOM     64  C   UNL A   1      45.885  28.087  36.103  1.00  0.00     0.198 A 
ATOM     65  C   UNL A   1      44.153  26.838  37.198  1.00  0.00     0.198 A 
ATOM     66  F   UNL A   1      41.900  27.204  36.634  1.00  0.00    -0.203 F 
ATOM     67  F   UNL A   1      47.186  28.339  35.904  1.00  0.00    -0.200 F 
ATOM     68  C   UNL A   1      45.499  27.119  37.017  1.00  0.00     0.200 A 
ATOM     69  F   UNL A   1      43.777  25.914  38.093  1.00  0.00    -0.200 F 
ATOM     70  F   UNL A   1      46.425  26.449  37.717  1.00  0.00    -0.200 F 
ENDBRANCH  37  60
ENDBRANCH  11  12
ENDBRANCH   4   6
ENDBRANCH   1   2
BRANCH   1  71
ATOM     71  C   UNL A   1      31.532  32.068  26.766  1.00  0.00     0.042 C 
BRANCH  71  72
ATOM     72  C   UNL A   1      31.746  30.603  26.411  1.00  0.00     0.118 C 
BRANCH  72  73
ATOM     73  N   UNL A   1      33.047  30.116  26.848  1.00  0.00    -0.352 N 
ATOM     74  C   UNL A   1      33.628  28.893  26.645  1.00  0.00     0.251 C 
ATOM     75  H   UNL A   1      33.586  30.759  27.364  1.00  0.00     0.163 HD
ATOM     76  O   UNL A   1      34.646  28.578  27.251  1.00  0.00    -0.269 OA
BRANCH  74  77
ATOM     77  C   UNL A   1      33.018  27.944  25.695  1.00  0.00     0.040 A 
ATOM     78  C   UNL A   1      32.047  27.033  26.128  1.00  0.00     0.015 A 
ATOM     79  C   UNL A   1      33.403  27.991  24.353  1.00  0.00     0.028 A 
ATOM     80  C   UNL A   1      31.517  26.109  25.229  1.00  0.00     0.015 A 
ATOM     81  C   UNL A   1      32.858  27.069  23.452  1.00  0.00     0.055 A 
ATOM     82  C   UNL A   1      31.930  26.123  23.890  1.00  0.00     0.054 A 
ATOM     83  C   UNL A   1      33.277  27.093  22.037  1.00  0.00     0.270 A 
ATOM     84  C   UNL A   1      31.383  25.127  22.951  1.00  0.00     0.270 A 
ATOM     85  N   UNL A   1      32.717  26.154  21.209  1.00  0.00    -0.263 N 
ATOM     86  O   UNL A   1      34.093  27.911  21.625  1.00  0.00    -0.267 OA
ATOM     87  O   UNL A   1      30.590  24.268  23.322  1.00  0.00    -0.267 OA
ATOM     88  N   UNL A   1      31.811  25.202  21.650  1.00  0.00    -0.263 N 
ATOM     89  H   UNL A   1      32.969  26.155  20.257  1.00  0.00     0.191 HD
ATOM     90  H   UNL A   1      31.460  24.550  21.000  1.00  0.00     0.191 HD
ENDBRANCH  74  77
ENDBRANCH  72  73
ENDBRANCH  71  72
ENDBRANCH   1  71
TORSDOF 10
ENDMDL
MODEL 2
REMARK VINA RESULT:     -13.1      0.031      1.160
REMARK SMILES O=C(NCCCNC(=O)c1ccc2c(=O)[nH][nH]c(=O)c2c1)c1ccc(-c2c3nc(c(-c4c(F)c(F)c(F)c(F)c4F)c4ccc([nH]4)c(-c4c(F)c(F)c(F)c(F)c4F)c4nc(c(-c5c(F)c(F)c(F)c(F)c5F)c5ccc2[nH]5)C=C4)C=C3)cc1
REMARK SMILES IDX 4 1 3 2 1 3 2 4 22 6 23 7 84 8 24 9 83 10 25 11 26 12 27 13
REMARK SMILES IDX 77 14 28 15 82 16 76 17 78 18 29 19 81 20 75 21 74 22 30 24
REMARK SMILES IDX 62 25 42 26 61 27 43 28 46 29 60 30 79 31 44 32 45 33 59 35
REMARK SMILES IDX 80 36 47 37 31 38 32 39 40 40 33 41 34 42 38 43 41 44 35 45
REMARK SMILES IDX 36 46 39 47 37 48 63 49 64 50 72 51 65 52 66 53 70 54 73 55
REMARK SMILES IDX 67 56 68 57 71 58 69 59 48 60 49 61 57 62 50 63 51 64 55 65
REMARK SMILES IDX 58 66 52 67 53 68 56 69 54 70 5 71 6 72 7 73 8 74 9 76 10 77
REMARK SMILES IDX 11 78 21 79 12 80 20 81 13 82 18 83 14 84 17 85 19 86 15 87
REMARK SMILES IDX 16 88
REMARK H PARENT 3 5 78 23 46 34 7 75 17 89 16 90
REMARK Flexibility Score: inf
ROOT
ATOM      1  C   UNL A   1      32.765  32.767  27.298  1.00  0.00     0.118 C 
ENDROOT
BRANCH   1   2
ATOM      2  N   UNL A   1      32.522  34.164  27.626  1.00  0.00    -0.352 N 
ATOM      3  O   UNL A   1      32.528  36.041  28.855  1.00  0.00    -0.269 OA
ATOM      4  C   UNL A   1      33.039  34.950  28.624  1.00  0.00     0.251 C 
ATOM      5  H   UNL A   1      31.880  34.620  27.034  1.00  0.00     0.163 HD
BRANCH   4   6
ATOM      6  C   UNL A   1      34.208  34.508  29.414  1.00  0.00     0.039 A 
ATOM      7  C   UNL A   1      35.479  34.579  28.831  1.00  0.00     0.014 A 
ATOM      8  C   UNL A   1      34.055  33.933  30.677  1.00  0.00     0.014 A 
ATOM      9  C   UNL A   1      36.591  34.081  29.516  1.00  0.00     0.010 A 
ATOM     10  C   UNL A   1      35.172  33.520  31.397  1.00  0.00     0.010 A 
ATOM     11  C   UNL A   1      36.443  33.545  30.803  1.00  0.00    -0.014 A 
BRANCH  11  12
ATOM     12  C   UNL A   1      37.566  32.881  31.508  1.00  0.00     0.031 A 
ATOM     13  C   UNL A   1      38.228  31.693  30.865  1.00  0.00     0.074 A 
ATOM     14  C   UNL A   1      37.963  33.300  32.721  1.00  0.00     0.049 A 
ATOM     15  N   UNL A   1      39.118  30.867  31.354  1.00  0.00    -0.248 NA
ATOM     16  C   UNL A   1      37.805  31.375  29.491  1.00  0.00     0.031 C 
ATOM     17  C   UNL A   1      37.417  34.448  33.441  1.00  0.00     0.029 A 
ATOM     18  N   UNL A   1      38.920  32.797  33.564  1.00  0.00    -0.354 N 
ATOM     19  C   UNL A   1      39.344  29.927  30.357  1.00  0.00     0.074 A 
ATOM     20  C   UNL A   1      38.450  30.242  29.265  1.00  0.00     0.031 C 
ATOM     21  C   UNL A   1      38.065  34.578  34.610  1.00  0.00     0.029 A 
ATOM     22  C   UNL A   1      39.034  33.492  34.741  1.00  0.00     0.049 A 
ATOM     23  H   UNL A   1      39.472  32.011  33.346  1.00  0.00     0.167 HD
ATOM     24  C   UNL A   1      40.239  28.910  30.338  1.00  0.00     0.037 A 
ATOM     25  C   UNL A   1      39.825  33.269  35.807  1.00  0.00     0.037 A 
ATOM     26  C   UNL A   1      41.138  28.609  31.421  1.00  0.00     0.049 A 
ATOM     27  C   UNL A   1      40.762  32.092  35.798  1.00  0.00     0.074 A 
ATOM     28  C   UNL A   1      42.091  27.610  31.502  1.00  0.00     0.029 A 
ATOM     29  N   UNL A   1      41.196  29.314  32.617  1.00  0.00    -0.354 N 
ATOM     30  N   UNL A   1      40.970  31.204  34.856  1.00  0.00    -0.248 NA
ATOM     31  C   UNL A   1      41.571  31.888  37.007  1.00  0.00     0.031 C 
ATOM     32  C   UNL A   1      42.691  27.679  32.764  1.00  0.00     0.029 A 
ATOM     33  C   UNL A   1      42.153  28.757  33.451  1.00  0.00     0.049 A 
ATOM     34  H   UNL A   1      40.639  30.095  32.839  1.00  0.00     0.167 HD
ATOM     35  C   UNL A   1      41.943  30.344  35.348  1.00  0.00     0.074 A 
ATOM     36  C   UNL A   1      42.301  30.834  36.665  1.00  0.00     0.031 C 
ATOM     37  C   UNL A   1      42.485  29.245  34.767  1.00  0.00     0.037 A 
BRANCH  24  38
ATOM     38  C   UNL A   1      40.274  28.051  29.105  1.00  0.00     0.064 A 
ATOM     39  C   UNL A   1      39.585  26.830  29.038  1.00  0.00     0.173 A 
ATOM     40  C   UNL A   1      41.008  28.448  27.977  1.00  0.00     0.173 A 
ATOM     41  F   UNL A   1      38.880  26.393  30.094  1.00  0.00    -0.203 F 
ATOM     42  C   UNL A   1      39.666  26.018  27.909  1.00  0.00     0.198 A 
ATOM     43  C   UNL A   1      41.057  27.653  26.835  1.00  0.00     0.198 A 
ATOM     44  F   UNL A   1      41.684  29.607  27.982  1.00  0.00    -0.203 F 
ATOM     45  F   UNL A   1      39.059  24.823  27.899  1.00  0.00    -0.200 F 
ATOM     46  C   UNL A   1      40.397  26.433  26.806  1.00  0.00     0.200 A 
ATOM     47  F   UNL A   1      41.752  28.061  25.765  1.00  0.00    -0.200 F 
ATOM     48  F   UNL A   1      40.474  25.652  25.720  1.00  0.00    -0.200 F 
ENDBRANCH  24  38
BRANCH  25  49
ATOM     49  C   UNL A   1      39.784  34.213  36.953  1.00  0.00     0.064 A 
ATOM     50  C   UNL A   1      38.948  33.963  38.050  1.00  0.00     0.173 A 
ATOM     51  C   UNL A   1      40.610  35.345  37.006  1.00  0.00     0.173 A 
ATOM     52  F   UNL A   1      38.124  32.904  38.034  1.00  0.00    -0.203 F 
ATOM     53  C   UNL A   1      38.944  34.804  39.159  1.00  0.00     0.198 A 
ATOM     54  C   UNL A   1      40.623  36.173  38.126  1.00  0.00     0.198 A 
ATOM     55  F   UNL A   1      41.428  35.629  35.982  1.00  0.00    -0.203 F 
ATOM     56  F   UNL A   1      38.121  34.551  40.186  1.00  0.00    -0.200 F 
ATOM     57  C   UNL A   1      39.790  35.902  39.201  1.00  0.00     0.200 A 
ATOM     58  F   UNL A   1      41.453  37.224  38.171  1.00  0.00    -0.200 F 
ATOM     59  F   UNL A   1      39.803  36.699  40.278  1.00  0.00    -0.200 F 
ENDBRANCH  25  49
BRANCH  37  60
ATOM     60  C   UNL A   1      43.529  28.498  35.551  1.00  0.00     0.064 A 
ATOM     61  C   UNL A   1      43.180  27.487  36.460  1.00  0.00     0.173 A 
ATOM     62  C   UNL A   1      44.894  28.772  35.370  1.00  0.00     0.173 A 
ATOM     63  F   UNL A   1      41.889  27.192  36.678  1.00  0.00    -0.203 F 
ATOM     64  C   UNL A   1      44.155  26.805  37.183  1.00  0.00     0.198 A 
ATOM     65  C   UNL A   1      45.868  28.063  36.068  1.00  0.00     0.198 A 
ATOM     66  F   UNL A   1      45.285  29.721  34.507  1.00  0.00    -0.203 F 
ATOM     67  F   UNL A   1      43.794  25.884  38.087  1.00  0.00    -0.200 F 
ATOM     68  C   UNL A   1      45.497  27.088  36.982  1.00  0.00     0.200 A 
ATOM     69  F   UNL A   1      47.165  28.327  35.859  1.00  0.00    -0.200 F 
ATOM     70  F   UNL A   1      46.435  26.427  37.675  1.00  0.00    -0.200 F 
ENDBRANCH  37  60
ENDBRANCH  11  12
ENDBRANCH   4   6
ENDBRANCH   1   2
BRANCH   1  71
ATOM     71  C   UNL A   1      31.546  32.095  26.682  1.00  0.00     0.042 C 
BRANCH  71  72
ATOM     72  C   UNL A   1      31.748  30.622  26.352  1.00  0.00     0.118 C 
BRANCH  72  73
ATOM     73  N   UNL A   1      33.037  30.127  26.812  1.00  0.00    -0.352 N 
ATOM     74  C   UNL A   1      33.610  28.897  26.628  1.00  0.00     0.251 C 
ATOM     75  H   UNL A   1      33.574  30.769  27.331  1.00  0.00     0.163 HD
ATOM     76  O   UNL A   1      34.616  28.578  27.251  1.00  0.00    -0.269 OA
BRANCH  74  77
ATOM     77  C   UNL A   1      33.006  27.947  25.675  1.00  0.00     0.040 A 
ATOM     78  C   UNL A   1      32.041  27.029  26.107  1.00  0.00     0.015 A 
ATOM     79  C   UNL A   1      33.391  27.997  24.334  1.00  0.00     0.028 A 
ATOM     80  C   UNL A   1      31.516  26.103  25.206  1.00  0.00     0.015 A 
ATOM     81  C   UNL A   1      32.852  27.074  23.431  1.00  0.00     0.055 A 
ATOM     82  C   UNL A   1      31.930  26.121  23.868  1.00  0.00     0.054 A 
ATOM     83  C   UNL A   1      33.271  27.102  22.017  1.00  0.00     0.270 A 
ATOM     84  C   UNL A   1      31.388  25.124  22.927  1.00  0.00     0.270 A 
ATOM     85  N   UNL A   1      32.718  26.161  21.186  1.00  0.00    -0.263 N 
ATOM     86  O   UNL A   1      34.083  27.926  21.606  1.00  0.00    -0.267 OA
ATOM     87  O   UNL A   1      30.601  24.260  23.296  1.00  0.00    -0.267 OA
ATOM     88  N   UNL A   1      31.816  25.203  21.626  1.00  0.00    -0.263 N 
ATOM     89  H   UNL A   1      32.970  26.166  20.235  1.00  0.00     0.191 HD
ATOM     90  H   UNL A   1      31.470  24.551  20.975  1.00  0.00     0.191 HD
ENDBRANCH  74  77
ENDBRANCH  72  73
ENDBRANCH  71  72
ENDBRANCH   1  71
TORSDOF 10
ENDMDL
MODEL 3
REMARK VINA RESULT:     -13.0      1.329      1.817
REMARK SMILES O=C(NCCCNC(=O)c1ccc2c(=O)[nH][nH]c(=O)c2c1)c1ccc(-c2c3nc(c(-c4c(F)c(F)c(F)c(F)c4F)c4ccc([nH]4)c(-c4c(F)c(F)c(F)c(F)c4F)c4nc(c(-c5c(F)c(F)c(F)c(F)c5F)c5ccc2[nH]5)C=C4)C=C3)cc1
REMARK SMILES IDX 4 1 3 2 1 3 2 4 22 6 23 7 84 8 24 9 83 10 25 11 26 12 27 13
REMARK SMILES IDX 77 14 28 15 82 16 76 17 78 18 29 19 81 20 75 21 74 22 30 24
REMARK SMILES IDX 62 25 42 26 61 27 43 28 46 29 60 30 79 31 44 32 45 33 59 35
REMARK SMILES IDX 80 36 47 37 31 38 32 39 40 40 33 41 34 42 38 43 41 44 35 45
REMARK SMILES IDX 36 46 39 47 37 48 63 49 64 50 72 51 65 52 66 53 70 54 73 55
REMARK SMILES IDX 67 56 68 57 71 58 69 59 48 60 49 61 57 62 50 63 51 64 55 65
REMARK SMILES IDX 58 66 52 67 53 68 56 69 54 70 5 71 6 72 7 73 8 74 9 76 10 77
REMARK SMILES IDX 11 78 21 79 12 80 20 81 13 82 18 83 14 84 17 85 19 86 15 87
REMARK SMILES IDX 16 88
REMARK H PARENT 3 5 78 23 46 34 7 75 17 89 16 90
REMARK Flexibility Score: inf
ROOT
ATOM      1  C   UNL A   1      32.714  32.580  27.339  1.00  0.00     0.118 C 
ENDROOT
BRANCH   1   2
ATOM      2  N   UNL A   1      32.499  33.994  27.606  1.00  0.00    -0.352 N 
ATOM      3  O   UNL A   1      32.545  35.922  28.752  1.00  0.00    -0.269 OA
ATOM      4  C   UNL A   1      33.034  34.812  28.568  1.00  0.00     0.251 C 
ATOM      5  H   UNL A   1      31.865  34.436  26.995  1.00  0.00     0.163 HD
BRANCH   4   6
ATOM      6  C   UNL A   1      34.196  34.382  29.375  1.00  0.00     0.039 A 
ATOM      7  C   UNL A   1      35.483  34.584  28.863  1.00  0.00     0.014 A 
ATOM      8  C   UNL A   1      34.029  33.692  30.578  1.00  0.00     0.014 A 
ATOM      9  C   UNL A   1      36.596  34.103  29.558  1.00  0.00     0.010 A 
ATOM     10  C   UNL A   1      35.139  33.294  31.315  1.00  0.00     0.010 A 
ATOM     11  C   UNL A   1      36.430  33.452  30.788  1.00  0.00    -0.014 A 
BRANCH  11  12
ATOM     12  C   UNL A   1      37.564  32.804  31.489  1.00  0.00     0.031 A 
ATOM     13  C   UNL A   1      38.237  31.621  30.849  1.00  0.00     0.074 A 
ATOM     14  C   UNL A   1      37.963  33.235  32.698  1.00  0.00     0.049 A 
ATOM     15  N   UNL A   1      39.139  30.808  31.337  1.00  0.00    -0.248 NA
ATOM     16  C   UNL A   1      37.810  31.291  29.479  1.00  0.00     0.031 C 
ATOM     17  C   UNL A   1      37.408  34.380  33.415  1.00  0.00     0.029 A 
ATOM     18  N   UNL A   1      38.931  32.747  33.538  1.00  0.00    -0.354 N 
ATOM     19  C   UNL A   1      39.371  29.866  30.344  1.00  0.00     0.074 A 
ATOM     20  C   UNL A   1      38.467  30.164  29.256  1.00  0.00     0.031 C 
ATOM     21  C   UNL A   1      38.062  34.524  34.579  1.00  0.00     0.029 A 
ATOM     22  C   UNL A   1      39.044  33.450  34.710  1.00  0.00     0.049 A 
ATOM     23  H   UNL A   1      39.492  31.967  33.321  1.00  0.00     0.167 HD
ATOM     24  C   UNL A   1      40.278  28.859  30.325  1.00  0.00     0.037 A 
ATOM     25  C   UNL A   1      39.843  33.242  35.773  1.00  0.00     0.037 A 
ATOM     26  C   UNL A   1      41.186  28.575  31.404  1.00  0.00     0.049 A 
ATOM     27  C   UNL A   1      40.795  32.076  35.765  1.00  0.00     0.074 A 
ATOM     28  C   UNL A   1      42.152  27.587  31.485  1.00  0.00     0.029 A 
ATOM     29  N   UNL A   1      41.243  29.287  32.596  1.00  0.00    -0.354 N 
ATOM     30  N   UNL A   1      41.007  31.185  34.827  1.00  0.00    -0.248 NA
ATOM     31  C   UNL A   1      41.613  31.888  36.970  1.00  0.00     0.031 C 
ATOM     32  C   UNL A   1      42.758  27.670  32.743  1.00  0.00     0.029 A 
ATOM     33  C   UNL A   1      42.212  28.745  33.427  1.00  0.00     0.049 A 
ATOM     34  H   UNL A   1      40.678  30.062  32.817  1.00  0.00     0.167 HD
ATOM     35  C   UNL A   1      41.993  30.339  35.317  1.00  0.00     0.074 A 
ATOM     36  C   UNL A   1      42.353  30.841  36.629  1.00  0.00     0.031 C 
ATOM     37  C   UNL A   1      42.545  29.244  34.739  1.00  0.00     0.037 A 
BRANCH  24  38
ATOM     38  C   UNL A   1      40.315  27.994  29.096  1.00  0.00     0.064 A 
ATOM     39  C   UNL A   1      39.615  26.780  29.028  1.00  0.00     0.173 A 
ATOM     40  C   UNL A   1      41.065  28.379  27.973  1.00  0.00     0.173 A 
ATOM     41  F   UNL A   1      38.896  26.355  30.079  1.00  0.00    -0.203 F 
ATOM     42  C   UNL A   1      39.699  25.962  27.904  1.00  0.00     0.198 A 
ATOM     43  C   UNL A   1      41.116  27.578  26.835  1.00  0.00     0.198 A 
ATOM     44  F   UNL A   1      41.752  29.531  27.980  1.00  0.00    -0.203 F 
ATOM     45  F   UNL A   1      39.080  24.773  27.894  1.00  0.00    -0.200 F 
ATOM     46  C   UNL A   1      40.444  26.364  26.806  1.00  0.00     0.200 A 
ATOM     47  F   UNL A   1      41.825  27.974  25.770  1.00  0.00    -0.200 F 
ATOM     48  F   UNL A   1      40.524  25.578  25.724  1.00  0.00    -0.200 F 
ENDBRANCH  24  38
BRANCH  25  49
ATOM     49  C   UNL A   1      39.798  34.192  36.915  1.00  0.00     0.064 A 
ATOM     50  C   UNL A   1      38.958  33.946  38.009  1.00  0.00     0.173 A 
ATOM     51  C   UNL A   1      40.624  35.324  36.965  1.00  0.00     0.173 A 
ATOM     52  F   UNL A   1      38.134  32.888  37.995  1.00  0.00    -0.203 F 
ATOM     53  C   UNL A   1      38.949  34.793  39.114  1.00  0.00     0.198 A 
ATOM     54  C   UNL A   1      40.633  36.157  38.082  1.00  0.00     0.198 A 
ATOM     55  F   UNL A   1      41.446  35.602  35.943  1.00  0.00    -0.203 F 
ATOM     56  F   UNL A   1      38.122  34.546  40.139  1.00  0.00    -0.200 F 
ATOM     57  C   UNL A   1      39.795  35.891  39.154  1.00  0.00     0.200 A 
ATOM     58  F   UNL A   1      41.463  37.208  38.125  1.00  0.00    -0.200 F 
ATOM     59  F   UNL A   1      39.804  36.693  40.228  1.00  0.00    -0.200 F 
ENDBRANCH  25  49
BRANCH  37  60
ATOM     60  C   UNL A   1      43.603  28.513  35.520  1.00  0.00     0.064 A 
ATOM     61  C   UNL A   1      44.965  28.812  35.368  1.00  0.00     0.173 A 
ATOM     62  C   UNL A   1      43.250  27.526  36.453  1.00  0.00     0.173 A 
ATOM     63  F   UNL A   1      45.358  29.740  34.481  1.00  0.00    -0.203 F 
ATOM     64  C   UNL A   1      45.936  28.126  36.094  1.00  0.00     0.198 A 
ATOM     65  C   UNL A   1      44.220  26.867  37.204  1.00  0.00     0.198 A 
ATOM     66  F   UNL A   1      41.962  27.207  36.647  1.00  0.00    -0.203 F 
ATOM     67  F   UNL A   1      47.234  28.390  35.888  1.00  0.00    -0.200 F 
ATOM     68  C   UNL A   1      45.562  27.161  37.015  1.00  0.00     0.200 A 
ATOM     69  F   UNL A   1      43.857  25.946  38.107  1.00  0.00    -0.200 F 
ATOM     70  F   UNL A   1      46.498  26.505  37.717  1.00  0.00    -0.200 F 
ENDBRANCH  37  60
ENDBRANCH  11  12
ENDBRANCH   4   6
ENDBRANCH   1   2
BRANCH   1  71
ATOM     71  C   UNL A   1      31.519  31.930  26.655  1.00  0.00     0.042 C 
BRANCH  71  72
ATOM     72  C   UNL A   1      31.773  30.507  26.177  1.00  0.00     0.118 C 
BRANCH  72  73
ATOM     73  N   UNL A   1      31.288  30.287  24.822  1.00  0.00    -0.352 N 
ATOM     74  C   UNL A   1      31.410  29.179  24.026  1.00  0.00     0.251 C 
ATOM     75  H   UNL A   1      30.803  31.044  24.420  1.00  0.00     0.163 HD
ATOM     76  O   UNL A   1      31.117  29.231  22.837  1.00  0.00    -0.269 OA
BRANCH  74  77
ATOM     77  C   UNL A   1      31.905  27.917  24.605  1.00  0.00     0.040 A 
ATOM     78  C   UNL A   1      33.266  27.595  24.545  1.00  0.00     0.015 A 
ATOM     79  C   UNL A   1      30.998  27.062  25.238  1.00  0.00     0.028 A 
ATOM     80  C   UNL A   1      33.711  26.376  25.051  1.00  0.00     0.015 A 
ATOM     81  C   UNL A   1      31.453  25.844  25.755  1.00  0.00     0.055 A 
ATOM     82  C   UNL A   1      32.800  25.495  25.650  1.00  0.00     0.054 A 
ATOM     83  C   UNL A   1      30.500  24.923  26.403  1.00  0.00     0.270 A 
ATOM     84  C   UNL A   1      33.275  24.196  26.161  1.00  0.00     0.270 A 
ATOM     85  N   UNL A   1      31.005  23.739  26.876  1.00  0.00    -0.263 N 
ATOM     86  O   UNL A   1      29.309  25.202  26.507  1.00  0.00    -0.267 OA
ATOM     87  O   UNL A   1      34.448  23.857  26.051  1.00  0.00    -0.267 OA
ATOM     88  N   UNL A   1      32.340  23.385  26.753  1.00  0.00    -0.263 N 
ATOM     89  H   UNL A   1      30.393  23.111  27.324  1.00  0.00     0.191 HD
ATOM     90  H   UNL A   1      32.629  22.512  27.105  1.00  0.00     0.191 HD
ENDBRANCH  74  77
ENDBRANCH  72  73
ENDBRANCH  71  72
ENDBRANCH   1  71
TORSDOF 10
ENDMDL
