MODEL 1
REMARK VINA RESULT:     -12.2      0.000      0.000
REMARK SMILES COc1cc([N+](=O)[O-])cc2c1=N[C@H](C(=O)NCCCNC(=O)c1ccc(-c3c4nc(c(-c5c(F)c(F)c(F)c(F)c5F)c5ccc([nH]5)c(-c5c(F)c(F)c(F)c(F)c5F)c5nc(c(-c6c(F)c(F)c(F)c(F)c6F)c6ccc3[nH]6)C=C5)C=C4)cc1)C=2CC[NH3+]
REMARK SMILES IDX 17 1 16 2 14 3 15 4 13 6 3 7 4 8 11 9 5 10 10 11 12 12 9 13
REMARK SMILES IDX 86 14 2 15 1 16 6 17 7 18 8 19 87 20 88 21 89 22 18 26 19 27
REMARK SMILES IDX 20 28 21 29 22 31 23 32 24 33 85 34 25 35 84 36 26 37 27 38
REMARK SMILES IDX 28 39 78 40 29 41 83 42 77 43 79 44 30 45 82 46 76 47 75 48
REMARK SMILES IDX 31 50 63 51 43 52 62 53 44 54 47 55 61 56 80 57 45 58 46 59
REMARK SMILES IDX 60 61 81 62 48 63 32 64 33 65 41 66 34 67 35 68 39 69 42 70
REMARK SMILES IDX 36 71 37 72 40 73 38 74 64 75 65 76 73 77 66 78 67 79 71 80
REMARK SMILES IDX 74 81 68 82 69 83 72 84 70 85 49 86 50 87 58 88 51 89 52 90
REMARK SMILES IDX 56 91 59 92 53 93 54 94 57 95 55 96
REMARK H PARENT 16 5 89 23 89 24 89 25 20 30 79 49 47 60
REMARK Flexibility Score: inf
ROOT
ATOM      1  C   UNL A   1      32.137  27.261  25.661  1.00  0.00     0.117 C 
ENDROOT
BRANCH   1   2
ATOM      2  N   UNL A   1      31.798  26.170  26.556  1.00  0.00    -0.354 N 
ATOM      3  C   UNL A   1      31.996  24.827  26.384  1.00  0.00     0.249 C 
ATOM      4  O   UNL A   1      31.615  24.080  27.290  1.00  0.00    -0.272 OA
ATOM      5  H   UNL A   1      31.369  26.432  27.403  1.00  0.00     0.163 HD
BRANCH   3   6
ATOM      6  C   UNL A   1      32.649  24.319  25.070  1.00  0.00     0.222 C 
ATOM      7  C   UNL A   1      34.593  21.230  25.478  1.00  0.00     0.151 A 
ATOM      8  C   UNL A   1      34.267  20.018  24.987  1.00  0.00     0.134 A 
ATOM      9  C   UNL A   1      33.674  22.372  25.192  1.00  0.00     0.109 A 
ATOM     10  C   UNL A   1      33.072  19.788  24.182  1.00  0.00     0.273 A 
ATOM     11  C   UNL A   1      32.443  22.075  24.439  1.00  0.00     0.012 A 
ATOM     12  N   UNL A   1      33.894  23.611  25.497  1.00  0.00    -0.263 NA
ATOM     13  C   UNL A   1      32.185  20.766  23.915  1.00  0.00     0.096 A 
ATOM     14  C   UNL A   1      31.857  23.271  24.322  1.00  0.00    -0.021 C 
BRANCH   7  15
ATOM     15  O   UNL A   1      35.685  21.507  26.271  1.00  0.00    -0.494 OA
ATOM     16  C   UNL A   1      36.937  21.517  25.597  1.00  0.00     0.278 C 
ENDBRANCH   7  15
BRANCH  10  17
ATOM     17  N   UNL A   1      32.799  18.454  23.628  1.00  0.00     0.062 N 
ATOM     18  O   UNL A   1      32.218  18.376  22.536  1.00  0.00    -0.258 OA
ATOM     19  O   UNL A   1      33.177  17.479  24.292  1.00  0.00    -0.258 OA
ENDBRANCH  10  17
BRANCH  14  20
ATOM     20  C   UNL A   1      30.699  23.623  23.428  1.00  0.00     0.096 C 
BRANCH  20  21
ATOM     21  C   UNL A   1      30.416  25.110  23.170  1.00  0.00     0.263 C 
BRANCH  21  22
ATOM     22  N   UNL A   1      29.309  25.620  23.981  1.00  0.00    -0.357 N 
ATOM     23  H   UNL A   1      29.251  25.088  24.849  1.00  0.00     0.344 HD
ATOM     24  H   UNL A   1      28.436  25.524  23.464  1.00  0.00     0.344 HD
ATOM     25  H   UNL A   1      29.471  26.605  24.196  1.00  0.00     0.344 HD
ENDBRANCH  21  22
ENDBRANCH  20  21
ENDBRANCH  14  20
ENDBRANCH   3   6
ENDBRANCH   1   2
BRANCH   1  26
ATOM     26  C   UNL A   1      31.889  28.619  26.301  1.00  0.00     0.042 C 
BRANCH  26  27
ATOM     27  C   UNL A   1      32.800  29.726  25.784  1.00  0.00     0.118 C 
BRANCH  27  28
ATOM     28  N   UNL A   1      32.503  31.034  26.355  1.00  0.00    -0.352 N 
ATOM     29  C   UNL A   1      33.206  31.794  27.259  1.00  0.00     0.251 C 
ATOM     30  H   UNL A   1      31.662  31.439  26.044  1.00  0.00     0.163 HD
ATOM     31  O   UNL A   1      32.712  32.821  27.716  1.00  0.00    -0.269 OA
BRANCH  29  32
ATOM     32  C   UNL A   1      34.540  31.356  27.720  1.00  0.00     0.039 A 
ATOM     33  C   UNL A   1      34.799  30.014  27.999  1.00  0.00     0.014 A 
ATOM     34  C   UNL A   1      35.543  32.314  27.900  1.00  0.00     0.014 A 
ATOM     35  C   UNL A   1      35.979  29.661  28.643  1.00  0.00     0.010 A 
ATOM     36  C   UNL A   1      36.767  31.941  28.465  1.00  0.00     0.010 A 
ATOM     37  C   UNL A   1      36.968  30.623  28.900  1.00  0.00    -0.014 A 
BRANCH  37  38
ATOM     38  C   UNL A   1      38.183  30.234  29.662  1.00  0.00     0.031 A 
ATOM     39  C   UNL A   1      38.378  30.699  31.080  1.00  0.00     0.074 A 
ATOM     40  C   UNL A   1      39.077  29.398  29.100  1.00  0.00     0.049 A 
ATOM     41  N   UNL A   1      39.358  30.435  31.909  1.00  0.00    -0.248 NA
ATOM     42  C   UNL A   1      37.343  31.578  31.646  1.00  0.00     0.031 C 
ATOM     43  C   UNL A   1      38.992  28.868  27.739  1.00  0.00     0.029 A 
ATOM     44  N   UNL A   1      40.213  28.824  29.611  1.00  0.00    -0.354 N 
ATOM     45  C   UNL A   1      39.069  31.129  33.077  1.00  0.00     0.074 A 
ATOM     46  C   UNL A   1      37.835  31.848  32.847  1.00  0.00     0.031 C 
ATOM     47  C   UNL A   1      39.997  28.002  27.542  1.00  0.00     0.029 A 
ATOM     48  C   UNL A   1      40.828  27.958  28.741  1.00  0.00     0.049 A 
ATOM     49  H   UNL A   1      40.555  29.013  30.515  1.00  0.00     0.167 HD
ATOM     50  C   UNL A   1      39.761  31.152  34.241  1.00  0.00     0.037 A 
ATOM     51  C   UNL A   1      41.941  27.215  28.888  1.00  0.00     0.037 A 
ATOM     52  C   UNL A   1      40.968  30.406  34.484  1.00  0.00     0.049 A 
ATOM     53  C   UNL A   1      42.702  27.278  30.181  1.00  0.00     0.074 A 
ATOM     54  C   UNL A   1      41.724  30.345  35.642  1.00  0.00     0.029 A 
ATOM     55  N   UNL A   1      41.590  29.586  33.556  1.00  0.00    -0.354 N 
ATOM     56  N   UNL A   1      42.418  27.941  31.274  1.00  0.00    -0.248 NA
ATOM     57  C   UNL A   1      43.946  26.501  30.256  1.00  0.00     0.031 C 
ATOM     58  C   UNL A   1      42.822  29.514  35.405  1.00  0.00     0.029 A 
ATOM     59  C   UNL A   1      42.731  29.028  34.111  1.00  0.00     0.049 A 
ATOM     60  H   UNL A   1      41.269  29.424  32.639  1.00  0.00     0.167 HD
ATOM     61  C   UNL A   1      43.441  27.661  32.168  1.00  0.00     0.074 A 
ATOM     62  C   UNL A   1      44.343  26.748  31.497  1.00  0.00     0.031 C 
ATOM     63  C   UNL A   1      43.621  28.126  33.427  1.00  0.00     0.037 A 
BRANCH  50  64
ATOM     64  C   UNL A   1      39.238  32.013  35.351  1.00  0.00     0.064 A 
ATOM     65  C   UNL A   1      38.461  31.479  36.389  1.00  0.00     0.173 A 
ATOM     66  C   UNL A   1      39.579  33.372  35.416  1.00  0.00     0.173 A 
ATOM     67  F   UNL A   1      38.098  30.187  36.365  1.00  0.00    -0.203 F 
ATOM     68  C   UNL A   1      38.035  32.278  37.447  1.00  0.00     0.198 A 
ATOM     69  C   UNL A   1      39.170  34.163  36.487  1.00  0.00     0.198 A 
ATOM     70  F   UNL A   1      40.325  33.929  34.450  1.00  0.00    -0.203 F 
ATOM     71  F   UNL A   1      37.271  31.752  38.415  1.00  0.00    -0.200 F 
ATOM     72  C   UNL A   1      38.396  33.615  37.499  1.00  0.00     0.200 A 
ATOM     73  F   UNL A   1      39.529  35.453  36.542  1.00  0.00    -0.200 F 
ATOM     74  F   UNL A   1      37.998  34.379  38.527  1.00  0.00    -0.200 F 
ENDBRANCH  50  64
BRANCH  51  75
ATOM     75  C   UNL A   1      42.391  26.343  27.775  1.00  0.00     0.064 A 
ATOM     76  C   UNL A   1      41.852  25.062  27.603  1.00  0.00     0.173 A 
ATOM     77  C   UNL A   1      43.342  26.785  26.844  1.00  0.00     0.173 A 
ATOM     78  F   UNL A   1      40.954  24.590  28.481  1.00  0.00    -0.203 F 
ATOM     79  C   UNL A   1      42.250  24.253  26.541  1.00  0.00     0.198 A 
ATOM     80  C   UNL A   1      43.721  25.985  25.769  1.00  0.00     0.198 A 
ATOM     81  F   UNL A   1      43.885  28.005  26.966  1.00  0.00    -0.203 F 
ATOM     82  F   UNL A   1      41.740  23.021  26.413  1.00  0.00    -0.200 F 
ATOM     83  C   UNL A   1      43.177  24.718  25.620  1.00  0.00     0.200 A 
ATOM     84  F   UNL A   1      44.607  26.444  24.874  1.00  0.00    -0.200 F 
ATOM     85  F   UNL A   1      43.549  23.945  24.592  1.00  0.00    -0.200 F 
ENDBRANCH  51  75
BRANCH  63  86
ATOM     86  C   UNL A   1      44.837  27.659  34.166  1.00  0.00     0.064 A 
ATOM     87  C   UNL A   1      46.027  28.401  34.148  1.00  0.00     0.173 A 
ATOM     88  C   UNL A   1      44.795  26.496  34.949  1.00  0.00     0.173 A 
ATOM     89  F   UNL A   1      46.117  29.513  33.404  1.00  0.00    -0.203 F 
ATOM     90  C   UNL A   1      47.136  27.988  34.880  1.00  0.00     0.198 A 
ATOM     91  C   UNL A   1      45.899  26.098  35.696  1.00  0.00     0.198 A 
ATOM     92  F   UNL A   1      43.677  25.756  35.001  1.00  0.00    -0.203 F 
ATOM     93  F   UNL A   1      48.273  28.696  34.827  1.00  0.00    -0.200 F 
ATOM     94  C   UNL A   1      47.069  26.842  35.659  1.00  0.00     0.200 A 
ATOM     95  F   UNL A   1      45.830  24.997  36.456  1.00  0.00    -0.200 F 
ATOM     96  F   UNL A   1      48.135  26.453  36.371  1.00  0.00    -0.200 F 
ENDBRANCH  63  86
ENDBRANCH  37  38
ENDBRANCH  29  32
ENDBRANCH  27  28
ENDBRANCH  26  27
ENDBRANCH   1  26
TORSDOF 15
ENDMDL
MODEL 2
REMARK VINA RESULT:     -12.1      2.173      3.423
REMARK SMILES COc1cc([N+](=O)[O-])cc2c1=N[C@H](C(=O)NCCCNC(=O)c1ccc(-c3c4nc(c(-c5c(F)c(F)c(F)c(F)c5F)c5ccc([nH]5)c(-c5c(F)c(F)c(F)c(F)c5F)c5nc(c(-c6c(F)c(F)c(F)c(F)c6F)c6ccc3[nH]6)C=C5)C=C4)cc1)C=2CC[NH3+]
REMARK SMILES IDX 17 1 16 2 14 3 15 4 13 6 3 7 4 8 11 9 5 10 10 11 12 12 9 13
REMARK SMILES IDX 86 14 2 15 1 16 6 17 7 18 8 19 87 20 88 21 89 22 18 26 19 27
REMARK SMILES IDX 20 28 21 29 22 31 23 32 24 33 85 34 25 35 84 36 26 37 27 38
REMARK SMILES IDX 28 39 78 40 29 41 83 42 77 43 79 44 30 45 82 46 76 47 75 48
REMARK SMILES IDX 31 50 63 51 43 52 62 53 44 54 47 55 61 56 80 57 45 58 46 59
REMARK SMILES IDX 60 61 81 62 48 63 32 64 33 65 41 66 34 67 35 68 39 69 42 70
REMARK SMILES IDX 36 71 37 72 40 73 38 74 64 75 65 76 73 77 66 78 67 79 71 80
REMARK SMILES IDX 74 81 68 82 69 83 72 84 70 85 49 86 50 87 58 88 51 89 52 90
REMARK SMILES IDX 56 91 59 92 53 93 54 94 57 95 55 96
REMARK H PARENT 16 5 89 23 89 24 89 25 20 30 79 49 47 60
REMARK Flexibility Score: inf
ROOT
ATOM      1  C   UNL A   1      31.980  30.710  26.036  1.00  0.00     0.117 C 
ENDROOT
BRANCH   1   2
ATOM      2  N   UNL A   1      31.419  29.513  26.635  1.00  0.00    -0.354 N 
ATOM      3  C   UNL A   1      31.840  28.216  26.514  1.00  0.00     0.249 C 
ATOM      4  O   UNL A   1      31.194  27.355  27.119  1.00  0.00    -0.272 OA
ATOM      5  H   UNL A   1      30.629  29.652  27.207  1.00  0.00     0.163 HD
BRANCH   3   6
ATOM      6  C   UNL A   1      33.066  27.897  25.618  1.00  0.00     0.222 C 
ATOM      7  C   UNL A   1      33.758  24.307  25.274  1.00  0.00     0.151 A 
ATOM      8  C   UNL A   1      33.603  23.573  24.153  1.00  0.00     0.134 A 
ATOM      9  C   UNL A   1      33.433  25.763  25.208  1.00  0.00     0.109 A 
ATOM     10  C   UNL A   1      33.150  24.148  22.890  1.00  0.00     0.273 A 
ATOM     11  C   UNL A   1      32.910  26.281  23.932  1.00  0.00     0.012 A 
ATOM     12  N   UNL A   1      33.628  26.622  26.158  1.00  0.00    -0.263 NA
ATOM     13  C   UNL A   1      32.810  25.447  22.772  1.00  0.00     0.096 A 
ATOM     14  C   UNL A   1      32.744  27.585  24.175  1.00  0.00    -0.021 C 
BRANCH   7  15
ATOM     15  O   UNL A   1      34.147  23.821  26.502  1.00  0.00    -0.494 OA
ATOM     16  C   UNL A   1      35.402  23.152  26.520  1.00  0.00     0.278 C 
ENDBRANCH   7  15
BRANCH  10  17
ATOM     17  N   UNL A   1      33.053  23.308  21.688  1.00  0.00     0.062 N 
ATOM     18  O   UNL A   1      33.375  23.800  20.597  1.00  0.00    -0.258 OA
ATOM     19  O   UNL A   1      32.658  22.144  21.843  1.00  0.00    -0.258 OA
ENDBRANCH  10  17
BRANCH  14  20
ATOM     20  C   UNL A   1      32.477  28.663  23.159  1.00  0.00     0.096 C 
BRANCH  20  21
ATOM     21  C   UNL A   1      31.021  28.914  22.741  1.00  0.00     0.263 C 
BRANCH  21  22
ATOM     22  N   UNL A   1      30.909  29.889  21.654  1.00  0.00    -0.357 N 
ATOM     23  H   UNL A   1      30.409  30.713  21.987  1.00  0.00     0.344 HD
ATOM     24  H   UNL A   1      30.397  29.473  20.876  1.00  0.00     0.344 HD
ATOM     25  H   UNL A   1      31.842  30.159  21.341  1.00  0.00     0.344 HD
ENDBRANCH  21  22
ENDBRANCH  20  21
ENDBRANCH  14  20
ENDBRANCH   3   6
ENDBRANCH   1   2
BRANCH   1  26
ATOM     26  C   UNL A   1      31.617  31.961  26.822  1.00  0.00     0.042 C 
BRANCH  26  27
ATOM     27  C   UNL A   1      32.817  32.794  27.255  1.00  0.00     0.118 C 
BRANCH  27  28
ATOM     28  N   UNL A   1      32.466  34.149  27.664  1.00  0.00    -0.352 N 
ATOM     29  C   UNL A   1      33.011  34.958  28.631  1.00  0.00     0.251 C 
ATOM     30  H   UNL A   1      31.715  34.547  27.169  1.00  0.00     0.163 HD
ATOM     31  O   UNL A   1      32.477  36.028  28.911  1.00  0.00    -0.269 OA
BRANCH  29  32
ATOM     32  C   UNL A   1      34.215  34.526  29.371  1.00  0.00     0.039 A 
ATOM     33  C   UNL A   1      35.492  34.730  28.846  1.00  0.00     0.014 A 
ATOM     34  C   UNL A   1      34.060  33.884  30.603  1.00  0.00     0.014 A 
ATOM     35  C   UNL A   1      36.587  34.119  29.445  1.00  0.00     0.010 A 
ATOM     36  C   UNL A   1      35.175  33.347  31.253  1.00  0.00     0.010 A 
ATOM     37  C   UNL A   1      36.439  33.404  30.645  1.00  0.00    -0.014 A 
BRANCH  37  38
ATOM     38  C   UNL A   1      37.610  32.693  31.220  1.00  0.00     0.031 A 
ATOM     39  C   UNL A   1      38.089  33.009  32.611  1.00  0.00     0.074 A 
ATOM     40  C   UNL A   1      38.197  31.707  30.514  1.00  0.00     0.049 A 
ATOM     41  N   UNL A   1      39.073  32.470  33.288  1.00  0.00    -0.248 NA
ATOM     42  C   UNL A   1      37.376  34.069  33.341  1.00  0.00     0.031 C 
ATOM     43  C   UNL A   1      37.815  31.299  29.162  1.00  0.00     0.029 A 
ATOM     44  N   UNL A   1      39.215  30.851  30.845  1.00  0.00    -0.354 N 
ATOM     45  C   UNL A   1      39.110  33.137  34.505  1.00  0.00     0.074 A 
ATOM     46  C   UNL A   1      38.068  34.139  34.470  1.00  0.00     0.031 C 
ATOM     47  C   UNL A   1      38.547  30.235  28.801  1.00  0.00     0.029 A 
ATOM     48  C   UNL A   1      39.488  29.921  29.872  1.00  0.00     0.049 A 
ATOM     49  H   UNL A   1      39.704  30.897  31.699  1.00  0.00     0.167 HD
ATOM     50  C   UNL A   1      39.929  32.923  35.563  1.00  0.00     0.037 A 
ATOM     51  C   UNL A   1      40.398  28.929  29.842  1.00  0.00     0.037 A 
ATOM     52  C   UNL A   1      40.940  31.901  35.614  1.00  0.00     0.049 A 
ATOM     53  C   UNL A   1      41.309  28.731  31.018  1.00  0.00     0.074 A 
ATOM     54  C   UNL A   1      41.799  31.591  36.655  1.00  0.00     0.029 A 
ATOM     55  N   UNL A   1      41.223  31.017  34.584  1.00  0.00    -0.354 N 
ATOM     56  N   UNL A   1      41.334  29.371  32.161  1.00  0.00    -0.248 NA
ATOM     57  C   UNL A   1      42.328  27.679  30.897  1.00  0.00     0.031 C 
ATOM     58  C   UNL A   1      42.625  30.541  36.242  1.00  0.00     0.029 A 
ATOM     59  C   UNL A   1      42.256  30.173  34.959  1.00  0.00     0.049 A 
ATOM     60  H   UNL A   1      40.760  30.993  33.716  1.00  0.00     0.167 HD
ATOM     61  C   UNL A   1      42.364  28.802  32.895  1.00  0.00     0.074 A 
ATOM     62  C   UNL A   1      42.927  27.747  32.079  1.00  0.00     0.031 C 
ATOM     63  C   UNL A   1      42.808  29.132  34.132  1.00  0.00     0.037 A 
BRANCH  50  64
ATOM     64  C   UNL A   1      39.773  33.812  36.761  1.00  0.00     0.064 A 
ATOM     65  C   UNL A   1      40.390  35.069  36.825  1.00  0.00     0.173 A 
ATOM     66  C   UNL A   1      38.940  33.431  37.823  1.00  0.00     0.173 A 
ATOM     67  F   UNL A   1      41.207  35.472  35.840  1.00  0.00    -0.203 F 
ATOM     68  C   UNL A   1      40.186  35.910  37.916  1.00  0.00     0.198 A 
ATOM     69  C   UNL A   1      38.720  34.285  38.902  1.00  0.00     0.198 A 
ATOM     70  F   UNL A   1      38.323  32.241  37.805  1.00  0.00    -0.203 F 
ATOM     71  F   UNL A   1      40.807  37.097  37.970  1.00  0.00    -0.200 F 
ATOM     72  C   UNL A   1      39.346  35.522  38.948  1.00  0.00     0.200 A 
ATOM     73  F   UNL A   1      37.899  33.912  39.893  1.00  0.00    -0.200 F 
ATOM     74  F   UNL A   1      39.138  36.339  39.990  1.00  0.00    -0.200 F 
ENDBRANCH  50  64
BRANCH  51  75
ATOM     75  C   UNL A   1      40.479  28.049  28.651  1.00  0.00     0.064 A 
ATOM     76  C   UNL A   1      41.251  28.412  27.540  1.00  0.00     0.173 A 
ATOM     77  C   UNL A   1      39.815  26.813  28.613  1.00  0.00     0.173 A 
ATOM     78  F   UNL A   1      41.886  29.593  27.524  1.00  0.00    -0.203 F 
ATOM     79  C   UNL A   1      41.353  27.573  26.433  1.00  0.00     0.198 A 
ATOM     80  C   UNL A   1      39.938  25.965  27.515  1.00  0.00     0.198 A 
ATOM     81  F   UNL A   1      39.067  26.421  29.653  1.00  0.00    -0.203 F 
ATOM     82  F   UNL A   1      42.075  27.955  25.370  1.00  0.00    -0.200 F 
ATOM     83  C   UNL A   1      40.704  26.347  26.424  1.00  0.00     0.200 A 
ATOM     84  F   UNL A   1      39.321  24.776  27.518  1.00  0.00    -0.200 F 
ATOM     85  F   UNL A   1      40.815  25.536  25.365  1.00  0.00    -0.200 F 
ENDBRANCH  51  75
BRANCH  63  86
ATOM     86  C   UNL A   1      43.959  28.347  34.681  1.00  0.00     0.064 A 
ATOM     87  C   UNL A   1      45.280  28.795  34.535  1.00  0.00     0.173 A 
ATOM     88  C   UNL A   1      43.737  27.171  35.414  1.00  0.00     0.173 A 
ATOM     89  F   UNL A   1      45.541  29.906  33.831  1.00  0.00    -0.203 F 
ATOM     90  C   UNL A   1      46.340  28.086  35.094  1.00  0.00     0.198 A 
ATOM     91  C   UNL A   1      44.798  26.478  35.990  1.00  0.00     0.198 A 
ATOM     92  F   UNL A   1      42.491  26.707  35.585  1.00  0.00    -0.203 F 
ATOM     93  F   UNL A   1      47.597  28.516  34.917  1.00  0.00    -0.200 F 
ATOM     94  C   UNL A   1      46.097  26.934  35.827  1.00  0.00     0.200 A 
ATOM     95  F   UNL A   1      44.562  25.371  36.706  1.00  0.00    -0.200 F 
ATOM     96  F   UNL A   1      47.119  26.260  36.373  1.00  0.00    -0.200 F 
ENDBRANCH  63  86
ENDBRANCH  37  38
ENDBRANCH  29  32
ENDBRANCH  27  28
ENDBRANCH  26  27
ENDBRANCH   1  26
TORSDOF 15
ENDMDL
MODEL 3
REMARK VINA RESULT:     -12.1      2.164      3.221
REMARK SMILES COc1cc([N+](=O)[O-])cc2c1=N[C@H](C(=O)NCCCNC(=O)c1ccc(-c3c4nc(c(-c5c(F)c(F)c(F)c(F)c5F)c5ccc([nH]5)c(-c5c(F)c(F)c(F)c(F)c5F)c5nc(c(-c6c(F)c(F)c(F)c(F)c6F)c6ccc3[nH]6)C=C5)C=C4)cc1)C=2CC[NH3+]
REMARK SMILES IDX 17 1 16 2 14 3 15 4 13 6 3 7 4 8 11 9 5 10 10 11 12 12 9 13
REMARK SMILES IDX 86 14 2 15 1 16 6 17 7 18 8 19 87 20 88 21 89 22 18 26 19 27
REMARK SMILES IDX 20 28 21 29 22 31 23 32 24 33 85 34 25 35 84 36 26 37 27 38
REMARK SMILES IDX 28 39 78 40 29 41 83 42 77 43 79 44 30 45 82 46 76 47 75 48
REMARK SMILES IDX 31 50 63 51 43 52 62 53 44 54 47 55 61 56 80 57 45 58 46 59
REMARK SMILES IDX 60 61 81 62 48 63 32 64 33 65 41 66 34 67 35 68 39 69 42 70
REMARK SMILES IDX 36 71 37 72 40 73 38 74 64 75 65 76 73 77 66 78 67 79 71 80
REMARK SMILES IDX 74 81 68 82 69 83 72 84 70 85 49 86 50 87 58 88 51 89 52 90
REMARK SMILES IDX 56 91 59 92 53 93 54 94 57 95 55 96
REMARK H PARENT 16 5 89 23 89 24 89 25 20 30 79 49 47 60
REMARK Flexibility Score: inf
ROOT
ATOM      1  C   UNL A   1      31.998  30.557  26.014  1.00  0.00     0.117 C 
ENDROOT
BRANCH   1   2
ATOM      2  N   UNL A   1      31.423  29.387  26.651  1.00  0.00    -0.354 N 
ATOM      3  C   UNL A   1      31.837  28.084  26.585  1.00  0.00     0.249 C 
ATOM      4  O   UNL A   1      31.179  27.250  27.214  1.00  0.00    -0.272 OA
ATOM      5  H   UNL A   1      30.628  29.553  27.208  1.00  0.00     0.163 HD
BRANCH   3   6
ATOM      6  C   UNL A   1      33.071  27.724  25.716  1.00  0.00     0.222 C 
ATOM      7  C   UNL A   1      33.714  24.116  25.474  1.00  0.00     0.151 A 
ATOM      8  C   UNL A   1      33.565  23.356  24.371  1.00  0.00     0.134 A 
ATOM      9  C   UNL A   1      33.413  25.575  25.367  1.00  0.00     0.109 A 
ATOM     10  C   UNL A   1      33.139  23.905  23.087  1.00  0.00     0.273 A 
ATOM     11  C   UNL A   1      32.916  26.067  24.070  1.00  0.00     0.012 A 
ATOM     12  N   UNL A   1      33.607  26.455  26.296  1.00  0.00    -0.263 NA
ATOM     13  C   UNL A   1      32.820  25.204  22.930  1.00  0.00     0.096 A 
ATOM     14  C   UNL A   1      32.765  27.379  24.276  1.00  0.00    -0.021 C 
BRANCH   7  15
ATOM     15  O   UNL A   1      34.079  23.657  26.721  1.00  0.00    -0.494 OA
ATOM     16  C   UNL A   1      33.228  22.661  27.274  1.00  0.00     0.278 C 
ENDBRANCH   7  15
BRANCH  10  17
ATOM     17  N   UNL A   1      33.047  23.035  21.906  1.00  0.00     0.062 N 
ATOM     18  O   UNL A   1      32.566  21.901  22.043  1.00  0.00    -0.258 OA
ATOM     19  O   UNL A   1      33.456  23.497  20.831  1.00  0.00    -0.258 OA
ENDBRANCH  10  17
BRANCH  14  20
ATOM     20  C   UNL A   1      32.530  28.435  23.229  1.00  0.00     0.096 C 
BRANCH  20  21
ATOM     21  C   UNL A   1      31.079  28.758  22.848  1.00  0.00     0.263 C 
BRANCH  21  22
ATOM     22  N   UNL A   1      30.985  29.808  21.831  1.00  0.00    -0.357 N 
ATOM     23  H   UNL A   1      30.007  29.955  21.583  1.00  0.00     0.344 HD
ATOM     24  H   UNL A   1      31.507  29.525  21.002  1.00  0.00     0.344 HD
ATOM     25  H   UNL A   1      31.376  30.675  22.200  1.00  0.00     0.344 HD
ENDBRANCH  21  22
ENDBRANCH  20  21
ENDBRANCH  14  20
ENDBRANCH   3   6
ENDBRANCH   1   2
BRANCH   1  26
ATOM     26  C   UNL A   1      31.602  31.843  26.725  1.00  0.00     0.042 C 
BRANCH  26  27
ATOM     27  C   UNL A   1      32.782  32.643  27.263  1.00  0.00     0.118 C 
BRANCH  27  28
ATOM     28  N   UNL A   1      32.439  34.018  27.611  1.00  0.00    -0.352 N 
ATOM     29  C   UNL A   1      32.987  34.865  28.544  1.00  0.00     0.251 C 
ATOM     30  H   UNL A   1      31.693  34.399  27.096  1.00  0.00     0.163 HD
ATOM     31  O   UNL A   1      32.459  35.951  28.774  1.00  0.00    -0.269 OA
BRANCH  29  32
ATOM     32  C   UNL A   1      34.185  34.458  29.306  1.00  0.00     0.039 A 
ATOM     33  C   UNL A   1      35.467  34.687  28.805  1.00  0.00     0.014 A 
ATOM     34  C   UNL A   1      34.019  33.814  30.536  1.00  0.00     0.014 A 
ATOM     35  C   UNL A   1      36.562  34.098  29.426  1.00  0.00     0.010 A 
ATOM     36  C   UNL A   1      35.133  33.300  31.207  1.00  0.00     0.010 A 
ATOM     37  C   UNL A   1      36.406  33.382  30.623  1.00  0.00    -0.014 A 
BRANCH  37  38
ATOM     38  C   UNL A   1      37.579  32.695  31.220  1.00  0.00     0.031 A 
ATOM     39  C   UNL A   1      38.037  33.033  32.614  1.00  0.00     0.074 A 
ATOM     40  C   UNL A   1      38.190  31.709  30.533  1.00  0.00     0.049 A 
ATOM     41  N   UNL A   1      39.020  32.517  33.309  1.00  0.00    -0.248 NA
ATOM     42  C   UNL A   1      37.300  34.091  33.323  1.00  0.00     0.031 C 
ATOM     43  C   UNL A   1      37.831  31.280  29.182  1.00  0.00     0.029 A 
ATOM     44  N   UNL A   1      39.216  30.872  30.888  1.00  0.00    -0.354 N 
ATOM     45  C   UNL A   1      39.032  33.199  34.519  1.00  0.00     0.074 A 
ATOM     46  C   UNL A   1      37.976  34.185  34.459  1.00  0.00     0.031 C 
ATOM     47  C   UNL A   1      38.583  30.223  28.843  1.00  0.00     0.029 A 
ATOM     48  C   UNL A   1      39.515  29.935  29.929  1.00  0.00     0.049 A 
ATOM     49  H   UNL A   1      39.694  30.935  31.746  1.00  0.00     0.167 HD
ATOM     50  C   UNL A   1      39.841  33.009  35.589  1.00  0.00     0.037 A 
ATOM     51  C   UNL A   1      40.439  28.956  29.922  1.00  0.00     0.037 A 
ATOM     52  C   UNL A   1      40.866  32.003  35.665  1.00  0.00     0.049 A 
ATOM     53  C   UNL A   1      41.339  28.785  31.111  1.00  0.00     0.074 A 
ATOM     54  C   UNL A   1      41.717  31.717  36.719  1.00  0.00     0.029 A 
ATOM     55  N   UNL A   1      41.175  31.111  34.649  1.00  0.00    -0.354 N 
ATOM     56  N   UNL A   1      41.340  29.439  32.246  1.00  0.00    -0.248 NA
ATOM     57  C   UNL A   1      42.374  27.747  31.015  1.00  0.00     0.031 C 
ATOM     58  C   UNL A   1      42.563  30.675  36.330  1.00  0.00     0.029 A 
ATOM     59  C   UNL A   1      42.215  30.286  35.046  1.00  0.00     0.049 A 
ATOM     60  H   UNL A   1      40.723  31.070  33.775  1.00  0.00     0.167 HD
ATOM     61  C   UNL A   1      42.369  28.894  33.000  1.00  0.00     0.074 A 
ATOM     62  C   UNL A   1      42.957  27.837  32.203  1.00  0.00     0.031 C 
ATOM     63  C   UNL A   1      42.793  29.244  34.238  1.00  0.00     0.037 A 
BRANCH  50  64
ATOM     64  C   UNL A   1      39.658  33.909  36.774  1.00  0.00     0.064 A 
ATOM     65  C   UNL A   1      38.845  33.540  37.856  1.00  0.00     0.173 A 
ATOM     66  C   UNL A   1      40.361  35.119  36.861  1.00  0.00     0.173 A 
ATOM     67  F   UNL A   1      38.142  32.398  37.814  1.00  0.00    -0.203 F 
ATOM     68  C   UNL A   1      38.734  34.357  38.978  1.00  0.00     0.198 A 
ATOM     69  C   UNL A   1      40.266  35.923  37.995  1.00  0.00     0.198 A 
ATOM     70  F   UNL A   1      41.156  35.513  35.856  1.00  0.00    -0.203 F 
ATOM     71  F   UNL A   1      37.931  33.998  39.989  1.00  0.00    -0.200 F 
ATOM     72  C   UNL A   1      39.451  35.542  39.050  1.00  0.00     0.200 A 
ATOM     73  F   UNL A   1      40.967  37.063  38.068  1.00  0.00    -0.200 F 
ATOM     74  F   UNL A   1      39.355  36.320  40.138  1.00  0.00    -0.200 F 
ENDBRANCH  50  64
BRANCH  51  75
ATOM     75  C   UNL A   1      40.548  28.063  28.742  1.00  0.00     0.064 A 
ATOM     76  C   UNL A   1      39.853  26.848  28.694  1.00  0.00     0.173 A 
ATOM     77  C   UNL A   1      41.322  28.420  27.628  1.00  0.00     0.173 A 
ATOM     78  F   UNL A   1      39.116  26.457  29.745  1.00  0.00    -0.203 F 
ATOM     79  C   UNL A   1      39.929  26.022  27.576  1.00  0.00     0.198 A 
ATOM     80  C   UNL A   1      41.379  27.604  26.501  1.00  0.00     0.198 A 
ATOM     81  F   UNL A   1      42.005  29.574  27.627  1.00  0.00    -0.203 F 
ATOM     82  F   UNL A   1      39.275  24.852  27.564  1.00  0.00    -0.200 F 
ATOM     83  C   UNL A   1      40.684  26.404  26.477  1.00  0.00     0.200 A 
ATOM     84  F   UNL A   1      42.098  27.984  25.437  1.00  0.00    -0.200 F 
ATOM     85  F   UNL A   1      40.746  25.615  25.396  1.00  0.00    -0.200 F 
ENDBRANCH  51  75
BRANCH  63  86
ATOM     86  C   UNL A   1      43.948  28.482  34.811  1.00  0.00     0.064 A 
ATOM     87  C   UNL A   1      43.753  27.281  35.507  1.00  0.00     0.173 A 
ATOM     88  C   UNL A   1      45.265  28.923  34.608  1.00  0.00     0.173 A 
ATOM     89  F   UNL A   1      42.511  26.828  35.735  1.00  0.00    -0.203 F 
ATOM     90  C   UNL A   1      44.836  26.552  35.990  1.00  0.00     0.198 A 
ATOM     91  C   UNL A   1      46.345  28.179  35.074  1.00  0.00     0.198 A 
ATOM     92  F   UNL A   1      45.501  30.063  33.944  1.00  0.00    -0.203 F 
ATOM     93  F   UNL A   1      44.625  25.421  36.677  1.00  0.00    -0.200 F 
ATOM     94  C   UNL A   1      46.130  26.997  35.767  1.00  0.00     0.200 A 
ATOM     95  F   UNL A   1      47.596  28.605  34.849  1.00  0.00    -0.200 F 
ATOM     96  F   UNL A   1      47.171  26.288  36.223  1.00  0.00    -0.200 F 
ENDBRANCH  63  86
ENDBRANCH  37  38
ENDBRANCH  29  32
ENDBRANCH  27  28
ENDBRANCH  26  27
ENDBRANCH   1  26
TORSDOF 15
ENDMDL
