MODEL 1
REMARK VINA RESULT:     -12.4      0.000      0.000
REMARK SMILES Cc1ccc(-c2ncccc2C(=O)NCCCNC(=O)c2ccc(-c3c4nc(c(-c5c(F)c(F)c(F)c(F)c5F)c5ccc([nH]5)c(-c5c(F)c(F)c(F)c(F)c5F)c5nc(c(-c6c(F)c(F)c(F)c(F)c6F)c6ccc3[nH]6)C=C5)C=C4)cc2)c(Cl)c1
REMARK SMILES IDX 16 1 15 2 14 3 12 4 13 5 11 7 6 8 7 9 8 10 10 11 9 12 5 13
REMARK SMILES IDX 1 14 2 15 3 16 86 17 4 18 84 19 85 20 17 21 18 22 19 23
REMARK SMILES IDX 20 25 21 26 22 27 83 28 23 29 82 30 24 31 25 32 26 33 76 34
REMARK SMILES IDX 27 35 81 36 75 37 77 38 28 39 80 40 74 41 73 42 29 44 61 45
REMARK SMILES IDX 41 46 60 47 42 48 45 49 59 50 78 51 43 52 44 53 58 55 79 56
REMARK SMILES IDX 46 57 30 58 31 59 39 60 32 61 33 62 37 63 40 64 34 65 35 66
REMARK SMILES IDX 38 67 36 68 62 69 63 70 71 71 64 72 65 73 69 74 72 75 66 76
REMARK SMILES IDX 67 77 70 78 68 79 47 80 48 81 56 82 49 83 50 84 54 85 57 86
REMARK SMILES IDX 51 87 52 88 55 89 53 90
REMARK H PARENT 14 6 18 24 77 43 45 54
REMARK Flexibility Score: inf
ROOT
ATOM      1  C   UNL A   1      34.171  28.599  24.287  1.00  0.00     0.042 C 
ENDROOT
BRANCH   1   2
ATOM      2  C   UNL A   1      33.642  28.970  22.900  1.00  0.00     0.118 C 
BRANCH   2   3
ATOM      3  N   UNL A   1      33.610  27.811  22.030  1.00  0.00    -0.352 N 
ATOM      4  C   UNL A   1      32.942  26.615  22.004  1.00  0.00     0.253 C 
ATOM      5  O   UNL A   1      33.278  25.889  21.070  1.00  0.00    -0.269 OA
ATOM      6  H   UNL A   1      34.223  27.907  21.266  1.00  0.00     0.163 HD
BRANCH   4   7
ATOM      7  C   UNL A   1      31.883  26.187  22.974  1.00  0.00     0.066 A 
ATOM      8  C   UNL A   1      32.124  25.149  23.900  1.00  0.00     0.084 A 
ATOM      9  N   UNL A   1      31.163  24.681  24.757  1.00  0.00    -0.255 NA
ATOM     10  C   UNL A   1      29.941  25.240  24.715  1.00  0.00     0.112 A 
ATOM     11  C   UNL A   1      30.619  26.789  23.039  1.00  0.00     0.018 A 
ATOM     12  C   UNL A   1      29.630  26.301  23.894  1.00  0.00     0.021 A 
BRANCH   8  13
ATOM     13  C   UNL A   1      33.425  24.498  24.134  1.00  0.00     0.020 A 
ATOM     14  C   UNL A   1      37.338  22.774  24.853  1.00  0.00     0.044 C 
ATOM     15  C   UNL A   1      35.977  23.360  24.628  1.00  0.00    -0.050 A 
ATOM     16  C   UNL A   1      35.536  24.453  25.376  1.00  0.00     0.004 A 
ATOM     17  C   UNL A   1      35.122  22.811  23.663  1.00  0.00     0.024 A 
ATOM     18  C   UNL A   1      34.273  25.002  25.142  1.00  0.00     0.012 A 
ATOM     19  C   UNL A   1      33.865  23.378  23.412  1.00  0.00     0.050 A 
ATOM     20  Cl  UNL A   1      32.902  22.656  22.166  1.00  0.00    -0.084 Cl
ENDBRANCH   8  13
ENDBRANCH   4   7
ENDBRANCH   2   3
ENDBRANCH   1   2
BRANCH   1  21
ATOM     21  C   UNL A   1      33.102  28.651  25.384  1.00  0.00     0.118 C 
BRANCH  21  22
ATOM     22  N   UNL A   1      32.687  30.015  25.682  1.00  0.00    -0.352 N 
ATOM     23  C   UNL A   1      33.105  30.878  26.662  1.00  0.00     0.251 C 
ATOM     24  H   UNL A   1      31.995  30.375  25.083  1.00  0.00     0.163 HD
ATOM     25  O   UNL A   1      32.456  31.895  26.887  1.00  0.00    -0.269 OA
BRANCH  23  26
ATOM     26  C   UNL A   1      34.325  30.604  27.452  1.00  0.00     0.039 A 
ATOM     27  C   UNL A   1      35.257  31.632  27.626  1.00  0.00     0.014 A 
ATOM     28  C   UNL A   1      34.592  29.328  27.955  1.00  0.00     0.014 A 
ATOM     29  C   UNL A   1      36.434  31.393  28.340  1.00  0.00     0.010 A 
ATOM     30  C   UNL A   1      35.738  29.106  28.718  1.00  0.00     0.010 A 
ATOM     31  C   UNL A   1      36.674  30.135  28.912  1.00  0.00    -0.014 A 
BRANCH  31  32
ATOM     32  C   UNL A   1      37.900  29.871  29.705  1.00  0.00     0.031 A 
ATOM     33  C   UNL A   1      38.958  28.943  29.175  1.00  0.00     0.074 A 
ATOM     34  C   UNL A   1      38.032  30.417  30.929  1.00  0.00     0.049 A 
ATOM     35  N   UNL A   1      40.053  28.515  29.755  1.00  0.00    -0.248 NA
ATOM     36  C   UNL A   1      38.748  28.407  27.822  1.00  0.00     0.031 C 
ATOM     37  C   UNL A   1      37.060  31.305  31.568  1.00  0.00     0.029 A 
ATOM     38  N   UNL A   1      39.033  30.295  31.862  1.00  0.00    -0.354 N 
ATOM     39  C   UNL A   1      40.647  27.649  28.848  1.00  0.00     0.074 A 
ATOM     40  C   UNL A   1      39.774  27.577  27.696  1.00  0.00     0.031 C 
ATOM     41  C   UNL A   1      37.517  31.659  32.780  1.00  0.00     0.029 A 
ATOM     42  C   UNL A   1      38.795  30.996  33.019  1.00  0.00     0.049 A 
ATOM     43  H   UNL A   1      39.844  29.756  31.715  1.00  0.00     0.167 HD
ATOM     44  C   UNL A   1      41.825  26.988  28.957  1.00  0.00     0.037 A 
ATOM     45  C   UNL A   1      39.522  31.084  34.148  1.00  0.00     0.037 A 
ATOM     46  C   UNL A   1      42.706  27.085  30.091  1.00  0.00     0.049 A 
ATOM     47  C   UNL A   1      40.826  30.340  34.243  1.00  0.00     0.074 A 
ATOM     48  C   UNL A   1      43.944  26.494  30.276  1.00  0.00     0.029 A 
ATOM     49  N   UNL A   1      42.443  27.825  31.233  1.00  0.00    -0.354 N 
ATOM     50  N   UNL A   1      41.403  29.564  33.357  1.00  0.00    -0.248 NA
ATOM     51  C   UNL A   1      41.584  30.489  35.493  1.00  0.00     0.031 C 
ATOM     52  C   UNL A   1      44.415  26.849  31.545  1.00  0.00     0.029 A 
ATOM     53  C   UNL A   1      43.489  27.695  32.133  1.00  0.00     0.049 A 
ATOM     54  H   UNL A   1      41.632  28.363  31.383  1.00  0.00     0.167 HD
ATOM     55  C   UNL A   1      42.600  29.158  33.929  1.00  0.00     0.074 A 
ATOM     56  C   UNL A   1      42.675  29.783  35.233  1.00  0.00     0.031 C 
ATOM     57  C   UNL A   1      43.553  28.338  33.420  1.00  0.00     0.037 A 
BRANCH  44  58
ATOM     58  C   UNL A   1      42.235  26.105  27.815  1.00  0.00     0.064 A 
ATOM     59  C   UNL A   1      41.689  24.823  27.646  1.00  0.00     0.173 A 
ATOM     60  C   UNL A   1      43.152  26.559  26.855  1.00  0.00     0.173 A 
ATOM     61  F   UNL A   1      40.817  24.337  28.542  1.00  0.00    -0.203 F 
ATOM     62  C   UNL A   1      42.066  24.020  26.572  1.00  0.00     0.198 A 
ATOM     63  C   UNL A   1      43.503  25.764  25.767  1.00  0.00     0.198 A 
ATOM     64  F   UNL A   1      43.698  27.780  26.965  1.00  0.00    -0.203 F 
ATOM     65  F   UNL A   1      41.563  22.782  26.456  1.00  0.00    -0.200 F 
ATOM     66  C   UNL A   1      42.965  24.493  25.631  1.00  0.00     0.200 A 
ATOM     67  F   UNL A   1      44.365  26.228  24.850  1.00  0.00    -0.200 F 
ATOM     68  F   UNL A   1      43.320  23.722  24.594  1.00  0.00    -0.200 F 
ENDBRANCH  44  58
BRANCH  45  69
ATOM     69  C   UNL A   1      39.046  31.927  35.274  1.00  0.00     0.064 A 
ATOM     70  C   UNL A   1      39.334  33.299  35.316  1.00  0.00     0.173 A 
ATOM     71  C   UNL A   1      38.305  31.384  36.334  1.00  0.00     0.173 A 
ATOM     72  F   UNL A   1      40.056  33.860  34.335  1.00  0.00    -0.203 F 
ATOM     73  C   UNL A   1      38.918  34.091  36.383  1.00  0.00     0.198 A 
ATOM     74  C   UNL A   1      37.866  32.181  37.388  1.00  0.00     0.198 A 
ATOM     75  F   UNL A   1      37.999  30.078  36.339  1.00  0.00    -0.203 F 
ATOM     76  F   UNL A   1      39.247  35.389  36.421  1.00  0.00    -0.200 F 
ATOM     77  C   UNL A   1      38.180  33.532  37.417  1.00  0.00     0.200 A 
ATOM     78  F   UNL A   1      37.142  31.641  38.378  1.00  0.00    -0.200 F 
ATOM     79  F   UNL A   1      37.778  34.294  38.443  1.00  0.00    -0.200 F 
ENDBRANCH  45  69
BRANCH  57  80
ATOM     80  C   UNL A   1      44.775  28.103  34.258  1.00  0.00     0.064 A 
ATOM     81  C   UNL A   1      44.868  27.012  35.133  1.00  0.00     0.173 A 
ATOM     82  C   UNL A   1      45.879  28.962  34.154  1.00  0.00     0.173 A 
ATOM     83  F   UNL A   1      43.832  26.172  35.278  1.00  0.00    -0.203 F 
ATOM     84  C   UNL A   1      46.018  26.800  35.890  1.00  0.00     0.198 A 
ATOM     85  C   UNL A   1      47.036  28.732  34.893  1.00  0.00     0.198 A 
ATOM     86  F   UNL A   1      45.840  30.018  33.327  1.00  0.00    -0.203 F 
ATOM     87  F   UNL A   1      46.069  25.776  36.753  1.00  0.00    -0.200 F 
ATOM     88  C   UNL A   1      47.101  27.656  35.765  1.00  0.00     0.200 A 
ATOM     89  F   UNL A   1      48.088  29.554  34.762  1.00  0.00    -0.200 F 
ATOM     90  F   UNL A   1      48.208  27.448  36.491  1.00  0.00    -0.200 F 
ENDBRANCH  57  80
ENDBRANCH  31  32
ENDBRANCH  23  26
ENDBRANCH  21  22
ENDBRANCH   1  21
TORSDOF 11
ENDMDL
MODEL 2
REMARK VINA RESULT:     -12.4      0.092      1.149
REMARK SMILES Cc1ccc(-c2ncccc2C(=O)NCCCNC(=O)c2ccc(-c3c4nc(c(-c5c(F)c(F)c(F)c(F)c5F)c5ccc([nH]5)c(-c5c(F)c(F)c(F)c(F)c5F)c5nc(c(-c6c(F)c(F)c(F)c(F)c6F)c6ccc3[nH]6)C=C5)C=C4)cc2)c(Cl)c1
REMARK SMILES IDX 16 1 15 2 14 3 12 4 13 5 11 7 6 8 7 9 8 10 10 11 9 12 5 13
REMARK SMILES IDX 1 14 2 15 3 16 86 17 4 18 84 19 85 20 17 21 18 22 19 23
REMARK SMILES IDX 20 25 21 26 22 27 83 28 23 29 82 30 24 31 25 32 26 33 76 34
REMARK SMILES IDX 27 35 81 36 75 37 77 38 28 39 80 40 74 41 73 42 29 44 61 45
REMARK SMILES IDX 41 46 60 47 42 48 45 49 59 50 78 51 43 52 44 53 58 55 79 56
REMARK SMILES IDX 46 57 30 58 31 59 39 60 32 61 33 62 37 63 40 64 34 65 35 66
REMARK SMILES IDX 38 67 36 68 62 69 63 70 71 71 64 72 65 73 69 74 72 75 66 76
REMARK SMILES IDX 67 77 70 78 68 79 47 80 48 81 56 82 49 83 50 84 54 85 57 86
REMARK SMILES IDX 51 87 52 88 55 89 53 90
REMARK H PARENT 14 6 18 24 77 43 45 54
REMARK Flexibility Score: inf
ROOT
ATOM      1  C   UNL A   1      34.044  28.594  24.406  1.00  0.00     0.042 C 
ENDROOT
BRANCH   1   2
ATOM      2  C   UNL A   1      33.585  28.998  23.004  1.00  0.00     0.118 C 
BRANCH   2   3
ATOM      3  N   UNL A   1      33.577  27.856  22.111  1.00  0.00    -0.352 N 
ATOM      4  C   UNL A   1      32.925  26.652  22.054  1.00  0.00     0.253 C 
ATOM      5  O   UNL A   1      33.280  25.949  21.110  1.00  0.00    -0.269 OA
ATOM      6  H   UNL A   1      34.197  27.975  21.356  1.00  0.00     0.163 HD
BRANCH   4   7
ATOM      7  C   UNL A   1      31.861  26.192  23.005  1.00  0.00     0.066 A 
ATOM      8  C   UNL A   1      32.104  25.134  23.908  1.00  0.00     0.084 A 
ATOM      9  N   UNL A   1      31.140  24.638  24.744  1.00  0.00    -0.255 NA
ATOM     10  C   UNL A   1      29.914  25.187  24.705  1.00  0.00     0.112 A 
ATOM     11  C   UNL A   1      30.592  26.781  23.073  1.00  0.00     0.018 A 
ATOM     12  C   UNL A   1      29.600  26.265  23.908  1.00  0.00     0.021 A 
BRANCH   8  13
ATOM     13  C   UNL A   1      33.409  24.489  24.137  1.00  0.00     0.020 A 
ATOM     14  C   UNL A   1      37.331  22.781  24.845  1.00  0.00     0.044 C 
ATOM     15  C   UNL A   1      35.966  23.361  24.624  1.00  0.00    -0.050 A 
ATOM     16  C   UNL A   1      35.519  24.445  25.381  1.00  0.00     0.004 A 
ATOM     17  C   UNL A   1      35.116  22.815  23.654  1.00  0.00     0.024 A 
ATOM     18  C   UNL A   1      34.252  24.989  25.150  1.00  0.00     0.012 A 
ATOM     19  C   UNL A   1      33.855  23.377  23.407  1.00  0.00     0.050 A 
ATOM     20  Cl  UNL A   1      32.897  22.660  22.154  1.00  0.00    -0.084 Cl
ENDBRANCH   8  13
ENDBRANCH   4   7
ENDBRANCH   2   3
ENDBRANCH   1   2
BRANCH   1  21
ATOM     21  C   UNL A   1      32.938  28.686  25.463  1.00  0.00     0.118 C 
BRANCH  21  22
ATOM     22  N   UNL A   1      32.556  30.064  25.738  1.00  0.00    -0.352 N 
ATOM     23  C   UNL A   1      33.006  30.939  26.693  1.00  0.00     0.251 C 
ATOM     24  H   UNL A   1      31.862  30.426  25.142  1.00  0.00     0.163 HD
ATOM     25  O   UNL A   1      32.381  31.974  26.906  1.00  0.00    -0.269 OA
BRANCH  23  26
ATOM     26  C   UNL A   1      34.231  30.656  27.471  1.00  0.00     0.039 A 
ATOM     27  C   UNL A   1      35.177  31.674  27.627  1.00  0.00     0.014 A 
ATOM     28  C   UNL A   1      34.490  29.380  27.979  1.00  0.00     0.014 A 
ATOM     29  C   UNL A   1      36.360  31.427  28.329  1.00  0.00     0.010 A 
ATOM     30  C   UNL A   1      35.643  29.151  28.731  1.00  0.00     0.010 A 
ATOM     31  C   UNL A   1      36.592  30.170  28.907  1.00  0.00    -0.014 A 
BRANCH  31  32
ATOM     32  C   UNL A   1      37.825  29.898  29.687  1.00  0.00     0.031 A 
ATOM     33  C   UNL A   1      38.874  28.968  29.143  1.00  0.00     0.074 A 
ATOM     34  C   UNL A   1      37.970  30.437  30.913  1.00  0.00     0.049 A 
ATOM     35  N   UNL A   1      39.972  28.533  29.711  1.00  0.00    -0.248 NA
ATOM     36  C   UNL A   1      38.649  28.440  27.790  1.00  0.00     0.031 C 
ATOM     37  C   UNL A   1      37.007  31.326  31.564  1.00  0.00     0.029 A 
ATOM     38  N   UNL A   1      38.979  30.307  31.835  1.00  0.00    -0.354 N 
ATOM     39  C   UNL A   1      40.555  27.669  28.794  1.00  0.00     0.074 A 
ATOM     40  C   UNL A   1      39.671  27.606  27.650  1.00  0.00     0.031 C 
ATOM     41  C   UNL A   1      37.476  31.672  32.774  1.00  0.00     0.029 A 
ATOM     42  C   UNL A   1      38.754  31.003  32.998  1.00  0.00     0.049 A 
ATOM     43  H   UNL A   1      39.786  29.766  31.678  1.00  0.00     0.167 HD
ATOM     44  C   UNL A   1      41.731  27.003  28.889  1.00  0.00     0.037 A 
ATOM     45  C   UNL A   1      39.492  31.082  34.121  1.00  0.00     0.037 A 
ATOM     46  C   UNL A   1      42.623  27.091  30.015  1.00  0.00     0.049 A 
ATOM     47  C   UNL A   1      40.794  30.333  34.200  1.00  0.00     0.074 A 
ATOM     48  C   UNL A   1      43.860  26.494  30.186  1.00  0.00     0.029 A 
ATOM     49  N   UNL A   1      42.373  27.827  31.164  1.00  0.00    -0.354 N 
ATOM     50  N   UNL A   1      41.359  29.559  33.306  1.00  0.00    -0.248 NA
ATOM     51  C   UNL A   1      41.564  30.473  35.444  1.00  0.00     0.031 C 
ATOM     52  C   UNL A   1      44.344  26.841  31.453  1.00  0.00     0.029 A 
ATOM     53  C   UNL A   1      43.426  27.689  32.053  1.00  0.00     0.049 A 
ATOM     54  H   UNL A   1      41.565  28.367  31.324  1.00  0.00     0.167 HD
ATOM     55  C   UNL A   1      42.560  29.146  33.864  1.00  0.00     0.074 A 
ATOM     56  C   UNL A   1      42.649  29.764  35.170  1.00  0.00     0.031 C 
ATOM     57  C   UNL A   1      43.505  28.325  33.343  1.00  0.00     0.037 A 
BRANCH  44  58
ATOM     58  C   UNL A   1      42.127  26.123  27.739  1.00  0.00     0.064 A 
ATOM     59  C   UNL A   1      43.048  26.553  26.771  1.00  0.00     0.173 A 
ATOM     60  C   UNL A   1      41.616  24.822  27.627  1.00  0.00     0.173 A 
ATOM     61  F   UNL A   1      43.558  27.792  26.827  1.00  0.00    -0.203 F 
ATOM     62  C   UNL A   1      43.421  25.720  25.719  1.00  0.00     0.198 A 
ATOM     63  C   UNL A   1      42.013  23.982  26.589  1.00  0.00     0.198 A 
ATOM     64  F   UNL A   1      40.738  24.359  28.530  1.00  0.00    -0.203 F 
ATOM     65  F   UNL A   1      44.268  26.168  24.781  1.00  0.00    -0.200 F 
ATOM     66  C   UNL A   1      42.910  24.435  25.633  1.00  0.00     0.200 A 
ATOM     67  F   UNL A   1      41.528  22.735  26.514  1.00  0.00    -0.200 F 
ATOM     68  F   UNL A   1      43.277  23.633  24.624  1.00  0.00    -0.200 F 
ENDBRANCH  44  58
BRANCH  45  69
ATOM     69  C   UNL A   1      39.029  31.922  35.255  1.00  0.00     0.064 A 
ATOM     70  C   UNL A   1      39.335  33.290  35.308  1.00  0.00     0.173 A 
ATOM     71  C   UNL A   1      38.284  31.379  36.312  1.00  0.00     0.173 A 
ATOM     72  F   UNL A   1      40.062  33.850  34.330  1.00  0.00    -0.203 F 
ATOM     73  C   UNL A   1      38.932  34.078  36.383  1.00  0.00     0.198 A 
ATOM     74  C   UNL A   1      37.858  32.174  37.375  1.00  0.00     0.198 A 
ATOM     75  F   UNL A   1      37.961  30.078  36.307  1.00  0.00    -0.203 F 
ATOM     76  F   UNL A   1      39.277  35.371  36.430  1.00  0.00    -0.200 F 
ATOM     77  C   UNL A   1      38.190  33.520  37.414  1.00  0.00     0.200 A 
ATOM     78  F   UNL A   1      37.130  31.635  38.362  1.00  0.00    -0.200 F 
ATOM     79  F   UNL A   1      37.800  34.278  38.447  1.00  0.00    -0.200 F 
ENDBRANCH  45  69
BRANCH  57  80
ATOM     80  C   UNL A   1      44.734  28.081  34.168  1.00  0.00     0.064 A 
ATOM     81  C   UNL A   1      44.817  27.006  35.063  1.00  0.00     0.173 A 
ATOM     82  C   UNL A   1      45.854  28.914  34.031  1.00  0.00     0.173 A 
ATOM     83  F   UNL A   1      43.766  26.191  35.240  1.00  0.00    -0.203 F 
ATOM     84  C   UNL A   1      45.972  26.785  35.809  1.00  0.00     0.198 A 
ATOM     85  C   UNL A   1      47.016  28.675  34.759  1.00  0.00     0.198 A 
ATOM     86  F   UNL A   1      45.825  29.954  33.184  1.00  0.00    -0.203 F 
ATOM     87  F   UNL A   1      46.015  25.778  36.691  1.00  0.00    -0.200 F 
ATOM     88  C   UNL A   1      47.071  27.615  35.652  1.00  0.00     0.200 A 
ATOM     89  F   UNL A   1      48.082  29.471  34.597  1.00  0.00    -0.200 F 
ATOM     90  F   UNL A   1      48.184  27.398  36.366  1.00  0.00    -0.200 F 
ENDBRANCH  57  80
ENDBRANCH  31  32
ENDBRANCH  23  26
ENDBRANCH  21  22
ENDBRANCH   1  21
TORSDOF 11
ENDMDL
MODEL 3
REMARK VINA RESULT:     -12.2      4.943     10.005
REMARK SMILES Cc1ccc(-c2ncccc2C(=O)NCCCNC(=O)c2ccc(-c3c4nc(c(-c5c(F)c(F)c(F)c(F)c5F)c5ccc([nH]5)c(-c5c(F)c(F)c(F)c(F)c5F)c5nc(c(-c6c(F)c(F)c(F)c(F)c6F)c6ccc3[nH]6)C=C5)C=C4)cc2)c(Cl)c1
REMARK SMILES IDX 16 1 15 2 14 3 12 4 13 5 11 7 6 8 7 9 8 10 10 11 9 12 5 13
REMARK SMILES IDX 1 14 2 15 3 16 86 17 4 18 84 19 85 20 17 21 18 22 19 23
REMARK SMILES IDX 20 25 21 26 22 27 83 28 23 29 82 30 24 31 25 32 26 33 76 34
REMARK SMILES IDX 27 35 81 36 75 37 77 38 28 39 80 40 74 41 73 42 29 44 61 45
REMARK SMILES IDX 41 46 60 47 42 48 45 49 59 50 78 51 43 52 44 53 58 55 79 56
REMARK SMILES IDX 46 57 30 58 31 59 39 60 32 61 33 62 37 63 40 64 34 65 35 66
REMARK SMILES IDX 38 67 36 68 62 69 63 70 71 71 64 72 65 73 69 74 72 75 66 76
REMARK SMILES IDX 67 77 70 78 68 79 47 80 48 81 56 82 49 83 50 84 54 85 57 86
REMARK SMILES IDX 51 87 52 88 55 89 53 90
REMARK H PARENT 14 6 18 24 77 43 45 54
REMARK Flexibility Score: inf
ROOT
ATOM      1  C   UNL A   1      38.146  19.866  24.863  1.00  0.00     0.042 C 
ENDROOT
BRANCH   1   2
ATOM      2  C   UNL A   1      37.245  21.069  24.573  1.00  0.00     0.118 C 
BRANCH   2   3
ATOM      3  N   UNL A   1      36.288  21.269  25.642  1.00  0.00    -0.352 N 
ATOM      4  C   UNL A   1      34.951  21.029  25.828  1.00  0.00     0.253 C 
ATOM      5  O   UNL A   1      34.531  21.421  26.915  1.00  0.00    -0.269 OA
ATOM      6  H   UNL A   1      36.701  21.682  26.435  1.00  0.00     0.163 HD
BRANCH   4   7
ATOM      7  C   UNL A   1      34.046  20.343  24.850  1.00  0.00     0.066 A 
ATOM      8  C   UNL A   1      33.157  21.084  24.042  1.00  0.00     0.084 A 
ATOM      9  N   UNL A   1      32.265  20.493  23.186  1.00  0.00    -0.255 NA
ATOM     10  C   UNL A   1      32.242  19.151  23.113  1.00  0.00     0.112 A 
ATOM     11  C   UNL A   1      34.035  18.954  24.665  1.00  0.00     0.018 A 
ATOM     12  C   UNL A   1      33.114  18.347  23.811  1.00  0.00     0.021 A 
BRANCH   8  13
ATOM     13  C   UNL A   1      33.120  22.553  23.937  1.00  0.00     0.020 A 
ATOM     14  C   UNL A   1      33.221  26.876  23.608  1.00  0.00     0.044 C 
ATOM     15  C   UNL A   1      33.175  25.380  23.697  1.00  0.00    -0.050 A 
ATOM     16  C   UNL A   1      34.020  24.590  22.916  1.00  0.00     0.004 A 
ATOM     17  C   UNL A   1      32.273  24.752  24.566  1.00  0.00     0.024 A 
ATOM     18  C   UNL A   1      33.981  23.197  23.024  1.00  0.00     0.012 A 
ATOM     19  C   UNL A   1      32.250  23.355  24.691  1.00  0.00     0.050 A 
ATOM     20  Cl  UNL A   1      31.133  22.677  25.827  1.00  0.00    -0.084 Cl
ENDBRANCH   8  13
ENDBRANCH   4   7
ENDBRANCH   2   3
ENDBRANCH   1   2
BRANCH   1  21
ATOM     21  C   UNL A   1      39.076  20.074  26.063  1.00  0.00     0.118 C 
BRANCH  21  22
ATOM     22  N   UNL A   1      40.229  19.184  26.024  1.00  0.00    -0.352 N 
ATOM     23  C   UNL A   1      41.571  19.466  26.025  1.00  0.00     0.251 C 
ATOM     24  H   UNL A   1      40.009  18.225  25.993  1.00  0.00     0.163 HD
ATOM     25  O   UNL A   1      42.374  18.580  25.746  1.00  0.00    -0.269 OA
BRANCH  23  26
ATOM     26  C   UNL A   1      42.067  20.819  26.355  1.00  0.00     0.039 A 
ATOM     27  C   UNL A   1      42.334  21.128  27.693  1.00  0.00     0.014 A 
ATOM     28  C   UNL A   1      42.197  21.805  25.373  1.00  0.00     0.014 A 
ATOM     29  C   UNL A   1      42.772  22.408  28.041  1.00  0.00     0.010 A 
ATOM     30  C   UNL A   1      42.692  23.064  25.712  1.00  0.00     0.010 A 
ATOM     31  C   UNL A   1      42.978  23.380  27.050  1.00  0.00    -0.014 A 
BRANCH  31  32
ATOM     32  C   UNL A   1      43.478  24.735  27.393  1.00  0.00     0.031 A 
ATOM     33  C   UNL A   1      42.543  25.764  27.964  1.00  0.00     0.074 A 
ATOM     34  C   UNL A   1      44.760  25.057  27.131  1.00  0.00     0.049 A 
ATOM     35  N   UNL A   1      42.766  27.025  28.242  1.00  0.00    -0.248 NA
ATOM     36  C   UNL A   1      41.168  25.324  28.241  1.00  0.00     0.031 C 
ATOM     37  C   UNL A   1      45.755  24.158  26.546  1.00  0.00     0.029 A 
ATOM     38  N   UNL A   1      45.441  26.235  27.311  1.00  0.00    -0.354 N 
ATOM     39  C   UNL A   1      41.559  27.530  28.705  1.00  0.00     0.074 A 
ATOM     40  C   UNL A   1      40.594  26.453  28.632  1.00  0.00     0.031 C 
ATOM     41  C   UNL A   1      46.922  24.811  26.428  1.00  0.00     0.029 A 
ATOM     42  C   UNL A   1      46.749  26.183  26.895  1.00  0.00     0.049 A 
ATOM     43  H   UNL A   1      45.031  27.041  27.702  1.00  0.00     0.167 HD
ATOM     44  C   UNL A   1      41.284  28.773  29.167  1.00  0.00     0.037 A 
ATOM     45  C   UNL A   1      47.697  27.139  26.882  1.00  0.00     0.037 A 
ATOM     46  C   UNL A   1      42.252  29.833  29.266  1.00  0.00     0.049 A 
ATOM     47  C   UNL A   1      47.365  28.511  27.402  1.00  0.00     0.074 A 
ATOM     48  C   UNL A   1      42.085  31.113  29.767  1.00  0.00     0.029 A 
ATOM     49  N   UNL A   1      43.574  29.734  28.859  1.00  0.00    -0.354 N 
ATOM     50  N   UNL A   1      46.233  28.962  27.885  1.00  0.00    -0.248 NA
ATOM     51  C   UNL A   1      48.446  29.506  27.380  1.00  0.00     0.031 C 
ATOM     52  C   UNL A   1      43.296  31.800  29.631  1.00  0.00     0.029 A 
ATOM     53  C   UNL A   1      44.230  30.934  29.085  1.00  0.00     0.049 A 
ATOM     54  H   UNL A   1      43.986  28.930  28.467  1.00  0.00     0.167 HD
ATOM     55  C   UNL A   1      46.472  30.279  28.250  1.00  0.00     0.074 A 
ATOM     56  C   UNL A   1      47.861  30.552  27.946  1.00  0.00     0.031 C 
ATOM     57  C   UNL A   1      45.617  31.183  28.789  1.00  0.00     0.037 A 
BRANCH  44  58
ATOM     58  C   UNL A   1      39.878  29.056  29.610  1.00  0.00     0.064 A 
ATOM     59  C   UNL A   1      38.893  29.474  28.702  1.00  0.00     0.173 A 
ATOM     60  C   UNL A   1      39.498  28.865  30.947  1.00  0.00     0.173 A 
ATOM     61  F   UNL A   1      39.207  29.682  27.414  1.00  0.00    -0.203 F 
ATOM     62  C   UNL A   1      37.588  29.716  29.123  1.00  0.00     0.198 A 
ATOM     63  C   UNL A   1      38.185  29.080  31.358  1.00  0.00     0.198 A 
ATOM     64  F   UNL A   1      40.399  28.458  31.855  1.00  0.00    -0.203 F 
ATOM     65  F   UNL A   1      36.675  30.158  28.245  1.00  0.00    -0.200 F 
ATOM     66  C   UNL A   1      37.233  29.512  30.447  1.00  0.00     0.200 A 
ATOM     67  F   UNL A   1      37.841  28.871  32.636  1.00  0.00    -0.200 F 
ATOM     68  F   UNL A   1      35.974  29.738  30.847  1.00  0.00    -0.200 F 
ENDBRANCH  44  58
BRANCH  45  69
ATOM     69  C   UNL A   1      49.060  26.826  26.381  1.00  0.00     0.064 A 
ATOM     70  C   UNL A   1      49.396  27.033  25.036  1.00  0.00     0.173 A 
ATOM     71  C   UNL A   1      50.050  26.305  27.228  1.00  0.00     0.173 A 
ATOM     72  F   UNL A   1      48.476  27.510  24.184  1.00  0.00    -0.203 F 
ATOM     73  C   UNL A   1      50.661  26.713  24.551  1.00  0.00     0.198 A 
ATOM     74  C   UNL A   1      51.324  26.010  26.748  1.00  0.00     0.198 A 
ATOM     75  F   UNL A   1      49.781  26.093  28.524  1.00  0.00    -0.203 F 
ATOM     76  F   UNL A   1      50.941  26.877  23.251  1.00  0.00    -0.200 F 
ATOM     77  C   UNL A   1      51.626  26.205  25.409  1.00  0.00     0.200 A 
ATOM     78  F   UNL A   1      52.258  25.533  27.583  1.00  0.00    -0.200 F 
ATOM     79  F   UNL A   1      52.845  25.899  24.943  1.00  0.00    -0.200 F 
ENDBRANCH  45  69
BRANCH  57  80
ATOM     80  C   UNL A   1      46.170  32.537  29.120  1.00  0.00     0.064 A 
ATOM     81  C   UNL A   1      46.123  33.595  28.202  1.00  0.00     0.173 A 
ATOM     82  C   UNL A   1      46.719  32.787  30.387  1.00  0.00     0.173 A 
ATOM     83  F   UNL A   1      45.622  33.401  26.973  1.00  0.00    -0.203 F 
ATOM     84  C   UNL A   1      46.626  34.851  28.533  1.00  0.00     0.198 A 
ATOM     85  C   UNL A   1      47.196  34.050  30.723  1.00  0.00     0.198 A 
ATOM     86  F   UNL A   1      46.781  31.808  31.302  1.00  0.00    -0.203 F 
ATOM     87  F   UNL A   1      46.611  35.837  27.625  1.00  0.00    -0.200 F 
ATOM     88  C   UNL A   1      47.155  35.079  29.794  1.00  0.00     0.200 A 
ATOM     89  F   UNL A   1      47.697  34.272  31.947  1.00  0.00    -0.200 F 
ATOM     90  F   UNL A   1      47.634  36.289  30.113  1.00  0.00    -0.200 F 
ENDBRANCH  57  80
ENDBRANCH  31  32
ENDBRANCH  23  26
ENDBRANCH  21  22
ENDBRANCH   1  21
TORSDOF 11
ENDMDL
