MODEL 1
REMARK VINA RESULT:     -15.0      0.000      0.000
REMARK SMILES O=C1C[C@H](c2cn[nH]c2C(=O)NCCCNC(=O)c2ccc(-c3c4nc(c(-c5c(F)c(F)c(F)c(F)c5F)c5ccc([nH]5)c(-c5c(F)c(F)c(F)c(F)c5F)c5nc(c(-c6c(F)c(F)c(F)c(F)c6F)c6ccc3[nH]6)C=C5)C=C4)cc2)c2c(-c3cccs3)n[nH]c2N1
REMARK SMILES IDX 14 1 13 2 12 3 10 4 11 5 9 7 5 8 6 9 7 10 8 11 4 13 1 14
REMARK SMILES IDX 2 15 3 16 92 17 91 18 82 20 90 21 83 22 89 23 84 25 85 26
REMARK SMILES IDX 88 27 86 28 87 29 15 30 16 31 17 32 18 34 19 35 20 36 81 37
REMARK SMILES IDX 21 38 80 39 22 40 23 41 24 42 74 43 25 44 79 45 73 46 75 47
REMARK SMILES IDX 26 48 78 49 72 50 71 51 27 53 59 54 39 55 58 56 40 57 43 58
REMARK SMILES IDX 57 59 76 60 41 61 42 62 56 64 77 65 44 66 28 67 29 68 37 69
REMARK SMILES IDX 30 70 31 71 35 72 38 73 32 74 33 75 36 76 34 77 60 78 61 79
REMARK SMILES IDX 69 80 62 81 63 82 67 83 70 84 64 85 65 86 68 87 66 88 45 89
REMARK SMILES IDX 46 90 54 91 47 92 48 93 52 94 55 95 49 96 50 97 53 98 51 99
REMARK H PARENT 12 6 8 12 92 19 90 24 16 33 75 52 43 63
REMARK Flexibility Score: inf
ROOT
ATOM      1  C   UNL A   1      45.009  31.226  26.947  1.00  0.00     0.042 C 
ENDROOT
BRANCH   1   2
ATOM      2  C   UNL A   1      43.656  30.130  27.152  1.00  0.00     0.118 C 
BRANCH   2   3
ATOM      3  N   UNL A   1      43.024  28.400  26.030  1.00  0.00    -0.351 N 
ATOM      4  C   UNL A   1      42.637  27.047  25.793  1.00  0.00     0.269 C 
ATOM      5  O   UNL A   1      42.295  26.789  24.637  1.00  0.00    -0.268 OA
ATOM      6  H   UNL A   1      42.967  28.774  25.122  1.00  0.00     0.163 HD
BRANCH   4   7
ATOM      7  C   UNL A   1      42.551  26.039  26.820  1.00  0.00     0.126 A 
ATOM      8  C   UNL A   1      42.591  24.657  26.763  1.00  0.00     0.011 A 
ATOM      9  C   UNL A   1      42.526  24.237  28.106  1.00  0.00     0.140 A 
ATOM     10  N   UNL A   1      42.445  25.263  28.954  1.00  0.00    -0.183 NA
ATOM     11  N   UNL A   1      42.469  26.343  28.151  1.00  0.00    -0.273 N 
ATOM     12  H   UNL A   1      42.431  27.267  28.490  1.00  0.00     0.190 HD
BRANCH   8  13
ATOM     13  C   UNL A   1      42.702  23.868  25.512  1.00  0.00     0.069 C 
ATOM     14  O   UNL A   1      46.418  23.130  25.581  1.00  0.00    -0.275 OA
ATOM     15  C   UNL A   1      45.213  22.927  25.763  1.00  0.00     0.226 C 
ATOM     16  C   UNL A   1      44.162  23.788  25.004  1.00  0.00     0.114 C 
ATOM     17  N   UNL A   1      44.850  21.840  26.526  1.00  0.00    -0.311 N 
ATOM     18  C   UNL A   1      43.535  21.466  26.531  1.00  0.00     0.132 A 
ATOM     19  H   UNL A   1      45.518  21.346  27.054  1.00  0.00     0.171 HD
ATOM     20  C   UNL A   1      42.271  22.501  25.862  1.00  0.00     0.031 A 
ATOM     21  N   UNL A   1      42.715  20.012  27.328  1.00  0.00    -0.262 N 
ATOM     22  C   UNL A   1      40.546  21.737  26.380  1.00  0.00     0.108 A 
ATOM     23  N   UNL A   1      40.838  20.246  27.264  1.00  0.00    -0.173 NA
ATOM     24  H   UNL A   1      43.181  19.240  27.724  1.00  0.00     0.192 HD
BRANCH  22  25
ATOM     25  C   UNL A   1      39.256  22.466  26.281  1.00  0.00     0.055 A 
ATOM     26  C   UNL A   1      39.030  23.702  26.835  1.00  0.00     0.022 A 
ATOM     27  S   UNL A   1      37.928  21.887  25.390  1.00  0.00    -0.142 S 
ATOM     28  C   UNL A   1      37.739  24.200  26.486  1.00  0.00     0.012 A 
ATOM     29  C   UNL A   1      37.007  23.281  25.764  1.00  0.00     0.065 A 
ENDBRANCH  22  25
ENDBRANCH   8  13
ENDBRANCH   4   7
ENDBRANCH   2   3
ENDBRANCH   1   2
BRANCH   1  30
ATOM     30  C   UNL A   1      44.611  32.630  26.519  1.00  0.00     0.118 C 
BRANCH  30  31
ATOM     31  N   UNL A   1      45.662  33.623  26.708  1.00  0.00    -0.352 N 
ATOM     32  C   UNL A   1      45.536  34.804  27.415  1.00  0.00     0.251 C 
ATOM     33  H   UNL A   1      46.536  33.437  26.297  1.00  0.00     0.163 HD
ATOM     34  O   UNL A   1      46.249  35.775  27.210  1.00  0.00    -0.269 OA
BRANCH  32  35
ATOM     35  C   UNL A   1      44.509  34.820  28.464  1.00  0.00     0.039 A 
ATOM     36  C   UNL A   1      43.364  35.604  28.358  1.00  0.00     0.014 A 
ATOM     37  C   UNL A   1      44.663  33.874  29.480  1.00  0.00     0.014 A 
ATOM     38  C   UNL A   1      42.337  35.375  29.267  1.00  0.00     0.010 A 
ATOM     39  C   UNL A   1      43.581  33.532  30.250  1.00  0.00     0.010 A 
ATOM     40  C   UNL A   1      42.437  34.310  30.193  1.00  0.00    -0.014 A 
BRANCH  40  41
ATOM     41  C   UNL A   1      41.293  33.938  31.023  1.00  0.00     0.031 A 
ATOM     42  C   UNL A   1      41.653  33.699  32.443  1.00  0.00     0.074 A 
ATOM     43  C   UNL A   1      40.012  33.852  30.598  1.00  0.00     0.049 A 
ATOM     44  N   UNL A   1      41.831  32.540  32.980  1.00  0.00    -0.248 NA
ATOM     45  C   UNL A   1      42.065  34.822  33.299  1.00  0.00     0.031 C 
ATOM     46  C   UNL A   1      39.403  34.256  29.327  1.00  0.00     0.029 A 
ATOM     47  N   UNL A   1      38.942  33.353  31.283  1.00  0.00    -0.354 N 
ATOM     48  C   UNL A   1      42.194  32.767  34.298  1.00  0.00     0.074 A 
ATOM     49  C   UNL A   1      42.474  34.177  34.398  1.00  0.00     0.031 C 
ATOM     50  C   UNL A   1      38.053  34.180  29.412  1.00  0.00     0.029 A 
ATOM     51  C   UNL A   1      37.706  33.540  30.666  1.00  0.00     0.049 A 
ATOM     52  H   UNL A   1      39.036  32.892  32.148  1.00  0.00     0.167 HD
ATOM     53  C   UNL A   1      41.999  31.788  35.223  1.00  0.00     0.037 A 
ATOM     54  C   UNL A   1      36.493  33.138  31.132  1.00  0.00     0.037 A 
ATOM     55  C   UNL A   1      41.825  30.506  34.574  1.00  0.00     0.049 A 
ATOM     56  C   UNL A   1      36.749  32.019  32.075  1.00  0.00     0.074 A 
ATOM     57  C   UNL A   1      42.617  29.731  33.746  1.00  0.00     0.029 A 
ATOM     58  N   UNL A   1      40.540  30.057  34.379  1.00  0.00    -0.354 N 
ATOM     59  N   UNL A   1      37.193  30.855  31.693  1.00  0.00    -0.248 NA
ATOM     60  C   UNL A   1      36.998  32.367  33.466  1.00  0.00     0.031 C 
ATOM     61  C   UNL A   1      41.728  29.233  32.745  1.00  0.00     0.029 A 
ATOM     62  C   UNL A   1      40.436  29.643  33.074  1.00  0.00     0.049 A 
ATOM     63  H   UNL A   1      39.823  30.037  35.052  1.00  0.00     0.167 HD
ATOM     64  C   UNL A   1      38.157  30.529  32.633  1.00  0.00     0.074 A 
ATOM     65  C   UNL A   1      37.957  31.477  33.731  1.00  0.00     0.031 C 
ATOM     66  C   UNL A   1      39.212  29.724  32.311  1.00  0.00     0.037 A 
BRANCH  53  67
ATOM     67  C   UNL A   1      41.551  32.040  36.640  1.00  0.00     0.064 A 
ATOM     68  C   UNL A   1      40.373  32.782  36.858  1.00  0.00     0.173 A 
ATOM     69  C   UNL A   1      42.383  31.875  37.767  1.00  0.00     0.173 A 
ATOM     70  F   UNL A   1      39.511  33.007  35.854  1.00  0.00    -0.203 F 
ATOM     71  C   UNL A   1      40.106  33.400  38.083  1.00  0.00     0.198 A 
ATOM     72  C   UNL A   1      42.090  32.455  39.000  1.00  0.00     0.198 A 
ATOM     73  F   UNL A   1      43.565  31.253  37.702  1.00  0.00    -0.203 F 
ATOM     74  F   UNL A   1      39.044  34.209  38.200  1.00  0.00    -0.200 F 
ATOM     75  C   UNL A   1      40.971  33.245  39.149  1.00  0.00     0.200 A 
ATOM     76  F   UNL A   1      42.953  32.309  40.016  1.00  0.00    -0.200 F 
ATOM     77  F   UNL A   1      40.757  33.894  40.301  1.00  0.00    -0.200 F 
ENDBRANCH  53  67
BRANCH  54  78
ATOM     78  C   UNL A   1      35.197  33.864  31.123  1.00  0.00     0.064 A 
ATOM     79  C   UNL A   1      34.926  34.867  32.073  1.00  0.00     0.173 A 
ATOM     80  C   UNL A   1      34.348  33.826  30.001  1.00  0.00     0.173 A 
ATOM     81  F   UNL A   1      35.707  35.000  33.156  1.00  0.00    -0.203 F 
ATOM     82  C   UNL A   1      33.904  35.806  31.886  1.00  0.00     0.198 A 
ATOM     83  C   UNL A   1      33.329  34.764  29.815  1.00  0.00     0.198 A 
ATOM     84  F   UNL A   1      34.558  32.942  29.015  1.00  0.00    -0.203 F 
ATOM     85  F   UNL A   1      33.728  36.793  32.776  1.00  0.00    -0.200 F 
ATOM     86  C   UNL A   1      33.119  35.764  30.747  1.00  0.00     0.200 A 
ATOM     87  F   UNL A   1      32.600  34.737  28.691  1.00  0.00    -0.200 F 
ATOM     88  F   UNL A   1      32.193  36.709  30.526  1.00  0.00    -0.200 F 
ENDBRANCH  54  78
BRANCH  66  89
ATOM     89  C   UNL A   1      39.176  29.014  30.984  1.00  0.00     0.064 A 
ATOM     90  C   UNL A   1      39.582  29.582  29.762  1.00  0.00     0.173 A 
ATOM     91  C   UNL A   1      38.828  27.658  30.974  1.00  0.00     0.173 A 
ATOM     92  F   UNL A   1      40.020  30.845  29.697  1.00  0.00    -0.203 F 
ATOM     93  C   UNL A   1      39.592  28.834  28.583  1.00  0.00     0.198 A 
ATOM     94  C   UNL A   1      38.874  26.904  29.804  1.00  0.00     0.198 A 
ATOM     95  F   UNL A   1      38.479  27.046  32.117  1.00  0.00    -0.203 F 
ATOM     96  F   UNL A   1      39.971  29.403  27.428  1.00  0.00    -0.200 F 
ATOM     97  C   UNL A   1      39.244  27.494  28.608  1.00  0.00     0.200 A 
ATOM     98  F   UNL A   1      38.581  25.598  29.845  1.00  0.00    -0.200 F 
ATOM     99  F   UNL A   1      39.286  26.765  27.483  1.00  0.00    -0.200 F 
ENDBRANCH  66  89
ENDBRANCH  40  41
ENDBRANCH  32  35
ENDBRANCH  30  31
ENDBRANCH   1  30
TORSDOF 12
ENDMDL
MODEL 2
REMARK VINA RESULT:     -14.7      4.413      8.722
REMARK SMILES O=C1C[C@H](c2cn[nH]c2C(=O)NCCCNC(=O)c2ccc(-c3c4nc(c(-c5c(F)c(F)c(F)c(F)c5F)c5ccc([nH]5)c(-c5c(F)c(F)c(F)c(F)c5F)c5nc(c(-c6c(F)c(F)c(F)c(F)c6F)c6ccc3[nH]6)C=C5)C=C4)cc2)c2c(-c3cccs3)n[nH]c2N1
REMARK SMILES IDX 14 1 13 2 12 3 10 4 11 5 9 7 5 8 6 9 7 10 8 11 4 13 1 14
REMARK SMILES IDX 2 15 3 16 92 17 91 18 82 20 90 21 83 22 89 23 84 25 85 26
REMARK SMILES IDX 88 27 86 28 87 29 15 30 16 31 17 32 18 34 19 35 20 36 81 37
REMARK SMILES IDX 21 38 80 39 22 40 23 41 24 42 74 43 25 44 79 45 73 46 75 47
REMARK SMILES IDX 26 48 78 49 72 50 71 51 27 53 59 54 39 55 58 56 40 57 43 58
REMARK SMILES IDX 57 59 76 60 41 61 42 62 56 64 77 65 44 66 28 67 29 68 37 69
REMARK SMILES IDX 30 70 31 71 35 72 38 73 32 74 33 75 36 76 34 77 60 78 61 79
REMARK SMILES IDX 69 80 62 81 63 82 67 83 70 84 64 85 65 86 68 87 66 88 45 89
REMARK SMILES IDX 46 90 54 91 47 92 48 93 52 94 55 95 49 96 50 97 53 98 51 99
REMARK H PARENT 12 6 8 12 92 19 90 24 16 33 75 52 43 63
REMARK Flexibility Score: inf
ROOT
ATOM      1  C   UNL A   1      38.724  21.934  25.677  1.00  0.00     0.042 C 
ENDROOT
BRANCH   1   2
ATOM      2  C   UNL A   1      37.229  22.826  25.890  1.00  0.00     0.118 C 
BRANCH   2   3
ATOM      3  N   UNL A   1      35.182  22.334  25.422  1.00  0.00    -0.351 N 
ATOM      4  C   UNL A   1      33.770  22.511  25.326  1.00  0.00     0.269 C 
ATOM      5  O   UNL A   1      33.159  21.598  24.764  1.00  0.00    -0.268 OA
ATOM      6  H   UNL A   1      35.287  21.434  25.039  1.00  0.00     0.163 HD
BRANCH   4   7
ATOM      7  C   UNL A   1      33.071  23.694  25.760  1.00  0.00     0.126 A 
ATOM      8  C   UNL A   1      33.143  25.013  25.348  1.00  0.00     0.011 A 
ATOM      9  C   UNL A   1      32.165  25.684  26.107  1.00  0.00     0.140 A 
ATOM     10  N   UNL A   1      31.522  24.866  26.941  1.00  0.00    -0.183 NA
ATOM     11  N   UNL A   1      32.084  23.666  26.707  1.00  0.00    -0.273 N 
ATOM     12  H   UNL A   1      31.811  22.843  27.174  1.00  0.00     0.190 HD
BRANCH   8  13
ATOM     13  C   UNL A   1      34.068  25.521  24.306  1.00  0.00     0.069 C 
ATOM     14  O   UNL A   1      33.241  23.094  21.516  1.00  0.00    -0.275 OA
ATOM     15  C   UNL A   1      33.183  24.141  22.169  1.00  0.00     0.226 C 
ATOM     16  C   UNL A   1      34.311  24.479  23.187  1.00  0.00     0.114 C 
ATOM     17  N   UNL A   1      32.189  25.042  21.857  1.00  0.00    -0.311 N 
ATOM     18  C   UNL A   1      32.264  26.296  22.396  1.00  0.00     0.132 A 
ATOM     19  H   UNL A   1      31.446  24.790  21.263  1.00  0.00     0.171 HD
ATOM     20  C   UNL A   1      33.390  26.682  23.700  1.00  0.00     0.031 A 
ATOM     21  N   UNL A   1      31.194  27.778  22.112  1.00  0.00    -0.262 N 
ATOM     22  C   UNL A   1      32.923  28.458  24.377  1.00  0.00     0.108 A 
ATOM     23  N   UNL A   1      31.598  29.094  23.411  1.00  0.00    -0.173 NA
ATOM     24  H   UNL A   1      30.520  27.868  21.399  1.00  0.00     0.192 HD
BRANCH  22  25
ATOM     25  C   UNL A   1      33.423  29.011  25.661  1.00  0.00     0.055 A 
ATOM     26  C   UNL A   1      34.585  28.603  26.270  1.00  0.00     0.022 A 
ATOM     27  S   UNL A   1      32.653  30.282  26.488  1.00  0.00    -0.142 S 
ATOM     28  C   UNL A   1      34.865  29.384  27.431  1.00  0.00     0.012 A 
ATOM     29  C   UNL A   1      33.856  30.284  27.705  1.00  0.00     0.065 A 
ENDBRANCH  22  25
ENDBRANCH   8  13
ENDBRANCH   4   7
ENDBRANCH   2   3
ENDBRANCH   1   2
BRANCH   1  30
ATOM     30  C   UNL A   1      39.642  21.962  26.889  1.00  0.00     0.118 C 
BRANCH  30  31
ATOM     31  N   UNL A   1      41.061  21.933  26.555  1.00  0.00    -0.352 N 
ATOM     32  C   UNL A   1      41.880  23.038  26.421  1.00  0.00     0.251 C 
ATOM     33  H   UNL A   1      41.471  21.050  26.414  1.00  0.00     0.163 HD
ATOM     34  O   UNL A   1      42.902  23.024  25.752  1.00  0.00    -0.269 OA
BRANCH  32  35
ATOM     35  C   UNL A   1      41.469  24.237  27.162  1.00  0.00     0.039 A 
ATOM     36  C   UNL A   1      42.177  24.692  28.271  1.00  0.00     0.014 A 
ATOM     37  C   UNL A   1      40.443  24.987  26.584  1.00  0.00     0.014 A 
ATOM     38  C   UNL A   1      41.871  25.957  28.758  1.00  0.00     0.010 A 
ATOM     39  C   UNL A   1      40.277  26.297  26.954  1.00  0.00     0.010 A 
ATOM     40  C   UNL A   1      40.940  26.774  28.073  1.00  0.00    -0.014 A 
BRANCH  40  41
ATOM     41  C   UNL A   1      40.750  28.170  28.460  1.00  0.00     0.031 A 
ATOM     42  C   UNL A   1      41.797  29.074  27.922  1.00  0.00     0.074 A 
ATOM     43  C   UNL A   1      39.717  28.646  29.190  1.00  0.00     0.049 A 
ATOM     44  N   UNL A   1      42.814  29.512  28.584  1.00  0.00    -0.248 NA
ATOM     45  C   UNL A   1      41.861  29.355  26.480  1.00  0.00     0.031 C 
ATOM     46  C   UNL A   1      38.477  27.993  29.623  1.00  0.00     0.029 A 
ATOM     47  N   UNL A   1      39.580  29.898  29.716  1.00  0.00    -0.354 N 
ATOM     48  C   UNL A   1      43.557  30.282  27.705  1.00  0.00     0.074 A 
ATOM     49  C   UNL A   1      43.016  30.026  26.394  1.00  0.00     0.031 C 
ATOM     50  C   UNL A   1      37.631  28.906  30.157  1.00  0.00     0.029 A 
ATOM     51  C   UNL A   1      38.336  30.167  30.286  1.00  0.00     0.049 A 
ATOM     52  H   UNL A   1      40.306  30.563  29.695  1.00  0.00     0.167 HD
ATOM     53  C   UNL A   1      44.399  31.232  28.196  1.00  0.00     0.037 A 
ATOM     54  C   UNL A   1      37.943  31.327  30.877  1.00  0.00     0.037 A 
ATOM     55  C   UNL A   1      44.684  30.982  29.593  1.00  0.00     0.049 A 
ATOM     56  C   UNL A   1      39.182  32.026  31.306  1.00  0.00     0.074 A 
ATOM     57  C   UNL A   1      45.269  29.936  30.284  1.00  0.00     0.029 A 
ATOM     58  N   UNL A   1      43.957  31.679  30.528  1.00  0.00    -0.354 N 
ATOM     59  N   UNL A   1      39.952  31.586  32.261  1.00  0.00    -0.248 NA
ATOM     60  C   UNL A   1      39.814  32.910  30.339  1.00  0.00     0.031 C 
ATOM     61  C   UNL A   1      44.462  29.769  31.451  1.00  0.00     0.029 A 
ATOM     62  C   UNL A   1      43.502  30.779  31.460  1.00  0.00     0.049 A 
ATOM     63  H   UNL A   1      43.792  32.650  30.531  1.00  0.00     0.167 HD
ATOM     64  C   UNL A   1      41.237  31.753  31.771  1.00  0.00     0.074 A 
ATOM     65  C   UNL A   1      41.091  32.621  30.601  1.00  0.00     0.031 C 
ATOM     66  C   UNL A   1      42.257  30.940  32.175  1.00  0.00     0.037 A 
BRANCH  53  67
ATOM     67  C   UNL A   1      44.618  32.580  27.559  1.00  0.00     0.064 A 
ATOM     68  C   UNL A   1      45.784  32.789  26.795  1.00  0.00     0.173 A 
ATOM     69  C   UNL A   1      43.917  33.747  27.931  1.00  0.00     0.173 A 
ATOM     70  F   UNL A   1      46.532  31.751  26.392  1.00  0.00    -0.203 F 
ATOM     71  C   UNL A   1      46.265  34.072  26.519  1.00  0.00     0.198 A 
ATOM     72  C   UNL A   1      44.376  35.024  27.613  1.00  0.00     0.198 A 
ATOM     73  F   UNL A   1      42.831  33.714  28.710  1.00  0.00    -0.203 F 
ATOM     74  F   UNL A   1      47.450  34.220  25.910  1.00  0.00    -0.200 F 
ATOM     75  C   UNL A   1      45.566  35.187  26.939  1.00  0.00     0.200 A 
ATOM     76  F   UNL A   1      43.694  36.093  28.048  1.00  0.00    -0.200 F 
ATOM     77  F   UNL A   1      46.060  36.416  26.740  1.00  0.00    -0.200 F 
ENDBRANCH  53  67
BRANCH  54  78
ATOM     78  C   UNL A   1      36.646  32.043  30.769  1.00  0.00     0.064 A 
ATOM     79  C   UNL A   1      35.842  32.253  31.905  1.00  0.00     0.173 A 
ATOM     80  C   UNL A   1      36.333  32.815  29.635  1.00  0.00     0.173 A 
ATOM     81  F   UNL A   1      36.093  31.587  33.043  1.00  0.00    -0.203 F 
ATOM     82  C   UNL A   1      34.824  33.214  31.922  1.00  0.00     0.198 A 
ATOM     83  C   UNL A   1      35.317  33.774  29.654  1.00  0.00     0.198 A 
ATOM     84  F   UNL A   1      37.075  32.727  28.521  1.00  0.00    -0.203 F 
ATOM     85  F   UNL A   1      34.131  33.438  33.049  1.00  0.00    -0.200 F 
ATOM     86  C   UNL A   1      34.575  33.986  30.801  1.00  0.00     0.200 A 
ATOM     87  F   UNL A   1      35.110  34.542  28.575  1.00  0.00    -0.200 F 
ATOM     88  F   UNL A   1      33.654  34.961  30.839  1.00  0.00    -0.200 F 
ENDBRANCH  54  78
BRANCH  66  89
ATOM     89  C   UNL A   1      42.001  30.014  33.334  1.00  0.00     0.064 A 
ATOM     90  C   UNL A   1      41.554  28.685  33.213  1.00  0.00     0.173 A 
ATOM     91  C   UNL A   1      42.343  30.458  34.617  1.00  0.00     0.173 A 
ATOM     92  F   UNL A   1      41.295  28.149  32.014  1.00  0.00    -0.203 F 
ATOM     93  C   UNL A   1      41.414  27.862  34.332  1.00  0.00     0.198 A 
ATOM     94  C   UNL A   1      42.237  29.624  35.727  1.00  0.00     0.198 A 
ATOM     95  F   UNL A   1      42.823  31.699  34.791  1.00  0.00    -0.203 F 
ATOM     96  F   UNL A   1      40.972  26.602  34.191  1.00  0.00    -0.200 F 
ATOM     97  C   UNL A   1      41.762  28.332  35.587  1.00  0.00     0.200 A 
ATOM     98  F   UNL A   1      42.620  30.070  36.931  1.00  0.00    -0.200 F 
ATOM     99  F   UNL A   1      41.661  27.532  36.659  1.00  0.00    -0.200 F 
ENDBRANCH  66  89
ENDBRANCH  40  41
ENDBRANCH  32  35
ENDBRANCH  30  31
ENDBRANCH   1  30
TORSDOF 12
ENDMDL
MODEL 3
REMARK VINA RESULT:     -14.6      4.503      8.793
REMARK SMILES O=C1C[C@H](c2cn[nH]c2C(=O)NCCCNC(=O)c2ccc(-c3c4nc(c(-c5c(F)c(F)c(F)c(F)c5F)c5ccc([nH]5)c(-c5c(F)c(F)c(F)c(F)c5F)c5nc(c(-c6c(F)c(F)c(F)c(F)c6F)c6ccc3[nH]6)C=C5)C=C4)cc2)c2c(-c3cccs3)n[nH]c2N1
REMARK SMILES IDX 14 1 13 2 12 3 10 4 11 5 9 7 5 8 6 9 7 10 8 11 4 13 1 14
REMARK SMILES IDX 2 15 3 16 92 17 91 18 82 20 90 21 83 22 89 23 84 25 85 26
REMARK SMILES IDX 88 27 86 28 87 29 15 30 16 31 17 32 18 34 19 35 20 36 81 37
REMARK SMILES IDX 21 38 80 39 22 40 23 41 24 42 74 43 25 44 79 45 73 46 75 47
REMARK SMILES IDX 26 48 78 49 72 50 71 51 27 53 59 54 39 55 58 56 40 57 43 58
REMARK SMILES IDX 57 59 76 60 41 61 42 62 56 64 77 65 44 66 28 67 29 68 37 69
REMARK SMILES IDX 30 70 31 71 35 72 38 73 32 74 33 75 36 76 34 77 60 78 61 79
REMARK SMILES IDX 69 80 62 81 63 82 67 83 70 84 64 85 65 86 68 87 66 88 45 89
REMARK SMILES IDX 46 90 54 91 47 92 48 93 52 94 55 95 49 96 50 97 53 98 51 99
REMARK H PARENT 12 6 8 12 92 19 90 24 16 33 75 52 43 63
REMARK Flexibility Score: inf
ROOT
ATOM      1  C   UNL A   1      38.625  21.974  25.780  1.00  0.00     0.042 C 
ENDROOT
BRANCH   1   2
ATOM      2  C   UNL A   1      37.140  22.903  25.839  1.00  0.00     0.118 C 
BRANCH   2   3
ATOM      3  N   UNL A   1      35.085  22.354  25.482  1.00  0.00    -0.351 N 
ATOM      4  C   UNL A   1      33.667  22.501  25.436  1.00  0.00     0.269 C 
ATOM      5  O   UNL A   1      33.051  21.551  24.946  1.00  0.00    -0.268 OA
ATOM      6  H   UNL A   1      35.191  21.437  25.140  1.00  0.00     0.163 HD
BRANCH   4   7
ATOM      7  C   UNL A   1      32.964  23.693  25.840  1.00  0.00     0.126 A 
ATOM      8  C   UNL A   1      33.026  25.000  25.389  1.00  0.00     0.011 A 
ATOM      9  C   UNL A   1      32.049  25.687  26.134  1.00  0.00     0.140 A 
ATOM     10  N   UNL A   1      31.415  24.890  26.995  1.00  0.00    -0.183 NA
ATOM     11  N   UNL A   1      31.983  23.687  26.793  1.00  0.00    -0.273 N 
ATOM     12  H   UNL A   1      31.717  22.876  27.285  1.00  0.00     0.190 HD
BRANCH   8  13
ATOM     13  C   UNL A   1      33.943  25.482  24.328  1.00  0.00     0.069 C 
ATOM     14  O   UNL A   1      33.137  22.950  21.626  1.00  0.00    -0.275 OA
ATOM     15  C   UNL A   1      33.069  24.019  22.243  1.00  0.00     0.226 C 
ATOM     16  C   UNL A   1      34.195  24.405  23.245  1.00  0.00     0.114 C 
ATOM     17  N   UNL A   1      32.064  24.897  21.903  1.00  0.00    -0.311 N 
ATOM     18  C   UNL A   1      32.125  26.169  22.397  1.00  0.00     0.132 A 
ATOM     19  H   UNL A   1      31.322  24.616  21.319  1.00  0.00     0.171 HD
ATOM     20  C   UNL A   1      33.250  26.613  23.684  1.00  0.00     0.031 A 
ATOM     21  N   UNL A   1      31.037  27.628  22.065  1.00  0.00    -0.262 N 
ATOM     22  C   UNL A   1      32.763  28.406  24.300  1.00  0.00     0.108 A 
ATOM     23  N   UNL A   1      31.429  28.992  23.317  1.00  0.00    -0.173 NA
ATOM     24  H   UNL A   1      30.361  27.685  21.351  1.00  0.00     0.192 HD
BRANCH  22  25
ATOM     25  C   UNL A   1      33.260  29.009  25.563  1.00  0.00     0.055 A 
ATOM     26  C   UNL A   1      34.434  28.643  26.176  1.00  0.00     0.022 A 
ATOM     27  S   UNL A   1      32.470  30.289  26.355  1.00  0.00    -0.142 S 
ATOM     28  C   UNL A   1      34.705  29.467  27.310  1.00  0.00     0.012 A 
ATOM     29  C   UNL A   1      33.681  30.354  27.563  1.00  0.00     0.065 A 
ENDBRANCH  22  25
ENDBRANCH   8  13
ENDBRANCH   4   7
ENDBRANCH   2   3
ENDBRANCH   1   2
BRANCH   1  30
ATOM     30  C   UNL A   1      39.605  22.297  26.898  1.00  0.00     0.118 C 
BRANCH  30  31
ATOM     31  N   UNL A   1      41.003  22.252  26.487  1.00  0.00    -0.352 N 
ATOM     32  C   UNL A   1      41.818  23.349  26.281  1.00  0.00     0.251 C 
ATOM     33  H   UNL A   1      41.402  21.364  26.346  1.00  0.00     0.163 HD
ATOM     34  O   UNL A   1      42.802  23.313  25.558  1.00  0.00    -0.269 OA
BRANCH  32  35
ATOM     35  C   UNL A   1      41.454  24.569  27.013  1.00  0.00     0.039 A 
ATOM     36  C   UNL A   1      41.985  24.859  28.266  1.00  0.00     0.014 A 
ATOM     37  C   UNL A   1      40.688  25.497  26.304  1.00  0.00     0.014 A 
ATOM     38  C   UNL A   1      41.782  26.137  28.774  1.00  0.00     0.010 A 
ATOM     39  C   UNL A   1      40.651  26.801  26.727  1.00  0.00     0.010 A 
ATOM     40  C   UNL A   1      41.142  27.119  27.982  1.00  0.00    -0.014 A 
BRANCH  40  41
ATOM     41  C   UNL A   1      41.091  28.511  28.423  1.00  0.00     0.031 A 
ATOM     42  C   UNL A   1      42.262  29.309  27.982  1.00  0.00     0.074 A 
ATOM     43  C   UNL A   1      40.079  29.075  29.122  1.00  0.00     0.049 A 
ATOM     44  N   UNL A   1      43.283  29.598  28.715  1.00  0.00    -0.248 NA
ATOM     45  C   UNL A   1      42.438  29.638  26.560  1.00  0.00     0.031 C 
ATOM     46  C   UNL A   1      38.751  28.554  29.460  1.00  0.00     0.029 A 
ATOM     47  N   UNL A   1      40.057  30.312  29.697  1.00  0.00    -0.354 N 
ATOM     48  C   UNL A   1      44.158  30.312  27.911  1.00  0.00     0.074 A 
ATOM     49  C   UNL A   1      43.665  30.173  26.564  1.00  0.00     0.031 C 
ATOM     50  C   UNL A   1      37.986  29.536  29.992  1.00  0.00     0.029 A 
ATOM     51  C   UNL A   1      38.822  30.701  30.215  1.00  0.00     0.049 A 
ATOM     52  H   UNL A   1      40.853  30.888  29.745  1.00  0.00     0.167 HD
ATOM     53  C   UNL A   1      45.074  31.136  28.489  1.00  0.00     0.037 A 
ATOM     54  C   UNL A   1      38.531  31.874  30.839  1.00  0.00     0.037 A 
ATOM     55  C   UNL A   1      45.250  30.799  29.885  1.00  0.00     0.049 A 
ATOM     56  C   UNL A   1      39.816  32.407  31.362  1.00  0.00     0.074 A 
ATOM     57  C   UNL A   1      45.672  29.665  30.555  1.00  0.00     0.029 A 
ATOM     58  N   UNL A   1      44.556  31.538  30.813  1.00  0.00    -0.354 N 
ATOM     59  N   UNL A   1      40.476  31.842  32.334  1.00  0.00    -0.248 NA
ATOM     60  C   UNL A   1      40.597  33.250  30.470  1.00  0.00     0.031 C 
ATOM     61  C   UNL A   1      44.788  29.546  31.671  1.00  0.00     0.029 A 
ATOM     62  C   UNL A   1      43.950  30.660  31.678  1.00  0.00     0.049 A 
ATOM     63  H   UNL A   1      44.503  32.520  30.852  1.00  0.00     0.167 HD
ATOM     64  C   UNL A   1      41.797  31.878  31.918  1.00  0.00     0.074 A 
ATOM     65  C   UNL A   1      41.817  32.803  30.783  1.00  0.00     0.031 C 
ATOM     66  C   UNL A   1      42.693  30.936  32.335  1.00  0.00     0.037 A 
BRANCH  53  67
ATOM     67  C   UNL A   1      45.480  32.474  27.926  1.00  0.00     0.064 A 
ATOM     68  C   UNL A   1      44.485  33.448  27.705  1.00  0.00     0.173 A 
ATOM     69  C   UNL A   1      46.721  32.719  27.300  1.00  0.00     0.173 A 
ATOM     70  F   UNL A   1      43.265  33.315  28.247  1.00  0.00    -0.203 F 
ATOM     71  C   UNL A   1      44.687  34.525  26.838  1.00  0.00     0.198 A 
ATOM     72  C   UNL A   1      46.932  33.819  26.472  1.00  0.00     0.198 A 
ATOM     73  F   UNL A   1      47.738  31.855  27.363  1.00  0.00    -0.203 F 
ATOM     74  F   UNL A   1      43.667  35.346  26.551  1.00  0.00    -0.200 F 
ATOM     75  C   UNL A   1      45.906  34.702  26.213  1.00  0.00     0.200 A 
ATOM     76  F   UNL A   1      48.116  33.962  25.859  1.00  0.00    -0.200 F 
ATOM     77  F   UNL A   1      46.081  35.690  25.325  1.00  0.00    -0.200 F 
ENDBRANCH  53  67
BRANCH  54  78
ATOM     78  C   UNL A   1      37.333  32.740  30.698  1.00  0.00     0.064 A 
ATOM     79  C   UNL A   1      37.007  33.326  29.460  1.00  0.00     0.173 A 
ATOM     80  C   UNL A   1      36.316  32.740  31.671  1.00  0.00     0.173 A 
ATOM     81  F   UNL A   1      37.904  33.337  28.462  1.00  0.00    -0.203 F 
ATOM     82  C   UNL A   1      35.729  33.830  29.194  1.00  0.00     0.198 A 
ATOM     83  C   UNL A   1      35.039  33.243  31.404  1.00  0.00     0.198 A 
ATOM     84  F   UNL A   1      36.510  32.157  32.863  1.00  0.00    -0.203 F 
ATOM     85  F   UNL A   1      35.436  34.309  27.976  1.00  0.00    -0.200 F 
ATOM     86  C   UNL A   1      34.741  33.771  30.161  1.00  0.00     0.200 A 
ATOM     87  F   UNL A   1      34.080  33.146  32.335  1.00  0.00    -0.200 F 
ATOM     88  F   UNL A   1      33.494  34.180  29.884  1.00  0.00    -0.200 F 
ENDBRANCH  54  78
BRANCH  66  89
ATOM     89  C   UNL A   1      42.269  30.000  33.436  1.00  0.00     0.064 A 
ATOM     90  C   UNL A   1      41.686  28.736  33.230  1.00  0.00     0.173 A 
ATOM     91  C   UNL A   1      42.582  30.352  34.754  1.00  0.00     0.173 A 
ATOM     92  F   UNL A   1      41.440  28.279  31.996  1.00  0.00    -0.203 F 
ATOM     93  C   UNL A   1      41.390  27.891  34.301  1.00  0.00     0.198 A 
ATOM     94  C   UNL A   1      42.319  29.493  35.818  1.00  0.00     0.198 A 
ATOM     95  F   UNL A   1      43.185  31.524  35.010  1.00  0.00    -0.203 F 
ATOM     96  F   UNL A   1      40.821  26.696  34.079  1.00  0.00    -0.200 F 
ATOM     97  C   UNL A   1      41.714  28.269  35.593  1.00  0.00     0.200 A 
ATOM     98  F   UNL A   1      42.678  29.846  37.059  1.00  0.00    -0.200 F 
ATOM     99  F   UNL A   1      41.462  27.445  36.621  1.00  0.00    -0.200 F 
ENDBRANCH  66  89
ENDBRANCH  40  41
ENDBRANCH  32  35
ENDBRANCH  30  31
ENDBRANCH   1  30
TORSDOF 12
ENDMDL
