MODEL 1
REMARK VINA RESULT:     -12.5      0.000      0.000
REMARK SMILES Cc1cc(Br)cc2c1O[C@H](C(F)(F)F)C(C(=O)NCCCNC(=O)c1ccc(-c3c4nc(c(-c5c(F)c(F)c(F)c(F)c5F)c5ccc([nH]5)c(-c5c(F)c(F)c(F)c(F)c5F)c5nc(c(-c6c(F)c(F)c(F)c(F)c6F)c6ccc3[nH]6)C=C5)C=C4)cc1)=C2
REMARK SMILES IDX 20 1 19 2 18 3 16 4 17 5 15 7 1 8 2 9 3 10 8 11 4 12 7 13
REMARK SMILES IDX 9 14 5 15 6 16 88 17 10 18 11 19 12 20 13 21 14 22 21 23
REMARK SMILES IDX 22 24 23 25 24 27 25 28 26 29 87 30 27 31 86 32 28 33 29 34
REMARK SMILES IDX 30 35 80 36 31 37 85 38 79 39 81 40 32 41 84 42 78 43 77 44
REMARK SMILES IDX 33 46 65 47 45 48 64 49 46 50 49 51 63 52 82 53 47 54 48 55
REMARK SMILES IDX 62 57 83 58 50 59 34 60 35 61 43 62 36 63 37 64 41 65 44 66
REMARK SMILES IDX 38 67 39 68 42 69 40 70 66 71 67 72 75 73 68 74 69 75 73 76
REMARK SMILES IDX 76 77 70 78 71 79 74 80 72 81 51 82 52 83 60 84 53 85 54 86
REMARK SMILES IDX 58 87 61 88 55 89 56 90 59 91 57 92
REMARK H PARENT 18 6 22 26 81 45 49 56
REMARK Flexibility Score: inf
ROOT
ATOM      1  C   UNL A   1      35.122  23.309  26.698  1.00  0.00     0.042 C 
ENDROOT
BRANCH   1   2
ATOM      2  C   UNL A   1      33.981  22.826  25.818  1.00  0.00     0.118 C 
BRANCH   2   3
ATOM      3  N   UNL A   1      34.257  23.048  24.406  1.00  0.00    -0.352 N 
ATOM      4  C   UNL A   1      34.026  24.018  23.490  1.00  0.00     0.251 C 
ATOM      5  O   UNL A   1      34.450  23.779  22.355  1.00  0.00    -0.270 OA
ATOM      6  H   UNL A   1      34.742  22.289  24.011  1.00  0.00     0.163 HD
BRANCH   4   7
ATOM      7  C   UNL A   1      33.317  25.300  23.764  1.00  0.00     0.067 C 
ATOM      8  C   UNL A   1      30.252  29.434  23.716  1.00  0.00     0.048 C 
ATOM      9  C   UNL A   1      31.519  29.043  24.421  1.00  0.00    -0.007 A 
ATOM     10  C   UNL A   1      32.051  29.885  25.405  1.00  0.00     0.023 A 
ATOM     11  C   UNL A   1      32.156  27.820  24.171  1.00  0.00     0.130 A 
ATOM     12  C   UNL A   1      33.206  29.518  26.097  1.00  0.00     0.019 A 
ATOM     13  C   UNL A   1      33.314  27.448  24.865  1.00  0.00     0.019 A 
ATOM     14  O   UNL A   1      31.628  27.034  23.187  1.00  0.00    -0.475 OA
ATOM     15  Br  UNL A   1      33.915  30.680  27.409  1.00  0.00    -0.051 Br
ATOM     16  C   UNL A   1      33.842  28.306  25.831  1.00  0.00     0.027 A 
ATOM     17  C   UNL A   1      33.966  26.182  24.546  1.00  0.00     0.025 C 
ATOM     18  C   UNL A   1      31.949  25.623  23.243  1.00  0.00     0.314 C 
BRANCH  18  19
ATOM     19  C   UNL A   1      30.829  24.875  23.991  1.00  0.00     0.429 C 
ATOM     20  F   UNL A   1      29.728  25.662  24.094  1.00  0.00    -0.167 F 
ATOM     21  F   UNL A   1      30.433  23.750  23.352  1.00  0.00    -0.167 F 
ATOM     22  F   UNL A   1      31.186  24.511  25.243  1.00  0.00    -0.167 F 
ENDBRANCH  18  19
ENDBRANCH   4   7
ENDBRANCH   2   3
ENDBRANCH   1   2
BRANCH   1  23
ATOM     23  C   UNL A   1      36.350  23.678  25.880  1.00  0.00     0.118 C 
BRANCH  23  24
ATOM     24  N   UNL A   1      37.398  22.666  25.992  1.00  0.00    -0.352 N 
ATOM     25  C   UNL A   1      38.737  22.803  26.248  1.00  0.00     0.251 C 
ATOM     26  H   UNL A   1      37.093  21.738  25.862  1.00  0.00     0.163 HD
ATOM     27  O   UNL A   1      39.507  21.872  26.016  1.00  0.00    -0.269 OA
BRANCH  25  28
ATOM     28  C   UNL A   1      39.254  24.067  26.802  1.00  0.00     0.039 A 
ATOM     29  C   UNL A   1      39.919  24.966  25.965  1.00  0.00     0.014 A 
ATOM     30  C   UNL A   1      39.098  24.351  28.160  1.00  0.00     0.014 A 
ATOM     31  C   UNL A   1      40.373  26.177  26.484  1.00  0.00     0.010 A 
ATOM     32  C   UNL A   1      39.445  25.599  28.647  1.00  0.00     0.010 A 
ATOM     33  C   UNL A   1      40.108  26.516  27.821  1.00  0.00    -0.014 A 
BRANCH  33  34
ATOM     34  C   UNL A   1      40.555  27.804  28.397  1.00  0.00     0.031 A 
ATOM     35  C   UNL A   1      42.012  28.021  28.689  1.00  0.00     0.074 A 
ATOM     36  C   UNL A   1      39.646  28.746  28.705  1.00  0.00     0.049 A 
ATOM     37  N   UNL A   1      42.602  29.053  29.236  1.00  0.00    -0.248 NA
ATOM     38  C   UNL A   1      42.926  26.918  28.351  1.00  0.00     0.031 C 
ATOM     39  C   UNL A   1      38.203  28.624  28.504  1.00  0.00     0.029 A 
ATOM     40  N   UNL A   1      39.804  29.994  29.251  1.00  0.00    -0.354 N 
ATOM     41  C   UNL A   1      43.947  28.719  29.307  1.00  0.00     0.074 A 
ATOM     42  C   UNL A   1      44.076  27.361  28.833  1.00  0.00     0.031 C 
ATOM     43  C   UNL A   1      37.611  29.769  28.873  1.00  0.00     0.029 A 
ATOM     44  C   UNL A   1      38.628  30.690  29.376  1.00  0.00     0.049 A 
ATOM     45  H   UNL A   1      40.678  30.356  29.526  1.00  0.00     0.167 HD
ATOM     46  C   UNL A   1      44.988  29.493  29.693  1.00  0.00     0.037 A 
ATOM     47  C   UNL A   1      38.400  31.934  29.835  1.00  0.00     0.037 A 
ATOM     48  C   UNL A   1      44.849  30.849  30.151  1.00  0.00     0.049 A 
ATOM     49  C   UNL A   1      39.565  32.763  30.302  1.00  0.00     0.074 A 
ATOM     50  C   UNL A   1      45.838  31.736  30.534  1.00  0.00     0.029 A 
ATOM     51  N   UNL A   1      43.638  31.513  30.289  1.00  0.00    -0.354 N 
ATOM     52  N   UNL A   1      40.841  32.462  30.314  1.00  0.00    -0.248 NA
ATOM     53  C   UNL A   1      39.258  34.102  30.820  1.00  0.00     0.031 C 
ATOM     54  C   UNL A   1      45.221  32.919  30.952  1.00  0.00     0.029 A 
ATOM     55  C   UNL A   1      43.852  32.791  30.779  1.00  0.00     0.049 A 
ATOM     56  H   UNL A   1      42.756  31.132  30.071  1.00  0.00     0.167 HD
ATOM     57  C   UNL A   1      41.493  33.577  30.822  1.00  0.00     0.074 A 
ATOM     58  C   UNL A   1      40.470  34.568  31.091  1.00  0.00     0.031 C 
ATOM     59  C   UNL A   1      42.818  33.761  31.046  1.00  0.00     0.037 A 
BRANCH  46  60
ATOM     60  C   UNL A   1      46.360  28.886  29.620  1.00  0.00     0.064 A 
ATOM     61  C   UNL A   1      47.135  28.966  28.450  1.00  0.00     0.173 A 
ATOM     62  C   UNL A   1      46.912  28.222  30.725  1.00  0.00     0.173 A 
ATOM     63  F   UNL A   1      46.650  29.577  27.359  1.00  0.00    -0.203 F 
ATOM     64  C   UNL A   1      48.390  28.367  28.378  1.00  0.00     0.198 A 
ATOM     65  C   UNL A   1      48.183  27.657  30.660  1.00  0.00     0.198 A 
ATOM     66  F   UNL A   1      46.219  28.119  31.869  1.00  0.00    -0.203 F 
ATOM     67  F   UNL A   1      49.079  28.399  27.229  1.00  0.00    -0.200 F 
ATOM     68  C   UNL A   1      48.915  27.719  29.484  1.00  0.00     0.200 A 
ATOM     69  F   UNL A   1      48.696  27.041  31.735  1.00  0.00    -0.200 F 
ATOM     70  F   UNL A   1      50.124  27.145  29.414  1.00  0.00    -0.200 F 
ENDBRANCH  46  60
BRANCH  47  71
ATOM     71  C   UNL A   1      37.019  32.478  29.803  1.00  0.00     0.064 A 
ATOM     72  C   UNL A   1      36.153  32.279  30.886  1.00  0.00     0.173 A 
ATOM     73  C   UNL A   1      36.561  33.263  28.735  1.00  0.00     0.173 A 
ATOM     74  F   UNL A   1      36.541  31.523  31.923  1.00  0.00    -0.203 F 
ATOM     75  C   UNL A   1      34.881  32.849  30.905  1.00  0.00     0.198 A 
ATOM     76  C   UNL A   1      35.298  33.853  28.765  1.00  0.00     0.198 A 
ATOM     77  F   UNL A   1      37.356  33.491  27.679  1.00  0.00    -0.203 F 
ATOM     78  F   UNL A   1      34.067  32.632  31.947  1.00  0.00    -0.200 F 
ATOM     79  C   UNL A   1      34.460  33.645  29.851  1.00  0.00     0.200 A 
ATOM     80  F   UNL A   1      34.902  34.638  27.754  1.00  0.00    -0.200 F 
ATOM     81  F   UNL A   1      33.247  34.214  29.881  1.00  0.00    -0.200 F 
ENDBRANCH  47  71
BRANCH  59  82
ATOM     82  C   UNL A   1      43.249  35.083  31.609  1.00  0.00     0.064 A 
ATOM     83  C   UNL A   1      43.636  36.141  30.774  1.00  0.00     0.173 A 
ATOM     84  C   UNL A   1      43.188  35.323  32.990  1.00  0.00     0.173 A 
ATOM     85  F   UNL A   1      43.722  35.958  29.449  1.00  0.00    -0.203 F 
ATOM     86  C   UNL A   1      43.955  37.389  31.303  1.00  0.00     0.198 A 
ATOM     87  C   UNL A   1      43.477  36.580  33.512  1.00  0.00     0.198 A 
ATOM     88  F   UNL A   1      42.814  34.346  33.831  1.00  0.00    -0.203 F 
ATOM     89  F   UNL A   1      44.353  38.377  30.490  1.00  0.00    -0.200 F 
ATOM     90  C   UNL A   1      43.864  37.611  32.669  1.00  0.00     0.200 A 
ATOM     91  F   UNL A   1      43.370  36.798  34.831  1.00  0.00    -0.200 F 
ATOM     92  F   UNL A   1      44.150  38.819  33.174  1.00  0.00    -0.200 F 
ENDBRANCH  59  82
ENDBRANCH  33  34
ENDBRANCH  25  28
ENDBRANCH  23  24
ENDBRANCH   1  23
TORSDOF 11
ENDMDL
MODEL 2
REMARK VINA RESULT:     -12.5      2.870      8.497
REMARK SMILES Cc1cc(Br)cc2c1O[C@H](C(F)(F)F)C(C(=O)NCCCNC(=O)c1ccc(-c3c4nc(c(-c5c(F)c(F)c(F)c(F)c5F)c5ccc([nH]5)c(-c5c(F)c(F)c(F)c(F)c5F)c5nc(c(-c6c(F)c(F)c(F)c(F)c6F)c6ccc3[nH]6)C=C5)C=C4)cc1)=C2
REMARK SMILES IDX 20 1 19 2 18 3 16 4 17 5 15 7 1 8 2 9 3 10 8 11 4 12 7 13
REMARK SMILES IDX 9 14 5 15 6 16 88 17 10 18 11 19 12 20 13 21 14 22 21 23
REMARK SMILES IDX 22 24 23 25 24 27 25 28 26 29 87 30 27 31 86 32 28 33 29 34
REMARK SMILES IDX 30 35 80 36 31 37 85 38 79 39 81 40 32 41 84 42 78 43 77 44
REMARK SMILES IDX 33 46 65 47 45 48 64 49 46 50 49 51 63 52 82 53 47 54 48 55
REMARK SMILES IDX 62 57 83 58 50 59 34 60 35 61 43 62 36 63 37 64 41 65 44 66
REMARK SMILES IDX 38 67 39 68 42 69 40 70 66 71 67 72 75 73 68 74 69 75 73 76
REMARK SMILES IDX 76 77 70 78 71 79 74 80 72 81 51 82 52 83 60 84 53 85 54 86
REMARK SMILES IDX 58 87 61 88 55 89 56 90 59 91 57 92
REMARK H PARENT 18 6 22 26 81 45 49 56
REMARK Flexibility Score: inf
ROOT
ATOM      1  C   UNL A   1      37.907  19.581  25.000  1.00  0.00     0.042 C 
ENDROOT
BRANCH   1   2
ATOM      2  C   UNL A   1      36.856  20.633  24.684  1.00  0.00     0.118 C 
BRANCH   2   3
ATOM      3  N   UNL A   1      35.823  20.688  25.708  1.00  0.00    -0.352 N 
ATOM      4  C   UNL A   1      34.751  21.464  25.995  1.00  0.00     0.251 C 
ATOM      5  O   UNL A   1      34.126  21.140  27.011  1.00  0.00    -0.270 OA
ATOM      6  H   UNL A   1      35.934  19.969  26.370  1.00  0.00     0.163 HD
BRANCH   4   7
ATOM      7  C   UNL A   1      34.306  22.637  25.192  1.00  0.00     0.067 C 
ATOM      8  C   UNL A   1      32.904  25.926  21.490  1.00  0.00     0.048 C 
ATOM      9  C   UNL A   1      33.295  26.038  22.936  1.00  0.00    -0.007 A 
ATOM     10  C   UNL A   1      33.208  27.277  23.583  1.00  0.00     0.023 A 
ATOM     11  C   UNL A   1      33.684  24.918  23.683  1.00  0.00     0.130 A 
ATOM     12  C   UNL A   1      33.531  27.388  24.936  1.00  0.00     0.019 A 
ATOM     13  C   UNL A   1      34.007  25.027  25.042  1.00  0.00     0.019 A 
ATOM     14  O   UNL A   1      33.785  23.730  23.017  1.00  0.00    -0.475 OA
ATOM     15  Br  UNL A   1      33.424  29.076  25.782  1.00  0.00    -0.051 Br
ATOM     16  C   UNL A   1      33.933  26.273  25.668  1.00  0.00     0.027 A 
ATOM     17  C   UNL A   1      34.444  23.842  25.773  1.00  0.00     0.025 C 
ATOM     18  C   UNL A   1      33.707  22.528  23.821  1.00  0.00     0.314 C 
BRANCH  18  19
ATOM     19  C   UNL A   1      32.252  22.022  23.840  1.00  0.00     0.429 C 
ATOM     20  F   UNL A   1      31.666  22.323  25.026  1.00  0.00    -0.167 F 
ATOM     21  F   UNL A   1      31.486  22.595  22.881  1.00  0.00    -0.167 F 
ATOM     22  F   UNL A   1      32.158  20.685  23.668  1.00  0.00    -0.167 F 
ENDBRANCH  18  19
ENDBRANCH   4   7
ENDBRANCH   2   3
ENDBRANCH   1   2
BRANCH   1  23
ATOM     23  C   UNL A   1      39.074  20.166  25.779  1.00  0.00     0.118 C 
BRANCH  23  24
ATOM     24  N   UNL A   1      40.143  19.186  25.968  1.00  0.00    -0.352 N 
ATOM     25  C   UNL A   1      41.495  19.367  26.101  1.00  0.00     0.251 C 
ATOM     26  H   UNL A   1      39.844  18.249  26.004  1.00  0.00     0.163 HD
ATOM     27  O   UNL A   1      42.260  18.414  25.958  1.00  0.00    -0.269 OA
BRANCH  25  28
ATOM     28  C   UNL A   1      42.031  20.702  26.415  1.00  0.00     0.039 A 
ATOM     29  C   UNL A   1      42.356  21.577  25.376  1.00  0.00     0.014 A 
ATOM     30  C   UNL A   1      42.234  21.079  27.745  1.00  0.00     0.014 A 
ATOM     31  C   UNL A   1      42.827  22.854  25.678  1.00  0.00     0.010 A 
ATOM     32  C   UNL A   1      42.591  22.383  28.044  1.00  0.00     0.010 A 
ATOM     33  C   UNL A   1      42.915  23.276  27.015  1.00  0.00    -0.014 A 
BRANCH  33  34
ATOM     34  C   UNL A   1      43.389  24.633  27.368  1.00  0.00     0.031 A 
ATOM     35  C   UNL A   1      42.396  25.692  27.752  1.00  0.00     0.074 A 
ATOM     36  C   UNL A   1      44.701  24.920  27.288  1.00  0.00     0.049 A 
ATOM     37  N   UNL A   1      42.600  26.950  28.048  1.00  0.00    -0.248 NA
ATOM     38  C   UNL A   1      40.979  25.292  27.776  1.00  0.00     0.031 C 
ATOM     39  C   UNL A   1      45.748  23.981  26.886  1.00  0.00     0.029 A 
ATOM     40  N   UNL A   1      45.377  26.085  27.545  1.00  0.00    -0.354 N 
ATOM     41  C   UNL A   1      41.342  27.485  28.287  1.00  0.00     0.074 A 
ATOM     42  C   UNL A   1      40.376  26.445  28.017  1.00  0.00     0.031 C 
ATOM     43  C   UNL A   1      46.939  24.591  26.971  1.00  0.00     0.029 A 
ATOM     44  C   UNL A   1      46.736  25.974  27.393  1.00  0.00     0.049 A 
ATOM     45  H   UNL A   1      44.930  26.921  27.814  1.00  0.00     0.167 HD
ATOM     46  C   UNL A   1      41.024  28.722  28.735  1.00  0.00     0.037 A 
ATOM     47  C   UNL A   1      47.708  26.886  27.583  1.00  0.00     0.037 A 
ATOM     48  C   UNL A   1      41.994  29.745  29.013  1.00  0.00     0.049 A 
ATOM     49  C   UNL A   1      47.331  28.269  28.037  1.00  0.00     0.074 A 
ATOM     50  C   UNL A   1      41.787  31.021  29.503  1.00  0.00     0.029 A 
ATOM     51  N   UNL A   1      43.362  29.606  28.822  1.00  0.00    -0.354 N 
ATOM     52  N   UNL A   1      46.144  28.752  28.316  1.00  0.00    -0.248 NA
ATOM     53  C   UNL A   1      48.426  29.233  28.201  1.00  0.00     0.031 C 
ATOM     54  C   UNL A   1      43.023  31.671  29.559  1.00  0.00     0.029 A 
ATOM     55  C   UNL A   1      44.009  30.783  29.158  1.00  0.00     0.049 A 
ATOM     56  H   UNL A   1      43.807  28.789  28.496  1.00  0.00     0.167 HD
ATOM     57  C   UNL A   1      46.348  30.068  28.707  1.00  0.00     0.074 A 
ATOM     58  C   UNL A   1      47.777  30.302  28.643  1.00  0.00     0.031 C 
ATOM     59  C   UNL A   1      45.434  30.997  29.081  1.00  0.00     0.037 A 
BRANCH  46  60
ATOM     60  C   UNL A   1      39.568  29.018  28.959  1.00  0.00     0.064 A 
ATOM     61  C   UNL A   1      38.985  28.902  30.233  1.00  0.00     0.173 A 
ATOM     62  C   UNL A   1      38.746  29.426  27.899  1.00  0.00     0.173 A 
ATOM     63  F   UNL A   1      39.722  28.502  31.279  1.00  0.00    -0.203 F 
ATOM     64  C   UNL A   1      37.627  29.141  30.425  1.00  0.00     0.198 A 
ATOM     65  C   UNL A   1      37.396  29.700  28.104  1.00  0.00     0.198 A 
ATOM     66  F   UNL A   1      39.250  29.557  26.663  1.00  0.00    -0.203 F 
ATOM     67  F   UNL A   1      37.082  28.957  31.636  1.00  0.00    -0.200 F 
ATOM     68  C   UNL A   1      36.835  29.545  29.362  1.00  0.00     0.200 A 
ATOM     69  F   UNL A   1      36.634  30.104  27.077  1.00  0.00    -0.200 F 
ATOM     70  F   UNL A   1      35.529  29.777  29.549  1.00  0.00    -0.200 F 
ENDBRANCH  46  60
BRANCH  47  71
ATOM     71  C   UNL A   1      49.126  26.483  27.407  1.00  0.00     0.064 A 
ATOM     72  C   UNL A   1      49.691  26.416  26.125  1.00  0.00     0.173 A 
ATOM     73  C   UNL A   1      49.962  26.230  28.504  1.00  0.00     0.173 A 
ATOM     74  F   UNL A   1      48.927  26.635  25.045  1.00  0.00    -0.203 F 
ATOM     75  C   UNL A   1      51.040  26.115  25.949  1.00  0.00     0.198 A 
ATOM     76  C   UNL A   1      51.317  25.953  28.327  1.00  0.00     0.198 A 
ATOM     77  F   UNL A   1      49.471  26.291  29.750  1.00  0.00    -0.203 F 
ATOM     78  F   UNL A   1      51.551  26.044  24.712  1.00  0.00    -0.200 F 
ATOM     79  C   UNL A   1      51.854  25.896  27.049  1.00  0.00     0.200 A 
ATOM     80  F   UNL A   1      52.104  25.762  29.394  1.00  0.00    -0.200 F 
ATOM     81  F   UNL A   1      53.157  25.632  26.880  1.00  0.00    -0.200 F 
ENDBRANCH  47  71
BRANCH  59  82
ATOM     82  C   UNL A   1      45.942  32.358  29.457  1.00  0.00     0.064 A 
ATOM     83  C   UNL A   1      46.029  33.391  28.513  1.00  0.00     0.173 A 
ATOM     84  C   UNL A   1      46.259  32.657  30.791  1.00  0.00     0.173 A 
ATOM     85  F   UNL A   1      45.750  33.152  27.223  1.00  0.00    -0.203 F 
ATOM     86  C   UNL A   1      46.425  34.672  28.890  1.00  0.00     0.198 A 
ATOM     87  C   UNL A   1      46.623  33.946  31.169  1.00  0.00     0.198 A 
ATOM     88  F   UNL A   1      46.183  31.705  31.734  1.00  0.00    -0.203 F 
ATOM     89  F   UNL A   1      46.532  35.637  27.965  1.00  0.00    -0.200 F 
ATOM     90  C   UNL A   1      46.710  34.951  30.218  1.00  0.00     0.200 A 
ATOM     91  F   UNL A   1      46.879  34.218  32.457  1.00  0.00    -0.200 F 
ATOM     92  F   UNL A   1      47.068  36.190  30.582  1.00  0.00    -0.200 F 
ENDBRANCH  59  82
ENDBRANCH  33  34
ENDBRANCH  25  28
ENDBRANCH  23  24
ENDBRANCH   1  23
TORSDOF 11
ENDMDL
MODEL 3
REMARK VINA RESULT:     -12.5      4.088      6.751
REMARK SMILES Cc1cc(Br)cc2c1O[C@H](C(F)(F)F)C(C(=O)NCCCNC(=O)c1ccc(-c3c4nc(c(-c5c(F)c(F)c(F)c(F)c5F)c5ccc([nH]5)c(-c5c(F)c(F)c(F)c(F)c5F)c5nc(c(-c6c(F)c(F)c(F)c(F)c6F)c6ccc3[nH]6)C=C5)C=C4)cc1)=C2
REMARK SMILES IDX 20 1 19 2 18 3 16 4 17 5 15 7 1 8 2 9 3 10 8 11 4 12 7 13
REMARK SMILES IDX 9 14 5 15 6 16 88 17 10 18 11 19 12 20 13 21 14 22 21 23
REMARK SMILES IDX 22 24 23 25 24 27 25 28 26 29 87 30 27 31 86 32 28 33 29 34
REMARK SMILES IDX 30 35 80 36 31 37 85 38 79 39 81 40 32 41 84 42 78 43 77 44
REMARK SMILES IDX 33 46 65 47 45 48 64 49 46 50 49 51 63 52 82 53 47 54 48 55
REMARK SMILES IDX 62 57 83 58 50 59 34 60 35 61 43 62 36 63 37 64 41 65 44 66
REMARK SMILES IDX 38 67 39 68 42 69 40 70 66 71 67 72 75 73 68 74 69 75 73 76
REMARK SMILES IDX 76 77 70 78 71 79 74 80 72 81 51 82 52 83 60 84 53 85 54 86
REMARK SMILES IDX 58 87 61 88 55 89 56 90 59 91 57 92
REMARK H PARENT 18 6 22 26 81 45 49 56
REMARK Flexibility Score: inf
ROOT
ATOM      1  C   UNL A   1      33.619  28.778  23.488  1.00  0.00     0.042 C 
ENDROOT
BRANCH   1   2
ATOM      2  C   UNL A   1      32.327  28.147  22.994  1.00  0.00     0.118 C 
BRANCH   2   3
ATOM      3  N   UNL A   1      32.570  27.185  21.930  1.00  0.00    -0.352 N 
ATOM      4  C   UNL A   1      32.931  25.884  21.831  1.00  0.00     0.251 C 
ATOM      5  O   UNL A   1      33.029  25.452  20.678  1.00  0.00    -0.270 OA
ATOM      6  H   UNL A   1      32.436  27.589  21.042  1.00  0.00     0.163 HD
BRANCH   4   7
ATOM      7  C   UNL A   1      33.208  24.985  22.987  1.00  0.00     0.067 C 
ATOM      8  C   UNL A   1      33.340  22.566  27.528  1.00  0.00     0.048 C 
ATOM      9  C   UNL A   1      34.203  22.594  26.299  1.00  0.00    -0.007 A 
ATOM     10  C   UNL A   1      35.294  21.721  26.199  1.00  0.00     0.023 A 
ATOM     11  C   UNL A   1      33.910  23.425  25.210  1.00  0.00     0.130 A 
ATOM     12  C   UNL A   1      36.081  21.707  25.047  1.00  0.00     0.019 A 
ATOM     13  C   UNL A   1      34.698  23.413  24.052  1.00  0.00     0.019 A 
ATOM     14  O   UNL A   1      32.857  24.284  25.349  1.00  0.00    -0.475 OA
ATOM     15  Br  UNL A   1      37.560  20.533  24.944  1.00  0.00    -0.051 Br
ATOM     16  C   UNL A   1      35.793  22.549  23.975  1.00  0.00     0.027 A 
ATOM     17  C   UNL A   1      34.379  24.323  22.957  1.00  0.00     0.025 C 
ATOM     18  C   UNL A   1      32.257  24.776  24.126  1.00  0.00     0.314 C 
BRANCH  18  19
ATOM     19  C   UNL A   1      31.059  23.881  23.753  1.00  0.00     0.429 C 
ATOM     20  F   UNL A   1      30.581  23.253  24.856  1.00  0.00    -0.167 F 
ATOM     21  F   UNL A   1      30.023  24.584  23.237  1.00  0.00    -0.167 F 
ATOM     22  F   UNL A   1      31.376  22.930  22.847  1.00  0.00    -0.167 F 
ENDBRANCH  18  19
ENDBRANCH   4   7
ENDBRANCH   2   3
ENDBRANCH   1   2
BRANCH   1  23
ATOM     23  C   UNL A   1      33.670  28.845  25.006  1.00  0.00     0.118 C 
BRANCH  23  24
ATOM     24  N   UNL A   1      33.052  30.068  25.515  1.00  0.00    -0.352 N 
ATOM     25  C   UNL A   1      33.296  30.770  26.667  1.00  0.00     0.251 C 
ATOM     26  H   UNL A   1      32.349  30.447  24.939  1.00  0.00     0.163 HD
ATOM     27  O   UNL A   1      32.483  31.603  27.063  1.00  0.00    -0.269 OA
BRANCH  25  28
ATOM     28  C   UNL A   1      34.533  30.525  27.429  1.00  0.00     0.039 A 
ATOM     29  C   UNL A   1      35.421  31.578  27.658  1.00  0.00     0.014 A 
ATOM     30  C   UNL A   1      34.824  29.242  27.898  1.00  0.00     0.014 A 
ATOM     31  C   UNL A   1      36.571  31.353  28.412  1.00  0.00     0.010 A 
ATOM     32  C   UNL A   1      35.904  29.046  28.741  1.00  0.00     0.010 A 
ATOM     33  C   UNL A   1      36.802  30.092  28.987  1.00  0.00    -0.014 A 
BRANCH  33  34
ATOM     34  C   UNL A   1      38.002  29.826  29.811  1.00  0.00     0.031 A 
ATOM     35  C   UNL A   1      39.082  28.925  29.284  1.00  0.00     0.074 A 
ATOM     36  C   UNL A   1      38.088  30.347  31.049  1.00  0.00     0.049 A 
ATOM     37  N   UNL A   1      40.184  28.527  29.865  1.00  0.00    -0.248 NA
ATOM     38  C   UNL A   1      38.881  28.373  27.934  1.00  0.00     0.031 C 
ATOM     39  C   UNL A   1      37.078  31.199  31.677  1.00  0.00     0.029 A 
ATOM     40  N   UNL A   1      39.072  30.239  31.997  1.00  0.00    -0.354 N 
ATOM     41  C   UNL A   1      40.800  27.680  28.954  1.00  0.00     0.074 A 
ATOM     42  C   UNL A   1      39.911  27.549  27.823  1.00  0.00     0.031 C 
ATOM     43  C   UNL A   1      37.517  31.578  32.886  1.00  0.00     0.029 A 
ATOM     44  C   UNL A   1      38.818  30.962  33.135  1.00  0.00     0.049 A 
ATOM     45  H   UNL A   1      39.884  29.694  31.872  1.00  0.00     0.167 HD
ATOM     46  C   UNL A   1      42.018  27.096  29.036  1.00  0.00     0.037 A 
ATOM     47  C   UNL A   1      39.558  31.116  34.248  1.00  0.00     0.037 A 
ATOM     48  C   UNL A   1      42.900  27.243  30.162  1.00  0.00     0.049 A 
ATOM     49  C   UNL A   1      40.890  30.424  34.340  1.00  0.00     0.074 A 
ATOM     50  C   UNL A   1      44.171  26.726  30.336  1.00  0.00     0.029 A 
ATOM     51  N   UNL A   1      42.599  27.963  31.310  1.00  0.00    -0.354 N 
ATOM     52  N   UNL A   1      41.492  29.669  33.452  1.00  0.00    -0.248 NA
ATOM     53  C   UNL A   1      41.644  30.602  35.587  1.00  0.00     0.031 C 
ATOM     54  C   UNL A   1      44.616  27.090  31.611  1.00  0.00     0.029 A 
ATOM     55  C   UNL A   1      43.648  27.880  32.210  1.00  0.00     0.049 A 
ATOM     56  H   UNL A   1      41.761  28.459  31.462  1.00  0.00     0.167 HD
ATOM     57  C   UNL A   1      42.702  29.297  34.021  1.00  0.00     0.074 A 
ATOM     58  C   UNL A   1      42.754  29.924  35.328  1.00  0.00     0.031 C 
ATOM     59  C   UNL A   1      43.678  28.507  33.509  1.00  0.00     0.037 A 
BRANCH  46  60
ATOM     60  C   UNL A   1      42.461  26.262  27.869  1.00  0.00     0.064 A 
ATOM     61  C   UNL A   1      43.308  26.783  26.875  1.00  0.00     0.173 A 
ATOM     62  C   UNL A   1      42.043  24.930  27.738  1.00  0.00     0.173 A 
ATOM     63  F   UNL A   1      43.725  28.055  26.943  1.00  0.00    -0.203 F 
ATOM     64  C   UNL A   1      43.683  26.015  25.776  1.00  0.00     0.198 A 
ATOM     65  C   UNL A   1      42.451  24.153  26.655  1.00  0.00     0.198 A 
ATOM     66  F   UNL A   1      41.238  24.379  28.659  1.00  0.00    -0.203 F 
ATOM     67  F   UNL A   1      44.434  26.557  24.808  1.00  0.00    -0.200 F 
ATOM     68  C   UNL A   1      43.259  24.700  25.670  1.00  0.00     0.200 A 
ATOM     69  F   UNL A   1      42.051  22.877  26.561  1.00  0.00    -0.200 F 
ATOM     70  F   UNL A   1      43.622  23.962  24.612  1.00  0.00    -0.200 F 
ENDBRANCH  46  60
BRANCH  47  71
ATOM     71  C   UNL A   1      39.074  32.019  35.323  1.00  0.00     0.064 A 
ATOM     72  C   UNL A   1      38.371  31.503  36.420  1.00  0.00     0.173 A 
ATOM     73  C   UNL A   1      39.360  33.392  35.317  1.00  0.00     0.173 A 
ATOM     74  F   UNL A   1      38.061  30.199  36.462  1.00  0.00    -0.203 F 
ATOM     75  C   UNL A   1      37.978  32.325  37.475  1.00  0.00     0.198 A 
ATOM     76  C   UNL A   1      38.988  34.209  36.384  1.00  0.00     0.198 A 
ATOM     77  F   UNL A   1      40.038  33.932  34.294  1.00  0.00    -0.203 F 
ATOM     78  F   UNL A   1      37.296  31.808  38.505  1.00  0.00    -0.200 F 
ATOM     79  C   UNL A   1      38.297  33.674  37.461  1.00  0.00     0.200 A 
ATOM     80  F   UNL A   1      39.315  35.508  36.376  1.00  0.00    -0.200 F 
ATOM     81  F   UNL A   1      37.941  34.459  38.487  1.00  0.00    -0.200 F 
ENDBRANCH  47  71
BRANCH  59  82
ATOM     82  C   UNL A   1      44.894  28.271  34.355  1.00  0.00     0.064 A 
ATOM     83  C   UNL A   1      44.985  27.163  35.210  1.00  0.00     0.173 A 
ATOM     84  C   UNL A   1      46.014  29.109  34.243  1.00  0.00     0.173 A 
ATOM     85  F   UNL A   1      43.937  26.340  35.361  1.00  0.00    -0.203 F 
ATOM     86  C   UNL A   1      46.150  26.908  35.928  1.00  0.00     0.198 A 
ATOM     87  C   UNL A   1      47.187  28.834  34.938  1.00  0.00     0.198 A 
ATOM     88  F   UNL A   1      45.980  30.178  33.432  1.00  0.00    -0.203 F 
ATOM     89  F   UNL A   1      46.205  25.861  36.764  1.00  0.00    -0.200 F 
ATOM     90  C   UNL A   1      47.253  27.736  35.784  1.00  0.00     0.200 A 
ATOM     91  F   UNL A   1      48.259  29.624  34.782  1.00  0.00    -0.200 F 
ATOM     92  F   UNL A   1      48.381  27.477  36.458  1.00  0.00    -0.200 F 
ENDBRANCH  59  82
ENDBRANCH  33  34
ENDBRANCH  25  28
ENDBRANCH  23  24
ENDBRANCH   1  23
TORSDOF 11
ENDMDL
