MODEL 1
REMARK VINA RESULT:     -13.8      0.000      0.000
REMARK SMILES O=C(CC1CCN(C(=O)[C@@H]2Cc3[nH]cnc3C[NH2+]2)CC1)NCCCNC(=O)c1ccc(-c2c3nc(c(-c4c(F)c(F)c(F)c(F)c4F)c4ccc([nH]4)c(-c4c(F)c(F)c(F)c(F)c4F)c4nc(c(-c5c(F)c(F)c(F)c(F)c5F)c5ccc2[nH]5)C=C4)C=C3)cc1
REMARK SMILES IDX 23 1 22 2 21 3 1 4 2 5 3 7 4 8 5 9 20 10 6 11 19 12 7 13
REMARK SMILES IDX 8 14 9 15 10 16 11 17 18 18 12 19 17 20 13 23 16 24 14 25
REMARK SMILES IDX 15 27 24 28 25 29 26 30 27 32 28 33 29 34 90 35 30 36 89 37
REMARK SMILES IDX 31 38 32 39 33 40 83 41 34 42 88 43 82 44 84 45 35 46 87 47
REMARK SMILES IDX 81 48 80 49 36 51 68 52 48 53 67 54 49 55 52 56 66 57 85 58
REMARK SMILES IDX 50 59 51 60 65 62 86 63 53 64 37 65 38 66 46 67 39 68 40 69
REMARK SMILES IDX 44 70 47 71 41 72 42 73 45 74 43 75 69 76 70 77 78 78 71 79
REMARK SMILES IDX 72 80 76 81 79 82 73 83 74 84 77 85 75 86 54 87 55 88 63 89
REMARK SMILES IDX 56 90 57 91 61 92 64 93 58 94 59 95 62 96 60 97
REMARK H PARENT 21 6 18 21 18 22 13 26 25 31 84 50 52 61
REMARK Flexibility Score: inf
ROOT
ATOM      1  C   UNL A   1      37.649  21.838  25.641  1.00  0.00     0.042 C 
ENDROOT
BRANCH   1   2
ATOM      2  C   UNL A   1      36.980  22.528  24.447  1.00  0.00     0.117 C 
BRANCH   2   3
ATOM      3  N   UNL A   1      35.975  23.517  24.821  1.00  0.00    -0.356 N 
ATOM      4  O   UNL A   1      34.214  22.054  24.858  1.00  0.00    -0.275 OA
ATOM      5  C   UNL A   1      34.658  23.181  25.063  1.00  0.00     0.220 C 
ATOM      6  H   UNL A   1      36.245  24.460  24.904  1.00  0.00     0.163 HD
BRANCH   5   7
ATOM      7  C   UNL A   1      33.734  24.310  25.525  1.00  0.00     0.103 C 
BRANCH   7   8
ATOM      8  C   UNL A   1      34.054  25.699  24.923  1.00  0.00     0.002 C 
ATOM      9  C   UNL A   1      33.796  26.902  25.877  1.00  0.00     0.026 C 
ATOM     10  C   UNL A   1      33.245  25.923  23.650  1.00  0.00     0.026 C 
ATOM     11  C   UNL A   1      32.334  27.393  25.998  1.00  0.00     0.120 C 
ATOM     12  C   UNL A   1      31.793  26.155  24.015  1.00  0.00     0.120 C 
ATOM     13  N   UNL A   1      31.639  27.396  24.710  1.00  0.00    -0.338 N 
ATOM     14  C   UNL A   1      30.929  28.500  24.253  1.00  0.00     0.281 C 
ATOM     15  O   UNL A   1      30.940  29.545  24.920  1.00  0.00    -0.268 OA
BRANCH  14  16
ATOM     16  C   UNL A   1      30.095  28.510  22.909  1.00  0.00     0.279 C 
ATOM     17  C   UNL A   1      30.341  29.691  21.932  1.00  0.00     0.131 C 
ATOM     18  N   UNL A   1      28.679  28.071  23.066  1.00  0.00    -0.331 N 
ATOM     19  C   UNL A   1      29.242  30.677  22.063  1.00  0.00     0.050 A 
ATOM     20  C   UNL A   1      27.619  29.085  23.202  1.00  0.00     0.320 C 
ATOM     21  H   UNL A   1      28.639  27.486  23.900  1.00  0.00     0.347 HD
ATOM     22  H   UNL A   1      28.467  27.618  22.177  1.00  0.00     0.347 HD
ATOM     23  N   UNL A   1      29.332  32.035  21.962  1.00  0.00    -0.348 N 
ATOM     24  C   UNL A   1      28.008  30.410  22.617  1.00  0.00     0.116 A 
ATOM     25  C   UNL A   1      28.191  32.546  22.526  1.00  0.00     0.197 A 
ATOM     26  H   UNL A   1      30.071  32.548  21.563  1.00  0.00     0.167 HD
ATOM     27  N   UNL A   1      27.384  31.594  22.947  1.00  0.00    -0.236 NA
ENDBRANCH  14  16
ENDBRANCH   7   8
ENDBRANCH   5   7
ENDBRANCH   2   3
ENDBRANCH   1   2
BRANCH   1  28
ATOM     28  C   UNL A   1      38.831  22.616  26.205  1.00  0.00     0.118 C 
BRANCH  28  29
ATOM     29  N   UNL A   1      40.126  21.968  25.999  1.00  0.00    -0.352 N 
ATOM     30  C   UNL A   1      41.391  22.535  26.044  1.00  0.00     0.251 C 
ATOM     31  H   UNL A   1      40.096  21.004  25.803  1.00  0.00     0.163 HD
ATOM     32  O   UNL A   1      42.355  21.942  25.594  1.00  0.00    -0.269 OA
BRANCH  30  33
ATOM     33  C   UNL A   1      41.556  23.884  26.629  1.00  0.00     0.039 A 
ATOM     34  C   UNL A   1      41.147  25.027  25.933  1.00  0.00     0.014 A 
ATOM     35  C   UNL A   1      42.115  24.002  27.897  1.00  0.00     0.014 A 
ATOM     36  C   UNL A   1      41.225  26.272  26.560  1.00  0.00     0.010 A 
ATOM     37  C   UNL A   1      42.057  25.201  28.563  1.00  0.00     0.010 A 
ATOM     38  C   UNL A   1      41.663  26.352  27.890  1.00  0.00    -0.014 A 
BRANCH  38  39
ATOM     39  C   UNL A   1      41.615  27.613  28.631  1.00  0.00     0.031 A 
ATOM     40  C   UNL A   1      42.692  28.595  28.298  1.00  0.00     0.074 A 
ATOM     41  C   UNL A   1      40.544  27.989  29.368  1.00  0.00     0.049 A 
ATOM     42  N   UNL A   1      43.539  29.156  29.099  1.00  0.00    -0.248 NA
ATOM     43  C   UNL A   1      42.902  28.944  26.882  1.00  0.00     0.031 C 
ATOM     44  C   UNL A   1      39.258  27.302  29.527  1.00  0.00     0.029 A 
ATOM     45  N   UNL A   1      40.335  29.156  30.038  1.00  0.00    -0.354 N 
ATOM     46  C   UNL A   1      44.291  30.042  28.328  1.00  0.00     0.074 A 
ATOM     47  C   UNL A   1      43.944  29.776  26.956  1.00  0.00     0.031 C 
ATOM     48  C   UNL A   1      38.340  28.166  30.016  1.00  0.00     0.029 A 
ATOM     49  C   UNL A   1      39.006  29.405  30.363  1.00  0.00     0.049 A 
ATOM     50  H   UNL A   1      41.065  29.773  30.274  1.00  0.00     0.167 HD
ATOM     51  C   UNL A   1      45.000  31.058  28.899  1.00  0.00     0.037 A 
ATOM     52  C   UNL A   1      38.486  30.572  30.827  1.00  0.00     0.037 A 
ATOM     53  C   UNL A   1      45.205  30.821  30.304  1.00  0.00     0.049 A 
ATOM     54  C   UNL A   1      39.607  31.383  31.346  1.00  0.00     0.074 A 
ATOM     55  C   UNL A   1      45.800  29.808  31.035  1.00  0.00     0.029 A 
ATOM     56  N   UNL A   1      44.439  31.515  31.209  1.00  0.00    -0.354 N 
ATOM     57  N   UNL A   1      40.278  31.082  32.423  1.00  0.00    -0.248 NA
ATOM     58  C   UNL A   1      40.283  32.265  30.405  1.00  0.00     0.031 C 
ATOM     59  C   UNL A   1      44.948  29.626  32.164  1.00  0.00     0.029 A 
ATOM     60  C   UNL A   1      43.941  30.587  32.088  1.00  0.00     0.049 A 
ATOM     61  H   UNL A   1      44.279  32.486  31.224  1.00  0.00     0.167 HD
ATOM     62  C   UNL A   1      41.593  31.362  32.097  1.00  0.00     0.074 A 
ATOM     63  C   UNL A   1      41.529  32.167  30.877  1.00  0.00     0.031 C 
ATOM     64  C   UNL A   1      42.625  30.671  32.664  1.00  0.00     0.037 A 
BRANCH  51  65
ATOM     65  C   UNL A   1      45.218  32.421  28.281  1.00  0.00     0.064 A 
ATOM     66  C   UNL A   1      44.106  33.270  28.081  1.00  0.00     0.173 A 
ATOM     67  C   UNL A   1      46.392  32.798  27.597  1.00  0.00     0.173 A 
ATOM     68  F   UNL A   1      42.931  33.013  28.678  1.00  0.00    -0.203 F 
ATOM     69  C   UNL A   1      44.143  34.344  27.188  1.00  0.00     0.198 A 
ATOM     70  C   UNL A   1      46.441  33.903  26.747  1.00  0.00     0.198 A 
ATOM     71  F   UNL A   1      47.506  32.057  27.631  1.00  0.00    -0.203 F 
ATOM     72  F   UNL A   1      43.023  35.032  26.928  1.00  0.00    -0.200 F 
ATOM     73  C   UNL A   1      45.308  34.653  26.512  1.00  0.00     0.200 A 
ATOM     74  F   UNL A   1      47.578  34.179  26.092  1.00  0.00    -0.200 F 
ATOM     75  F   UNL A   1      45.328  35.635  25.602  1.00  0.00    -0.200 F 
ENDBRANCH  51  65
BRANCH  52  76
ATOM     76  C   UNL A   1      37.152  31.154  30.554  1.00  0.00     0.064 A 
ATOM     77  C   UNL A   1      36.250  31.489  31.572  1.00  0.00     0.173 A 
ATOM     78  C   UNL A   1      36.865  31.670  29.281  1.00  0.00     0.173 A 
ATOM     79  F   UNL A   1      36.502  31.131  32.838  1.00  0.00    -0.203 F 
ATOM     80  C   UNL A   1      35.117  32.275  31.316  1.00  0.00     0.198 A 
ATOM     81  C   UNL A   1      35.727  32.432  29.015  1.00  0.00     0.198 A 
ATOM     82  F   UNL A   1      37.777  31.567  28.312  1.00  0.00    -0.203 F 
ATOM     83  F   UNL A   1      34.318  32.644  32.326  1.00  0.00    -0.200 F 
ATOM     84  C   UNL A   1      34.853  32.740  30.037  1.00  0.00     0.200 A 
ATOM     85  F   UNL A   1      35.532  32.944  27.791  1.00  0.00    -0.200 F 
ATOM     86  F   UNL A   1      33.804  33.537  29.801  1.00  0.00    -0.200 F 
ENDBRANCH  52  76
BRANCH  64  87
ATOM     87  C   UNL A   1      42.321  29.737  33.801  1.00  0.00     0.064 A 
ATOM     88  C   UNL A   1      41.919  28.400  33.636  1.00  0.00     0.173 A 
ATOM     89  C   UNL A   1      42.613  30.161  35.104  1.00  0.00     0.173 A 
ATOM     90  F   UNL A   1      41.720  27.883  32.419  1.00  0.00    -0.203 F 
ATOM     91  C   UNL A   1      41.782  27.542  34.726  1.00  0.00     0.198 A 
ATOM     92  C   UNL A   1      42.513  29.293  36.187  1.00  0.00     0.198 A 
ATOM     93  F   UNL A   1      43.055  31.411  35.320  1.00  0.00    -0.203 F 
ATOM     94  F   UNL A   1      41.393  26.272  34.538  1.00  0.00    -0.200 F 
ATOM     95  C   UNL A   1      42.088  27.987  35.999  1.00  0.00     0.200 A 
ATOM     96  F   UNL A   1      42.859  29.714  37.411  1.00  0.00    -0.200 F 
ATOM     97  F   UNL A   1      42.003  27.151  37.043  1.00  0.00    -0.200 F 
ENDBRANCH  64  87
ENDBRANCH  38  39
ENDBRANCH  30  33
ENDBRANCH  28  29
ENDBRANCH   1  28
TORSDOF 12
ENDMDL
MODEL 2
REMARK VINA RESULT:     -13.8      3.515      9.347
REMARK SMILES O=C(CC1CCN(C(=O)[C@@H]2Cc3[nH]cnc3C[NH2+]2)CC1)NCCCNC(=O)c1ccc(-c2c3nc(c(-c4c(F)c(F)c(F)c(F)c4F)c4ccc([nH]4)c(-c4c(F)c(F)c(F)c(F)c4F)c4nc(c(-c5c(F)c(F)c(F)c(F)c5F)c5ccc2[nH]5)C=C4)C=C3)cc1
REMARK SMILES IDX 23 1 22 2 21 3 1 4 2 5 3 7 4 8 5 9 20 10 6 11 19 12 7 13
REMARK SMILES IDX 8 14 9 15 10 16 11 17 18 18 12 19 17 20 13 23 16 24 14 25
REMARK SMILES IDX 15 27 24 28 25 29 26 30 27 32 28 33 29 34 90 35 30 36 89 37
REMARK SMILES IDX 31 38 32 39 33 40 83 41 34 42 88 43 82 44 84 45 35 46 87 47
REMARK SMILES IDX 81 48 80 49 36 51 68 52 48 53 67 54 49 55 52 56 66 57 85 58
REMARK SMILES IDX 50 59 51 60 65 62 86 63 53 64 37 65 38 66 46 67 39 68 40 69
REMARK SMILES IDX 44 70 47 71 41 72 42 73 45 74 43 75 69 76 70 77 78 78 71 79
REMARK SMILES IDX 72 80 76 81 79 82 73 83 74 84 77 85 75 86 54 87 55 88 63 89
REMARK SMILES IDX 56 90 57 91 61 92 64 93 58 94 59 95 62 96 60 97
REMARK H PARENT 21 6 18 21 18 22 13 26 25 31 84 50 52 61
REMARK Flexibility Score: inf
ROOT
ATOM      1  C   UNL A   1      33.485  30.234  27.459  1.00  0.00     0.042 C 
ENDROOT
BRANCH   1   2
ATOM      2  C   UNL A   1      34.377  29.133  26.875  1.00  0.00     0.117 C 
BRANCH   2   3
ATOM      3  N   UNL A   1      33.664  27.903  26.548  1.00  0.00    -0.356 N 
ATOM      4  O   UNL A   1      34.003  28.034  24.287  1.00  0.00    -0.275 OA
ATOM      5  C   UNL A   1      33.588  27.409  25.261  1.00  0.00     0.220 C 
ATOM      6  H   UNL A   1      33.221  27.404  27.273  1.00  0.00     0.163 HD
BRANCH   5   7
ATOM      7  C   UNL A   1      32.876  26.066  25.080  1.00  0.00     0.103 C 
BRANCH   7   8
ATOM      8  C   UNL A   1      33.338  24.951  26.047  1.00  0.00     0.002 C 
ATOM      9  C   UNL A   1      34.733  24.339  25.725  1.00  0.00     0.026 C 
ATOM     10  C   UNL A   1      32.318  23.816  26.070  1.00  0.00     0.026 C 
ATOM     11  C   UNL A   1      34.782  23.268  24.610  1.00  0.00     0.120 C 
ATOM     12  C   UNL A   1      32.399  23.046  24.768  1.00  0.00     0.120 C 
ATOM     13  N   UNL A   1      33.644  22.349  24.669  1.00  0.00    -0.338 N 
ATOM     14  C   UNL A   1      33.803  20.969  24.635  1.00  0.00     0.281 C 
ATOM     15  O   UNL A   1      34.947  20.492  24.626  1.00  0.00    -0.268 OA
BRANCH  14  16
ATOM     16  C   UNL A   1      32.594  19.950  24.608  1.00  0.00     0.279 C 
ATOM     17  C   UNL A   1      32.528  18.900  25.751  1.00  0.00     0.131 C 
ATOM     18  N   UNL A   1      32.238  19.460  23.246  1.00  0.00    -0.331 N 
ATOM     19  C   UNL A   1      33.019  17.595  25.252  1.00  0.00     0.050 A 
ATOM     20  C   UNL A   1      32.755  18.160  22.787  1.00  0.00     0.320 C 
ATOM     21  H   UNL A   1      32.565  20.162  22.582  1.00  0.00     0.347 HD
ATOM     22  H   UNL A   1      31.229  19.313  23.298  1.00  0.00     0.347 HD
ATOM     23  N   UNL A   1      33.732  16.659  25.944  1.00  0.00    -0.348 N 
ATOM     24  C   UNL A   1      33.110  17.245  23.920  1.00  0.00     0.116 A 
ATOM     25  C   UNL A   1      34.292  15.824  25.011  1.00  0.00     0.197 A 
ATOM     26  H   UNL A   1      33.827  16.596  26.921  1.00  0.00     0.167 HD
ATOM     27  N   UNL A   1      33.952  16.163  23.784  1.00  0.00    -0.236 NA
ENDBRANCH  14  16
ENDBRANCH   7   8
ENDBRANCH   5   7
ENDBRANCH   2   3
ENDBRANCH   1   2
BRANCH   1  28
ATOM     28  C   UNL A   1      34.190  31.577  27.591  1.00  0.00     0.118 C 
BRANCH  28  29
ATOM     29  N   UNL A   1      34.095  32.174  28.923  1.00  0.00    -0.352 N 
ATOM     30  C   UNL A   1      34.925  31.979  30.017  1.00  0.00     0.251 C 
ATOM     31  H   UNL A   1      33.344  32.795  29.061  1.00  0.00     0.163 HD
ATOM     32  O   UNL A   1      34.579  32.328  31.131  1.00  0.00    -0.269 OA
BRANCH  30  33
ATOM     33  C   UNL A   1      36.235  31.321  29.819  1.00  0.00     0.039 A 
ATOM     34  C   UNL A   1      37.383  32.070  29.540  1.00  0.00     0.014 A 
ATOM     35  C   UNL A   1      36.315  29.937  29.927  1.00  0.00     0.014 A 
ATOM     36  C   UNL A   1      38.618  31.423  29.461  1.00  0.00     0.010 A 
ATOM     37  C   UNL A   1      37.541  29.323  29.992  1.00  0.00     0.010 A 
ATOM     38  C   UNL A   1      38.696  30.045  29.711  1.00  0.00    -0.014 A 
BRANCH  38  39
ATOM     39  C   UNL A   1      39.985  29.358  29.788  1.00  0.00     0.031 A 
ATOM     40  C   UNL A   1      40.520  29.149  31.169  1.00  0.00     0.074 A 
ATOM     41  C   UNL A   1      40.539  28.719  28.732  1.00  0.00     0.049 A 
ATOM     42  N   UNL A   1      41.664  29.516  31.648  1.00  0.00    -0.248 NA
ATOM     43  C   UNL A   1      39.641  28.515  32.167  1.00  0.00     0.031 C 
ATOM     44  C   UNL A   1      39.986  28.529  27.387  1.00  0.00     0.029 A 
ATOM     45  N   UNL A   1      41.683  27.982  28.683  1.00  0.00    -0.354 N 
ATOM     46  C   UNL A   1      41.723  29.033  32.955  1.00  0.00     0.074 A 
ATOM     47  C   UNL A   1      40.406  28.540  33.262  1.00  0.00     0.031 C 
ATOM     48  C   UNL A   1      40.653  27.535  26.759  1.00  0.00     0.029 A 
ATOM     49  C   UNL A   1      41.780  27.140  27.581  1.00  0.00     0.049 A 
ATOM     50  H   UNL A   1      42.384  28.039  29.372  1.00  0.00     0.167 HD
ATOM     51  C   UNL A   1      42.911  28.905  33.614  1.00  0.00     0.037 A 
ATOM     52  C   UNL A   1      42.689  26.148  27.390  1.00  0.00     0.037 A 
ATOM     53  C   UNL A   1      43.939  29.697  32.988  1.00  0.00     0.049 A 
ATOM     54  C   UNL A   1      43.814  26.391  28.319  1.00  0.00     0.074 A 
ATOM     55  C   UNL A   1      44.081  31.043  32.703  1.00  0.00     0.029 A 
ATOM     56  N   UNL A   1      44.875  29.062  32.207  1.00  0.00    -0.354 N 
ATOM     57  N   UNL A   1      44.650  27.384  28.194  1.00  0.00    -0.248 NA
ATOM     58  C   UNL A   1      43.718  25.807  29.649  1.00  0.00     0.031 C 
ATOM     59  C   UNL A   1      44.682  31.079  31.410  1.00  0.00     0.029 A 
ATOM     60  C   UNL A   1      44.935  29.763  31.029  1.00  0.00     0.049 A 
ATOM     61  H   UNL A   1      45.399  28.264  32.446  1.00  0.00     0.167 HD
ATOM     62  C   UNL A   1      44.848  27.830  29.489  1.00  0.00     0.074 A 
ATOM     63  C   UNL A   1      44.320  26.772  30.350  1.00  0.00     0.031 C 
ATOM     64  C   UNL A   1      45.141  29.137  29.749  1.00  0.00     0.037 A 
BRANCH  51  65
ATOM     65  C   UNL A   1      43.240  27.817  34.611  1.00  0.00     0.064 A 
ATOM     66  C   UNL A   1      43.548  28.175  35.942  1.00  0.00     0.173 A 
ATOM     67  C   UNL A   1      43.572  26.494  34.252  1.00  0.00     0.173 A 
ATOM     68  F   UNL A   1      43.280  29.409  36.399  1.00  0.00    -0.203 F 
ATOM     69  C   UNL A   1      44.228  27.312  36.805  1.00  0.00     0.198 A 
ATOM     70  C   UNL A   1      44.203  25.616  35.134  1.00  0.00     0.198 A 
ATOM     71  F   UNL A   1      43.406  26.029  33.009  1.00  0.00    -0.203 F 
ATOM     72  F   UNL A   1      44.622  27.749  38.009  1.00  0.00    -0.200 F 
ATOM     73  C   UNL A   1      44.567  26.037  36.396  1.00  0.00     0.200 A 
ATOM     74  F   UNL A   1      44.534  24.387  34.714  1.00  0.00    -0.200 F 
ATOM     75  F   UNL A   1      45.281  25.232  37.193  1.00  0.00    -0.200 F 
ENDBRANCH  51  65
BRANCH  52  76
ATOM     76  C   UNL A   1      42.499  24.847  26.708  1.00  0.00     0.064 A 
ATOM     77  C   UNL A   1      43.287  24.439  25.624  1.00  0.00     0.173 A 
ATOM     78  C   UNL A   1      41.720  23.850  27.313  1.00  0.00     0.173 A 
ATOM     79  F   UNL A   1      44.142  25.299  25.054  1.00  0.00    -0.203 F 
ATOM     80  C   UNL A   1      43.273  23.114  25.166  1.00  0.00     0.198 A 
ATOM     81  C   UNL A   1      41.683  22.536  26.848  1.00  0.00     0.198 A 
ATOM     82  F   UNL A   1      41.104  24.112  28.468  1.00  0.00    -0.203 F 
ATOM     83  F   UNL A   1      44.097  22.738  24.180  1.00  0.00    -0.200 F 
ATOM     84  C   UNL A   1      42.465  22.165  25.774  1.00  0.00     0.200 A 
ATOM     85  F   UNL A   1      40.961  21.612  27.500  1.00  0.00    -0.200 F 
ATOM     86  F   UNL A   1      42.491  20.887  25.376  1.00  0.00    -0.200 F 
ENDBRANCH  52  76
BRANCH  64  87
ATOM     87  C   UNL A   1      45.447  30.046  28.591  1.00  0.00     0.064 A 
ATOM     88  C   UNL A   1      44.472  30.755  27.868  1.00  0.00     0.173 A 
ATOM     89  C   UNL A   1      46.789  30.342  28.318  1.00  0.00     0.173 A 
ATOM     90  F   UNL A   1      43.171  30.611  28.137  1.00  0.00    -0.203 F 
ATOM     91  C   UNL A   1      44.825  31.687  26.893  1.00  0.00     0.198 A 
ATOM     92  C   UNL A   1      47.139  31.300  27.371  1.00  0.00     0.198 A 
ATOM     93  F   UNL A   1      47.765  29.739  29.014  1.00  0.00    -0.203 F 
ATOM     94  F   UNL A   1      43.872  32.344  26.216  1.00  0.00    -0.200 F 
ATOM     95  C   UNL A   1      46.158  31.965  26.652  1.00  0.00     0.200 A 
ATOM     96  F   UNL A   1      48.430  31.603  27.177  1.00  0.00    -0.200 F 
ATOM     97  F   UNL A   1      46.499  32.894  25.749  1.00  0.00    -0.200 F 
ENDBRANCH  64  87
ENDBRANCH  38  39
ENDBRANCH  30  33
ENDBRANCH  28  29
ENDBRANCH   1  28
TORSDOF 12
ENDMDL
MODEL 3
REMARK VINA RESULT:     -13.4      1.252      2.165
REMARK SMILES O=C(CC1CCN(C(=O)[C@@H]2Cc3[nH]cnc3C[NH2+]2)CC1)NCCCNC(=O)c1ccc(-c2c3nc(c(-c4c(F)c(F)c(F)c(F)c4F)c4ccc([nH]4)c(-c4c(F)c(F)c(F)c(F)c4F)c4nc(c(-c5c(F)c(F)c(F)c(F)c5F)c5ccc2[nH]5)C=C4)C=C3)cc1
REMARK SMILES IDX 23 1 22 2 21 3 1 4 2 5 3 7 4 8 5 9 20 10 6 11 19 12 7 13
REMARK SMILES IDX 8 14 9 15 10 16 11 17 18 18 12 19 17 20 13 23 16 24 14 25
REMARK SMILES IDX 15 27 24 28 25 29 26 30 27 32 28 33 29 34 90 35 30 36 89 37
REMARK SMILES IDX 31 38 32 39 33 40 83 41 34 42 88 43 82 44 84 45 35 46 87 47
REMARK SMILES IDX 81 48 80 49 36 51 68 52 48 53 67 54 49 55 52 56 66 57 85 58
REMARK SMILES IDX 50 59 51 60 65 62 86 63 53 64 37 65 38 66 46 67 39 68 40 69
REMARK SMILES IDX 44 70 47 71 41 72 42 73 45 74 43 75 69 76 70 77 78 78 71 79
REMARK SMILES IDX 72 80 76 81 79 82 73 83 74 84 77 85 75 86 54 87 55 88 63 89
REMARK SMILES IDX 56 90 57 91 61 92 64 93 58 94 59 95 62 96 60 97
REMARK H PARENT 21 6 18 21 18 22 13 26 25 31 84 50 52 61
REMARK Flexibility Score: inf
ROOT
ATOM      1  C   UNL A   1      36.301  21.829  26.019  1.00  0.00     0.042 C 
ENDROOT
BRANCH   1   2
ATOM      2  C   UNL A   1      35.508  21.279  24.828  1.00  0.00     0.117 C 
BRANCH   2   3
ATOM      3  N   UNL A   1      34.466  22.178  24.344  1.00  0.00    -0.356 N 
ATOM      4  O   UNL A   1      35.774  23.234  22.790  1.00  0.00    -0.275 OA
ATOM      5  C   UNL A   1      34.670  23.056  23.299  1.00  0.00     0.220 C 
ATOM      6  H   UNL A   1      33.582  22.157  24.779  1.00  0.00     0.163 HD
BRANCH   5   7
ATOM      7  C   UNL A   1      33.461  23.880  22.847  1.00  0.00     0.103 C 
BRANCH   7   8
ATOM      8  C   UNL A   1      33.715  25.402  22.742  1.00  0.00     0.002 C 
ATOM      9  C   UNL A   1      33.606  26.179  24.088  1.00  0.00     0.026 C 
ATOM     10  C   UNL A   1      32.741  26.033  21.752  1.00  0.00     0.026 C 
ATOM     11  C   UNL A   1      32.181  26.542  24.568  1.00  0.00     0.120 C 
ATOM     12  C   UNL A   1      31.357  26.068  22.365  1.00  0.00     0.120 C 
ATOM     13  N   UNL A   1      31.315  26.975  23.470  1.00  0.00    -0.338 N 
ATOM     14  C   UNL A   1      30.565  28.143  23.534  1.00  0.00     0.281 C 
ATOM     15  O   UNL A   1      30.681  28.883  24.522  1.00  0.00    -0.268 OA
BRANCH  14  16
ATOM     16  C   UNL A   1      29.555  28.598  22.406  1.00  0.00     0.279 C 
ATOM     17  C   UNL A   1      29.917  29.877  21.604  1.00  0.00     0.131 C 
ATOM     18  N   UNL A   1      28.118  28.437  22.771  1.00  0.00    -0.331 N 
ATOM     19  C   UNL A   1      29.122  31.019  22.111  1.00  0.00     0.050 A 
ATOM     20  C   UNL A   1      27.368  29.598  23.279  1.00  0.00     0.320 C 
ATOM     21  H   UNL A   1      28.073  27.716  23.490  1.00  0.00     0.347 HD
ATOM     22  H   UNL A   1      27.665  28.228  21.880  1.00  0.00     0.347 HD
ATOM     23  N   UNL A   1      29.518  32.322  22.216  1.00  0.00    -0.348 N 
ATOM     24  C   UNL A   1      27.964  30.905  22.851  1.00  0.00     0.116 A 
ATOM     25  C   UNL A   1      28.637  32.931  23.073  1.00  0.00     0.197 A 
ATOM     26  H   UNL A   1      30.285  32.742  21.765  1.00  0.00     0.167 HD
ATOM     27  N   UNL A   1      27.703  32.100  23.487  1.00  0.00    -0.236 NA
ENDBRANCH  14  16
ENDBRANCH   7   8
ENDBRANCH   5   7
ENDBRANCH   2   3
ENDBRANCH   1   2
BRANCH   1  28
ATOM     28  C   UNL A   1      37.641  22.437  25.625  1.00  0.00     0.118 C 
BRANCH  28  29
ATOM     29  N   UNL A   1      38.767  21.508  25.708  1.00  0.00    -0.352 N 
ATOM     30  C   UNL A   1      40.043  21.740  26.199  1.00  0.00     0.251 C 
ATOM     31  H   UNL A   1      38.597  20.599  25.371  1.00  0.00     0.163 HD
ATOM     32  O   UNL A   1      40.952  20.964  25.964  1.00  0.00    -0.269 OA
BRANCH  30  33
ATOM     33  C   UNL A   1      40.296  22.959  27.000  1.00  0.00     0.039 A 
ATOM     34  C   UNL A   1      41.409  23.048  27.843  1.00  0.00     0.014 A 
ATOM     35  C   UNL A   1      39.414  24.028  26.892  1.00  0.00     0.014 A 
ATOM     36  C   UNL A   1      41.669  24.251  28.504  1.00  0.00     0.010 A 
ATOM     37  C   UNL A   1      39.747  25.249  27.425  1.00  0.00     0.010 A 
ATOM     38  C   UNL A   1      40.844  25.361  28.273  1.00  0.00    -0.014 A 
BRANCH  38  39
ATOM     39  C   UNL A   1      41.168  26.678  28.824  1.00  0.00     0.031 A 
ATOM     40  C   UNL A   1      42.373  27.340  28.236  1.00  0.00     0.074 A 
ATOM     41  C   UNL A   1      40.314  27.374  29.610  1.00  0.00     0.049 A 
ATOM     42  N   UNL A   1      43.422  27.782  28.849  1.00  0.00    -0.248 NA
ATOM     43  C   UNL A   1      42.455  27.462  26.770  1.00  0.00     0.031 C 
ATOM     44  C   UNL A   1      38.947  27.023  30.006  1.00  0.00     0.029 A 
ATOM     45  N   UNL A   1      40.454  28.628  30.122  1.00  0.00    -0.354 N 
ATOM     46  C   UNL A   1      44.231  28.375  27.880  1.00  0.00     0.074 A 
ATOM     47  C   UNL A   1      43.649  28.036  26.608  1.00  0.00     0.031 C 
ATOM     48  C   UNL A   1      38.310  28.126  30.461  1.00  0.00     0.029 A 
ATOM     49  C   UNL A   1      39.266  29.211  30.549  1.00  0.00     0.049 A 
ATOM     50  H   UNL A   1      41.324  29.084  30.184  1.00  0.00     0.167 HD
ATOM     51  C   UNL A   1      45.212  29.262  28.216  1.00  0.00     0.037 A 
ATOM     52  C   UNL A   1      39.075  30.512  30.892  1.00  0.00     0.037 A 
ATOM     53  C   UNL A   1      45.555  29.151  29.611  1.00  0.00     0.049 A 
ATOM     54  C   UNL A   1      40.404  31.101  31.162  1.00  0.00     0.074 A 
ATOM     55  C   UNL A   1      46.017  28.122  30.412  1.00  0.00     0.029 A 
ATOM     56  N   UNL A   1      45.087  30.104  30.483  1.00  0.00    -0.354 N 
ATOM     57  N   UNL A   1      41.138  30.783  32.192  1.00  0.00    -0.248 NA
ATOM     58  C   UNL A   1      41.115  31.687  30.034  1.00  0.00     0.031 C 
ATOM     59  C   UNL A   1      45.310  28.274  31.642  1.00  0.00     0.029 A 
ATOM     60  C   UNL A   1      44.530  29.424  31.536  1.00  0.00     0.049 A 
ATOM     61  H   UNL A   1      45.140  31.081  30.373  1.00  0.00     0.167 HD
ATOM     62  C   UNL A   1      42.425  30.713  31.688  1.00  0.00     0.074 A 
ATOM     63  C   UNL A   1      42.364  31.362  30.378  1.00  0.00     0.031 C 
ATOM     64  C   UNL A   1      43.354  29.876  32.233  1.00  0.00     0.037 A 
BRANCH  51  65
ATOM     65  C   UNL A   1      45.627  30.456  27.386  1.00  0.00     0.064 A 
ATOM     66  C   UNL A   1      47.002  30.746  27.241  1.00  0.00     0.173 A 
ATOM     67  C   UNL A   1      44.750  31.491  27.000  1.00  0.00     0.173 A 
ATOM     68  F   UNL A   1      47.933  29.840  27.578  1.00  0.00    -0.203 F 
ATOM     69  C   UNL A   1      47.457  32.007  26.843  1.00  0.00     0.198 A 
ATOM     70  C   UNL A   1      45.207  32.730  26.551  1.00  0.00     0.198 A 
ATOM     71  F   UNL A   1      43.423  31.392  27.144  1.00  0.00    -0.203 F 
ATOM     72  F   UNL A   1      48.769  32.275  26.857  1.00  0.00    -0.200 F 
ATOM     73  C   UNL A   1      46.559  33.002  26.510  1.00  0.00     0.200 A 
ATOM     74  F   UNL A   1      44.319  33.686  26.244  1.00  0.00    -0.200 F 
ATOM     75  F   UNL A   1      46.988  34.231  26.197  1.00  0.00    -0.200 F 
ENDBRANCH  51  65
BRANCH  52  76
ATOM     76  C   UNL A   1      37.871  31.349  30.684  1.00  0.00     0.064 A 
ATOM     77  C   UNL A   1      37.362  31.637  29.411  1.00  0.00     0.173 A 
ATOM     78  C   UNL A   1      37.025  31.634  31.765  1.00  0.00     0.173 A 
ATOM     79  F   UNL A   1      38.056  31.299  28.317  1.00  0.00    -0.203 F 
ATOM     80  C   UNL A   1      36.088  32.199  29.243  1.00  0.00     0.198 A 
ATOM     81  C   UNL A   1      35.767  32.215  31.606  1.00  0.00     0.198 A 
ATOM     82  F   UNL A   1      37.353  31.202  32.985  1.00  0.00    -0.203 F 
ATOM     83  F   UNL A   1      35.599  32.389  28.010  1.00  0.00    -0.200 F 
ATOM     84  C   UNL A   1      35.295  32.494  30.341  1.00  0.00     0.200 A 
ATOM     85  F   UNL A   1      34.978  32.415  32.673  1.00  0.00    -0.200 F 
ATOM     86  F   UNL A   1      34.056  32.978  30.181  1.00  0.00    -0.200 F 
ENDBRANCH  52  76
BRANCH  64  87
ATOM     87  C   UNL A   1      43.019  29.177  33.521  1.00  0.00     0.064 A 
ATOM     88  C   UNL A   1      42.320  27.960  33.597  1.00  0.00     0.173 A 
ATOM     89  C   UNL A   1      43.576  29.671  34.708  1.00  0.00     0.173 A 
ATOM     90  F   UNL A   1      41.845  27.365  32.498  1.00  0.00    -0.203 F 
ATOM     91  C   UNL A   1      42.155  27.290  34.809  1.00  0.00     0.198 A 
ATOM     92  C   UNL A   1      43.444  28.982  35.910  1.00  0.00     0.198 A 
ATOM     93  F   UNL A   1      44.303  30.800  34.690  1.00  0.00    -0.203 F 
ATOM     94  F   UNL A   1      41.479  26.133  34.851  1.00  0.00    -0.200 F 
ATOM     95  C   UNL A   1      42.726  27.798  35.962  1.00  0.00     0.200 A 
ATOM     96  F   UNL A   1      44.042  29.450  37.014  1.00  0.00    -0.200 F 
ATOM     97  F   UNL A   1      42.611  27.132  37.119  1.00  0.00    -0.200 F 
ENDBRANCH  64  87
ENDBRANCH  38  39
ENDBRANCH  30  33
ENDBRANCH  28  29
ENDBRANCH   1  28
TORSDOF 12
ENDMDL
