MODEL 1
REMARK VINA RESULT:     -14.1      0.000      0.000
REMARK SMILES C[N@@H+]1CC2(CCN(C(=O)c3cc(-c4ccncc4)n[nH]3)CC2)C[C@H]1C(=O)NCCCNC(=O)c1ccc(-c2c3nc(c(-c4c(F)c(F)c(F)c(F)c4F)c4ccc([nH]4)c(-c4c(F)c(F)c(F)c(F)c4F)c4nc(c(-c5c(F)c(F)c(F)c(F)c5F)c5ccc2[nH]5)C=C4)C=C3)cc1
REMARK SMILES IDX 29 1 28 2 27 3 25 4 26 5 24 7 1 8 2 9 3 10 4 12 23 13 5 14
REMARK SMILES IDX 22 15 6 16 21 17 7 18 8 19 9 20 10 21 11 22 20 23 12 24
REMARK SMILES IDX 19 25 13 27 14 28 18 29 15 30 17 31 16 32 30 33 31 34 32 35
REMARK SMILES IDX 33 37 34 38 35 39 96 40 36 41 95 42 37 43 38 44 39 45 89 46
REMARK SMILES IDX 40 47 94 48 88 49 90 50 41 51 93 52 87 53 86 54 42 56 74 57
REMARK SMILES IDX 54 58 73 59 55 60 58 61 72 62 91 63 56 64 57 65 71 67 92 68
REMARK SMILES IDX 59 69 43 70 44 71 52 72 45 73 46 74 50 75 53 76 47 77 48 78
REMARK SMILES IDX 51 79 49 80 75 81 76 82 84 83 77 84 78 85 82 86 85 87 79 88
REMARK SMILES IDX 80 89 83 90 81 91 60 92 61 93 69 94 62 95 63 96 67 97 70 98
REMARK SMILES IDX 64 99 65 100 68 101 66 102
REMARK H PARENT 27 6 2 11 20 26 31 36 90 55 58 66
REMARK Flexibility Score: inf
ROOT
ATOM      1  C   UNL A   1      31.521  31.670  26.863  1.00  0.00     0.042 C 
ENDROOT
BRANCH   1   2
ATOM      2  C   UNL A   1      31.779  30.235  26.430  1.00  0.00     0.118 C 
BRANCH   2   3
ATOM      3  N   UNL A   1      32.632  30.078  25.284  1.00  0.00    -0.351 N 
ATOM      4  C   UNL A   1      32.761  29.016  24.435  1.00  0.00     0.278 C 
ATOM      5  O   UNL A   1      33.425  29.228  23.411  1.00  0.00    -0.268 OA
ATOM      6  H   UNL A   1      33.207  30.850  25.081  1.00  0.00     0.163 HD
BRANCH   4   7
ATOM      7  C   UNL A   1      32.154  27.598  24.679  1.00  0.00     0.274 C 
ATOM      8  C   UNL A   1      30.667  26.468  23.150  1.00  0.00     0.333 C 
ATOM      9  N   UNL A   1      32.059  26.838  23.414  1.00  0.00    -0.327 N 
ATOM     10  C   UNL A   1      32.935  25.668  23.512  1.00  0.00     0.269 C 
ATOM     11  H   UNL A   1      32.366  27.410  22.627  1.00  0.00     0.348 HD
ATOM     12  C   UNL A   1      33.276  25.403  24.995  1.00  0.00     0.029 C 
ATOM     13  C   UNL A   1      32.787  26.676  25.724  1.00  0.00     0.088 C 
ATOM     14  C   UNL A   1      34.778  25.183  25.307  1.00  0.00     0.034 C 
ATOM     15  C   UNL A   1      32.582  24.087  25.457  1.00  0.00     0.034 C 
ATOM     16  C   UNL A   1      35.333  24.042  24.489  1.00  0.00     0.120 C 
ATOM     17  C   UNL A   1      33.220  22.814  24.831  1.00  0.00     0.120 C 
ATOM     18  N   UNL A   1      34.683  22.814  24.917  1.00  0.00    -0.337 N 
ATOM     19  C   UNL A   1      35.390  21.631  25.131  1.00  0.00     0.271 C 
ATOM     20  O   UNL A   1      34.857  20.526  25.023  1.00  0.00    -0.267 OA
BRANCH  19  21
ATOM     21  C   UNL A   1      36.789  21.759  25.459  1.00  0.00     0.123 A 
ATOM     22  C   UNL A   1      37.874  20.941  25.196  1.00  0.00     0.064 A 
ATOM     23  N   UNL A   1      37.318  22.823  26.133  1.00  0.00    -0.272 N 
ATOM     24  C   UNL A   1      38.969  21.511  25.891  1.00  0.00     0.093 A 
ATOM     25  N   UNL A   1      38.604  22.654  26.492  1.00  0.00    -0.175 NA
ATOM     26  H   UNL A   1      36.805  23.638  26.337  1.00  0.00     0.190 HD
BRANCH  24  27
ATOM     27  C   UNL A   1      40.311  20.960  26.013  1.00  0.00     0.005 A 
ATOM     28  C   UNL A   1      41.421  21.804  26.049  1.00  0.00     0.030 A 
ATOM     29  C   UNL A   1      40.506  19.578  26.058  1.00  0.00     0.030 A 
ATOM     30  C   UNL A   1      42.678  21.230  26.130  1.00  0.00     0.111 A 
ATOM     31  C   UNL A   1      41.805  19.102  26.126  1.00  0.00     0.111 A 
ATOM     32  N   UNL A   1      42.896  19.898  26.160  1.00  0.00    -0.265 NA
ENDBRANCH  24  27
ENDBRANCH  19  21
ENDBRANCH   4   7
ENDBRANCH   2   3
ENDBRANCH   1   2
BRANCH   1  33
ATOM     33  C   UNL A   1      32.793  32.469  27.100  1.00  0.00     0.118 C 
BRANCH  33  34
ATOM     34  N   UNL A   1      32.526  33.845  27.515  1.00  0.00    -0.352 N 
ATOM     35  C   UNL A   1      33.079  34.615  28.512  1.00  0.00     0.251 C 
ATOM     36  H   UNL A   1      31.830  34.301  26.989  1.00  0.00     0.163 HD
ATOM     37  O   UNL A   1      32.579  35.706  28.773  1.00  0.00    -0.269 OA
BRANCH  35  38
ATOM     38  C   UNL A   1      34.245  34.140  29.294  1.00  0.00     0.039 A 
ATOM     39  C   UNL A   1      34.022  33.427  30.477  1.00  0.00     0.014 A 
ATOM     40  C   UNL A   1      35.553  34.412  28.891  1.00  0.00     0.014 A 
ATOM     41  C   UNL A   1      35.103  32.924  31.207  1.00  0.00     0.010 A 
ATOM     42  C   UNL A   1      36.623  33.828  29.560  1.00  0.00     0.010 A 
ATOM     43  C   UNL A   1      36.413  33.084  30.729  1.00  0.00    -0.014 A 
BRANCH  43  44
ATOM     44  C   UNL A   1      37.585  32.509  31.435  1.00  0.00     0.031 A 
ATOM     45  C   UNL A   1      38.360  31.383  30.806  1.00  0.00     0.074 A 
ATOM     46  C   UNL A   1      37.891  32.926  32.678  1.00  0.00     0.049 A 
ATOM     47  N   UNL A   1      39.316  30.648  31.313  1.00  0.00    -0.248 NA
ATOM     48  C   UNL A   1      37.976  31.004  29.437  1.00  0.00     0.031 C 
ATOM     49  C   UNL A   1      37.184  33.971  33.420  1.00  0.00     0.029 A 
ATOM     50  N   UNL A   1      38.869  32.507  33.546  1.00  0.00    -0.354 N 
ATOM     51  C   UNL A   1      39.613  29.696  30.346  1.00  0.00     0.074 A 
ATOM     52  C   UNL A   1      38.709  29.921  29.239  1.00  0.00     0.031 C 
ATOM     53  C   UNL A   1      37.769  34.133  34.618  1.00  0.00     0.029 A 
ATOM     54  C   UNL A   1      38.864  33.177  34.745  1.00  0.00     0.049 A 
ATOM     55  H   UNL A   1      39.513  31.795  33.328  1.00  0.00     0.167 HD
ATOM     56  C   UNL A   1      40.566  28.734  30.372  1.00  0.00     0.037 A 
ATOM     57  C   UNL A   1      39.654  33.031  35.826  1.00  0.00     0.037 A 
ATOM     58  C   UNL A   1      41.508  28.559  31.445  1.00  0.00     0.049 A 
ATOM     59  C   UNL A   1      40.737  31.989  35.809  1.00  0.00     0.074 A 
ATOM     60  C   UNL A   1      42.574  27.681  31.523  1.00  0.00     0.029 A 
ATOM     61  N   UNL A   1      41.499  29.287  32.625  1.00  0.00    -0.354 N 
ATOM     62  N   UNL A   1      41.048  31.136  34.865  1.00  0.00    -0.248 NA
ATOM     63  C   UNL A   1      41.581  31.895  37.009  1.00  0.00     0.031 C 
ATOM     64  C   UNL A   1      43.195  27.860  32.765  1.00  0.00     0.029 A 
ATOM     65  C   UNL A   1      42.534  28.870  33.445  1.00  0.00     0.049 A 
ATOM     66  H   UNL A   1      40.852  29.996  32.847  1.00  0.00     0.167 HD
ATOM     67  C   UNL A   1      42.136  30.419  35.343  1.00  0.00     0.074 A 
ATOM     68  C   UNL A   1      42.439  30.946  36.658  1.00  0.00     0.031 C 
ATOM     69  C   UNL A   1      42.824  29.415  34.746  1.00  0.00     0.037 A 
BRANCH  56  70
ATOM     70  C   UNL A   1      40.638  27.802  29.198  1.00  0.00     0.064 A 
ATOM     71  C   UNL A   1      41.551  28.002  28.152  1.00  0.00     0.173 A 
ATOM     72  C   UNL A   1      39.792  26.685  29.126  1.00  0.00     0.173 A 
ATOM     73  F   UNL A   1      42.372  29.062  28.167  1.00  0.00    -0.203 F 
ATOM     74  C   UNL A   1      41.589  27.139  27.059  1.00  0.00     0.198 A 
ATOM     75  C   UNL A   1      39.852  25.809  28.046  1.00  0.00     0.198 A 
ATOM     76  F   UNL A   1      38.903  26.445  30.103  1.00  0.00    -0.203 F 
ATOM     77  F   UNL A   1      42.429  27.383  26.044  1.00  0.00    -0.200 F 
ATOM     78  C   UNL A   1      40.743  26.042  27.009  1.00  0.00     0.200 A 
ATOM     79  F   UNL A   1      39.041  24.741  28.004  1.00  0.00    -0.200 F 
ATOM     80  F   UNL A   1      40.780  25.213  25.957  1.00  0.00    -0.200 F 
ENDBRANCH  56  70
BRANCH  57  81
ATOM     81  C   UNL A   1      39.475  33.928  36.995  1.00  0.00     0.064 A 
ATOM     82  C   UNL A   1      38.707  33.518  38.093  1.00  0.00     0.173 A 
ATOM     83  C   UNL A   1      40.074  35.194  37.050  1.00  0.00     0.173 A 
ATOM     84  F   UNL A   1      38.100  32.322  38.075  1.00  0.00    -0.203 F 
ATOM     85  C   UNL A   1      38.534  34.345  39.200  1.00  0.00     0.198 A 
ATOM     86  C   UNL A   1      39.917  36.013  38.167  1.00  0.00     0.198 A 
ATOM     87  F   UNL A   1      40.822  35.629  36.026  1.00  0.00    -0.203 F 
ATOM     88  F   UNL A   1      37.769  33.941  40.224  1.00  0.00    -0.200 F 
ATOM     89  C   UNL A   1      39.145  35.591  39.238  1.00  0.00     0.200 A 
ATOM     90  F   UNL A   1      40.518  37.210  38.206  1.00  0.00    -0.200 F 
ATOM     91  F   UNL A   1      38.984  36.384  40.306  1.00  0.00    -0.200 F 
ENDBRANCH  57  81
BRANCH  69  92
ATOM     92  C   UNL A   1      43.989  28.845  35.495  1.00  0.00     0.064 A 
ATOM     93  C   UNL A   1      45.284  29.358  35.333  1.00  0.00     0.173 A 
ATOM     94  C   UNL A   1      43.800  27.803  36.415  1.00  0.00     0.173 A 
ATOM     95  F   UNL A   1      45.514  30.343  34.453  1.00  0.00    -0.203 F 
ATOM     96  C   UNL A   1      46.353  28.835  36.055  1.00  0.00     0.198 A 
ATOM     97  C   UNL A   1      44.868  27.299  37.151  1.00  0.00     0.198 A 
ATOM     98  F   UNL A   1      42.578  27.283  36.606  1.00  0.00    -0.203 F 
ATOM     99  F   UNL A   1      47.589  29.314  35.858  1.00  0.00    -0.200 F 
ATOM    100  C   UNL A   1      46.143  27.811  36.967  1.00  0.00     0.200 A 
ATOM    101  F   UNL A   1      44.663  26.315  38.039  1.00  0.00    -0.200 F 
ATOM    102  F   UNL A   1      47.174  27.312  37.665  1.00  0.00    -0.200 F 
ENDBRANCH  69  92
ENDBRANCH  43  44
ENDBRANCH  35  38
ENDBRANCH  33  34
ENDBRANCH   1  33
TORSDOF 12
ENDMDL
MODEL 2
REMARK VINA RESULT:     -14.1      4.852     11.559
REMARK SMILES C[N@@H+]1CC2(CCN(C(=O)c3cc(-c4ccncc4)n[nH]3)CC2)C[C@H]1C(=O)NCCCNC(=O)c1ccc(-c2c3nc(c(-c4c(F)c(F)c(F)c(F)c4F)c4ccc([nH]4)c(-c4c(F)c(F)c(F)c(F)c4F)c4nc(c(-c5c(F)c(F)c(F)c(F)c5F)c5ccc2[nH]5)C=C4)C=C3)cc1
REMARK SMILES IDX 29 1 28 2 27 3 25 4 26 5 24 7 1 8 2 9 3 10 4 12 23 13 5 14
REMARK SMILES IDX 22 15 6 16 21 17 7 18 8 19 9 20 10 21 11 22 20 23 12 24
REMARK SMILES IDX 19 25 13 27 14 28 18 29 15 30 17 31 16 32 30 33 31 34 32 35
REMARK SMILES IDX 33 37 34 38 35 39 96 40 36 41 95 42 37 43 38 44 39 45 89 46
REMARK SMILES IDX 40 47 94 48 88 49 90 50 41 51 93 52 87 53 86 54 42 56 74 57
REMARK SMILES IDX 54 58 73 59 55 60 58 61 72 62 91 63 56 64 57 65 71 67 92 68
REMARK SMILES IDX 59 69 43 70 44 71 52 72 45 73 46 74 50 75 53 76 47 77 48 78
REMARK SMILES IDX 51 79 49 80 75 81 76 82 84 83 77 84 78 85 82 86 85 87 79 88
REMARK SMILES IDX 80 89 83 90 81 91 60 92 61 93 69 94 62 95 63 96 67 97 70 98
REMARK SMILES IDX 64 99 65 100 68 101 66 102
REMARK H PARENT 27 6 2 11 20 26 31 36 90 55 58 66
REMARK Flexibility Score: inf
ROOT
ATOM      1  C   UNL A   1      37.764  19.765  25.001  1.00  0.00     0.042 C 
ENDROOT
BRANCH   1   2
ATOM      2  C   UNL A   1      36.661  20.805  24.868  1.00  0.00     0.118 C 
BRANCH   2   3
ATOM      3  N   UNL A   1      35.959  21.120  26.081  1.00  0.00    -0.351 N 
ATOM      4  C   UNL A   1      34.777  21.782  26.255  1.00  0.00     0.278 C 
ATOM      5  O   UNL A   1      34.302  21.737  27.398  1.00  0.00    -0.268 OA
ATOM      6  H   UNL A   1      36.394  20.814  26.910  1.00  0.00     0.163 HD
BRANCH   4   7
ATOM      7  C   UNL A   1      34.024  22.574  25.139  1.00  0.00     0.274 C 
ATOM      8  C   UNL A   1      31.780  22.085  24.396  1.00  0.00     0.333 C 
ATOM      9  N   UNL A   1      32.585  22.696  25.457  1.00  0.00    -0.327 N 
ATOM     10  C   UNL A   1      32.273  24.116  25.642  1.00  0.00     0.269 C 
ATOM     11  H   UNL A   1      32.363  22.198  26.319  1.00  0.00     0.348 HD
ATOM     12  C   UNL A   1      33.396  24.975  25.020  1.00  0.00     0.029 C 
ATOM     13  C   UNL A   1      34.525  23.960  24.729  1.00  0.00     0.088 C 
ATOM     14  C   UNL A   1      33.948  26.108  25.921  1.00  0.00     0.034 C 
ATOM     15  C   UNL A   1      32.845  25.708  23.759  1.00  0.00     0.034 C 
ATOM     16  C   UNL A   1      32.838  27.034  26.357  1.00  0.00     0.120 C 
ATOM     17  C   UNL A   1      31.838  26.840  24.109  1.00  0.00     0.120 C 
ATOM     18  N   UNL A   1      32.322  27.715  25.181  1.00  0.00    -0.337 N 
ATOM     19  C   UNL A   1      32.046  29.082  25.172  1.00  0.00     0.271 C 
ATOM     20  O   UNL A   1      31.208  29.572  24.414  1.00  0.00    -0.267 OA
BRANCH  19  21
ATOM     21  C   UNL A   1      32.772  29.899  26.114  1.00  0.00     0.123 A 
ATOM     22  C   UNL A   1      32.376  30.965  26.903  1.00  0.00     0.064 A 
ATOM     23  N   UNL A   1      34.091  29.719  26.418  1.00  0.00    -0.272 N 
ATOM     24  C   UNL A   1      33.556  31.457  27.512  1.00  0.00     0.093 A 
ATOM     25  N   UNL A   1      34.613  30.700  27.178  1.00  0.00    -0.175 NA
ATOM     26  H   UNL A   1      34.613  28.943  26.109  1.00  0.00     0.190 HD
BRANCH  24  27
ATOM     27  C   UNL A   1      33.680  32.640  28.353  1.00  0.00     0.005 A 
ATOM     28  C   UNL A   1      33.037  33.827  28.001  1.00  0.00     0.030 A 
ATOM     29  C   UNL A   1      34.472  32.611  29.502  1.00  0.00     0.030 A 
ATOM     30  C   UNL A   1      33.213  34.934  28.814  1.00  0.00     0.111 A 
ATOM     31  C   UNL A   1      34.595  33.775  30.242  1.00  0.00     0.111 A 
ATOM     32  N   UNL A   1      33.985  34.937  29.922  1.00  0.00    -0.265 NA
ENDBRANCH  24  27
ENDBRANCH  19  21
ENDBRANCH   4   7
ENDBRANCH   2   3
ENDBRANCH   1   2
BRANCH   1  33
ATOM     33  C   UNL A   1      38.985  20.269  25.753  1.00  0.00     0.118 C 
BRANCH  33  34
ATOM     34  N   UNL A   1      40.023  19.249  25.894  1.00  0.00    -0.352 N 
ATOM     35  C   UNL A   1      41.374  19.357  26.125  1.00  0.00     0.251 C 
ATOM     36  H   UNL A   1      39.698  18.323  25.810  1.00  0.00     0.163 HD
ATOM     37  O   UNL A   1      42.076  18.351  26.050  1.00  0.00    -0.269 OA
BRANCH  35  38
ATOM     38  C   UNL A   1      42.002  20.664  26.432  1.00  0.00     0.039 A 
ATOM     39  C   UNL A   1      42.349  21.513  25.376  1.00  0.00     0.014 A 
ATOM     40  C   UNL A   1      42.276  21.050  27.744  1.00  0.00     0.014 A 
ATOM     41  C   UNL A   1      42.894  22.773  25.639  1.00  0.00     0.010 A 
ATOM     42  C   UNL A   1      42.724  22.340  28.011  1.00  0.00     0.010 A 
ATOM     43  C   UNL A   1      43.046  23.213  26.963  1.00  0.00    -0.014 A 
BRANCH  43  44
ATOM     44  C   UNL A   1      43.558  24.568  27.289  1.00  0.00     0.031 A 
ATOM     45  C   UNL A   1      42.638  25.589  27.902  1.00  0.00     0.074 A 
ATOM     46  C   UNL A   1      44.813  24.912  26.943  1.00  0.00     0.049 A 
ATOM     47  N   UNL A   1      42.842  26.861  28.128  1.00  0.00    -0.248 NA
ATOM     48  C   UNL A   1      41.292  25.123  28.271  1.00  0.00     0.031 C 
ATOM     49  C   UNL A   1      45.785  24.033  26.293  1.00  0.00     0.029 A 
ATOM     50  N   UNL A   1      45.480  26.105  27.075  1.00  0.00    -0.354 N 
ATOM     51  C   UNL A   1      41.640  27.354  28.619  1.00  0.00     0.074 A 
ATOM     52  C   UNL A   1      40.700  26.254  28.622  1.00  0.00     0.031 C 
ATOM     53  C   UNL A   1      46.933  24.705  26.110  1.00  0.00     0.029 A 
ATOM     54  C   UNL A   1      46.765  26.073  26.591  1.00  0.00     0.049 A 
ATOM     55  H   UNL A   1      45.076  26.907  27.479  1.00  0.00     0.167 HD
ATOM     56  C   UNL A   1      41.352  28.606  29.047  1.00  0.00     0.037 A 
ATOM     57  C   UNL A   1      47.700  27.040  26.540  1.00  0.00     0.037 A 
ATOM     58  C   UNL A   1      42.308  29.679  29.108  1.00  0.00     0.049 A 
ATOM     59  C   UNL A   1      47.371  28.409  27.068  1.00  0.00     0.074 A 
ATOM     60  C   UNL A   1      42.144  30.954  29.618  1.00  0.00     0.029 A 
ATOM     61  N   UNL A   1      43.614  29.594  28.650  1.00  0.00    -0.354 N 
ATOM     62  N   UNL A   1      46.250  28.847  27.587  1.00  0.00    -0.248 NA
ATOM     63  C   UNL A   1      48.440  29.415  27.006  1.00  0.00     0.031 C 
ATOM     64  C   UNL A   1      43.346  31.651  29.443  1.00  0.00     0.029 A 
ATOM     65  C   UNL A   1      44.265  30.799  28.853  1.00  0.00     0.049 A 
ATOM     66  H   UNL A   1      44.019  28.795  28.240  1.00  0.00     0.167 HD
ATOM     67  C   UNL A   1      46.484  30.169  27.935  1.00  0.00     0.074 A 
ATOM     68  C   UNL A   1      47.858  30.460  27.578  1.00  0.00     0.031 C 
ATOM     69  C   UNL A   1      45.636  31.064  28.500  1.00  0.00     0.037 A 
BRANCH  56  70
ATOM     70  C   UNL A   1      39.944  28.878  29.489  1.00  0.00     0.064 A 
ATOM     71  C   UNL A   1      38.983  29.403  28.611  1.00  0.00     0.173 A 
ATOM     72  C   UNL A   1      39.547  28.598  30.805  1.00  0.00     0.173 A 
ATOM     73  F   UNL A   1      39.316  29.702  27.347  1.00  0.00    -0.203 F 
ATOM     74  C   UNL A   1      37.687  29.671  29.045  1.00  0.00     0.198 A 
ATOM     75  C   UNL A   1      38.242  28.839  31.227  1.00  0.00     0.198 A 
ATOM     76  F   UNL A   1      40.425  28.090  31.683  1.00  0.00    -0.203 F 
ATOM     77  F   UNL A   1      36.803  30.226  28.205  1.00  0.00    -0.200 F 
ATOM     78  C   UNL A   1      37.316  29.385  30.350  1.00  0.00     0.200 A 
ATOM     79  F   UNL A   1      37.882  28.553  32.486  1.00  0.00    -0.200 F 
ATOM     80  F   UNL A   1      36.069  29.644  30.766  1.00  0.00    -0.200 F 
ENDBRANCH  56  70
BRANCH  57  81
ATOM     81  C   UNL A   1      49.051  26.732  26.008  1.00  0.00     0.064 A 
ATOM     82  C   UNL A   1      50.012  26.121  26.826  1.00  0.00     0.173 A 
ATOM     83  C   UNL A   1      49.406  27.021  24.684  1.00  0.00     0.173 A 
ATOM     84  F   UNL A   1      49.723  25.843  28.106  1.00  0.00    -0.203 F 
ATOM     85  C   UNL A   1      51.283  25.820  26.341  1.00  0.00     0.198 A 
ATOM     86  C   UNL A   1      50.670  26.700  24.194  1.00  0.00     0.198 A 
ATOM     87  F   UNL A   1      48.519  27.600  23.862  1.00  0.00    -0.203 F 
ATOM     88  F   UNL A   1      52.193  25.263  27.152  1.00  0.00    -0.200 F 
ATOM     89  C   UNL A   1      51.609  26.105  25.023  1.00  0.00     0.200 A 
ATOM     90  F   UNL A   1      50.978  26.966  22.917  1.00  0.00    -0.200 F 
ATOM     91  F   UNL A   1      52.829  25.809  24.554  1.00  0.00    -0.200 F 
ENDBRANCH  57  81
BRANCH  69  92
ATOM     92  C   UNL A   1      46.180  32.427  28.798  1.00  0.00     0.064 A 
ATOM     93  C   UNL A   1      46.822  32.709  30.013  1.00  0.00     0.173 A 
ATOM     94  C   UNL A   1      46.095  33.450  27.841  1.00  0.00     0.173 A 
ATOM     95  F   UNL A   1      46.912  31.767  30.963  1.00  0.00    -0.203 F 
ATOM     96  C   UNL A   1      47.345  33.974  30.264  1.00  0.00     0.198 A 
ATOM     97  C   UNL A   1      46.641  34.706  28.089  1.00  0.00     0.198 A 
ATOM     98  F   UNL A   1      45.494  33.224  26.663  1.00  0.00    -0.203 F 
ATOM     99  F   UNL A   1      47.922  34.234  31.446  1.00  0.00    -0.200 F 
ATOM    100  C   UNL A   1      47.260  34.968  29.301  1.00  0.00     0.200 A 
ATOM    101  F   UNL A   1      46.565  35.663  27.154  1.00  0.00    -0.200 F 
ATOM    102  F   UNL A   1      47.769  36.184  29.545  1.00  0.00    -0.200 F 
ENDBRANCH  69  92
ENDBRANCH  43  44
ENDBRANCH  35  38
ENDBRANCH  33  34
ENDBRANCH   1  33
TORSDOF 12
ENDMDL
MODEL 3
REMARK VINA RESULT:     -13.8      1.065      2.070
REMARK SMILES C[N@@H+]1CC2(CCN(C(=O)c3cc(-c4ccncc4)n[nH]3)CC2)C[C@H]1C(=O)NCCCNC(=O)c1ccc(-c2c3nc(c(-c4c(F)c(F)c(F)c(F)c4F)c4ccc([nH]4)c(-c4c(F)c(F)c(F)c(F)c4F)c4nc(c(-c5c(F)c(F)c(F)c(F)c5F)c5ccc2[nH]5)C=C4)C=C3)cc1
REMARK SMILES IDX 29 1 28 2 27 3 25 4 26 5 24 7 1 8 2 9 3 10 4 12 23 13 5 14
REMARK SMILES IDX 22 15 6 16 21 17 7 18 8 19 9 20 10 21 11 22 20 23 12 24
REMARK SMILES IDX 19 25 13 27 14 28 18 29 15 30 17 31 16 32 30 33 31 34 32 35
REMARK SMILES IDX 33 37 34 38 35 39 96 40 36 41 95 42 37 43 38 44 39 45 89 46
REMARK SMILES IDX 40 47 94 48 88 49 90 50 41 51 93 52 87 53 86 54 42 56 74 57
REMARK SMILES IDX 54 58 73 59 55 60 58 61 72 62 91 63 56 64 57 65 71 67 92 68
REMARK SMILES IDX 59 69 43 70 44 71 52 72 45 73 46 74 50 75 53 76 47 77 48 78
REMARK SMILES IDX 51 79 49 80 75 81 76 82 84 83 77 84 78 85 82 86 85 87 79 88
REMARK SMILES IDX 80 89 83 90 81 91 60 92 61 93 69 94 62 95 63 96 67 97 70 98
REMARK SMILES IDX 64 99 65 100 68 101 66 102
REMARK H PARENT 27 6 2 11 20 26 31 36 90 55 58 66
REMARK Flexibility Score: inf
ROOT
ATOM      1  C   UNL A   1      31.347  32.385  26.733  1.00  0.00     0.042 C 
ENDROOT
BRANCH   1   2
ATOM      2  C   UNL A   1      31.563  31.010  26.119  1.00  0.00     0.118 C 
BRANCH   2   3
ATOM      3  N   UNL A   1      32.639  30.243  26.681  1.00  0.00    -0.351 N 
ATOM      4  C   UNL A   1      32.892  28.904  26.592  1.00  0.00     0.278 C 
ATOM      5  O   UNL A   1      34.002  28.541  27.005  1.00  0.00    -0.268 OA
ATOM      6  H   UNL A   1      33.292  30.759  27.208  1.00  0.00     0.163 HD
BRANCH   4   7
ATOM      7  C   UNL A   1      31.894  27.841  26.033  1.00  0.00     0.274 C 
ATOM      8  C   UNL A   1      30.664  28.077  23.970  1.00  0.00     0.333 C 
ATOM      9  N   UNL A   1      31.970  27.769  24.558  1.00  0.00    -0.327 N 
ATOM     10  C   UNL A   1      32.446  26.434  24.185  1.00  0.00     0.269 C 
ATOM     11  H   UNL A   1      32.626  28.462  24.197  1.00  0.00     0.348 HD
ATOM     12  C   UNL A   1      32.269  25.473  25.381  1.00  0.00     0.029 C 
ATOM     13  C   UNL A   1      31.940  26.408  26.567  1.00  0.00     0.088 C 
ATOM     14  C   UNL A   1      33.508  24.614  25.737  1.00  0.00     0.034 C 
ATOM     15  C   UNL A   1      31.154  24.435  25.049  1.00  0.00     0.034 C 
ATOM     16  C   UNL A   1      33.957  23.801  24.546  1.00  0.00     0.120 C 
ATOM     17  C   UNL A   1      31.590  23.403  23.970  1.00  0.00     0.120 C 
ATOM     18  N   UNL A   1      32.916  22.836  24.233  1.00  0.00    -0.337 N 
ATOM     19  C   UNL A   1      33.200  21.504  23.933  1.00  0.00     0.271 C 
ATOM     20  O   UNL A   1      32.451  20.821  23.232  1.00  0.00    -0.267 OA
BRANCH  19  21
ATOM     21  C   UNL A   1      34.430  20.965  24.459  1.00  0.00     0.123 A 
ATOM     22  C   UNL A   1      35.625  21.571  24.803  1.00  0.00     0.064 A 
ATOM     23  N   UNL A   1      34.620  19.644  24.745  1.00  0.00    -0.272 N 
ATOM     24  C   UNL A   1      36.517  20.518  25.123  1.00  0.00     0.093 A 
ATOM     25  N   UNL A   1      35.894  19.332  25.051  1.00  0.00    -0.175 NA
ATOM     26  H   UNL A   1      33.893  18.980  24.729  1.00  0.00     0.190 HD
BRANCH  24  27
ATOM     27  C   UNL A   1      37.933  20.636  25.447  1.00  0.00     0.005 A 
ATOM     28  C   UNL A   1      38.757  19.511  25.434  1.00  0.00     0.030 A 
ATOM     29  C   UNL A   1      38.473  21.872  25.808  1.00  0.00     0.030 A 
ATOM     30  C   UNL A   1      40.087  19.669  25.782  1.00  0.00     0.111 A 
ATOM     31  C   UNL A   1      39.814  21.923  26.153  1.00  0.00     0.111 A 
ATOM     32  N   UNL A   1      40.632  20.848  26.150  1.00  0.00    -0.265 NA
ENDBRANCH  24  27
ENDBRANCH  19  21
ENDBRANCH   4   7
ENDBRANCH   2   3
ENDBRANCH   1   2
BRANCH   1  33
ATOM     33  C   UNL A   1      32.624  33.018  27.263  1.00  0.00     0.118 C 
BRANCH  33  34
ATOM     34  N   UNL A   1      32.428  34.399  27.705  1.00  0.00    -0.352 N 
ATOM     35  C   UNL A   1      33.049  35.132  28.688  1.00  0.00     0.251 C 
ATOM     36  H   UNL A   1      31.731  34.889  27.211  1.00  0.00     0.163 HD
ATOM     37  O   UNL A   1      32.604  36.239  28.982  1.00  0.00    -0.269 OA
BRANCH  35  38
ATOM     38  C   UNL A   1      34.225  34.602  29.419  1.00  0.00     0.039 A 
ATOM     39  C   UNL A   1      34.045  34.085  30.707  1.00  0.00     0.014 A 
ATOM     40  C   UNL A   1      35.503  34.632  28.863  1.00  0.00     0.014 A 
ATOM     41  C   UNL A   1      35.127  33.531  31.398  1.00  0.00     0.010 A 
ATOM     42  C   UNL A   1      36.558  33.993  29.506  1.00  0.00     0.010 A 
ATOM     43  C   UNL A   1      36.385  33.442  30.783  1.00  0.00    -0.014 A 
BRANCH  43  44
ATOM     44  C   UNL A   1      37.545  32.802  31.453  1.00  0.00     0.031 A 
ATOM     45  C   UNL A   1      38.257  31.657  30.785  1.00  0.00     0.074 A 
ATOM     46  C   UNL A   1      37.894  33.180  32.697  1.00  0.00     0.049 A 
ATOM     47  N   UNL A   1      39.190  30.870  31.257  1.00  0.00    -0.248 NA
ATOM     48  C   UNL A   1      37.829  31.324  29.417  1.00  0.00     0.031 C 
ATOM     49  C   UNL A   1      37.249  34.239  33.474  1.00  0.00     0.029 A 
ATOM     50  N   UNL A   1      38.870  32.700  33.535  1.00  0.00    -0.354 N 
ATOM     51  C   UNL A   1      39.426  29.928  30.265  1.00  0.00     0.074 A 
ATOM     52  C   UNL A   1      38.510  30.214  29.182  1.00  0.00     0.031 C 
ATOM     53  C   UNL A   1      37.864  34.349  34.663  1.00  0.00     0.029 A 
ATOM     54  C   UNL A   1      38.919  33.344  34.748  1.00  0.00     0.049 A 
ATOM     55  H   UNL A   1      39.478  31.966  33.290  1.00  0.00     0.167 HD
ATOM     56  C   UNL A   1      40.335  28.925  30.251  1.00  0.00     0.037 A 
ATOM     57  C   UNL A   1      39.723  33.142  35.808  1.00  0.00     0.037 A 
ATOM     58  C   UNL A   1      41.291  28.687  31.300  1.00  0.00     0.049 A 
ATOM     59  C   UNL A   1      40.759  32.055  35.748  1.00  0.00     0.074 A 
ATOM     60  C   UNL A   1      42.319  27.762  31.339  1.00  0.00     0.029 A 
ATOM     61  N   UNL A   1      41.337  29.390  32.495  1.00  0.00    -0.354 N 
ATOM     62  N   UNL A   1      41.014  31.208  34.781  1.00  0.00    -0.248 NA
ATOM     63  C   UNL A   1      41.623  31.899  36.927  1.00  0.00     0.031 C 
ATOM     64  C   UNL A   1      42.972  27.887  32.571  1.00  0.00     0.029 A 
ATOM     65  C   UNL A   1      42.370  28.911  33.284  1.00  0.00     0.049 A 
ATOM     66  H   UNL A   1      40.727  30.121  32.745  1.00  0.00     0.167 HD
ATOM     67  C   UNL A   1      42.079  30.436  35.221  1.00  0.00     0.074 A 
ATOM     68  C   UNL A   1      42.431  30.921  36.540  1.00  0.00     0.031 C 
ATOM     69  C   UNL A   1      42.709  29.415  34.589  1.00  0.00     0.037 A 
BRANCH  56  70
ATOM     70  C   UNL A   1      40.343  28.015  29.058  1.00  0.00     0.064 A 
ATOM     71  C   UNL A   1      39.621  26.811  29.043  1.00  0.00     0.173 A 
ATOM     72  C   UNL A   1      41.071  28.358  27.909  1.00  0.00     0.173 A 
ATOM     73  F   UNL A   1      38.921  26.432  30.122  1.00  0.00    -0.203 F 
ATOM     74  C   UNL A   1      39.659  25.968  27.935  1.00  0.00     0.198 A 
ATOM     75  C   UNL A   1      41.082  27.526  26.793  1.00  0.00     0.198 A 
ATOM     76  F   UNL A   1      41.774  29.500  27.869  1.00  0.00    -0.203 F 
ATOM     77  F   UNL A   1      39.008  24.797  27.966  1.00  0.00    -0.200 F 
ATOM     78  C   UNL A   1      40.384  26.328  26.810  1.00  0.00     0.200 A 
ATOM     79  F   UNL A   1      41.776  27.880  25.701  1.00  0.00    -0.200 F 
ATOM     80  F   UNL A   1      40.420  25.515  25.746  1.00  0.00    -0.200 F 
ENDBRANCH  56  70
BRANCH  57  81
ATOM     81  C   UNL A   1      39.608  34.021  36.999  1.00  0.00     0.064 A 
ATOM     82  C   UNL A   1      38.833  33.628  38.099  1.00  0.00     0.173 A 
ATOM     83  C   UNL A   1      40.273  35.253  37.072  1.00  0.00     0.173 A 
ATOM     84  F   UNL A   1      38.164  32.466  38.064  1.00  0.00    -0.203 F 
ATOM     85  C   UNL A   1      38.719  34.439  39.225  1.00  0.00     0.198 A 
ATOM     86  C   UNL A   1      40.175  36.054  38.208  1.00  0.00     0.198 A 
ATOM     87  F   UNL A   1      41.029  35.670  36.047  1.00  0.00    -0.203 F 
ATOM     88  F   UNL A   1      37.948  34.053  40.251  1.00  0.00    -0.200 F 
ATOM     89  C   UNL A   1      39.395  35.649  39.281  1.00  0.00     0.200 A 
ATOM     90  F   UNL A   1      40.839  37.217  38.264  1.00  0.00    -0.200 F 
ATOM     91  F   UNL A   1      39.291  36.426  40.368  1.00  0.00    -0.200 F 
ENDBRANCH  57  81
BRANCH  69  92
ATOM     92  C   UNL A   1      43.864  28.780  35.302  1.00  0.00     0.064 A 
ATOM     93  C   UNL A   1      43.682  27.679  36.152  1.00  0.00     0.173 A 
ATOM     94  C   UNL A   1      45.169  29.249  35.097  1.00  0.00     0.173 A 
ATOM     95  F   UNL A   1      42.449  27.207  36.389  1.00  0.00    -0.203 F 
ATOM     96  C   UNL A   1      44.767  27.083  36.787  1.00  0.00     0.198 A 
ATOM     97  C   UNL A   1      46.254  28.635  35.716  1.00  0.00     0.198 A 
ATOM     98  F   UNL A   1      45.392  30.296  34.288  1.00  0.00    -0.203 F 
ATOM     99  F   UNL A   1      44.569  26.057  37.625  1.00  0.00    -0.200 F 
ATOM    100  C   UNL A   1      46.052  27.557  36.563  1.00  0.00     0.200 A 
ATOM    101  F   UNL A   1      47.496  29.088  35.492  1.00  0.00    -0.200 F 
ATOM    102  F   UNL A   1      47.097  26.977  37.172  1.00  0.00    -0.200 F 
ENDBRANCH  69  92
ENDBRANCH  43  44
ENDBRANCH  35  38
ENDBRANCH  33  34
ENDBRANCH   1  33
TORSDOF 12
ENDMDL
