MODEL 1
REMARK VINA RESULT:     -13.0      0.000      0.000
REMARK SMILES Cc1cc(C(=O)N2[C@@H](C(=O)NCCCNC(=O)c3ccc(-c4c5nc(c(-c6c(F)c(F)c(F)c(F)c6F)c6ccc([nH]6)c(-c6c(F)c(F)c(F)c(F)c6F)c6nc(c(-c7c(F)c(F)c(F)c(F)c7F)c7ccc4[nH]7)C=C6)C=C5)cc3)C[C@H]3CCCC[C@H]32)c(C)s1
REMARK SMILES IDX 13 1 12 2 11 3 9 4 10 5 8 7 7 8 87 9 81 10 82 11 86 12 83 13
REMARK SMILES IDX 85 14 84 15 5 16 6 17 4 18 1 19 2 20 3 21 90 22 88 23 89 24
REMARK SMILES IDX 14 25 15 26 16 27 17 29 18 30 19 31 80 32 20 33 79 34 21 35
REMARK SMILES IDX 22 36 23 37 73 38 24 39 78 40 72 41 74 42 25 43 77 44 71 45
REMARK SMILES IDX 70 46 26 48 58 49 38 50 57 51 39 52 42 53 56 54 75 55 40 56
REMARK SMILES IDX 41 57 55 59 76 60 43 61 27 62 28 63 36 64 29 65 30 66 34 67
REMARK SMILES IDX 37 68 31 69 32 70 35 71 33 72 59 73 60 74 68 75 61 76 62 77
REMARK SMILES IDX 66 78 69 79 63 80 64 81 67 82 65 83 44 84 45 85 53 86 46 87
REMARK SMILES IDX 47 88 51 89 54 90 48 91 49 92 52 93 50 94
REMARK H PARENT 11 6 15 28 74 47 42 58
REMARK Flexibility Score: inf
ROOT
ATOM      1  C   UNL A   1      32.618  29.601  25.428  1.00  0.00     0.042 C 
ENDROOT
BRANCH   1   2
ATOM      2  C   UNL A   1      33.699  28.527  25.480  1.00  0.00     0.117 C 
BRANCH   2   3
ATOM      3  N   UNL A   1      33.228  27.265  26.024  1.00  0.00    -0.354 N 
ATOM      4  C   UNL A   1      33.478  25.963  25.735  1.00  0.00     0.242 C 
ATOM      5  O   UNL A   1      32.946  25.145  26.501  1.00  0.00    -0.273 OA
ATOM      6  H   UNL A   1      32.589  27.380  26.762  1.00  0.00     0.163 HD
BRANCH   4   7
ATOM      7  C   UNL A   1      34.284  25.426  24.525  1.00  0.00     0.175 C 
ATOM      8  N   UNL A   1      33.638  24.770  23.381  1.00  0.00    -0.323 N 
ATOM      9  C   UNL A   1      34.033  23.367  23.287  1.00  0.00     0.089 C 
ATOM     10  C   UNL A   1      35.280  24.366  25.053  1.00  0.00     0.041 C 
ATOM     11  C   UNL A   1      35.441  23.390  23.883  1.00  0.00     0.014 C 
ATOM     12  C   UNL A   1      33.079  22.449  24.056  1.00  0.00     0.025 C 
ATOM     13  C   UNL A   1      35.995  22.017  24.250  1.00  0.00     0.006 C 
ATOM     14  C   UNL A   1      33.663  21.056  24.259  1.00  0.00     0.002 C 
ATOM     15  C   UNL A   1      35.000  21.128  24.988  1.00  0.00     0.000 C 
BRANCH   8  16
ATOM     16  C   UNL A   1      32.968  25.367  22.319  1.00  0.00     0.255 C 
ATOM     17  O   UNL A   1      33.278  25.130  21.154  1.00  0.00    -0.269 OA
BRANCH  16  18
ATOM     18  C   UNL A   1      31.884  26.300  22.629  1.00  0.00     0.053 A 
ATOM     19  C   UNL A   1      30.237  29.702  22.246  1.00  0.00     0.056 C 
ATOM     20  C   UNL A   1      30.657  28.305  22.548  1.00  0.00     0.003 A 
ATOM     21  C   UNL A   1      31.822  27.666  22.185  1.00  0.00     0.029 A 
ATOM     22  S   UNL A   1      29.622  27.264  23.412  1.00  0.00    -0.145 S 
ATOM     23  C   UNL A   1      30.705  25.941  23.269  1.00  0.00     0.014 A 
ATOM     24  C   UNL A   1      30.278  24.610  23.795  1.00  0.00     0.057 C 
ENDBRANCH  16  18
ENDBRANCH   8  16
ENDBRANCH   4   7
ENDBRANCH   2   3
ENDBRANCH   1   2
BRANCH   1  25
ATOM     25  C   UNL A   1      32.206  30.153  26.785  1.00  0.00     0.118 C 
BRANCH  25  26
ATOM     26  N   UNL A   1      32.363  31.594  26.876  1.00  0.00    -0.352 N 
ATOM     27  C   UNL A   1      33.310  32.376  27.491  1.00  0.00     0.251 C 
ATOM     28  H   UNL A   1      31.663  32.105  26.411  1.00  0.00     0.163 HD
ATOM     29  O   UNL A   1      33.094  33.584  27.588  1.00  0.00    -0.269 OA
BRANCH  27  30
ATOM     30  C   UNL A   1      34.575  31.827  28.041  1.00  0.00     0.039 A 
ATOM     31  C   UNL A   1      34.608  30.471  28.396  1.00  0.00     0.014 A 
ATOM     32  C   UNL A   1      35.682  32.626  28.332  1.00  0.00     0.014 A 
ATOM     33  C   UNL A   1      35.738  29.923  29.013  1.00  0.00     0.010 A 
ATOM     34  C   UNL A   1      36.843  32.063  28.867  1.00  0.00     0.010 A 
ATOM     35  C   UNL A   1      36.871  30.714  29.248  1.00  0.00    -0.014 A 
BRANCH  35  36
ATOM     36  C   UNL A   1      38.052  30.176  29.976  1.00  0.00     0.031 A 
ATOM     37  C   UNL A   1      38.281  30.559  31.416  1.00  0.00     0.074 A 
ATOM     38  C   UNL A   1      38.937  29.377  29.351  1.00  0.00     0.049 A 
ATOM     39  N   UNL A   1      39.295  30.286  32.199  1.00  0.00    -0.248 NA
ATOM     40  C   UNL A   1      37.245  31.390  32.051  1.00  0.00     0.031 C 
ATOM     41  C   UNL A   1      38.859  28.952  27.954  1.00  0.00     0.029 A 
ATOM     42  N   UNL A   1      40.083  28.779  29.818  1.00  0.00    -0.354 N 
ATOM     43  C   UNL A   1      39.042  30.950  33.393  1.00  0.00     0.074 A 
ATOM     44  C   UNL A   1      37.793  31.661  33.226  1.00  0.00     0.031 C 
ATOM     45  C   UNL A   1      39.893  28.138  27.684  1.00  0.00     0.029 A 
ATOM     46  C   UNL A   1      40.721  28.006  28.881  1.00  0.00     0.049 A 
ATOM     47  H   UNL A   1      40.414  28.895  30.738  1.00  0.00     0.167 HD
ATOM     48  C   UNL A   1      39.773  30.956  34.534  1.00  0.00     0.037 A 
ATOM     49  C   UNL A   1      41.843  27.268  28.978  1.00  0.00     0.037 A 
ATOM     50  C   UNL A   1      40.973  30.190  34.735  1.00  0.00     0.049 A 
ATOM     51  C   UNL A   1      42.588  27.218  30.284  1.00  0.00     0.074 A 
ATOM     52  C   UNL A   1      41.757  30.091  35.872  1.00  0.00     0.029 A 
ATOM     53  N   UNL A   1      41.548  29.368  33.778  1.00  0.00    -0.354 N 
ATOM     54  N   UNL A   1      42.331  27.842  31.407  1.00  0.00    -0.248 NA
ATOM     55  C   UNL A   1      43.777  26.354  30.334  1.00  0.00     0.031 C 
ATOM     56  C   UNL A   1      42.811  29.211  35.601  1.00  0.00     0.029 A 
ATOM     57  C   UNL A   1      42.671  28.749  34.302  1.00  0.00     0.049 A 
ATOM     58  H   UNL A   1      41.209  29.243  32.863  1.00  0.00     0.167 HD
ATOM     59  C   UNL A   1      43.312  27.435  32.300  1.00  0.00     0.074 A 
ATOM     60  C   UNL A   1      44.162  26.501  31.595  1.00  0.00     0.031 C 
ATOM     61  C   UNL A   1      43.493  27.809  33.590  1.00  0.00     0.037 A 
BRANCH  48  62
ATOM     62  C   UNL A   1      39.283  31.816  35.659  1.00  0.00     0.064 A 
ATOM     63  C   UNL A   1      38.381  31.330  36.615  1.00  0.00     0.173 A 
ATOM     64  C   UNL A   1      39.735  33.137  35.792  1.00  0.00     0.173 A 
ATOM     65  F   UNL A   1      37.908  30.078  36.520  1.00  0.00    -0.203 F 
ATOM     66  C   UNL A   1      37.926  32.144  37.648  1.00  0.00     0.198 A 
ATOM     67  C   UNL A   1      39.296  33.941  36.839  1.00  0.00     0.198 A 
ATOM     68  F   UNL A   1      40.602  33.646  34.904  1.00  0.00    -0.203 F 
ATOM     69  F   UNL A   1      37.027  31.674  38.524  1.00  0.00    -0.200 F 
ATOM     70  C   UNL A   1      38.387  33.447  37.763  1.00  0.00     0.200 A 
ATOM     71  F   UNL A   1      39.746  35.198  36.953  1.00  0.00    -0.200 F 
ATOM     72  F   UNL A   1      37.947  34.230  38.757  1.00  0.00    -0.200 F 
ENDBRANCH  48  62
BRANCH  49  73
ATOM     73  C   UNL A   1      42.306  26.473  27.816  1.00  0.00     0.064 A 
ATOM     74  C   UNL A   1      41.785  25.195  27.575  1.00  0.00     0.173 A 
ATOM     75  C   UNL A   1      43.272  26.966  26.930  1.00  0.00     0.173 A 
ATOM     76  F   UNL A   1      40.874  24.675  28.411  1.00  0.00    -0.203 F 
ATOM     77  C   UNL A   1      42.223  24.433  26.495  1.00  0.00     0.198 A 
ATOM     78  C   UNL A   1      43.697  26.210  25.839  1.00  0.00     0.198 A 
ATOM     79  F   UNL A   1      43.798  28.184  27.121  1.00  0.00    -0.203 F 
ATOM     80  F   UNL A   1      41.734  23.200  26.305  1.00  0.00    -0.200 F 
ATOM     81  C   UNL A   1      43.176  24.942  25.626  1.00  0.00     0.200 A 
ATOM     82  F   UNL A   1      44.613  26.707  24.997  1.00  0.00    -0.200 F 
ATOM     83  F   UNL A   1      43.598  24.208  24.587  1.00  0.00    -0.200 F 
ENDBRANCH  49  73
BRANCH  61  84
ATOM     84  C   UNL A   1      44.636  27.183  34.327  1.00  0.00     0.064 A 
ATOM     85  C   UNL A   1      45.900  27.786  34.359  1.00  0.00     0.173 A 
ATOM     86  C   UNL A   1      44.453  25.988  35.038  1.00  0.00     0.173 A 
ATOM     87  F   UNL A   1      46.122  28.922  33.681  1.00  0.00    -0.203 F 
ATOM     88  C   UNL A   1      46.949  27.205  35.065  1.00  0.00     0.198 A 
ATOM     89  C   UNL A   1      45.500  25.419  35.756  1.00  0.00     0.198 A 
ATOM     90  F   UNL A   1      43.259  25.377  35.037  1.00  0.00    -0.203 F 
ATOM     91  F   UNL A   1      48.159  27.780  35.056  1.00  0.00    -0.200 F 
ATOM     92  C   UNL A   1      46.748  26.025  35.766  1.00  0.00     0.200 A 
ATOM     93  F   UNL A   1      45.305  24.281  36.435  1.00  0.00    -0.200 F 
ATOM     94  F   UNL A   1      47.759  25.468  36.445  1.00  0.00    -0.200 F 
ENDBRANCH  61  84
ENDBRANCH  35  36
ENDBRANCH  27  30
ENDBRANCH  25  26
ENDBRANCH   1  25
TORSDOF 12
ENDMDL
MODEL 2
REMARK VINA RESULT:     -12.9      0.835      2.223
REMARK SMILES Cc1cc(C(=O)N2[C@@H](C(=O)NCCCNC(=O)c3ccc(-c4c5nc(c(-c6c(F)c(F)c(F)c(F)c6F)c6ccc([nH]6)c(-c6c(F)c(F)c(F)c(F)c6F)c6nc(c(-c7c(F)c(F)c(F)c(F)c7F)c7ccc4[nH]7)C=C6)C=C5)cc3)C[C@H]3CCCC[C@H]32)c(C)s1
REMARK SMILES IDX 13 1 12 2 11 3 9 4 10 5 8 7 7 8 87 9 81 10 82 11 86 12 83 13
REMARK SMILES IDX 85 14 84 15 5 16 6 17 4 18 1 19 2 20 3 21 90 22 88 23 89 24
REMARK SMILES IDX 14 25 15 26 16 27 17 29 18 30 19 31 80 32 20 33 79 34 21 35
REMARK SMILES IDX 22 36 23 37 73 38 24 39 78 40 72 41 74 42 25 43 77 44 71 45
REMARK SMILES IDX 70 46 26 48 58 49 38 50 57 51 39 52 42 53 56 54 75 55 40 56
REMARK SMILES IDX 41 57 55 59 76 60 43 61 27 62 28 63 36 64 29 65 30 66 34 67
REMARK SMILES IDX 37 68 31 69 32 70 35 71 33 72 59 73 60 74 68 75 61 76 62 77
REMARK SMILES IDX 66 78 69 79 63 80 64 81 67 82 65 83 44 84 45 85 53 86 46 87
REMARK SMILES IDX 47 88 51 89 54 90 48 91 49 92 52 93 50 94
REMARK H PARENT 11 6 15 28 74 47 42 58
REMARK Flexibility Score: inf
ROOT
ATOM      1  C   UNL A   1      31.626  29.041  26.372  1.00  0.00     0.042 C 
ENDROOT
BRANCH   1   2
ATOM      2  C   UNL A   1      31.771  27.838  27.298  1.00  0.00     0.117 C 
BRANCH   2   3
ATOM      3  N   UNL A   1      31.266  26.604  26.721  1.00  0.00    -0.354 N 
ATOM      4  C   UNL A   1      31.806  25.642  25.933  1.00  0.00     0.242 C 
ATOM      5  O   UNL A   1      31.072  24.665  25.719  1.00  0.00    -0.273 OA
ATOM      6  H   UNL A   1      30.325  26.430  26.952  1.00  0.00     0.163 HD
BRANCH   4   7
ATOM      7  C   UNL A   1      33.192  25.689  25.240  1.00  0.00     0.175 C 
ATOM      8  N   UNL A   1      33.400  25.204  23.869  1.00  0.00    -0.323 N 
ATOM      9  C   UNL A   1      34.286  24.043  23.850  1.00  0.00     0.089 C 
ATOM     10  C   UNL A   1      34.175  24.847  26.089  1.00  0.00     0.041 C 
ATOM     11  C   UNL A   1      35.175  24.299  25.067  1.00  0.00     0.014 C 
ATOM     12  C   UNL A   1      33.510  22.727  23.950  1.00  0.00     0.025 C 
ATOM     13  C   UNL A   1      35.982  23.089  25.527  1.00  0.00     0.006 C 
ATOM     14  C   UNL A   1      34.418  21.550  24.282  1.00  0.00     0.002 C 
ATOM     15  C   UNL A   1      35.174  21.795  25.583  1.00  0.00     0.000 C 
BRANCH   8  16
ATOM     16  C   UNL A   1      33.088  25.848  22.678  1.00  0.00     0.255 C 
ATOM     17  O   UNL A   1      33.653  25.556  21.627  1.00  0.00    -0.269 OA
BRANCH  16  18
ATOM     18  C   UNL A   1      32.071  26.899  22.712  1.00  0.00     0.053 A 
ATOM     19  C   UNL A   1      28.455  27.991  23.126  1.00  0.00     0.056 C 
ATOM     20  C   UNL A   1      29.925  27.837  22.944  1.00  0.00     0.003 A 
ATOM     21  C   UNL A   1      30.658  26.674  22.864  1.00  0.00     0.029 A 
ATOM     22  S   UNL A   1      30.930  29.210  22.855  1.00  0.00    -0.145 S 
ATOM     23  C   UNL A   1      32.354  28.258  22.751  1.00  0.00     0.014 A 
ATOM     24  C   UNL A   1      33.676  28.953  22.740  1.00  0.00     0.057 C 
ENDBRANCH  16  18
ENDBRANCH   8  16
ENDBRANCH   4   7
ENDBRANCH   2   3
ENDBRANCH   1   2
BRANCH   1  25
ATOM     25  C   UNL A   1      32.923  29.787  26.094  1.00  0.00     0.118 C 
BRANCH  25  26
ATOM     26  N   UNL A   1      32.867  31.180  26.503  1.00  0.00    -0.352 N 
ATOM     27  C   UNL A   1      33.631  31.909  27.380  1.00  0.00     0.251 C 
ATOM     28  H   UNL A   1      32.149  31.696  26.072  1.00  0.00     0.163 HD
ATOM     29  O   UNL A   1      33.239  33.031  27.700  1.00  0.00    -0.269 OA
BRANCH  27  30
ATOM     30  C   UNL A   1      34.902  31.403  27.955  1.00  0.00     0.039 A 
ATOM     31  C   UNL A   1      34.946  30.072  28.392  1.00  0.00     0.014 A 
ATOM     32  C   UNL A   1      36.006  32.225  28.189  1.00  0.00     0.014 A 
ATOM     33  C   UNL A   1      36.083  29.569  29.035  1.00  0.00     0.010 A 
ATOM     34  C   UNL A   1      37.174  31.702  28.751  1.00  0.00     0.010 A 
ATOM     35  C   UNL A   1      37.213  30.380  29.214  1.00  0.00    -0.014 A 
BRANCH  35  36
ATOM     36  C   UNL A   1      38.401  29.895  29.967  1.00  0.00     0.031 A 
ATOM     37  C   UNL A   1      38.619  30.342  31.390  1.00  0.00     0.074 A 
ATOM     38  C   UNL A   1      39.303  29.087  29.378  1.00  0.00     0.049 A 
ATOM     39  N   UNL A   1      39.636  30.121  32.186  1.00  0.00    -0.248 NA
ATOM     40  C   UNL A   1      37.565  31.179  31.987  1.00  0.00     0.031 C 
ATOM     41  C   UNL A   1      39.237  28.603  27.999  1.00  0.00     0.029 A 
ATOM     42  N   UNL A   1      40.458  28.531  29.871  1.00  0.00    -0.354 N 
ATOM     43  C   UNL A   1      39.366  30.830  33.351  1.00  0.00     0.074 A 
ATOM     44  C   UNL A   1      38.105  31.509  33.151  1.00  0.00     0.031 C 
ATOM     45  C   UNL A   1      40.287  27.798  27.766  1.00  0.00     0.029 A 
ATOM     46  C   UNL A   1      41.113  27.731  28.969  1.00  0.00     0.049 A 
ATOM     47  H   UNL A   1      40.784  28.691  30.786  1.00  0.00     0.167 HD
ATOM     48  C   UNL A   1      40.094  30.896  34.491  1.00  0.00     0.037 A 
ATOM     49  C   UNL A   1      42.248  27.019  29.100  1.00  0.00     0.037 A 
ATOM     50  C   UNL A   1      41.307  30.162  34.727  1.00  0.00     0.049 A 
ATOM     51  C   UNL A   1      42.990  27.037  30.408  1.00  0.00     0.074 A 
ATOM     52  C   UNL A   1      42.089  30.125  35.869  1.00  0.00     0.029 A 
ATOM     53  N   UNL A   1      41.900  29.312  33.807  1.00  0.00    -0.354 N 
ATOM     54  N   UNL A   1      42.719  27.703  31.503  1.00  0.00    -0.248 NA
ATOM     55  C   UNL A   1      44.195  26.199  30.497  1.00  0.00     0.031 C 
ATOM     56  C   UNL A   1      43.160  29.254  35.637  1.00  0.00     0.029 A 
ATOM     57  C   UNL A   1      43.033  28.736  34.359  1.00  0.00     0.049 A 
ATOM     58  H   UNL A   1      41.567  29.142  32.897  1.00  0.00     0.167 HD
ATOM     59  C   UNL A   1      43.704  27.352  32.415  1.00  0.00     0.074 A 
ATOM     60  C   UNL A   1      44.573  26.405  31.751  1.00  0.00     0.031 C 
ATOM     61  C   UNL A   1      43.874  27.782  33.689  1.00  0.00     0.037 A 
BRANCH  48  62
ATOM     62  C   UNL A   1      39.584  31.793  35.578  1.00  0.00     0.064 A 
ATOM     63  C   UNL A   1      40.036  33.113  35.713  1.00  0.00     0.173 A 
ATOM     64  C   UNL A   1      38.619  31.333  36.486  1.00  0.00     0.173 A 
ATOM     65  F   UNL A   1      40.971  33.593  34.878  1.00  0.00    -0.203 F 
ATOM     66  C   UNL A   1      39.563  33.931  36.735  1.00  0.00     0.198 A 
ATOM     67  C   UNL A   1      38.131  32.160  37.492  1.00  0.00     0.198 A 
ATOM     68  F   UNL A   1      38.152  30.078  36.396  1.00  0.00    -0.203 F 
ATOM     69  F   UNL A   1      40.044  35.174  36.874  1.00  0.00    -0.200 F 
ATOM     70  C   UNL A   1      38.608  33.456  37.621  1.00  0.00     0.200 A 
ATOM     71  F   UNL A   1      37.203  31.703  38.344  1.00  0.00    -0.200 F 
ATOM     72  F   UNL A   1      38.154  34.244  38.604  1.00  0.00    -0.200 F 
ENDBRANCH  48  62
BRANCH  49  73
ATOM     73  C   UNL A   1      42.729  26.184  27.973  1.00  0.00     0.064 A 
ATOM     74  C   UNL A   1      43.587  26.722  27.004  1.00  0.00     0.173 A 
ATOM     75  C   UNL A   1      42.346  24.844  27.838  1.00  0.00     0.173 A 
ATOM     76  F   UNL A   1      43.961  28.008  27.083  1.00  0.00    -0.203 F 
ATOM     77  C   UNL A   1      44.033  25.953  25.933  1.00  0.00     0.198 A 
ATOM     78  C   UNL A   1      42.807  24.069  26.776  1.00  0.00     0.198 A 
ATOM     79  F   UNL A   1      41.527  24.287  28.742  1.00  0.00    -0.203 F 
ATOM     80  F   UNL A   1      44.825  26.500  25.001  1.00  0.00    -0.200 F 
ATOM     81  C   UNL A   1      43.646  24.625  25.822  1.00  0.00     0.200 A 
ATOM     82  F   UNL A   1      42.437  22.786  26.674  1.00  0.00    -0.200 F 
ATOM     83  F   UNL A   1      44.075  23.885  24.790  1.00  0.00    -0.200 F 
ENDBRANCH  49  73
BRANCH  61  84
ATOM     84  C   UNL A   1      45.026  27.209  34.454  1.00  0.00     0.064 A 
ATOM     85  C   UNL A   1      44.892  26.028  35.195  1.00  0.00     0.173 A 
ATOM     86  C   UNL A   1      46.283  27.828  34.415  1.00  0.00     0.173 A 
ATOM     87  F   UNL A   1      43.703  25.410  35.271  1.00  0.00    -0.203 F 
ATOM     88  C   UNL A   1      45.976  25.493  35.886  1.00  0.00     0.198 A 
ATOM     89  C   UNL A   1      47.368  27.283  35.094  1.00  0.00     0.198 A 
ATOM     90  F   UNL A   1      46.457  28.960  33.717  1.00  0.00    -0.203 F 
ATOM     91  F   UNL A   1      45.820  24.380  36.615  1.00  0.00    -0.200 F 
ATOM     92  C   UNL A   1      47.213  26.118  35.832  1.00  0.00     0.200 A 
ATOM     93  F   UNL A   1      48.564  27.884  35.039  1.00  0.00    -0.200 F 
ATOM     94  F   UNL A   1      48.254  25.602  36.497  1.00  0.00    -0.200 F 
ENDBRANCH  61  84
ENDBRANCH  35  36
ENDBRANCH  27  30
ENDBRANCH  25  26
ENDBRANCH   1  25
TORSDOF 12
ENDMDL
MODEL 3
REMARK VINA RESULT:     -12.9      3.431      8.365
REMARK SMILES Cc1cc(C(=O)N2[C@@H](C(=O)NCCCNC(=O)c3ccc(-c4c5nc(c(-c6c(F)c(F)c(F)c(F)c6F)c6ccc([nH]6)c(-c6c(F)c(F)c(F)c(F)c6F)c6nc(c(-c7c(F)c(F)c(F)c(F)c7F)c7ccc4[nH]7)C=C6)C=C5)cc3)C[C@H]3CCCC[C@H]32)c(C)s1
REMARK SMILES IDX 13 1 12 2 11 3 9 4 10 5 8 7 7 8 87 9 81 10 82 11 86 12 83 13
REMARK SMILES IDX 85 14 84 15 5 16 6 17 4 18 1 19 2 20 3 21 90 22 88 23 89 24
REMARK SMILES IDX 14 25 15 26 16 27 17 29 18 30 19 31 80 32 20 33 79 34 21 35
REMARK SMILES IDX 22 36 23 37 73 38 24 39 78 40 72 41 74 42 25 43 77 44 71 45
REMARK SMILES IDX 70 46 26 48 58 49 38 50 57 51 39 52 42 53 56 54 75 55 40 56
REMARK SMILES IDX 41 57 55 59 76 60 43 61 27 62 28 63 36 64 29 65 30 66 34 67
REMARK SMILES IDX 37 68 31 69 32 70 35 71 33 72 59 73 60 74 68 75 61 76 62 77
REMARK SMILES IDX 66 78 69 79 63 80 64 81 67 82 65 83 44 84 45 85 53 86 46 87
REMARK SMILES IDX 47 88 51 89 54 90 48 91 49 92 52 93 50 94
REMARK H PARENT 11 6 15 28 74 47 42 58
REMARK Flexibility Score: inf
ROOT
ATOM      1  C   UNL A   1      35.769  23.452  25.971  1.00  0.00     0.042 C 
ENDROOT
BRANCH   1   2
ATOM      2  C   UNL A   1      34.426  23.594  25.263  1.00  0.00     0.117 C 
BRANCH   2   3
ATOM      3  N   UNL A   1      34.489  24.425  24.073  1.00  0.00    -0.354 N 
ATOM      4  C   UNL A   1      33.740  25.452  23.601  1.00  0.00     0.242 C 
ATOM      5  O   UNL A   1      34.174  25.985  22.567  1.00  0.00    -0.273 OA
ATOM      6  H   UNL A   1      35.238  24.190  23.480  1.00  0.00     0.163 HD
BRANCH   4   7
ATOM      7  C   UNL A   1      32.394  25.955  24.182  1.00  0.00     0.175 C 
ATOM      8  N   UNL A   1      31.754  27.192  23.718  1.00  0.00    -0.323 N 
ATOM      9  C   UNL A   1      31.706  28.192  24.783  1.00  0.00     0.089 C 
ATOM     10  C   UNL A   1      32.589  26.179  25.701  1.00  0.00     0.041 C 
ATOM     11  C   UNL A   1      31.623  27.320  26.036  1.00  0.00     0.014 C 
ATOM     12  C   UNL A   1      32.938  29.100  24.774  1.00  0.00     0.025 C 
ATOM     13  C   UNL A   1      31.911  28.057  27.340  1.00  0.00     0.006 C 
ATOM     14  C   UNL A   1      33.071  29.899  26.064  1.00  0.00     0.002 C 
ATOM     15  C   UNL A   1      33.130  28.972  27.274  1.00  0.00     0.000 C 
BRANCH   8  16
ATOM     16  C   UNL A   1      31.012  27.389  22.560  1.00  0.00     0.255 C 
ATOM     17  O   UNL A   1      31.252  26.759  21.533  1.00  0.00    -0.269 OA
BRANCH  16  18
ATOM     18  C   UNL A   1      29.937  28.382  22.593  1.00  0.00     0.053 A 
ATOM     19  C   UNL A   1      28.501  31.739  21.543  1.00  0.00     0.056 C 
ATOM     20  C   UNL A   1      28.818  30.387  22.082  1.00  0.00     0.003 A 
ATOM     21  C   UNL A   1      29.992  29.676  21.968  1.00  0.00     0.029 A 
ATOM     22  S   UNL A   1      27.635  29.499  22.927  1.00  0.00    -0.145 S 
ATOM     23  C   UNL A   1      28.670  28.143  23.109  1.00  0.00     0.014 A 
ATOM     24  C   UNL A   1      28.121  26.908  23.744  1.00  0.00     0.057 C 
ENDBRANCH  16  18
ENDBRANCH   8  16
ENDBRANCH   4   7
ENDBRANCH   2   3
ENDBRANCH   1   2
BRANCH   1  25
ATOM     25  C   UNL A   1      36.983  23.657  25.076  1.00  0.00     0.118 C 
BRANCH  25  26
ATOM     26  N   UNL A   1      38.110  22.824  25.460  1.00  0.00    -0.352 N 
ATOM     27  C   UNL A   1      39.258  23.102  26.160  1.00  0.00     0.251 C 
ATOM     28  H   UNL A   1      38.037  21.889  25.164  1.00  0.00     0.163 HD
ATOM     29  O   UNL A   1      40.152  22.257  26.170  1.00  0.00    -0.269 OA
BRANCH  27  30
ATOM     30  C   UNL A   1      39.463  24.373  26.900  1.00  0.00     0.039 A 
ATOM     31  C   UNL A   1      40.168  25.403  26.263  1.00  0.00     0.014 A 
ATOM     32  C   UNL A   1      39.092  24.537  28.236  1.00  0.00     0.014 A 
ATOM     33  C   UNL A   1      40.480  26.583  26.947  1.00  0.00     0.010 A 
ATOM     34  C   UNL A   1      39.325  25.748  28.893  1.00  0.00     0.010 A 
ATOM     35  C   UNL A   1      40.053  26.770  28.269  1.00  0.00    -0.014 A 
BRANCH  35  36
ATOM     36  C   UNL A   1      40.443  27.979  29.044  1.00  0.00     0.031 A 
ATOM     37  C   UNL A   1      41.848  28.105  29.577  1.00  0.00     0.074 A 
ATOM     38  C   UNL A   1      39.544  28.947  29.302  1.00  0.00     0.049 A 
ATOM     39  N   UNL A   1      42.362  29.023  30.359  1.00  0.00    -0.248 NA
ATOM     40  C   UNL A   1      42.792  27.037  29.210  1.00  0.00     0.031 C 
ATOM     41  C   UNL A   1      38.144  28.941  28.877  1.00  0.00     0.029 A 
ATOM     42  N   UNL A   1      39.678  30.128  29.990  1.00  0.00    -0.354 N 
ATOM     43  C   UNL A   1      43.666  28.616  30.613  1.00  0.00     0.074 A 
ATOM     44  C   UNL A   1      43.859  27.357  29.927  1.00  0.00     0.031 C 
ATOM     45  C   UNL A   1      37.556  30.078  29.286  1.00  0.00     0.029 A 
ATOM     46  C   UNL A   1      38.530  30.879  30.024  1.00  0.00     0.049 A 
ATOM     47  H   UNL A   1      40.519  30.410  30.418  1.00  0.00     0.167 HD
ATOM     48  C   UNL A   1      44.624  29.241  31.339  1.00  0.00     0.037 A 
ATOM     49  C   UNL A   1      38.291  32.081  30.583  1.00  0.00     0.037 A 
ATOM     50  C   UNL A   1      44.466  30.528  31.958  1.00  0.00     0.049 A 
ATOM     51  C   UNL A   1      39.397  32.796  31.306  1.00  0.00     0.074 A 
ATOM     52  C   UNL A   1      45.395  31.266  32.672  1.00  0.00     0.029 A 
ATOM     53  N   UNL A   1      43.304  31.284  31.912  1.00  0.00    -0.354 N 
ATOM     54  N   UNL A   1      40.628  32.405  31.531  1.00  0.00    -0.248 NA
ATOM     55  C   UNL A   1      39.082  34.125  31.850  1.00  0.00     0.031 C 
ATOM     56  C   UNL A   1      44.792  32.468  33.063  1.00  0.00     0.029 A 
ATOM     57  C   UNL A   1      43.495  32.485  32.575  1.00  0.00     0.049 A 
ATOM     58  H   UNL A   1      42.468  31.007  31.474  1.00  0.00     0.167 HD
ATOM     59  C   UNL A   1      41.237  33.442  32.222  1.00  0.00     0.074 A 
ATOM     60  C   UNL A   1      40.246  34.487  32.371  1.00  0.00     0.031 C 
ATOM     61  C   UNL A   1      42.504  33.518  32.697  1.00  0.00     0.037 A 
BRANCH  48  62
ATOM     62  C   UNL A   1      45.937  28.536  31.493  1.00  0.00     0.064 A 
ATOM     63  C   UNL A   1      46.983  28.723  30.579  1.00  0.00     0.173 A 
ATOM     64  C   UNL A   1      46.159  27.676  32.579  1.00  0.00     0.173 A 
ATOM     65  F   UNL A   1      46.812  29.523  29.516  1.00  0.00    -0.203 F 
ATOM     66  C   UNL A   1      48.193  28.052  30.729  1.00  0.00     0.198 A 
ATOM     67  C   UNL A   1      47.378  27.025  32.739  1.00  0.00     0.198 A 
ATOM     68  F   UNL A   1      45.191  27.468  33.484  1.00  0.00    -0.203 F 
ATOM     69  F   UNL A   1      49.162  28.209  29.816  1.00  0.00    -0.200 F 
ATOM     70  C   UNL A   1      48.392  27.208  31.810  1.00  0.00     0.200 A 
ATOM     71  F   UNL A   1      47.573  26.214  33.788  1.00  0.00    -0.200 F 
ATOM     72  F   UNL A   1      49.557  26.563  31.953  1.00  0.00    -0.200 F 
ENDBRANCH  48  62
BRANCH  49  73
ATOM     73  C   UNL A   1      36.956  32.709  30.437  1.00  0.00     0.064 A 
ATOM     74  C   UNL A   1      35.989  32.568  31.441  1.00  0.00     0.173 A 
ATOM     75  C   UNL A   1      36.619  33.458  29.302  1.00  0.00     0.173 A 
ATOM     76  F   UNL A   1      36.262  31.841  32.535  1.00  0.00    -0.203 F 
ATOM     77  C   UNL A   1      34.727  33.141  31.308  1.00  0.00     0.198 A 
ATOM     78  C   UNL A   1      35.362  34.046  29.178  1.00  0.00     0.198 A 
ATOM     79  F   UNL A   1      37.514  33.620  28.317  1.00  0.00    -0.203 F 
ATOM     80  F   UNL A   1      33.808  32.962  32.266  1.00  0.00    -0.200 F 
ATOM     81  C   UNL A   1      34.416  33.883  30.178  1.00  0.00     0.200 A 
ATOM     82  F   UNL A   1      35.066  34.767  28.089  1.00  0.00    -0.200 F 
ATOM     83  F   UNL A   1      33.201  34.434  30.051  1.00  0.00    -0.200 F 
ENDBRANCH  49  73
BRANCH  61  84
ATOM     84  C   UNL A   1      42.897  34.783  33.393  1.00  0.00     0.064 A 
ATOM     85  C   UNL A   1      43.378  35.888  32.679  1.00  0.00     0.173 A 
ATOM     86  C   UNL A   1      42.755  34.903  34.783  1.00  0.00     0.173 A 
ATOM     87  F   UNL A   1      43.541  35.813  31.349  1.00  0.00    -0.203 F 
ATOM     88  C   UNL A   1      43.721  37.067  33.335  1.00  0.00     0.198 A 
ATOM     89  C   UNL A   1      43.084  36.088  35.434  1.00  0.00     0.198 A 
ATOM     90  F   UNL A   1      42.298  33.870  35.506  1.00  0.00    -0.203 F 
ATOM     91  F   UNL A   1      44.209  38.102  32.638  1.00  0.00    -0.200 F 
ATOM     92  C   UNL A   1      43.570  37.167  34.710  1.00  0.00     0.200 A 
ATOM     93  F   UNL A   1      42.936  36.185  36.761  1.00  0.00    -0.200 F 
ATOM     94  F   UNL A   1      43.900  38.303  35.340  1.00  0.00    -0.200 F 
ENDBRANCH  61  84
ENDBRANCH  35  36
ENDBRANCH  27  30
ENDBRANCH  25  26
ENDBRANCH   1  25
TORSDOF 12
ENDMDL
