MODEL 1
REMARK VINA RESULT:     -12.9      0.000      0.000
REMARK SMILES O=C(NCCCNC(=O)[C@H]1C[C@](O)(c2ccccc2Cl)[C@@H](c2ccccc2Cl)O1)c1ccc(-c2c3nc(c(-c4c(F)c(F)c(F)c(F)c4F)c4ccc([nH]4)c(-c4c(F)c(F)c(F)c(F)c4F)c4nc(c(-c5c(F)c(F)c(F)c(F)c5F)c5ccc2[nH]5)C=C4)C=C3)cc1
REMARK SMILES IDX 4 1 3 2 1 3 2 4 30 6 31 7 92 8 32 9 91 10 33 11 34 12 35 13
REMARK SMILES IDX 85 14 36 15 90 16 84 17 86 18 37 19 89 20 83 21 82 22 38 24
REMARK SMILES IDX 70 25 50 26 69 27 51 28 54 29 68 30 87 31 52 32 53 33 67 35
REMARK SMILES IDX 88 36 55 37 39 38 40 39 48 40 41 41 42 42 46 43 49 44 43 45
REMARK SMILES IDX 44 46 47 47 45 48 71 49 72 50 80 51 73 52 74 53 78 54 81 55
REMARK SMILES IDX 75 56 76 57 79 58 77 59 56 60 57 61 65 62 58 63 59 64 63 65
REMARK SMILES IDX 66 66 60 67 61 68 64 69 62 70 5 71 6 72 7 73 8 74 9 76 10 77
REMARK SMILES IDX 11 78 29 79 12 80 21 81 14 82 15 83 19 84 16 85 18 86 20 87
REMARK SMILES IDX 17 88 13 89 22 91 23 92 27 93 24 94 26 95 28 96 25 97
REMARK H PARENT 3 5 86 23 54 34 7 75 13 90
REMARK Flexibility Score: inf
ROOT
ATOM      1  C   UNL A   1      32.137  32.065  27.264  1.00  0.00     0.118 C 
ENDROOT
BRANCH   1   2
ATOM      2  N   UNL A   1      32.254  33.507  27.444  1.00  0.00    -0.352 N 
ATOM      3  O   UNL A   1      32.918  35.449  28.361  1.00  0.00    -0.269 OA
ATOM      4  C   UNL A   1      33.126  34.244  28.202  1.00  0.00     0.251 C 
ATOM      5  H   UNL A   1      31.598  34.038  26.938  1.00  0.00     0.163 HD
BRANCH   4   6
ATOM      6  C   UNL A   1      34.306  33.621  28.840  1.00  0.00     0.039 A 
ATOM      7  C   UNL A   1      35.600  33.898  28.399  1.00  0.00     0.014 A 
ATOM      8  C   UNL A   1      34.114  32.790  29.950  1.00  0.00     0.014 A 
ATOM      9  C   UNL A   1      36.687  33.242  28.973  1.00  0.00     0.010 A 
ATOM     10  C   UNL A   1      35.213  32.199  30.581  1.00  0.00     0.010 A 
ATOM     11  C   UNL A   1      36.509  32.395  30.079  1.00  0.00    -0.014 A 
BRANCH  11  12
ATOM     12  C   UNL A   1      37.691  31.771  30.726  1.00  0.00     0.031 A 
ATOM     13  C   UNL A   1      38.099  32.141  32.124  1.00  0.00     0.074 A 
ATOM     14  C   UNL A   1      38.396  30.848  30.044  1.00  0.00     0.049 A 
ATOM     15  N   UNL A   1      39.088  31.677  32.848  1.00  0.00    -0.248 NA
ATOM     16  C   UNL A   1      37.298  33.174  32.796  1.00  0.00     0.031 C 
ATOM     17  C   UNL A   1      38.109  30.414  28.675  1.00  0.00     0.029 A 
ATOM     18  N   UNL A   1      39.486  30.098  30.408  1.00  0.00    -0.354 N 
ATOM     19  C   UNL A   1      39.037  32.370  34.051  1.00  0.00     0.074 A 
ATOM     20  C   UNL A   1      37.942  33.312  33.946  1.00  0.00     0.031 C 
ATOM     21  C   UNL A   1      38.971  29.447  28.331  1.00  0.00     0.029 A 
ATOM     22  C   UNL A   1      39.907  29.233  29.430  1.00  0.00     0.049 A 
ATOM     23  H   UNL A   1      39.924  30.174  31.287  1.00  0.00     0.167 HD
ATOM     24  C   UNL A   1      39.825  32.224  35.145  1.00  0.00     0.037 A 
ATOM     25  C   UNL A   1      40.940  28.369  29.411  1.00  0.00     0.037 A 
ATOM     26  C   UNL A   1      40.912  31.282  35.243  1.00  0.00     0.049 A 
ATOM     27  C   UNL A   1      41.823  28.257  30.621  1.00  0.00     0.074 A 
ATOM     28  C   UNL A   1      41.741  31.029  36.323  1.00  0.00     0.029 A 
ATOM     29  N   UNL A   1      41.333  30.447  34.217  1.00  0.00    -0.354 N 
ATOM     30  N   UNL A   1      41.733  28.879  31.771  1.00  0.00    -0.248 NA
ATOM     31  C   UNL A   1      42.951  27.323  30.528  1.00  0.00     0.031 C 
ATOM     32  C   UNL A   1      42.699  30.087  35.931  1.00  0.00     0.029 A 
ATOM     33  C   UNL A   1      42.429  29.702  34.627  1.00  0.00     0.049 A 
ATOM     34  H   UNL A   1      40.914  30.392  33.327  1.00  0.00     0.167 HD
ATOM     35  C   UNL A   1      42.775  28.394  32.549  1.00  0.00     0.074 A 
ATOM     36  C   UNL A   1      43.475  27.414  31.742  1.00  0.00     0.031 C 
ATOM     37  C   UNL A   1      43.119  28.730  33.817  1.00  0.00     0.037 A 
BRANCH  24  38
ATOM     38  C   UNL A   1      39.557  33.127  36.317  1.00  0.00     0.064 A 
ATOM     39  C   UNL A   1      40.211  34.359  36.471  1.00  0.00     0.173 A 
ATOM     40  C   UNL A   1      38.612  32.765  37.291  1.00  0.00     0.173 A 
ATOM     41  F   UNL A   1      41.128  34.753  35.573  1.00  0.00    -0.203 F 
ATOM     42  C   UNL A   1      39.962  35.173  37.572  1.00  0.00     0.198 A 
ATOM     43  C   UNL A   1      38.340  33.598  38.374  1.00  0.00     0.198 A 
ATOM     44  F   UNL A   1      37.947  31.605  37.191  1.00  0.00    -0.203 F 
ATOM     45  F   UNL A   1      40.644  36.317  37.727  1.00  0.00    -0.200 F 
ATOM     46  C   UNL A   1      39.023  34.796  38.520  1.00  0.00     0.200 A 
ATOM     47  F   UNL A   1      37.419  33.238  39.280  1.00  0.00    -0.200 F 
ATOM     48  F   UNL A   1      38.782  35.581  39.580  1.00  0.00    -0.200 F 
ENDBRANCH  24  38
BRANCH  25  49
ATOM     49  C   UNL A   1      41.178  27.536  28.204  1.00  0.00     0.064 A 
ATOM     50  C   UNL A   1      42.003  27.992  27.167  1.00  0.00     0.173 A 
ATOM     51  C   UNL A   1      40.608  26.261  28.074  1.00  0.00     0.173 A 
ATOM     52  F   UNL A   1      42.555  29.212  27.238  1.00  0.00    -0.203 F 
ATOM     53  C   UNL A   1      42.241  27.208  26.041  1.00  0.00     0.198 A 
ATOM     54  C   UNL A   1      40.872  25.465  26.962  1.00  0.00     0.198 A 
ATOM     55  F   UNL A   1      39.816  25.778  29.042  1.00  0.00    -0.203 F 
ATOM     56  F   UNL A   1      43.004  27.681  25.047  1.00  0.00    -0.200 F 
ATOM     57  C   UNL A   1      41.682  25.942  25.943  1.00  0.00     0.200 A 
ATOM     58  F   UNL A   1      40.346  24.236  26.881  1.00  0.00    -0.200 F 
ATOM     59  F   UNL A   1      41.923  25.182  24.866  1.00  0.00    -0.200 F 
ENDBRANCH  25  49
BRANCH  37  60
ATOM     60  C   UNL A   1      44.284  28.003  34.427  1.00  0.00     0.064 A 
ATOM     61  C   UNL A   1      44.131  26.766  35.071  1.00  0.00     0.173 A 
ATOM     62  C   UNL A   1      45.578  28.541  34.340  1.00  0.00     0.173 A 
ATOM     63  F   UNL A   1      42.914  26.216  35.196  1.00  0.00    -0.203 F 
ATOM     64  C   UNL A   1      45.225  26.111  35.631  1.00  0.00     0.198 A 
ATOM     65  C   UNL A   1      46.673  27.866  34.871  1.00  0.00     0.198 A 
ATOM     66  F   UNL A   1      45.782  29.718  33.730  1.00  0.00    -0.203 F 
ATOM     67  F   UNL A   1      45.046  24.957  36.290  1.00  0.00    -0.200 F 
ATOM     68  C   UNL A   1      46.495  26.656  35.524  1.00  0.00     0.200 A 
ATOM     69  F   UNL A   1      47.902  28.389  34.754  1.00  0.00    -0.200 F 
ATOM     70  F   UNL A   1      47.546  26.021  36.059  1.00  0.00    -0.200 F 
ENDBRANCH  37  60
ENDBRANCH  11  12
ENDBRANCH   4   6
ENDBRANCH   1   2
BRANCH   1  71
ATOM     71  C   UNL A   1      33.443  31.419  26.817  1.00  0.00     0.042 C 
BRANCH  71  72
ATOM     72  C   UNL A   1      33.723  30.054  27.439  1.00  0.00     0.117 C 
BRANCH  72  73
ATOM     73  N   UNL A   1      32.538  29.234  27.590  1.00  0.00    -0.354 N 
ATOM     74  C   UNL A   1      32.282  27.991  27.086  1.00  0.00     0.249 C 
ATOM     75  H   UNL A   1      31.816  29.628  28.132  1.00  0.00     0.163 HD
ATOM     76  O   UNL A   1      31.219  27.459  27.415  1.00  0.00    -0.272 OA
BRANCH  74  77
ATOM     77  C   UNL A   1      33.327  27.293  26.181  1.00  0.00     0.211 C 
ATOM     78  C   UNL A   1      33.258  25.772  26.288  1.00  0.00     0.085 C 
ATOM     79  O   UNL A   1      33.197  27.645  24.803  1.00  0.00    -0.357 OA
ATOM     80  C   UNL A   1      33.024  25.255  24.868  1.00  0.00     0.124 C 
ATOM     81  C   UNL A   1      32.659  26.532  24.067  1.00  0.00     0.187 C 
BRANCH  80  82
ATOM     82  C   UNL A   1      34.237  24.401  24.439  1.00  0.00     0.005 A 
ATOM     83  C   UNL A   1      35.360  24.430  25.311  1.00  0.00     0.008 A 
ATOM     84  C   UNL A   1      34.387  23.629  23.269  1.00  0.00     0.047 A 
ATOM     85  C   UNL A   1      36.517  23.682  25.080  1.00  0.00     0.001 A 
ATOM     86  C   UNL A   1      35.535  22.840  23.067  1.00  0.00     0.021 A 
ATOM     87  Cl  UNL A   1      33.292  23.624  21.932  1.00  0.00    -0.084 Cl
ATOM     88  C   UNL A   1      36.593  22.859  23.969  1.00  0.00     0.002 A 
ENDBRANCH  80  82
BRANCH  80  89
ATOM     89  O   UNL A   1      31.893  24.360  24.895  1.00  0.00    -0.382 OA
ATOM     90  H   UNL A   1      31.526  24.329  25.792  1.00  0.00     0.212 HD
ENDBRANCH  80  89
BRANCH  81  91
ATOM     91  C   UNL A   1      31.206  26.873  23.734  1.00  0.00     0.003 A 
ATOM     92  C   UNL A   1      30.146  26.079  24.213  1.00  0.00     0.008 A 
ATOM     93  C   UNL A   1      30.864  28.044  23.024  1.00  0.00     0.046 A 
ATOM     94  C   UNL A   1      28.812  26.466  24.051  1.00  0.00     0.000 A 
ATOM     95  C   UNL A   1      29.526  28.420  22.850  1.00  0.00     0.021 A 
ATOM     96  Cl  UNL A   1      32.043  29.098  22.318  1.00  0.00    -0.084 Cl
ATOM     97  C   UNL A   1      28.501  27.642  23.379  1.00  0.00     0.002 A 
ENDBRANCH  81  91
ENDBRANCH  74  77
ENDBRANCH  72  73
ENDBRANCH  71  72
ENDBRANCH   1  71
TORSDOF 13
ENDMDL
MODEL 2
REMARK VINA RESULT:     -12.8      0.154      1.652
REMARK SMILES O=C(NCCCNC(=O)[C@H]1C[C@](O)(c2ccccc2Cl)[C@@H](c2ccccc2Cl)O1)c1ccc(-c2c3nc(c(-c4c(F)c(F)c(F)c(F)c4F)c4ccc([nH]4)c(-c4c(F)c(F)c(F)c(F)c4F)c4nc(c(-c5c(F)c(F)c(F)c(F)c5F)c5ccc2[nH]5)C=C4)C=C3)cc1
REMARK SMILES IDX 4 1 3 2 1 3 2 4 30 6 31 7 92 8 32 9 91 10 33 11 34 12 35 13
REMARK SMILES IDX 85 14 36 15 90 16 84 17 86 18 37 19 89 20 83 21 82 22 38 24
REMARK SMILES IDX 70 25 50 26 69 27 51 28 54 29 68 30 87 31 52 32 53 33 67 35
REMARK SMILES IDX 88 36 55 37 39 38 40 39 48 40 41 41 42 42 46 43 49 44 43 45
REMARK SMILES IDX 44 46 47 47 45 48 71 49 72 50 80 51 73 52 74 53 78 54 81 55
REMARK SMILES IDX 75 56 76 57 79 58 77 59 56 60 57 61 65 62 58 63 59 64 63 65
REMARK SMILES IDX 66 66 60 67 61 68 64 69 62 70 5 71 6 72 7 73 8 74 9 76 10 77
REMARK SMILES IDX 11 78 29 79 12 80 21 81 14 82 15 83 19 84 16 85 18 86 20 87
REMARK SMILES IDX 17 88 13 89 22 91 23 92 27 93 24 94 26 95 28 96 25 97
REMARK H PARENT 3 5 86 23 54 34 7 75 13 90
REMARK Flexibility Score: inf
ROOT
ATOM      1  C   UNL A   1      32.185  32.084  27.274  1.00  0.00     0.118 C 
ENDROOT
BRANCH   1   2
ATOM      2  N   UNL A   1      32.323  33.525  27.451  1.00  0.00    -0.352 N 
ATOM      3  O   UNL A   1      33.001  35.459  28.376  1.00  0.00    -0.269 OA
ATOM      4  C   UNL A   1      33.192  34.250  28.224  1.00  0.00     0.251 C 
ATOM      5  H   UNL A   1      31.686  34.065  26.931  1.00  0.00     0.163 HD
BRANCH   4   6
ATOM      6  C   UNL A   1      34.348  33.611  28.888  1.00  0.00     0.039 A 
ATOM      7  C   UNL A   1      34.176  32.714  29.943  1.00  0.00     0.014 A 
ATOM      8  C   UNL A   1      35.635  33.867  28.400  1.00  0.00     0.014 A 
ATOM      9  C   UNL A   1      35.286  32.183  30.596  1.00  0.00     0.010 A 
ATOM     10  C   UNL A   1      36.745  33.266  29.000  1.00  0.00     0.010 A 
ATOM     11  C   UNL A   1      36.583  32.442  30.124  1.00  0.00    -0.014 A 
BRANCH  11  12
ATOM     12  C   UNL A   1      37.748  31.799  30.786  1.00  0.00     0.031 A 
ATOM     13  C   UNL A   1      38.150  32.168  32.185  1.00  0.00     0.074 A 
ATOM     14  C   UNL A   1      38.440  30.858  30.115  1.00  0.00     0.049 A 
ATOM     15  N   UNL A   1      39.123  31.688  32.921  1.00  0.00    -0.248 NA
ATOM     16  C   UNL A   1      37.363  33.220  32.845  1.00  0.00     0.031 C 
ATOM     17  C   UNL A   1      38.157  30.423  28.746  1.00  0.00     0.029 A 
ATOM     18  N   UNL A   1      39.512  30.089  30.492  1.00  0.00    -0.354 N 
ATOM     19  C   UNL A   1      39.075  32.388  34.120  1.00  0.00     0.074 A 
ATOM     20  C   UNL A   1      38.000  33.351  34.000  1.00  0.00     0.031 C 
ATOM     21  C   UNL A   1      39.002  29.436  28.414  1.00  0.00     0.029 A 
ATOM     22  C   UNL A   1      39.924  29.210  29.523  1.00  0.00     0.049 A 
ATOM     23  H   UNL A   1      39.943  30.160  31.375  1.00  0.00     0.167 HD
ATOM     24  C   UNL A   1      39.850  32.233  35.221  1.00  0.00     0.037 A 
ATOM     25  C   UNL A   1      40.940  28.326  29.518  1.00  0.00     0.037 A 
ATOM     26  C   UNL A   1      40.918  31.270  35.334  1.00  0.00     0.049 A 
ATOM     27  C   UNL A   1      41.809  28.203  30.736  1.00  0.00     0.074 A 
ATOM     28  C   UNL A   1      41.732  31.007  36.422  1.00  0.00     0.029 A 
ATOM     29  N   UNL A   1      41.331  30.422  34.316  1.00  0.00    -0.354 N 
ATOM     30  N   UNL A   1      41.722  28.832  31.882  1.00  0.00    -0.248 NA
ATOM     31  C   UNL A   1      42.920  27.246  30.658  1.00  0.00     0.031 C 
ATOM     32  C   UNL A   1      42.675  30.044  36.044  1.00  0.00     0.029 A 
ATOM     33  C   UNL A   1      42.408  29.657  34.740  1.00  0.00     0.049 A 
ATOM     34  H   UNL A   1      40.919  30.370  33.423  1.00  0.00     0.167 HD
ATOM     35  C   UNL A   1      42.747  28.331  32.671  1.00  0.00     0.074 A 
ATOM     36  C   UNL A   1      43.434  27.333  31.876  1.00  0.00     0.031 C 
ATOM     37  C   UNL A   1      43.086  28.667  33.941  1.00  0.00     0.037 A 
BRANCH  24  38
ATOM     38  C   UNL A   1      39.590  33.147  36.386  1.00  0.00     0.064 A 
ATOM     39  C   UNL A   1      38.688  32.811  37.408  1.00  0.00     0.173 A 
ATOM     40  C   UNL A   1      40.271  34.370  36.495  1.00  0.00     0.173 A 
ATOM     41  F   UNL A   1      38.005  31.657  37.352  1.00  0.00    -0.203 F 
ATOM     42  C   UNL A   1      38.448  33.679  38.470  1.00  0.00     0.198 A 
ATOM     43  C   UNL A   1      40.054  35.221  37.576  1.00  0.00     0.198 A 
ATOM     44  F   UNL A   1      41.153  34.740  35.554  1.00  0.00    -0.203 F 
ATOM     45  F   UNL A   1      37.538  33.360  39.401  1.00  0.00    -0.200 F 
ATOM     46  C   UNL A   1      39.134  34.881  38.557  1.00  0.00     0.200 A 
ATOM     47  F   UNL A   1      40.731  36.375  37.666  1.00  0.00    -0.200 F 
ATOM     48  F   UNL A   1      38.903  35.715  39.580  1.00  0.00    -0.200 F 
ENDBRANCH  24  38
BRANCH  25  49
ATOM     49  C   UNL A   1      41.172  27.482  28.317  1.00  0.00     0.064 A 
ATOM     50  C   UNL A   1      42.074  27.880  27.322  1.00  0.00     0.173 A 
ATOM     51  C   UNL A   1      40.519  26.251  28.154  1.00  0.00     0.173 A 
ATOM     52  F   UNL A   1      42.708  29.058  27.425  1.00  0.00    -0.203 F 
ATOM     53  C   UNL A   1      42.306  27.085  26.202  1.00  0.00     0.198 A 
ATOM     54  C   UNL A   1      40.775  25.442  27.049  1.00  0.00     0.198 A 
ATOM     55  F   UNL A   1      39.651  25.823  29.082  1.00  0.00    -0.203 F 
ATOM     56  F   UNL A   1      43.145  27.506  25.246  1.00  0.00    -0.200 F 
ATOM     57  C   UNL A   1      41.663  25.863  26.071  1.00  0.00     0.200 A 
ATOM     58  F   UNL A   1      40.166  24.254  26.936  1.00  0.00    -0.200 F 
ATOM     59  F   UNL A   1      41.897  25.091  25.001  1.00  0.00    -0.200 F 
ENDBRANCH  25  49
BRANCH  37  60
ATOM     60  C   UNL A   1      44.231  27.920  34.565  1.00  0.00     0.064 A 
ATOM     61  C   UNL A   1      45.546  28.408  34.522  1.00  0.00     0.173 A 
ATOM     62  C   UNL A   1      44.003  26.711  35.242  1.00  0.00     0.173 A 
ATOM     63  F   UNL A   1      45.821  29.550  33.874  1.00  0.00    -0.203 F 
ATOM     64  C   UNL A   1      46.592  27.699  35.106  1.00  0.00     0.198 A 
ATOM     65  C   UNL A   1      45.046  26.023  35.854  1.00  0.00     0.198 A 
ATOM     66  F   UNL A   1      42.764  26.202  35.318  1.00  0.00    -0.203 F 
ATOM     67  F   UNL A   1      47.848  28.156  35.003  1.00  0.00    -0.200 F 
ATOM     68  C   UNL A   1      46.341  26.512  35.777  1.00  0.00     0.200 A 
ATOM     69  F   UNL A   1      44.799  24.883  36.515  1.00  0.00    -0.200 F 
ATOM     70  F   UNL A   1      47.349  25.834  36.343  1.00  0.00    -0.200 F 
ENDBRANCH  37  60
ENDBRANCH  11  12
ENDBRANCH   4   6
ENDBRANCH   1   2
BRANCH   1  71
ATOM     71  C   UNL A   1      33.488  31.416  26.852  1.00  0.00     0.042 C 
BRANCH  71  72
ATOM     72  C   UNL A   1      33.740  30.052  27.489  1.00  0.00     0.117 C 
BRANCH  72  73
ATOM     73  N   UNL A   1      32.541  29.249  27.626  1.00  0.00    -0.354 N 
ATOM     74  C   UNL A   1      32.268  28.017  27.104  1.00  0.00     0.249 C 
ATOM     75  H   UNL A   1      31.824  29.646  28.171  1.00  0.00     0.163 HD
ATOM     76  O   UNL A   1      31.196  27.497  27.422  1.00  0.00    -0.272 OA
BRANCH  74  77
ATOM     77  C   UNL A   1      33.306  27.316  26.192  1.00  0.00     0.211 C 
ATOM     78  C   UNL A   1      33.268  25.796  26.341  1.00  0.00     0.085 C 
ATOM     79  O   UNL A   1      33.137  27.629  24.810  1.00  0.00    -0.357 OA
ATOM     80  C   UNL A   1      33.011  25.239  24.940  1.00  0.00     0.124 C 
ATOM     81  C   UNL A   1      32.603  26.487  24.116  1.00  0.00     0.187 C 
BRANCH  80  82
ATOM     82  C   UNL A   1      34.231  24.397  24.505  1.00  0.00     0.005 A 
ATOM     83  C   UNL A   1      35.359  24.439  25.369  1.00  0.00     0.008 A 
ATOM     84  C   UNL A   1      34.381  23.625  23.335  1.00  0.00     0.047 A 
ATOM     85  C   UNL A   1      36.522  23.703  25.132  1.00  0.00     0.001 A 
ATOM     86  C   UNL A   1      35.536  22.847  23.126  1.00  0.00     0.021 A 
ATOM     87  Cl  UNL A   1      33.278  23.606  22.005  1.00  0.00    -0.084 Cl
ATOM     88  C   UNL A   1      36.600  22.879  24.022  1.00  0.00     0.002 A 
ENDBRANCH  80  82
BRANCH  80  89
ATOM     89  O   UNL A   1      31.899  24.324  25.017  1.00  0.00    -0.382 OA
ATOM     90  H   UNL A   1      32.134  23.576  25.587  1.00  0.00     0.212 HD
ENDBRANCH  80  89
BRANCH  81  91
ATOM     91  C   UNL A   1      31.137  26.791  23.808  1.00  0.00     0.003 A 
ATOM     92  C   UNL A   1      30.105  25.973  24.308  1.00  0.00     0.008 A 
ATOM     93  C   UNL A   1      30.753  27.953  23.102  1.00  0.00     0.046 A 
ATOM     94  C   UNL A   1      28.760  26.328  24.170  1.00  0.00     0.000 A 
ATOM     95  C   UNL A   1      29.403  28.296  22.953  1.00  0.00     0.021 A 
ATOM     96  Cl  UNL A   1      31.893  29.033  22.374  1.00  0.00    -0.084 Cl
ATOM     97  C   UNL A   1      28.408  27.493  23.501  1.00  0.00     0.002 A 
ENDBRANCH  81  91
ENDBRANCH  74  77
ENDBRANCH  72  73
ENDBRANCH  71  72
ENDBRANCH   1  71
TORSDOF 13
ENDMDL
MODEL 3
REMARK VINA RESULT:     -12.7      5.086     10.452
REMARK SMILES O=C(NCCCNC(=O)[C@H]1C[C@](O)(c2ccccc2Cl)[C@@H](c2ccccc2Cl)O1)c1ccc(-c2c3nc(c(-c4c(F)c(F)c(F)c(F)c4F)c4ccc([nH]4)c(-c4c(F)c(F)c(F)c(F)c4F)c4nc(c(-c5c(F)c(F)c(F)c(F)c5F)c5ccc2[nH]5)C=C4)C=C3)cc1
REMARK SMILES IDX 4 1 3 2 1 3 2 4 30 6 31 7 92 8 32 9 91 10 33 11 34 12 35 13
REMARK SMILES IDX 85 14 36 15 90 16 84 17 86 18 37 19 89 20 83 21 82 22 38 24
REMARK SMILES IDX 70 25 50 26 69 27 51 28 54 29 68 30 87 31 52 32 53 33 67 35
REMARK SMILES IDX 88 36 55 37 39 38 40 39 48 40 41 41 42 42 46 43 49 44 43 45
REMARK SMILES IDX 44 46 47 47 45 48 71 49 72 50 80 51 73 52 74 53 78 54 81 55
REMARK SMILES IDX 75 56 76 57 79 58 77 59 56 60 57 61 65 62 58 63 59 64 63 65
REMARK SMILES IDX 66 66 60 67 61 68 64 69 62 70 5 71 6 72 7 73 8 74 9 76 10 77
REMARK SMILES IDX 11 78 29 79 12 80 21 81 14 82 15 83 19 84 16 85 18 86 20 87
REMARK SMILES IDX 17 88 13 89 22 91 23 92 27 93 24 94 26 95 28 96 25 97
REMARK H PARENT 3 5 86 23 54 34 7 75 13 90
REMARK Flexibility Score: inf
ROOT
ATOM      1  C   UNL A   1      39.007  20.075  25.132  1.00  0.00     0.118 C 
ENDROOT
BRANCH   1   2
ATOM      2  N   UNL A   1      39.996  19.203  25.752  1.00  0.00    -0.352 N 
ATOM      3  O   UNL A   1      41.977  18.567  26.603  1.00  0.00    -0.269 OA
ATOM      4  C   UNL A   1      41.212  19.490  26.314  1.00  0.00     0.251 C 
ATOM      5  H   UNL A   1      39.750  18.249  25.768  1.00  0.00     0.163 HD
BRANCH   4   6
ATOM      6  C   UNL A   1      41.630  20.885  26.573  1.00  0.00     0.039 A 
ATOM      7  C   UNL A   1      41.875  21.775  25.527  1.00  0.00     0.014 A 
ATOM      8  C   UNL A   1      41.716  21.331  27.897  1.00  0.00     0.014 A 
ATOM      9  C   UNL A   1      42.336  23.061  25.799  1.00  0.00     0.010 A 
ATOM     10  C   UNL A   1      42.096  22.648  28.170  1.00  0.00     0.010 A 
ATOM     11  C   UNL A   1      42.440  23.517  27.123  1.00  0.00    -0.014 A 
BRANCH  11  12
ATOM     12  C   UNL A   1      42.855  24.919  27.387  1.00  0.00     0.031 A 
ATOM     13  C   UNL A   1      44.229  25.406  27.024  1.00  0.00     0.074 A 
ATOM     14  C   UNL A   1      41.971  25.765  27.950  1.00  0.00     0.049 A 
ATOM     15  N   UNL A   1      44.747  26.602  27.161  1.00  0.00    -0.248 NA
ATOM     16  C   UNL A   1      45.148  24.419  26.436  1.00  0.00     0.031 C 
ATOM     17  C   UNL A   1      40.612  25.409  28.362  1.00  0.00     0.029 A 
ATOM     18  N   UNL A   1      42.073  27.098  28.262  1.00  0.00    -0.354 N 
ATOM     19  C   UNL A   1      46.052  26.508  26.693  1.00  0.00     0.074 A 
ATOM     20  C   UNL A   1      46.258  25.130  26.301  1.00  0.00     0.031 C 
ATOM     21  C   UNL A   1      39.993  26.503  28.830  1.00  0.00     0.029 A 
ATOM     22  C   UNL A   1      40.929  27.622  28.807  1.00  0.00     0.049 A 
ATOM     23  H   UNL A   1      42.889  27.627  28.107  1.00  0.00     0.167 HD
ATOM     24  C   UNL A   1      46.985  27.486  26.590  1.00  0.00     0.037 A 
ATOM     25  C   UNL A   1      40.662  28.864  29.254  1.00  0.00     0.037 A 
ATOM     26  C   UNL A   1      46.772  28.858  26.981  1.00  0.00     0.049 A 
ATOM     27  C   UNL A   1      41.728  29.918  29.167  1.00  0.00     0.074 A 
ATOM     28  C   UNL A   1      47.640  29.930  26.876  1.00  0.00     0.029 A 
ATOM     29  N   UNL A   1      45.610  29.344  27.565  1.00  0.00    -0.354 N 
ATOM     30  N   UNL A   1      42.939  29.832  28.674  1.00  0.00    -0.248 NA
ATOM     31  C   UNL A   1      41.388  31.244  29.699  1.00  0.00     0.031 C 
ATOM     32  C   UNL A   1      47.028  31.050  27.452  1.00  0.00     0.029 A 
ATOM     33  C   UNL A   1      45.752  30.693  27.856  1.00  0.00     0.049 A 
ATOM     34  H   UNL A   1      44.804  28.809  27.747  1.00  0.00     0.167 HD
ATOM     35  C   UNL A   1      43.499  31.094  28.813  1.00  0.00     0.074 A 
ATOM     36  C   UNL A   1      42.486  31.933  29.422  1.00  0.00     0.031 C 
ATOM     37  C   UNL A   1      44.738  31.519  28.464  1.00  0.00     0.037 A 
BRANCH  24  38
ATOM     38  C   UNL A   1      48.338  27.099  26.059  1.00  0.00     0.064 A 
ATOM     39  C   UNL A   1      48.661  27.210  24.698  1.00  0.00     0.173 A 
ATOM     40  C   UNL A   1      49.336  26.632  26.930  1.00  0.00     0.173 A 
ATOM     41  F   UNL A   1      47.745  27.646  23.820  1.00  0.00    -0.203 F 
ATOM     42  C   UNL A   1      49.914  26.831  24.223  1.00  0.00     0.198 A 
ATOM     43  C   UNL A   1      50.599  26.285  26.457  1.00  0.00     0.198 A 
ATOM     44  F   UNL A   1      49.088  26.516  28.243  1.00  0.00    -0.203 F 
ATOM     45  F   UNL A   1      50.178  26.890  22.910  1.00  0.00    -0.200 F 
ATOM     46  C   UNL A   1      50.884  26.374  25.103  1.00  0.00     0.200 A 
ATOM     47  F   UNL A   1      51.540  25.860  27.312  1.00  0.00    -0.200 F 
ATOM     48  F   UNL A   1      52.090  26.009  24.645  1.00  0.00    -0.200 F 
ENDBRANCH  24  38
BRANCH  25  49
ATOM     49  C   UNL A   1      39.319  29.171  29.809  1.00  0.00     0.064 A 
ATOM     50  C   UNL A   1      39.034  28.956  31.164  1.00  0.00     0.173 A 
ATOM     51  C   UNL A   1      38.303  29.710  29.005  1.00  0.00     0.173 A 
ATOM     52  F   UNL A   1      39.967  28.425  31.968  1.00  0.00    -0.203 F 
ATOM     53  C   UNL A   1      37.780  29.257  31.692  1.00  0.00     0.198 A 
ATOM     54  C   UNL A   1      37.060  30.040  29.540  1.00  0.00     0.198 A 
ATOM     55  F   UNL A   1      38.528  29.940  27.703  1.00  0.00    -0.203 F 
ATOM     56  F   UNL A   1      37.522  29.006  32.982  1.00  0.00    -0.200 F 
ATOM     57  C   UNL A   1      36.798  29.806  30.881  1.00  0.00     0.200 A 
ATOM     58  F   UNL A   1      36.121  30.588  28.758  1.00  0.00    -0.200 F 
ATOM     59  F   UNL A   1      35.596  30.109  31.393  1.00  0.00    -0.200 F 
ENDBRANCH  25  49
BRANCH  37  60
ATOM     60  C   UNL A   1      45.057  32.969  28.698  1.00  0.00     0.064 A 
ATOM     61  C   UNL A   1      45.699  33.407  29.866  1.00  0.00     0.173 A 
ATOM     62  C   UNL A   1      44.741  33.930  27.724  1.00  0.00     0.173 A 
ATOM     63  F   UNL A   1      46.008  32.533  30.835  1.00  0.00    -0.203 F 
ATOM     64  C   UNL A   1      45.983  34.756  30.063  1.00  0.00     0.198 A 
ATOM     65  C   UNL A   1      45.058  35.272  27.909  1.00  0.00     0.198 A 
ATOM     66  F   UNL A   1      44.132  33.564  26.586  1.00  0.00    -0.203 F 
ATOM     67  F   UNL A   1      46.546  35.159  31.211  1.00  0.00    -0.200 F 
ATOM     68  C   UNL A   1      45.670  35.685  29.082  1.00  0.00     0.200 A 
ATOM     69  F   UNL A   1      44.767  36.166  26.954  1.00  0.00    -0.200 F 
ATOM     70  F   UNL A   1      45.951  36.982  29.272  1.00  0.00    -0.200 F 
ENDBRANCH  37  60
ENDBRANCH  11  12
ENDBRANCH   4   6
ENDBRANCH   1   2
BRANCH   1  71
ATOM     71  C   UNL A   1      38.366  21.037  26.125  1.00  0.00     0.042 C 
BRANCH  71  72
ATOM     72  C   UNL A   1      38.137  22.447  25.588  1.00  0.00     0.117 C 
BRANCH  72  73
ATOM     73  N   UNL A   1      37.472  22.473  24.300  1.00  0.00    -0.354 N 
ATOM     74  C   UNL A   1      36.326  23.120  23.936  1.00  0.00     0.249 C 
ATOM     75  H   UNL A   1      37.907  21.952  23.587  1.00  0.00     0.163 HD
ATOM     76  O   UNL A   1      35.992  23.051  22.752  1.00  0.00    -0.272 OA
BRANCH  74  77
ATOM     77  C   UNL A   1      35.531  23.934  24.988  1.00  0.00     0.211 C 
ATOM     78  C   UNL A   1      34.741  25.077  24.354  1.00  0.00     0.085 C 
ATOM     79  O   UNL A   1      34.621  23.134  25.743  1.00  0.00    -0.357 OA
ATOM     80  C   UNL A   1      33.281  24.858  24.753  1.00  0.00     0.124 C 
ATOM     81  C   UNL A   1      33.270  23.421  25.336  1.00  0.00     0.187 C 
BRANCH  80  82
ATOM     82  C   UNL A   1      32.817  26.045  25.626  1.00  0.00     0.005 A 
ATOM     83  C   UNL A   1      33.816  26.998  25.966  1.00  0.00     0.008 A 
ATOM     84  C   UNL A   1      31.535  26.278  26.165  1.00  0.00     0.047 A 
ATOM     85  C   UNL A   1      33.544  28.144  26.717  1.00  0.00     0.001 A 
ATOM     86  C   UNL A   1      31.257  27.459  26.880  1.00  0.00     0.021 A 
ATOM     87  Cl  UNL A   1      30.218  25.159  26.125  1.00  0.00    -0.084 Cl
ATOM     88  C   UNL A   1      32.252  28.392  27.150  1.00  0.00     0.002 A 
ENDBRANCH  80  82
BRANCH  80  89
ATOM     89  O   UNL A   1      32.476  24.902  23.557  1.00  0.00    -0.382 OA
ATOM     90  H   UNL A   1      31.844  24.167  23.566  1.00  0.00     0.212 HD
ENDBRANCH  80  89
BRANCH  81  91
ATOM     91  C   UNL A   1      32.786  22.231  24.508  1.00  0.00     0.003 A 
ATOM     92  C   UNL A   1      32.364  22.398  23.175  1.00  0.00     0.008 A 
ATOM     93  C   UNL A   1      32.838  20.911  25.007  1.00  0.00     0.046 A 
ATOM     94  C   UNL A   1      32.072  21.302  22.358  1.00  0.00     0.000 A 
ATOM     95  C   UNL A   1      32.529  19.816  24.190  1.00  0.00     0.021 A 
ATOM     96  Cl  UNL A   1      33.277  20.536  26.639  1.00  0.00    -0.084 Cl
ATOM     97  C   UNL A   1      32.163  20.010  22.861  1.00  0.00     0.002 A 
ENDBRANCH  81  91
ENDBRANCH  74  77
ENDBRANCH  72  73
ENDBRANCH  71  72
ENDBRANCH   1  71
TORSDOF 13
ENDMDL
