MODEL 1
REMARK VINA RESULT:     -12.5      0.000      0.000
REMARK SMILES O=C(NCCCNC(=O)C1(Cc2cccc(Cl)c2)CCCC1)c1ccc(-c2c3nc(c(-c4c(F)c(F)c(F)c(F)c4F)c4ccc([nH]4)c(-c4c(F)c(F)c(F)c(F)c4F)c4nc(c(-c5c(F)c(F)c(F)c(F)c5F)c5ccc2[nH]5)C=C4)C=C3)cc1
REMARK SMILES IDX 5 1 4 2 3 3 1 4 2 5 23 7 24 8 85 9 25 10 84 11 26 12 27 13
REMARK SMILES IDX 28 14 78 15 29 16 83 17 77 18 79 19 30 20 82 21 76 22 75 23
REMARK SMILES IDX 31 25 63 26 43 27 62 28 44 29 47 30 61 31 80 32 45 33 46 34
REMARK SMILES IDX 60 36 81 37 48 38 32 39 33 40 41 41 34 42 35 43 39 44 42 45
REMARK SMILES IDX 36 46 37 47 40 48 38 49 64 50 65 51 73 52 66 53 67 54 71 55
REMARK SMILES IDX 74 56 68 57 69 58 72 59 70 60 49 61 50 62 58 63 51 64 52 65
REMARK SMILES IDX 56 66 59 67 53 68 54 69 57 70 55 71 6 72 7 73 8 74 9 76
REMARK SMILES IDX 10 77 19 78 22 79 20 80 21 81 11 82 12 83 13 84 18 85 14 86
REMARK SMILES IDX 16 87 15 88 17 89
REMARK H PARENT 3 6 79 24 47 35 7 75
REMARK Flexibility Score: inf
ROOT
ATOM      1  C   UNL A   1      37.675  19.750  25.001  1.00  0.00     0.042 C 
ENDROOT
BRANCH   1   2
ATOM      2  C   UNL A   1      38.891  20.291  25.744  1.00  0.00     0.118 C 
BRANCH   2   3
ATOM      3  N   UNL A   1      39.919  19.269  25.894  1.00  0.00    -0.352 N 
ATOM      4  O   UNL A   1      42.019  18.454  25.861  1.00  0.00    -0.269 OA
ATOM      5  C   UNL A   1      41.272  19.418  26.030  1.00  0.00     0.251 C 
ATOM      6  H   UNL A   1      39.593  18.340  25.898  1.00  0.00     0.163 HD
BRANCH   5   7
ATOM      7  C   UNL A   1      41.836  20.734  26.381  1.00  0.00     0.039 A 
ATOM      8  C   UNL A   1      42.048  21.701  25.393  1.00  0.00     0.014 A 
ATOM      9  C   UNL A   1      42.104  21.022  27.721  1.00  0.00     0.014 A 
ATOM     10  C   UNL A   1      42.622  22.920  25.728  1.00  0.00     0.010 A 
ATOM     11  C   UNL A   1      42.610  22.274  28.066  1.00  0.00     0.010 A 
ATOM     12  C   UNL A   1      42.884  23.226  27.071  1.00  0.00    -0.014 A 
BRANCH  12  13
ATOM     13  C   UNL A   1      43.372  24.573  27.444  1.00  0.00     0.031 A 
ATOM     14  C   UNL A   1      42.435  25.594  28.011  1.00  0.00     0.074 A 
ATOM     15  C   UNL A   1      44.663  24.876  27.219  1.00  0.00     0.049 A 
ATOM     16  N   UNL A   1      42.655  26.853  28.291  1.00  0.00    -0.248 NA
ATOM     17  C   UNL A   1      41.063  25.146  28.288  1.00  0.00     0.031 C 
ATOM     18  C   UNL A   1      45.658  23.957  26.665  1.00  0.00     0.029 A 
ATOM     19  N   UNL A   1      45.355  26.044  27.409  1.00  0.00    -0.354 N 
ATOM     20  C   UNL A   1      41.446  27.356  28.750  1.00  0.00     0.074 A 
ATOM     21  C   UNL A   1      40.489  26.270  28.692  1.00  0.00     0.031 C 
ATOM     22  C   UNL A   1      46.833  24.593  26.560  1.00  0.00     0.029 A 
ATOM     23  C   UNL A   1      46.657  25.980  26.977  1.00  0.00     0.049 A 
ATOM     24  H   UNL A   1      44.959  26.849  27.814  1.00  0.00     0.167 HD
ATOM     25  C   UNL A   1      41.168  28.609  29.180  1.00  0.00     0.037 A 
ATOM     26  C   UNL A   1      47.595  26.940  26.887  1.00  0.00     0.037 A 
ATOM     27  C   UNL A   1      42.138  29.674  29.235  1.00  0.00     0.049 A 
ATOM     28  C   UNL A   1      47.256  28.330  27.338  1.00  0.00     0.074 A 
ATOM     29  C   UNL A   1      41.975  30.967  29.700  1.00  0.00     0.029 A 
ATOM     30  N   UNL A   1      43.452  29.569  28.798  1.00  0.00    -0.354 N 
ATOM     31  N   UNL A   1      46.122  28.789  27.810  1.00  0.00    -0.248 NA
ATOM     32  C   UNL A   1      48.322  29.336  27.247  1.00  0.00     0.031 C 
ATOM     33  C   UNL A   1      43.172  31.661  29.491  1.00  0.00     0.029 A 
ATOM     34  C   UNL A   1      44.102  30.784  28.953  1.00  0.00     0.049 A 
ATOM     35  H   UNL A   1      43.861  28.752  28.431  1.00  0.00     0.167 HD
ATOM     36  C   UNL A   1      46.341  30.128  28.094  1.00  0.00     0.074 A 
ATOM     37  C   UNL A   1      47.719  30.409  27.744  1.00  0.00     0.031 C 
ATOM     38  C   UNL A   1      45.477  31.040  28.605  1.00  0.00     0.037 A 
BRANCH  25  39
ATOM     39  C   UNL A   1      39.753  28.905  29.586  1.00  0.00     0.064 A 
ATOM     40  C   UNL A   1      39.291  28.682  30.892  1.00  0.00     0.173 A 
ATOM     41  C   UNL A   1      38.844  29.428  28.652  1.00  0.00     0.173 A 
ATOM     42  F   UNL A   1      40.115  28.173  31.821  1.00  0.00    -0.203 F 
ATOM     43  C   UNL A   1      37.965  28.932  31.237  1.00  0.00     0.198 A 
ATOM     44  C   UNL A   1      37.527  29.707  29.010  1.00  0.00     0.198 A 
ATOM     45  F   UNL A   1      39.233  29.668  27.390  1.00  0.00    -0.203 F 
ATOM     46  F   UNL A   1      37.533  28.653  32.474  1.00  0.00    -0.200 F 
ATOM     47  C   UNL A   1      37.086  29.448  30.298  1.00  0.00     0.200 A 
ATOM     48  F   UNL A   1      36.683  30.217  28.103  1.00  0.00    -0.200 F 
ATOM     49  F   UNL A   1      35.809  29.685  30.630  1.00  0.00    -0.200 F 
ENDBRANCH  25  39
BRANCH  26  50
ATOM     50  C   UNL A   1      48.927  26.597  26.331  1.00  0.00     0.064 A 
ATOM     51  C   UNL A   1      49.248  26.880  24.998  1.00  0.00     0.173 A 
ATOM     52  C   UNL A   1      49.929  26.044  27.144  1.00  0.00     0.173 A 
ATOM     53  F   UNL A   1      48.318  27.396  24.182  1.00  0.00    -0.203 F 
ATOM     54  C   UNL A   1      50.523  26.625  24.498  1.00  0.00     0.198 A 
ATOM     55  C   UNL A   1      51.211  25.816  26.650  1.00  0.00     0.198 A 
ATOM     56  F   UNL A   1      49.673  25.767  28.431  1.00  0.00    -0.203 F 
ATOM     57  F   UNL A   1      50.801  26.888  23.214  1.00  0.00    -0.200 F 
ATOM     58  C   UNL A   1      51.507  26.103  25.327  1.00  0.00     0.200 A 
ATOM     59  F   UNL A   1      52.163  25.331  27.460  1.00  0.00    -0.200 F 
ATOM     60  F   UNL A   1      52.739  25.881  24.850  1.00  0.00    -0.200 F 
ENDBRANCH  26  50
BRANCH  38  61
ATOM     61  C   UNL A   1      46.003  32.422  28.858  1.00  0.00     0.064 A 
ATOM     62  C   UNL A   1      46.649  32.758  30.055  1.00  0.00     0.173 A 
ATOM     63  C   UNL A   1      45.924  33.400  27.854  1.00  0.00     0.173 A 
ATOM     64  F   UNL A   1      46.734  31.863  31.051  1.00  0.00    -0.203 F 
ATOM     65  C   UNL A   1      47.192  34.027  30.241  1.00  0.00     0.198 A 
ATOM     66  C   UNL A   1      46.491  34.657  28.033  1.00  0.00     0.198 A 
ATOM     67  F   UNL A   1      45.318  33.124  26.689  1.00  0.00    -0.203 F 
ATOM     68  F   UNL A   1      47.781  34.337  31.405  1.00  0.00    -0.200 F 
ATOM     69  C   UNL A   1      47.123  34.970  29.227  1.00  0.00     0.200 A 
ATOM     70  F   UNL A   1      46.435  35.562  27.046  1.00  0.00    -0.200 F 
ATOM     71  F   UNL A   1      47.664  36.184  29.401  1.00  0.00    -0.200 F 
ENDBRANCH  38  61
ENDBRANCH  12  13
ENDBRANCH   5   7
ENDBRANCH   2   3
ENDBRANCH   1   2
BRANCH   1  72
ATOM     72  C   UNL A   1      36.612  20.821  24.795  1.00  0.00     0.117 C 
BRANCH  72  73
ATOM     73  N   UNL A   1      35.919  21.092  26.040  1.00  0.00    -0.356 N 
ATOM     74  C   UNL A   1      34.653  21.488  26.314  1.00  0.00     0.226 C 
ATOM     75  H   UNL A   1      36.477  20.963  26.841  1.00  0.00     0.163 HD
ATOM     76  O   UNL A   1      34.398  21.650  27.514  1.00  0.00    -0.274 OA
BRANCH  74  77
ATOM     77  C   UNL A   1      33.546  21.614  25.254  1.00  0.00     0.053 C 
ATOM     78  C   UNL A   1      32.756  22.903  25.616  1.00  0.00     0.017 C 
ATOM     79  C   UNL A   1      33.976  21.958  23.819  1.00  0.00     0.017 C 
ATOM     80  C   UNL A   1      32.025  23.324  24.352  1.00  0.00     0.001 C 
ATOM     81  C   UNL A   1      32.876  22.818  23.203  1.00  0.00     0.001 C 
BRANCH  77  82
ATOM     82  C   UNL A   1      32.603  20.380  25.354  1.00  0.00     0.052 C 
BRANCH  82  83
ATOM     83  C   UNL A   1      33.021  19.135  24.598  1.00  0.00    -0.045 A 
ATOM     84  C   UNL A   1      32.552  18.890  23.296  1.00  0.00     0.004 A 
ATOM     85  C   UNL A   1      33.902  18.210  25.175  1.00  0.00     0.024 A 
ATOM     86  C   UNL A   1      32.900  17.722  22.615  1.00  0.00     0.002 A 
ATOM     87  C   UNL A   1      34.270  17.056  24.479  1.00  0.00     0.041 A 
ATOM     88  C   UNL A   1      33.758  16.800  23.208  1.00  0.00     0.020 A 
ATOM     89  Cl  UNL A   1      35.366  15.940  25.195  1.00  0.00    -0.084 Cl
ENDBRANCH  82  83
ENDBRANCH  77  82
ENDBRANCH  74  77
ENDBRANCH  72  73
ENDBRANCH   1  72
TORSDOF 12
ENDMDL
MODEL 2
REMARK VINA RESULT:     -12.5      0.277      1.653
REMARK SMILES O=C(NCCCNC(=O)C1(Cc2cccc(Cl)c2)CCCC1)c1ccc(-c2c3nc(c(-c4c(F)c(F)c(F)c(F)c4F)c4ccc([nH]4)c(-c4c(F)c(F)c(F)c(F)c4F)c4nc(c(-c5c(F)c(F)c(F)c(F)c5F)c5ccc2[nH]5)C=C4)C=C3)cc1
REMARK SMILES IDX 5 1 4 2 3 3 1 4 2 5 23 7 24 8 85 9 25 10 84 11 26 12 27 13
REMARK SMILES IDX 28 14 78 15 29 16 83 17 77 18 79 19 30 20 82 21 76 22 75 23
REMARK SMILES IDX 31 25 63 26 43 27 62 28 44 29 47 30 61 31 80 32 45 33 46 34
REMARK SMILES IDX 60 36 81 37 48 38 32 39 33 40 41 41 34 42 35 43 39 44 42 45
REMARK SMILES IDX 36 46 37 47 40 48 38 49 64 50 65 51 73 52 66 53 67 54 71 55
REMARK SMILES IDX 74 56 68 57 69 58 72 59 70 60 49 61 50 62 58 63 51 64 52 65
REMARK SMILES IDX 56 66 59 67 53 68 54 69 57 70 55 71 6 72 7 73 8 74 9 76
REMARK SMILES IDX 10 77 19 78 22 79 20 80 21 81 11 82 12 83 13 84 18 85 14 86
REMARK SMILES IDX 16 87 15 88 17 89
REMARK H PARENT 3 6 79 24 47 35 7 75
REMARK Flexibility Score: inf
ROOT
ATOM      1  C   UNL A   1      37.727  19.790  25.004  1.00  0.00     0.042 C 
ENDROOT
BRANCH   1   2
ATOM      2  C   UNL A   1      38.930  20.341  25.761  1.00  0.00     0.118 C 
BRANCH   2   3
ATOM      3  N   UNL A   1      39.972  19.332  25.909  1.00  0.00    -0.352 N 
ATOM      4  O   UNL A   1      42.083  18.546  25.876  1.00  0.00    -0.269 OA
ATOM      5  C   UNL A   1      41.323  19.499  26.049  1.00  0.00     0.251 C 
ATOM      6  H   UNL A   1      39.658  18.399  25.907  1.00  0.00     0.163 HD
BRANCH   5   7
ATOM      7  C   UNL A   1      41.868  20.820  26.408  1.00  0.00     0.039 A 
ATOM      8  C   UNL A   1      42.054  21.801  25.427  1.00  0.00     0.014 A 
ATOM      9  C   UNL A   1      42.143  21.100  27.748  1.00  0.00     0.014 A 
ATOM     10  C   UNL A   1      42.611  23.026  25.770  1.00  0.00     0.010 A 
ATOM     11  C   UNL A   1      42.632  22.356  28.102  1.00  0.00     0.010 A 
ATOM     12  C   UNL A   1      42.880  23.323  27.113  1.00  0.00    -0.014 A 
BRANCH  12  13
ATOM     13  C   UNL A   1      43.349  24.674  27.496  1.00  0.00     0.031 A 
ATOM     14  C   UNL A   1      42.396  25.679  28.066  1.00  0.00     0.074 A 
ATOM     15  C   UNL A   1      44.637  24.996  27.276  1.00  0.00     0.049 A 
ATOM     16  N   UNL A   1      42.599  26.940  28.354  1.00  0.00    -0.248 NA
ATOM     17  C   UNL A   1      41.030  25.211  28.337  1.00  0.00     0.031 C 
ATOM     18  C   UNL A   1      45.645  24.094  26.719  1.00  0.00     0.029 A 
ATOM     19  N   UNL A   1      45.312  26.173  27.475  1.00  0.00    -0.354 N 
ATOM     20  C   UNL A   1      41.382  27.423  28.813  1.00  0.00     0.074 A 
ATOM     21  C   UNL A   1      40.440  26.325  28.746  1.00  0.00     0.031 C 
ATOM     22  C   UNL A   1      46.812  24.747  26.621  1.00  0.00     0.029 A 
ATOM     23  C   UNL A   1      46.616  26.128  27.046  1.00  0.00     0.049 A 
ATOM     24  H   UNL A   1      44.904  26.969  27.883  1.00  0.00     0.167 HD
ATOM     25  C   UNL A   1      41.086  28.670  29.249  1.00  0.00     0.037 A 
ATOM     26  C   UNL A   1      47.541  27.101  26.964  1.00  0.00     0.037 A 
ATOM     27  C   UNL A   1      42.041  29.747  29.314  1.00  0.00     0.049 A 
ATOM     28  C   UNL A   1      47.182  28.484  27.423  1.00  0.00     0.074 A 
ATOM     29  C   UNL A   1      41.859  31.036  29.786  1.00  0.00     0.029 A 
ATOM     30  N   UNL A   1      43.358  29.663  28.880  1.00  0.00    -0.354 N 
ATOM     31  N   UNL A   1      46.041  28.925  27.894  1.00  0.00    -0.248 NA
ATOM     32  C   UNL A   1      48.235  29.505  27.340  1.00  0.00     0.031 C 
ATOM     33  C   UNL A   1      43.048  31.746  29.584  1.00  0.00     0.029 A 
ATOM     34  C   UNL A   1      43.991  30.885  29.044  1.00  0.00     0.049 A 
ATOM     35  H   UNL A   1      43.779  28.853  28.509  1.00  0.00     0.167 HD
ATOM     36  C   UNL A   1      46.241  30.265  28.187  1.00  0.00     0.074 A 
ATOM     37  C   UNL A   1      47.616  30.566  27.842  1.00  0.00     0.031 C 
ATOM     38  C   UNL A   1      45.364  31.162  28.701  1.00  0.00     0.037 A 
BRANCH  25  39
ATOM     39  C   UNL A   1      39.666  28.944  29.653  1.00  0.00     0.064 A 
ATOM     40  C   UNL A   1      39.210  28.729  30.963  1.00  0.00     0.173 A 
ATOM     41  C   UNL A   1      38.747  29.439  28.714  1.00  0.00     0.173 A 
ATOM     42  F   UNL A   1      40.044  28.247  31.897  1.00  0.00    -0.203 F 
ATOM     43  C   UNL A   1      37.879  28.958  31.306  1.00  0.00     0.198 A 
ATOM     44  C   UNL A   1      37.425  29.697  29.070  1.00  0.00     0.198 A 
ATOM     45  F   UNL A   1      39.130  29.670  27.449  1.00  0.00    -0.203 F 
ATOM     46  F   UNL A   1      37.454  28.686  32.547  1.00  0.00    -0.200 F 
ATOM     47  C   UNL A   1      36.990  29.446  30.362  1.00  0.00     0.200 A 
ATOM     48  F   UNL A   1      36.570  30.180  28.158  1.00  0.00    -0.200 F 
ATOM     49  F   UNL A   1      35.709  29.663  30.692  1.00  0.00    -0.200 F 
ENDBRANCH  25  39
BRANCH  26  50
ATOM     50  C   UNL A   1      48.879  26.779  26.410  1.00  0.00     0.064 A 
ATOM     51  C   UNL A   1      49.863  26.178  27.202  1.00  0.00     0.173 A 
ATOM     52  C   UNL A   1      49.172  27.000  25.054  1.00  0.00     0.173 A 
ATOM     53  F   UNL A   1      49.632  25.960  28.505  1.00  0.00    -0.203 F 
ATOM     54  C   UNL A   1      51.093  25.808  26.661  1.00  0.00     0.198 A 
ATOM     55  C   UNL A   1      50.390  26.605  24.509  1.00  0.00     0.198 A 
ATOM     56  F   UNL A   1      48.256  27.562  24.252  1.00  0.00    -0.203 F 
ATOM     57  F   UNL A   1      52.026  25.250  27.444  1.00  0.00    -0.200 F 
ATOM     58  C   UNL A   1      51.352  26.012  25.313  1.00  0.00     0.200 A 
ATOM     59  F   UNL A   1      50.627  26.784  23.202  1.00  0.00    -0.200 F 
ATOM     60  F   UNL A   1      52.525  25.633  24.788  1.00  0.00    -0.200 F 
ENDBRANCH  26  50
BRANCH  38  61
ATOM     61  C   UNL A   1      45.870  32.549  28.963  1.00  0.00     0.064 A 
ATOM     62  C   UNL A   1      45.753  33.570  28.009  1.00  0.00     0.173 A 
ATOM     63  C   UNL A   1      46.410  32.877  30.216  1.00  0.00     0.173 A 
ATOM     64  F   UNL A   1      45.259  33.302  26.790  1.00  0.00    -0.203 F 
ATOM     65  C   UNL A   1      46.166  34.868  28.299  1.00  0.00     0.198 A 
ATOM     66  C   UNL A   1      46.797  34.180  30.511  1.00  0.00     0.198 A 
ATOM     67  F   UNL A   1      46.540  31.935  31.163  1.00  0.00    -0.203 F 
ATOM     68  F   UNL A   1      46.072  35.823  27.363  1.00  0.00    -0.200 F 
ATOM     69  C   UNL A   1      46.675  35.174  29.552  1.00  0.00     0.200 A 
ATOM     70  F   UNL A   1      47.276  34.476  31.727  1.00  0.00    -0.200 F 
ATOM     71  F   UNL A   1      47.053  36.428  29.834  1.00  0.00    -0.200 F 
ENDBRANCH  38  61
ENDBRANCH  12  13
ENDBRANCH   5   7
ENDBRANCH   2   3
ENDBRANCH   1   2
BRANCH   1  72
ATOM     72  C   UNL A   1      36.648  20.846  24.805  1.00  0.00     0.117 C 
BRANCH  72  73
ATOM     73  N   UNL A   1      35.928  21.073  26.043  1.00  0.00    -0.356 N 
ATOM     74  C   UNL A   1      34.690  21.557  26.305  1.00  0.00     0.226 C 
ATOM     75  H   UNL A   1      36.437  20.828  26.850  1.00  0.00     0.163 HD
ATOM     76  O   UNL A   1      34.398  21.640  27.504  1.00  0.00    -0.274 OA
BRANCH  74  77
ATOM     77  C   UNL A   1      33.646  21.870  25.221  1.00  0.00     0.053 C 
ATOM     78  C   UNL A   1      33.011  23.231  25.622  1.00  0.00     0.017 C 
ATOM     79  C   UNL A   1      34.165  22.220  23.818  1.00  0.00     0.017 C 
ATOM     80  C   UNL A   1      32.383  23.798  24.359  1.00  0.00     0.001 C 
ATOM     81  C   UNL A   1      33.203  23.239  23.212  1.00  0.00     0.001 C 
BRANCH  77  82
ATOM     82  C   UNL A   1      32.552  20.763  25.233  1.00  0.00     0.052 C 
BRANCH  82  83
ATOM     83  C   UNL A   1      32.851  19.496  24.455  1.00  0.00    -0.045 A 
ATOM     84  C   UNL A   1      32.310  19.293  23.174  1.00  0.00     0.004 A 
ATOM     85  C   UNL A   1      33.689  18.509  24.990  1.00  0.00     0.024 A 
ATOM     86  C   UNL A   1      32.546  18.108  22.474  1.00  0.00     0.002 A 
ATOM     87  C   UNL A   1      33.946  17.338  24.274  1.00  0.00     0.041 A 
ATOM     88  C   UNL A   1      33.363  17.125  23.026  1.00  0.00     0.020 A 
ATOM     89  Cl  UNL A   1      34.992  16.144  24.938  1.00  0.00    -0.084 Cl
ENDBRANCH  82  83
ENDBRANCH  77  82
ENDBRANCH  74  77
ENDBRANCH  72  73
ENDBRANCH   1  72
TORSDOF 12
ENDMDL
MODEL 3
REMARK VINA RESULT:     -12.5      6.382     11.529
REMARK SMILES O=C(NCCCNC(=O)C1(Cc2cccc(Cl)c2)CCCC1)c1ccc(-c2c3nc(c(-c4c(F)c(F)c(F)c(F)c4F)c4ccc([nH]4)c(-c4c(F)c(F)c(F)c(F)c4F)c4nc(c(-c5c(F)c(F)c(F)c(F)c5F)c5ccc2[nH]5)C=C4)C=C3)cc1
REMARK SMILES IDX 5 1 4 2 3 3 1 4 2 5 23 7 24 8 85 9 25 10 84 11 26 12 27 13
REMARK SMILES IDX 28 14 78 15 29 16 83 17 77 18 79 19 30 20 82 21 76 22 75 23
REMARK SMILES IDX 31 25 63 26 43 27 62 28 44 29 47 30 61 31 80 32 45 33 46 34
REMARK SMILES IDX 60 36 81 37 48 38 32 39 33 40 41 41 34 42 35 43 39 44 42 45
REMARK SMILES IDX 36 46 37 47 40 48 38 49 64 50 65 51 73 52 66 53 67 54 71 55
REMARK SMILES IDX 74 56 68 57 69 58 72 59 70 60 49 61 50 62 58 63 51 64 52 65
REMARK SMILES IDX 56 66 59 67 53 68 54 69 57 70 55 71 6 72 7 73 8 74 9 76
REMARK SMILES IDX 10 77 19 78 22 79 20 80 21 81 11 82 12 83 13 84 18 85 14 86
REMARK SMILES IDX 16 87 15 88 17 89
REMARK H PARENT 3 6 79 24 47 35 7 75
REMARK Flexibility Score: inf
ROOT
ATOM      1  C   UNL A   1      31.417  31.864  26.434  1.00  0.00     0.042 C 
ENDROOT
BRANCH   1   2
ATOM      2  C   UNL A   1      32.665  32.429  27.102  1.00  0.00     0.118 C 
BRANCH   2   3
ATOM      3  N   UNL A   1      32.484  33.827  27.470  1.00  0.00    -0.352 N 
ATOM      4  O   UNL A   1      32.601  35.622  28.828  1.00  0.00    -0.269 OA
ATOM      5  C   UNL A   1      33.073  34.539  28.480  1.00  0.00     0.251 C 
ATOM      6  H   UNL A   1      31.847  34.331  26.913  1.00  0.00     0.163 HD
BRANCH   5   7
ATOM      7  C   UNL A   1      34.274  34.010  29.149  1.00  0.00     0.039 A 
ATOM      8  C   UNL A   1      34.156  33.066  30.175  1.00  0.00     0.014 A 
ATOM      9  C   UNL A   1      35.534  34.422  28.709  1.00  0.00     0.014 A 
ATOM     10  C   UNL A   1      35.292  32.608  30.830  1.00  0.00     0.010 A 
ATOM     11  C   UNL A   1      36.676  33.905  29.317  1.00  0.00     0.010 A 
ATOM     12  C   UNL A   1      36.563  33.004  30.389  1.00  0.00    -0.014 A 
BRANCH  12  13
ATOM     13  C   UNL A   1      37.776  32.416  30.999  1.00  0.00     0.031 A 
ATOM     14  C   UNL A   1      38.525  31.320  30.305  1.00  0.00     0.074 A 
ATOM     15  C   UNL A   1      38.166  32.853  32.210  1.00  0.00     0.049 A 
ATOM     16  N   UNL A   1      39.538  30.611  30.733  1.00  0.00    -0.248 NA
ATOM     17  C   UNL A   1      38.066  30.963  28.955  1.00  0.00     0.031 C 
ATOM     18  C   UNL A   1      37.504  33.910  32.976  1.00  0.00     0.029 A 
ATOM     19  N   UNL A   1      39.198  32.450  33.019  1.00  0.00    -0.354 N 
ATOM     20  C   UNL A   1      39.821  29.707  29.720  1.00  0.00     0.074 A 
ATOM     21  C   UNL A   1      38.860  29.942  28.663  1.00  0.00     0.031 C 
ATOM     22  C   UNL A   1      38.145  34.075  34.141  1.00  0.00     0.029 A 
ATOM     23  C   UNL A   1      39.219  33.093  34.232  1.00  0.00     0.049 A 
ATOM     24  H   UNL A   1      39.857  31.768  32.757  1.00  0.00     0.167 HD
ATOM     25  C   UNL A   1      40.797  28.769  29.682  1.00  0.00     0.037 A 
ATOM     26  C   UNL A   1      39.990  32.887  35.315  1.00  0.00     0.037 A 
ATOM     27  C   UNL A   1      41.749  28.555  30.743  1.00  0.00     0.049 A 
ATOM     28  C   UNL A   1      41.044  31.821  35.264  1.00  0.00     0.074 A 
ATOM     29  C   UNL A   1      42.808  27.665  30.786  1.00  0.00     0.029 A 
ATOM     30  N   UNL A   1      41.746  29.233  31.955  1.00  0.00    -0.354 N 
ATOM     31  N   UNL A   1      41.333  30.996  34.287  1.00  0.00    -0.248 NA
ATOM     32  C   UNL A   1      41.878  31.654  36.461  1.00  0.00     0.031 C 
ATOM     33  C   UNL A   1      43.410  27.765  32.046  1.00  0.00     0.029 A 
ATOM     34  C   UNL A   1      42.766  28.759  32.766  1.00  0.00     0.049 A 
ATOM     35  H   UNL A   1      41.111  29.945  32.202  1.00  0.00     0.167 HD
ATOM     36  C   UNL A   1      42.395  30.228  34.737  1.00  0.00     0.074 A 
ATOM     37  C   UNL A   1      42.703  30.687  36.077  1.00  0.00     0.031 C 
ATOM     38  C   UNL A   1      43.060  29.236  34.094  1.00  0.00     0.037 A 
BRANCH  25  39
ATOM     39  C   UNL A   1      40.858  27.881  28.473  1.00  0.00     0.064 A 
ATOM     40  C   UNL A   1      40.181  26.652  28.416  1.00  0.00     0.173 A 
ATOM     41  C   UNL A   1      41.600  28.269  27.346  1.00  0.00     0.173 A 
ATOM     42  F   UNL A   1      39.466  26.227  29.469  1.00  0.00    -0.203 F 
ATOM     43  C   UNL A   1      40.280  25.829  27.297  1.00  0.00     0.198 A 
ATOM     44  C   UNL A   1      41.670  27.458  26.216  1.00  0.00     0.198 A 
ATOM     45  F   UNL A   1      42.262  29.437  27.342  1.00  0.00    -0.203 F 
ATOM     46  F   UNL A   1      39.675  24.633  27.292  1.00  0.00    -0.200 F 
ATOM     47  C   UNL A   1      41.020  26.234  26.197  1.00  0.00     0.200 A 
ATOM     48  F   UNL A   1      42.376  27.858  25.149  1.00  0.00    -0.200 F 
ATOM     49  F   UNL A   1      41.116  25.440  25.121  1.00  0.00    -0.200 F 
ENDBRANCH  25  39
BRANCH  26  50
ATOM     50  C   UNL A   1      39.763  33.711  36.528  1.00  0.00     0.064 A 
ATOM     51  C   UNL A   1      40.335  34.982  36.656  1.00  0.00     0.173 A 
ATOM     52  C   UNL A   1      38.908  33.270  37.551  1.00  0.00     0.173 A 
ATOM     53  F   UNL A   1      41.168  35.438  35.709  1.00  0.00    -0.203 F 
ATOM     54  C   UNL A   1      40.060  35.784  37.761  1.00  0.00     0.198 A 
ATOM     55  C   UNL A   1      38.613  34.084  38.642  1.00  0.00     0.198 A 
ATOM     56  F   UNL A   1      38.326  32.065  37.467  1.00  0.00    -0.203 F 
ATOM     57  F   UNL A   1      40.634  36.990  37.869  1.00  0.00    -0.200 F 
ATOM     58  C   UNL A   1      39.192  35.339  38.748  1.00  0.00     0.200 A 
ATOM     59  F   UNL A   1      37.757  33.659  39.581  1.00  0.00    -0.200 F 
ATOM     60  F   UNL A   1      38.910  36.122  39.799  1.00  0.00    -0.200 F 
ENDBRANCH  26  50
BRANCH  38  61
ATOM     61  C   UNL A   1      44.214  28.601  34.811  1.00  0.00     0.064 A 
ATOM     62  C   UNL A   1      45.505  29.146  34.758  1.00  0.00     0.173 A 
ATOM     63  C   UNL A   1      44.006  27.476  35.623  1.00  0.00     0.173 A 
ATOM     64  F   UNL A   1      45.757  30.211  33.983  1.00  0.00    -0.203 F 
ATOM     65  C   UNL A   1      46.547  28.581  35.488  1.00  0.00     0.198 A 
ATOM     66  C   UNL A   1      45.044  26.930  36.371  1.00  0.00     0.198 A 
ATOM     67  F   UNL A   1      42.787  26.920  35.708  1.00  0.00    -0.203 F 
ATOM     68  F   UNL A   1      47.780  29.101  35.402  1.00  0.00    -0.200 F 
ATOM     69  C   UNL A   1      46.314  27.483  36.302  1.00  0.00     0.200 A 
ATOM     70  F   UNL A   1      44.813  25.877  37.167  1.00  0.00    -0.200 F 
ATOM     71  F   UNL A   1      47.315  26.954  37.019  1.00  0.00    -0.200 F 
ENDBRANCH  38  61
ENDBRANCH  12  13
ENDBRANCH   5   7
ENDBRANCH   2   3
ENDBRANCH   1   2
BRANCH   1  72
ATOM     72  C   UNL A   1      31.523  30.362  26.209  1.00  0.00     0.117 C 
BRANCH  72  73
ATOM     73  N   UNL A   1      32.538  30.069  25.215  1.00  0.00    -0.356 N 
ATOM     74  C   UNL A   1      32.772  28.983  24.440  1.00  0.00     0.226 C 
ATOM     75  H   UNL A   1      33.181  30.801  25.077  1.00  0.00     0.163 HD
ATOM     76  O   UNL A   1      33.761  29.064  23.701  1.00  0.00    -0.274 OA
BRANCH  74  77
ATOM     77  C   UNL A   1      31.830  27.770  24.357  1.00  0.00     0.053 C 
ATOM     78  C   UNL A   1      32.750  26.519  24.313  1.00  0.00     0.017 C 
ATOM     79  C   UNL A   1      30.990  27.441  25.601  1.00  0.00     0.017 C 
ATOM     80  C   UNL A   1      31.891  25.341  24.742  1.00  0.00     0.001 C 
ATOM     81  C   UNL A   1      30.836  25.923  25.663  1.00  0.00     0.001 C 
BRANCH  77  82
ATOM     82  C   UNL A   1      31.004  27.856  23.041  1.00  0.00     0.052 C 
BRANCH  82  83
ATOM     83  C   UNL A   1      29.695  28.617  23.101  1.00  0.00    -0.045 A 
ATOM     84  C   UNL A   1      28.468  27.936  23.179  1.00  0.00     0.004 A 
ATOM     85  C   UNL A   1      29.681  30.019  23.100  1.00  0.00     0.024 A 
ATOM     86  C   UNL A   1      27.258  28.633  23.188  1.00  0.00     0.002 A 
ATOM     87  C   UNL A   1      28.470  30.712  23.139  1.00  0.00     0.041 A 
ATOM     88  C   UNL A   1      27.258  30.025  23.165  1.00  0.00     0.020 A 
ATOM     89  Cl  UNL A   1      28.472  32.433  23.156  1.00  0.00    -0.084 Cl
ENDBRANCH  82  83
ENDBRANCH  77  82
ENDBRANCH  74  77
ENDBRANCH  72  73
ENDBRANCH   1  72
TORSDOF 12
ENDMDL
