MODEL 1
REMARK VINA RESULT:     -11.5      0.000      0.000
REMARK SMILES CC(C)[NH2+][C@@]1(C(=O)NCCCNC(=O)c2ccc(-c3c4nc(c(-c5c(F)c(F)c(F)c(F)c5F)c5ccc([nH]5)c(-c5c(F)c(F)c(F)c(F)c5F)c5nc(c(-c6c(F)c(F)c(F)c(F)c6F)c6ccc3[nH]6)C=C5)C=C4)cc2)CCC[C@@H]([NH+]2CCS(=O)CC2)C1
REMARK SMILES IDX 10 1 9 2 8 3 6 4 7 5 5 7 78 8 89 9 79 10 81 11 80 12 4 13
REMARK SMILES IDX 2 16 1 17 3 18 82 19 83 20 88 21 84 23 87 24 85 25 86 26
REMARK SMILES IDX 11 27 12 28 13 29 14 31 15 32 16 33 77 34 17 35 76 36 18 37
REMARK SMILES IDX 19 38 20 39 70 40 21 41 75 42 69 43 71 44 22 45 74 46 68 47
REMARK SMILES IDX 67 48 23 50 55 51 35 52 54 53 36 54 39 55 53 56 72 57 37 58
REMARK SMILES IDX 38 59 52 61 73 62 40 63 24 64 25 65 33 66 26 67 27 68 31 69
REMARK SMILES IDX 34 70 28 71 29 72 32 73 30 74 56 75 57 76 65 77 58 78 59 79
REMARK SMILES IDX 63 80 66 81 60 82 61 83 64 84 62 85 41 86 42 87 50 88 43 89
REMARK SMILES IDX 44 90 48 91 51 92 45 93 46 94 49 95 47 96
REMARK H PARENT 8 6 4 14 4 15 82 22 12 30 71 49 39 60
REMARK Flexibility Score: inf
ROOT
ATOM      1  C   UNL A   1      36.161  23.708  24.643  1.00  0.00     0.042 C 
ENDROOT
BRANCH   1   2
ATOM      2  C   UNL A   1      35.228  22.707  23.964  1.00  0.00     0.118 C 
BRANCH   2   3
ATOM      3  N   UNL A   1      34.506  23.307  22.866  1.00  0.00    -0.351 N 
ATOM      4  C   UNL A   1      33.264  23.831  22.714  1.00  0.00     0.281 C 
ATOM      5  O   UNL A   1      32.942  23.916  21.518  1.00  0.00    -0.268 OA
ATOM      6  H   UNL A   1      35.037  23.344  22.038  1.00  0.00     0.163 HD
BRANCH   4   7
ATOM      7  C   UNL A   1      32.247  24.229  23.880  1.00  0.00     0.181 C 
ATOM      8  C   UNL A   1      30.783  24.536  23.495  1.00  0.00     0.079 C 
ATOM      9  C   UNL A   1      32.899  25.374  24.706  1.00  0.00     0.144 C 
ATOM     10  C   UNL A   1      30.329  25.987  23.327  1.00  0.00     0.013 C 
ATOM     11  C   UNL A   1      32.610  26.789  24.197  1.00  0.00     0.190 C 
ATOM     12  C   UNL A   1      31.093  27.022  24.138  1.00  0.00     0.065 C 
BRANCH   7  13
ATOM     13  N   UNL A   1      32.219  23.087  24.873  1.00  0.00    -0.331 N 
ATOM     14  H   UNL A   1      31.427  22.497  24.616  1.00  0.00     0.347 HD
ATOM     15  H   UNL A   1      33.158  22.696  24.792  1.00  0.00     0.347 HD
BRANCH  13  16
ATOM     16  C   UNL A   1      32.099  23.341  26.316  1.00  0.00     0.176 C 
ATOM     17  C   UNL A   1      30.655  22.985  26.702  1.00  0.00     0.075 C 
ATOM     18  C   UNL A   1      33.053  22.538  27.199  1.00  0.00     0.075 C 
ENDBRANCH  13  16
ENDBRANCH   7  13
BRANCH  11  19
ATOM     19  N   UNL A   1      33.337  27.893  24.852  1.00  0.00    -0.331 N 
ATOM     20  C   UNL A   1      33.016  29.284  24.525  1.00  0.00     0.276 C 
ATOM     21  C   UNL A   1      33.671  27.731  26.276  1.00  0.00     0.276 C 
ATOM     22  H   UNL A   1      34.193  27.732  24.322  1.00  0.00     0.348 HD
ATOM     23  C   UNL A   1      31.833  29.859  25.288  1.00  0.00     0.166 C 
ATOM     24  C   UNL A   1      32.639  28.232  27.290  1.00  0.00     0.166 C 
ATOM     25  S   UNL A   1      32.185  29.973  27.065  1.00  0.00     0.032 S 
ATOM     26  O   UNL A   1      33.413  30.813  27.251  1.00  0.00    -0.259 OA
ENDBRANCH  11  19
ENDBRANCH   4   7
ENDBRANCH   2   3
ENDBRANCH   1   2
BRANCH   1  27
ATOM     27  C   UNL A   1      36.493  23.352  26.082  1.00  0.00     0.118 C 
BRANCH  27  28
ATOM     28  N   UNL A   1      37.654  22.479  26.173  1.00  0.00    -0.352 N 
ATOM     29  C   UNL A   1      38.972  22.758  26.432  1.00  0.00     0.251 C 
ATOM     30  H   UNL A   1      37.461  21.524  26.025  1.00  0.00     0.163 HD
ATOM     31  O   UNL A   1      39.820  21.890  26.205  1.00  0.00    -0.269 OA
BRANCH  29  32
ATOM     32  C   UNL A   1      39.401  24.071  26.965  1.00  0.00     0.039 A 
ATOM     33  C   UNL A   1      40.029  24.979  26.105  1.00  0.00     0.014 A 
ATOM     34  C   UNL A   1      39.261  24.393  28.315  1.00  0.00     0.014 A 
ATOM     35  C   UNL A   1      40.462  26.219  26.586  1.00  0.00     0.010 A 
ATOM     36  C   UNL A   1      39.595  25.666  28.772  1.00  0.00     0.010 A 
ATOM     37  C   UNL A   1      40.220  26.586  27.919  1.00  0.00    -0.014 A 
BRANCH  37  38
ATOM     38  C   UNL A   1      40.648  27.904  28.457  1.00  0.00     0.031 A 
ATOM     39  C   UNL A   1      42.085  28.123  28.853  1.00  0.00     0.074 A 
ATOM     40  C   UNL A   1      39.734  28.873  28.663  1.00  0.00     0.049 A 
ATOM     41  N   UNL A   1      42.635  29.152  29.447  1.00  0.00    -0.248 NA
ATOM     42  C   UNL A   1      43.024  27.022  28.579  1.00  0.00     0.031 C 
ATOM     43  C   UNL A   1      38.303  28.763  28.377  1.00  0.00     0.029 A 
ATOM     44  N   UNL A   1      39.872  30.138  29.178  1.00  0.00    -0.354 N 
ATOM     45  C   UNL A   1      43.965  28.807  29.648  1.00  0.00     0.074 A 
ATOM     46  C   UNL A   1      44.133  27.458  29.158  1.00  0.00     0.031 C 
ATOM     47  C   UNL A   1      37.698  29.916  28.706  1.00  0.00     0.029 A 
ATOM     48  C   UNL A   1      38.689  30.832  29.259  1.00  0.00     0.049 A 
ATOM     49  H   UNL A   1      40.736  30.513  29.463  1.00  0.00     0.167 HD
ATOM     50  C   UNL A   1      44.964  29.557  30.172  1.00  0.00     0.037 A 
ATOM     51  C   UNL A   1      38.432  32.064  29.738  1.00  0.00     0.037 A 
ATOM     52  C   UNL A   1      44.806  30.922  30.599  1.00  0.00     0.049 A 
ATOM     53  C   UNL A   1      39.569  32.892  30.276  1.00  0.00     0.074 A 
ATOM     54  C   UNL A   1      45.774  31.800  31.055  1.00  0.00     0.029 A 
ATOM     55  N   UNL A   1      43.601  31.608  30.616  1.00  0.00    -0.354 N 
ATOM     56  N   UNL A   1      40.837  32.581  30.388  1.00  0.00    -0.248 NA
ATOM     57  C   UNL A   1      39.239  34.244  30.749  1.00  0.00     0.031 C 
ATOM     58  C   UNL A   1      45.148  33.005  31.386  1.00  0.00     0.029 A 
ATOM     59  C   UNL A   1      43.797  32.893  31.092  1.00  0.00     0.049 A 
ATOM     60  H   UNL A   1      42.735  31.236  30.331  1.00  0.00     0.167 HD
ATOM     61  C   UNL A   1      41.460  33.703  30.918  1.00  0.00     0.074 A 
ATOM     62  C   UNL A   1      40.433  34.710  31.088  1.00  0.00     0.031 C 
ATOM     63  C   UNL A   1      42.764  33.883  31.240  1.00  0.00     0.037 A 
BRANCH  50  64
ATOM     64  C   UNL A   1      46.322  28.932  30.300  1.00  0.00     0.064 A 
ATOM     65  C   UNL A   1      46.714  28.250  31.463  1.00  0.00     0.173 A 
ATOM     66  C   UNL A   1      47.222  28.960  29.222  1.00  0.00     0.173 A 
ATOM     67  F   UNL A   1      45.895  28.202  32.524  1.00  0.00    -0.203 F 
ATOM     68  C   UNL A   1      47.962  27.640  31.550  1.00  0.00     0.198 A 
ATOM     69  C   UNL A   1      48.458  28.325  29.303  1.00  0.00     0.198 A 
ATOM     70  F   UNL A   1      46.895  29.592  28.085  1.00  0.00    -0.203 F 
ATOM     71  F   UNL A   1      48.329  27.030  32.685  1.00  0.00    -0.200 F 
ATOM     72  C   UNL A   1      48.829  27.669  30.467  1.00  0.00     0.200 A 
ATOM     73  F   UNL A   1      49.290  28.342  28.252  1.00  0.00    -0.200 F 
ATOM     74  F   UNL A   1      50.025  27.069  30.549  1.00  0.00    -0.200 F 
ENDBRANCH  50  64
BRANCH  51  75
ATOM     75  C   UNL A   1      37.044  32.601  29.718  1.00  0.00     0.064 A 
ATOM     76  C   UNL A   1      36.188  32.425  30.814  1.00  0.00     0.173 A 
ATOM     77  C   UNL A   1      36.542  33.282  28.600  1.00  0.00     0.173 A 
ATOM     78  F   UNL A   1      36.616  31.761  31.898  1.00  0.00    -0.203 F 
ATOM     79  C   UNL A   1      34.873  32.884  30.782  1.00  0.00     0.198 A 
ATOM     80  C   UNL A   1      35.235  33.768  28.581  1.00  0.00     0.198 A 
ATOM     81  F   UNL A   1      37.322  33.482  27.528  1.00  0.00    -0.203 F 
ATOM     82  F   UNL A   1      34.060  32.654  31.822  1.00  0.00    -0.200 F 
ATOM     83  C   UNL A   1      34.400  33.560  29.668  1.00  0.00     0.200 A 
ATOM     84  F   UNL A   1      34.785  34.431  27.508  1.00  0.00    -0.200 F 
ATOM     85  F   UNL A   1      33.134  34.000  29.637  1.00  0.00    -0.200 F 
ENDBRANCH  51  75
BRANCH  63  86
ATOM     86  C   UNL A   1      43.160  35.227  31.776  1.00  0.00     0.064 A 
ATOM     87  C   UNL A   1      43.680  36.226  30.940  1.00  0.00     0.173 A 
ATOM     88  C   UNL A   1      42.972  35.533  33.132  1.00  0.00     0.173 A 
ATOM     89  F   UNL A   1      43.891  35.976  29.639  1.00  0.00    -0.203 F 
ATOM     90  C   UNL A   1      44.019  37.476  31.448  1.00  0.00     0.198 A 
ATOM     91  C   UNL A   1      43.284  36.794  33.630  1.00  0.00     0.198 A 
ATOM     92  F   UNL A   1      42.470  34.613  33.970  1.00  0.00    -0.203 F 
ATOM     93  F   UNL A   1      44.555  38.403  30.643  1.00  0.00    -0.200 F 
ATOM     94  C   UNL A   1      43.813  37.762  32.791  1.00  0.00     0.200 A 
ATOM     95  F   UNL A   1      43.071  37.072  34.924  1.00  0.00    -0.200 F 
ATOM     96  F   UNL A   1      44.131  38.970  33.277  1.00  0.00    -0.200 F 
ENDBRANCH  63  86
ENDBRANCH  37  38
ENDBRANCH  29  32
ENDBRANCH  27  28
ENDBRANCH   1  27
TORSDOF 13
ENDMDL
MODEL 2
REMARK VINA RESULT:     -11.5      3.319      8.305
REMARK SMILES CC(C)[NH2+][C@@]1(C(=O)NCCCNC(=O)c2ccc(-c3c4nc(c(-c5c(F)c(F)c(F)c(F)c5F)c5ccc([nH]5)c(-c5c(F)c(F)c(F)c(F)c5F)c5nc(c(-c6c(F)c(F)c(F)c(F)c6F)c6ccc3[nH]6)C=C5)C=C4)cc2)CCC[C@@H]([NH+]2CCS(=O)CC2)C1
REMARK SMILES IDX 10 1 9 2 8 3 6 4 7 5 5 7 78 8 89 9 79 10 81 11 80 12 4 13
REMARK SMILES IDX 2 16 1 17 3 18 82 19 83 20 88 21 84 23 87 24 85 25 86 26
REMARK SMILES IDX 11 27 12 28 13 29 14 31 15 32 16 33 77 34 17 35 76 36 18 37
REMARK SMILES IDX 19 38 20 39 70 40 21 41 75 42 69 43 71 44 22 45 74 46 68 47
REMARK SMILES IDX 67 48 23 50 55 51 35 52 54 53 36 54 39 55 53 56 72 57 37 58
REMARK SMILES IDX 38 59 52 61 73 62 40 63 24 64 25 65 33 66 26 67 27 68 31 69
REMARK SMILES IDX 34 70 28 71 29 72 32 73 30 74 56 75 57 76 65 77 58 78 59 79
REMARK SMILES IDX 63 80 66 81 60 82 61 83 64 84 62 85 41 86 42 87 50 88 43 89
REMARK SMILES IDX 44 90 48 91 51 92 45 93 46 94 49 95 47 96
REMARK H PARENT 8 6 4 14 4 15 82 22 12 30 71 49 39 60
REMARK Flexibility Score: inf
ROOT
ATOM      1  C   UNL A   1      32.184  27.735  27.366  1.00  0.00     0.042 C 
ENDROOT
BRANCH   1   2
ATOM      2  C   UNL A   1      31.507  26.799  26.366  1.00  0.00     0.118 C 
BRANCH   2   3
ATOM      3  N   UNL A   1      31.204  25.515  26.955  1.00  0.00    -0.351 N 
ATOM      4  C   UNL A   1      31.352  24.227  26.560  1.00  0.00     0.281 C 
ATOM      5  O   UNL A   1      30.641  23.455  27.224  1.00  0.00    -0.268 OA
ATOM      6  H   UNL A   1      30.795  25.594  27.847  1.00  0.00     0.163 HD
BRANCH   4   7
ATOM      7  C   UNL A   1      32.241  23.697  25.343  1.00  0.00     0.181 C 
ATOM      8  C   UNL A   1      33.772  23.637  25.532  1.00  0.00     0.079 C 
ATOM      9  C   UNL A   1      31.827  24.494  24.074  1.00  0.00     0.144 C 
ATOM     10  C   UNL A   1      34.650  24.765  24.988  1.00  0.00     0.013 C 
ATOM     11  C   UNL A   1      32.593  25.801  23.848  1.00  0.00     0.190 C 
ATOM     12  C   UNL A   1      34.102  25.516  23.785  1.00  0.00     0.065 C 
BRANCH   7  13
ATOM     13  N   UNL A   1      31.775  22.295  25.012  1.00  0.00    -0.331 N 
ATOM     14  H   UNL A   1      31.567  21.840  25.902  1.00  0.00     0.347 HD
ATOM     15  H   UNL A   1      31.004  22.461  24.365  1.00  0.00     0.347 HD
BRANCH  13  16
ATOM     16  C   UNL A   1      32.633  21.369  24.260  1.00  0.00     0.176 C 
ATOM     17  C   UNL A   1      32.638  20.047  25.043  1.00  0.00     0.075 C 
ATOM     18  C   UNL A   1      32.187  21.087  22.826  1.00  0.00     0.075 C 
ENDBRANCH  13  16
ENDBRANCH   7  13
BRANCH  11  19
ATOM     19  N   UNL A   1      32.125  26.666  22.749  1.00  0.00    -0.331 N 
ATOM     20  C   UNL A   1      30.718  26.652  22.347  1.00  0.00     0.276 C 
ATOM     21  C   UNL A   1      32.705  28.016  22.657  1.00  0.00     0.276 C 
ATOM     22  H   UNL A   1      32.568  26.099  22.026  1.00  0.00     0.348 HD
ATOM     23  C   UNL A   1      29.810  27.541  23.184  1.00  0.00     0.166 C 
ATOM     24  C   UNL A   1      31.983  29.131  23.417  1.00  0.00     0.166 C 
ATOM     25  S   UNL A   1      30.231  29.295  22.978  1.00  0.00     0.032 S 
ATOM     26  O   UNL A   1      30.136  29.637  21.521  1.00  0.00    -0.259 OA
ENDBRANCH  11  19
ENDBRANCH   4   7
ENDBRANCH   2   3
ENDBRANCH   1   2
BRANCH   1  27
ATOM     27  C   UNL A   1      33.451  28.382  26.832  1.00  0.00     0.118 C 
BRANCH  27  28
ATOM     28  N   UNL A   1      33.438  29.828  27.003  1.00  0.00    -0.352 N 
ATOM     29  C   UNL A   1      34.292  30.661  27.679  1.00  0.00     0.251 C 
ATOM     30  H   UNL A   1      32.689  30.286  26.557  1.00  0.00     0.163 HD
ATOM     31  O   UNL A   1      33.939  31.823  27.901  1.00  0.00    -0.269 OA
BRANCH  29  32
ATOM     32  C   UNL A   1      35.617  30.202  28.155  1.00  0.00     0.039 A 
ATOM     33  C   UNL A   1      36.703  30.235  27.273  1.00  0.00     0.014 A 
ATOM     34  C   UNL A   1      35.790  29.671  29.434  1.00  0.00     0.014 A 
ATOM     35  C   UNL A   1      37.961  29.789  27.690  1.00  0.00     0.010 A 
ATOM     36  C   UNL A   1      37.063  29.327  29.885  1.00  0.00     0.010 A 
ATOM     37  C   UNL A   1      38.159  29.360  29.012  1.00  0.00    -0.014 A 
BRANCH  37  38
ATOM     38  C   UNL A   1      39.488  28.900  29.494  1.00  0.00     0.031 A 
ATOM     39  C   UNL A   1      40.277  29.755  30.452  1.00  0.00     0.074 A 
ATOM     40  C   UNL A   1      40.018  27.758  29.013  1.00  0.00     0.049 A 
ATOM     41  N   UNL A   1      41.496  29.592  30.899  1.00  0.00    -0.248 NA
ATOM     42  C   UNL A   1      39.621  30.978  30.944  1.00  0.00     0.031 C 
ATOM     43  C   UNL A   1      39.380  26.874  28.037  1.00  0.00     0.029 A 
ATOM     44  N   UNL A   1      41.224  27.154  29.268  1.00  0.00    -0.354 N 
ATOM     45  C   UNL A   1      41.762  30.703  31.689  1.00  0.00     0.074 A 
ATOM     46  C   UNL A   1      40.598  31.558  31.626  1.00  0.00     0.031 C 
ATOM     47  C   UNL A   1      40.192  25.834  27.787  1.00  0.00     0.029 A 
ATOM     48  C   UNL A   1      41.422  25.996  28.556  1.00  0.00     0.049 A 
ATOM     49  H   UNL A   1      41.885  27.516  29.901  1.00  0.00     0.167 HD
ATOM     50  C   UNL A   1      42.867  30.975  32.423  1.00  0.00     0.037 A 
ATOM     51  C   UNL A   1      42.482  25.167  28.517  1.00  0.00     0.037 A 
ATOM     52  C   UNL A   1      43.998  30.091  32.533  1.00  0.00     0.049 A 
ATOM     53  C   UNL A   1      43.681  25.472  29.375  1.00  0.00     0.074 A 
ATOM     54  C   UNL A   1      45.125  30.228  33.324  1.00  0.00     0.029 A 
ATOM     55  N   UNL A   1      44.137  28.900  31.836  1.00  0.00    -0.354 N 
ATOM     56  N   UNL A   1      43.887  26.486  30.178  1.00  0.00    -0.248 NA
ATOM     57  C   UNL A   1      44.794  24.512  29.325  1.00  0.00     0.031 C 
ATOM     58  C   UNL A   1      45.966  29.140  33.075  1.00  0.00     0.029 A 
ATOM     59  C   UNL A   1      45.342  28.302  32.164  1.00  0.00     0.049 A 
ATOM     60  H   UNL A   1      43.478  28.535  31.203  1.00  0.00     0.167 HD
ATOM     61  C   UNL A   1      45.135  26.277  30.748  1.00  0.00     0.074 A 
ATOM     62  C   UNL A   1      45.633  25.027  30.212  1.00  0.00     0.031 C 
ATOM     63  C   UNL A   1      45.812  27.051  31.631  1.00  0.00     0.037 A 
BRANCH  50  64
ATOM     64  C   UNL A   1      42.910  32.271  33.178  1.00  0.00     0.064 A 
ATOM     65  C   UNL A   1      42.444  32.371  34.499  1.00  0.00     0.173 A 
ATOM     66  C   UNL A   1      43.483  33.413  32.598  1.00  0.00     0.173 A 
ATOM     67  F   UNL A   1      41.879  31.310  35.096  1.00  0.00    -0.203 F 
ATOM     68  C   UNL A   1      42.528  33.570  35.200  1.00  0.00     0.198 A 
ATOM     69  C   UNL A   1      43.592  34.604  33.312  1.00  0.00     0.198 A 
ATOM     70  F   UNL A   1      43.950  33.371  31.341  1.00  0.00    -0.203 F 
ATOM     71  F   UNL A   1      42.039  33.652  36.445  1.00  0.00    -0.200 F 
ATOM     72  C   UNL A   1      43.111  34.683  34.611  1.00  0.00     0.200 A 
ATOM     73  F   UNL A   1      44.166  35.674  32.746  1.00  0.00    -0.200 F 
ATOM     74  F   UNL A   1      43.203  35.832  35.293  1.00  0.00    -0.200 F 
ENDBRANCH  50  64
BRANCH  51  75
ATOM     75  C   UNL A   1      42.456  23.958  27.650  1.00  0.00     0.064 A 
ATOM     76  C   UNL A   1      42.028  22.721  28.151  1.00  0.00     0.173 A 
ATOM     77  C   UNL A   1      42.874  24.011  26.312  1.00  0.00     0.173 A 
ATOM     78  F   UNL A   1      41.638  22.615  29.430  1.00  0.00    -0.203 F 
ATOM     79  C   UNL A   1      42.046  21.577  27.356  1.00  0.00     0.198 A 
ATOM     80  C   UNL A   1      42.863  22.871  25.509  1.00  0.00     0.198 A 
ATOM     81  F   UNL A   1      43.288  25.171  25.783  1.00  0.00    -0.203 F 
ATOM     82  F   UNL A   1      41.682  20.397  27.877  1.00  0.00    -0.200 F 
ATOM     83  C   UNL A   1      42.458  21.654  26.035  1.00  0.00     0.200 A 
ATOM     84  F   UNL A   1      43.250  22.953  24.230  1.00  0.00    -0.200 F 
ATOM     85  F   UNL A   1      42.476  20.552  25.271  1.00  0.00    -0.200 F 
ENDBRANCH  51  75
BRANCH  63  86
ATOM     86  C   UNL A   1      47.147  26.553  32.099  1.00  0.00     0.064 A 
ATOM     87  C   UNL A   1      47.262  25.669  33.181  1.00  0.00     0.173 A 
ATOM     88  C   UNL A   1      48.319  26.928  31.425  1.00  0.00     0.173 A 
ATOM     89  F   UNL A   1      46.171  25.294  33.865  1.00  0.00    -0.203 F 
ATOM     90  C   UNL A   1      48.506  25.196  33.587  1.00  0.00     0.198 A 
ATOM     91  C   UNL A   1      49.558  26.429  31.815  1.00  0.00     0.198 A 
ATOM     92  F   UNL A   1      48.260  27.765  30.378  1.00  0.00    -0.203 F 
ATOM     93  F   UNL A   1      48.599  24.387  34.651  1.00  0.00    -0.200 F 
ATOM     94  C   UNL A   1      49.653  25.570  32.899  1.00  0.00     0.200 A 
ATOM     95  F   UNL A   1      50.662  26.780  31.141  1.00  0.00    -0.200 F 
ATOM     96  F   UNL A   1      50.848  25.106  33.286  1.00  0.00    -0.200 F 
ENDBRANCH  63  86
ENDBRANCH  37  38
ENDBRANCH  29  32
ENDBRANCH  27  28
ENDBRANCH   1  27
TORSDOF 13
ENDMDL
MODEL 3
REMARK VINA RESULT:     -11.4      3.604      8.766
REMARK SMILES CC(C)[NH2+][C@@]1(C(=O)NCCCNC(=O)c2ccc(-c3c4nc(c(-c5c(F)c(F)c(F)c(F)c5F)c5ccc([nH]5)c(-c5c(F)c(F)c(F)c(F)c5F)c5nc(c(-c6c(F)c(F)c(F)c(F)c6F)c6ccc3[nH]6)C=C5)C=C4)cc2)CCC[C@@H]([NH+]2CCS(=O)CC2)C1
REMARK SMILES IDX 10 1 9 2 8 3 6 4 7 5 5 7 78 8 89 9 79 10 81 11 80 12 4 13
REMARK SMILES IDX 2 16 1 17 3 18 82 19 83 20 88 21 84 23 87 24 85 25 86 26
REMARK SMILES IDX 11 27 12 28 13 29 14 31 15 32 16 33 77 34 17 35 76 36 18 37
REMARK SMILES IDX 19 38 20 39 70 40 21 41 75 42 69 43 71 44 22 45 74 46 68 47
REMARK SMILES IDX 67 48 23 50 55 51 35 52 54 53 36 54 39 55 53 56 72 57 37 58
REMARK SMILES IDX 38 59 52 61 73 62 40 63 24 64 25 65 33 66 26 67 27 68 31 69
REMARK SMILES IDX 34 70 28 71 29 72 32 73 30 74 56 75 57 76 65 77 58 78 59 79
REMARK SMILES IDX 63 80 66 81 60 82 61 83 64 84 62 85 41 86 42 87 50 88 43 89
REMARK SMILES IDX 44 90 48 91 51 92 45 93 46 94 49 95 47 96
REMARK H PARENT 8 6 4 14 4 15 82 22 12 30 71 49 39 60
REMARK Flexibility Score: inf
ROOT
ATOM      1  C   UNL A   1      33.204  27.891  26.796  1.00  0.00     0.042 C 
ENDROOT
BRANCH   1   2
ATOM      2  C   UNL A   1      31.764  27.883  26.287  1.00  0.00     0.118 C 
BRANCH   2   3
ATOM      3  N   UNL A   1      31.084  26.653  26.623  1.00  0.00    -0.351 N 
ATOM      4  C   UNL A   1      30.878  25.473  25.989  1.00  0.00     0.281 C 
ATOM      5  O   UNL A   1      29.949  24.828  26.502  1.00  0.00    -0.268 OA
ATOM      6  H   UNL A   1      30.676  26.678  27.519  1.00  0.00     0.163 HD
BRANCH   4   7
ATOM      7  C   UNL A   1      31.633  24.947  24.683  1.00  0.00     0.181 C 
ATOM      8  C   UNL A   1      31.033  23.738  23.933  1.00  0.00     0.079 C 
ATOM      9  C   UNL A   1      33.128  24.737  25.053  1.00  0.00     0.144 C 
ATOM     10  C   UNL A   1      31.596  22.336  24.176  1.00  0.00     0.013 C 
ATOM     11  C   UNL A   1      33.473  23.352  25.608  1.00  0.00     0.190 C 
ATOM     12  C   UNL A   1      33.054  22.269  24.602  1.00  0.00     0.065 C 
BRANCH   7  13
ATOM     13  N   UNL A   1      31.700  26.096  23.699  1.00  0.00    -0.331 N 
ATOM     14  H   UNL A   1      30.859  26.035  23.123  1.00  0.00     0.347 HD
ATOM     15  H   UNL A   1      31.809  26.907  24.308  1.00  0.00     0.347 HD
BRANCH  13  16
ATOM     16  C   UNL A   1      32.832  26.233  22.772  1.00  0.00     0.176 C 
ATOM     17  C   UNL A   1      32.287  25.913  21.371  1.00  0.00     0.075 C 
ATOM     18  C   UNL A   1      33.482  27.616  22.739  1.00  0.00     0.075 C 
ENDBRANCH  13  16
ENDBRANCH   7  13
BRANCH  11  19
ATOM     19  N   UNL A   1      34.843  23.162  26.121  1.00  0.00    -0.331 N 
ATOM     20  C   UNL A   1      35.308  21.829  26.507  1.00  0.00     0.276 C 
ATOM     21  C   UNL A   1      35.914  23.953  25.494  1.00  0.00     0.276 C 
ATOM     22  H   UNL A   1      34.636  23.595  27.021  1.00  0.00     0.348 HD
ATOM     23  C   UNL A   1      35.822  20.978  25.355  1.00  0.00     0.166 C 
ATOM     24  C   UNL A   1      36.621  23.329  24.288  1.00  0.00     0.166 C 
ATOM     25  S   UNL A   1      37.322  21.691  24.625  1.00  0.00     0.032 S 
ATOM     26  O   UNL A   1      38.355  21.828  25.703  1.00  0.00    -0.259 OA
ENDBRANCH  11  19
ENDBRANCH   4   7
ENDBRANCH   2   3
ENDBRANCH   1   2
BRANCH   1  27
ATOM     27  C   UNL A   1      34.093  28.901  26.091  1.00  0.00     0.118 C 
BRANCH  27  28
ATOM     28  N   UNL A   1      33.931  30.243  26.632  1.00  0.00    -0.352 N 
ATOM     29  C   UNL A   1      34.595  30.892  27.641  1.00  0.00     0.251 C 
ATOM     30  H   UNL A   1      33.225  30.776  26.200  1.00  0.00     0.163 HD
ATOM     31  O   UNL A   1      34.114  31.934  28.097  1.00  0.00    -0.269 OA
BRANCH  29  32
ATOM     32  C   UNL A   1      35.863  30.372  28.201  1.00  0.00     0.039 A 
ATOM     33  C   UNL A   1      35.838  29.704  29.431  1.00  0.00     0.014 A 
ATOM     34  C   UNL A   1      37.088  30.596  27.570  1.00  0.00     0.014 A 
ATOM     35  C   UNL A   1      37.023  29.220  29.993  1.00  0.00     0.010 A 
ATOM     36  C   UNL A   1      38.253  30.023  28.074  1.00  0.00     0.010 A 
ATOM     37  C   UNL A   1      38.239  29.348  29.303  1.00  0.00    -0.014 A 
BRANCH  37  38
ATOM     38  C   UNL A   1      39.514  28.827  29.861  1.00  0.00     0.031 A 
ATOM     39  C   UNL A   1      40.183  29.545  31.004  1.00  0.00     0.074 A 
ATOM     40  C   UNL A   1      40.108  27.758  29.293  1.00  0.00     0.049 A 
ATOM     41  N   UNL A   1      41.350  29.322  31.556  1.00  0.00    -0.248 NA
ATOM     42  C   UNL A   1      39.462  30.692  31.581  1.00  0.00     0.031 C 
ATOM     43  C   UNL A   1      39.592  27.013  28.144  1.00  0.00     0.029 A 
ATOM     44  N   UNL A   1      41.288  27.124  29.595  1.00  0.00    -0.354 N 
ATOM     45  C   UNL A   1      41.514  30.317  32.511  1.00  0.00     0.074 A 
ATOM     46  C   UNL A   1      40.352  31.174  32.436  1.00  0.00     0.031 C 
ATOM     47  C   UNL A   1      40.440  26.016  27.848  1.00  0.00     0.029 A 
ATOM     48  C   UNL A   1      41.577  26.072  28.760  1.00  0.00     0.049 A 
ATOM     49  H   UNL A   1      41.872  27.397  30.338  1.00  0.00     0.167 HD
ATOM     50  C   UNL A   1      42.530  30.487  33.390  1.00  0.00     0.037 A 
ATOM     51  C   UNL A   1      42.647  25.254  28.727  1.00  0.00     0.037 A 
ATOM     52  C   UNL A   1      43.653  29.595  33.504  1.00  0.00     0.049 A 
ATOM     53  C   UNL A   1      43.742  25.440  29.743  1.00  0.00     0.074 A 
ATOM     54  C   UNL A   1      44.687  29.623  34.424  1.00  0.00     0.029 A 
ATOM     55  N   UNL A   1      43.883  28.508  32.674  1.00  0.00    -0.354 N 
ATOM     56  N   UNL A   1      43.846  26.338  30.692  1.00  0.00    -0.248 NA
ATOM     57  C   UNL A   1      44.866  24.494  29.687  1.00  0.00     0.031 C 
ATOM     58  C   UNL A   1      45.565  28.577  34.125  1.00  0.00     0.029 A 
ATOM     59  C   UNL A   1      45.053  27.870  33.048  1.00  0.00     0.049 A 
ATOM     60  H   UNL A   1      43.301  28.232  31.929  1.00  0.00     0.167 HD
ATOM     61  C   UNL A   1      45.028  26.053  31.360  1.00  0.00     0.074 A 
ATOM     62  C   UNL A   1      45.598  24.885  30.721  1.00  0.00     0.031 C 
ATOM     63  C   UNL A   1      45.595  26.701  32.407  1.00  0.00     0.037 A 
BRANCH  50  64
ATOM     64  C   UNL A   1      42.474  31.670  34.312  1.00  0.00     0.064 A 
ATOM     65  C   UNL A   1      43.046  32.904  33.964  1.00  0.00     0.173 A 
ATOM     66  C   UNL A   1      41.784  31.588  35.532  1.00  0.00     0.173 A 
ATOM     67  F   UNL A   1      43.725  33.032  32.814  1.00  0.00    -0.203 F 
ATOM     68  C   UNL A   1      42.950  34.003  34.813  1.00  0.00     0.198 A 
ATOM     69  C   UNL A   1      41.666  32.697  36.365  1.00  0.00     0.198 A 
ATOM     70  F   UNL A   1      41.213  30.434  35.909  1.00  0.00    -0.203 F 
ATOM     71  F   UNL A   1      43.539  35.159  34.478  1.00  0.00    -0.200 F 
ATOM     72  C   UNL A   1      42.252  33.902  36.008  1.00  0.00     0.200 A 
ATOM     73  F   UNL A   1      40.980  32.602  37.513  1.00  0.00    -0.200 F 
ATOM     74  F   UNL A   1      42.149  34.965  36.817  1.00  0.00    -0.200 F 
ENDBRANCH  50  64
BRANCH  51  75
ATOM     75  C   UNL A   1      42.730  24.172  27.709  1.00  0.00     0.064 A 
ATOM     76  C   UNL A   1      42.325  22.865  28.011  1.00  0.00     0.173 A 
ATOM     77  C   UNL A   1      43.232  24.419  26.423  1.00  0.00     0.173 A 
ATOM     78  F   UNL A   1      41.859  22.575  29.236  1.00  0.00    -0.203 F 
ATOM     79  C   UNL A   1      42.446  21.839  27.077  1.00  0.00     0.198 A 
ATOM     80  C   UNL A   1      43.323  23.397  25.478  1.00  0.00     0.198 A 
ATOM     81  F   UNL A   1      43.628  25.654  26.081  1.00  0.00    -0.203 F 
ATOM     82  F   UNL A   1      42.102  20.588  27.411  1.00  0.00    -0.200 F 
ATOM     83  C   UNL A   1      42.939  22.107  25.809  1.00  0.00     0.200 A 
ATOM     84  F   UNL A   1      43.789  23.663  24.251  1.00  0.00    -0.200 F 
ATOM     85  F   UNL A   1      43.055  21.119  24.911  1.00  0.00    -0.200 F 
ENDBRANCH  51  75
BRANCH  63  86
ATOM     86  C   UNL A   1      46.879  26.143  32.947  1.00  0.00     0.064 A 
ATOM     87  C   UNL A   1      48.125  26.610  32.505  1.00  0.00     0.173 A 
ATOM     88  C   UNL A   1      46.859  25.165  33.952  1.00  0.00     0.173 A 
ATOM     89  F   UNL A   1      48.194  27.534  31.535  1.00  0.00    -0.203 F 
ATOM     90  C   UNL A   1      49.306  26.100  33.034  1.00  0.00     0.198 A 
ATOM     91  C   UNL A   1      48.042  24.680  34.500  1.00  0.00     0.198 A 
ATOM     92  F   UNL A   1      45.691  24.693  34.414  1.00  0.00    -0.203 F 
ATOM     93  F   UNL A   1      50.487  26.528  32.567  1.00  0.00    -0.200 F 
ATOM     94  C   UNL A   1      49.264  25.141  34.037  1.00  0.00     0.200 A 
ATOM     95  F   UNL A   1      48.000  23.765  35.478  1.00  0.00    -0.200 F 
ATOM     96  F   UNL A   1      50.404  24.659  34.552  1.00  0.00    -0.200 F 
ENDBRANCH  63  86
ENDBRANCH  37  38
ENDBRANCH  29  32
ENDBRANCH  27  28
ENDBRANCH   1  27
TORSDOF 13
ENDMDL
