MODEL 1
REMARK VINA RESULT:     -13.5      0.000      0.000
REMARK SMILES CCc1ncc(C[N@H+]2CCC[C@@H](c3cccc(C(=O)NCCCNC(=O)c4ccc(-c5c6nc(c(-c7c(F)c(F)c(F)c(F)c7F)c7ccc([nH]7)c(-c7c(F)c(F)c(F)c(F)c7F)c7nc(c(-c8c(F)c(F)c(F)c(F)c8F)c8ccc5[nH]8)C=C7)C=C6)cc4)c3)C2)cn1
REMARK SMILES IDX 21 1 20 2 18 3 19 4 17 6 13 7 14 8 90 9 15 10 16 11 12 12
REMARK SMILES IDX 8 13 9 14 91 15 10 17 11 18 7 19 6 20 3 21 4 22 93 23 5 24
REMARK SMILES IDX 92 25 2 26 1 27 22 28 23 29 24 30 25 31 26 33 27 34 28 35
REMARK SMILES IDX 89 36 29 37 88 38 30 39 31 40 32 41 82 42 33 43 87 44 81 45
REMARK SMILES IDX 83 46 34 47 86 48 80 49 79 50 35 52 67 53 47 54 66 55 48 56
REMARK SMILES IDX 51 57 65 58 84 59 49 60 50 61 64 63 85 64 52 65 36 66 37 67
REMARK SMILES IDX 45 68 38 69 39 70 43 71 46 72 40 73 41 74 44 75 42 76 68 77
REMARK SMILES IDX 69 78 77 79 70 80 71 81 75 82 78 83 72 84 73 85 76 86 74 87
REMARK SMILES IDX 53 88 54 89 62 90 55 91 56 92 60 93 63 94 57 95 58 96 61 97
REMARK SMILES IDX 59 98
REMARK H PARENT 20 5 8 16 24 32 83 51 51 62
REMARK Flexibility Score: inf
ROOT
ATOM      1  C   UNL A   1      37.515  21.048  24.586  1.00  0.00     0.118 C 
ENDROOT
BRANCH   1   2
ATOM      2  N   UNL A   1      37.962  22.261  25.263  1.00  0.00    -0.352 N 
ATOM      3  C   UNL A   1      37.328  23.297  25.912  1.00  0.00     0.251 C 
ATOM      4  O   UNL A   1      38.043  24.179  26.393  1.00  0.00    -0.269 OA
ATOM      5  H   UNL A   1      38.941  22.362  25.252  1.00  0.00     0.163 HD
BRANCH   3   6
ATOM      6  C   UNL A   1      35.849  23.447  25.993  1.00  0.00     0.040 A 
ATOM      7  C   UNL A   1      33.850  24.796  25.701  1.00  0.00    -0.039 A 
ATOM      8  C   UNL A   1      33.130  23.907  26.501  1.00  0.00     0.004 A 
ATOM      9  C   UNL A   1      35.152  24.448  25.333  1.00  0.00     0.018 A 
ATOM     10  C   UNL A   1      33.754  22.768  27.012  1.00  0.00     0.001 A 
ATOM     11  C   UNL A   1      35.121  22.568  26.804  1.00  0.00     0.014 A 
BRANCH   7  12
ATOM     12  C   UNL A   1      33.326  26.136  25.219  1.00  0.00     0.074 C 
ATOM     13  N   UNL A   1      31.258  27.323  24.466  1.00  0.00    -0.331 N 
ATOM     14  C   UNL A   1      31.529  28.418  25.408  1.00  0.00     0.262 C 
ATOM     15  C   UNL A   1      31.826  26.051  24.940  1.00  0.00     0.270 C 
ATOM     16  H   UNL A   1      31.734  27.566  23.597  1.00  0.00     0.348 HD
ATOM     17  C   UNL A   1      33.031  28.591  25.641  1.00  0.00     0.062 C 
ATOM     18  C   UNL A   1      33.657  27.300  26.162  1.00  0.00     0.020 C 
BRANCH  13  19
ATOM     19  C   UNL A   1      29.827  27.198  24.118  1.00  0.00     0.302 C 
BRANCH  19  20
ATOM     20  C   UNL A   1      29.314  28.201  23.127  1.00  0.00     0.043 A 
ATOM     21  C   UNL A   1      28.444  30.265  21.590  1.00  0.00     0.127 A 
ATOM     22  N   UNL A   1      29.729  29.881  21.460  1.00  0.00    -0.241 NA
ATOM     23  N   UNL A   1      27.550  29.663  22.395  1.00  0.00    -0.241 NA
ATOM     24  C   UNL A   1      30.132  28.851  22.230  1.00  0.00     0.124 A 
ATOM     25  C   UNL A   1      28.002  28.630  23.126  1.00  0.00     0.124 A 
BRANCH  21  26
ATOM     26  C   UNL A   1      28.028  31.527  20.885  1.00  0.00     0.074 C 
ATOM     27  C   UNL A   1      28.031  32.753  21.786  1.00  0.00     0.012 C 
ENDBRANCH  21  26
ENDBRANCH  19  20
ENDBRANCH  13  19
ENDBRANCH   7  12
ENDBRANCH   3   6
ENDBRANCH   1   2
BRANCH   1  28
ATOM     28  C   UNL A   1      38.256  19.790  25.001  1.00  0.00     0.042 C 
BRANCH  28  29
ATOM     29  C   UNL A   1      39.249  20.007  26.126  1.00  0.00     0.118 C 
BRANCH  29  30
ATOM     30  N   UNL A   1      40.354  19.054  26.092  1.00  0.00    -0.352 N 
ATOM     31  C   UNL A   1      41.714  19.238  26.080  1.00  0.00     0.251 C 
ATOM     32  H   UNL A   1      40.073  18.110  26.075  1.00  0.00     0.163 HD
ATOM     33  O   UNL A   1      42.449  18.292  25.816  1.00  0.00    -0.269 OA
BRANCH  31  34
ATOM     34  C   UNL A   1      42.304  20.565  26.363  1.00  0.00     0.039 A 
ATOM     35  C   UNL A   1      42.705  21.373  25.295  1.00  0.00     0.014 A 
ATOM     36  C   UNL A   1      42.496  21.004  27.673  1.00  0.00     0.014 A 
ATOM     37  C   UNL A   1      43.219  22.648  25.543  1.00  0.00     0.010 A 
ATOM     38  C   UNL A   1      42.898  22.312  27.916  1.00  0.00     0.010 A 
ATOM     39  C   UNL A   1      43.272  23.147  26.854  1.00  0.00    -0.014 A 
BRANCH  39  40
ATOM     40  C   UNL A   1      43.710  24.536  27.142  1.00  0.00     0.031 A 
ATOM     41  C   UNL A   1      42.721  25.553  27.639  1.00  0.00     0.074 A 
ATOM     42  C   UNL A   1      44.977  24.900  26.869  1.00  0.00     0.049 A 
ATOM     43  N   UNL A   1      42.888  26.833  27.860  1.00  0.00    -0.248 NA
ATOM     44  C   UNL A   1      41.350  25.078  27.888  1.00  0.00     0.031 C 
ATOM     45  C   UNL A   1      46.011  24.019  26.323  1.00  0.00     0.029 A 
ATOM     46  N   UNL A   1      45.609  26.112  26.999  1.00  0.00    -0.354 N 
ATOM     47  C   UNL A   1      41.645  27.314  28.248  1.00  0.00     0.074 A 
ATOM     48  C   UNL A   1      40.720  26.206  28.177  1.00  0.00     0.031 C 
ATOM     49  C   UNL A   1      47.153  24.711  26.186  1.00  0.00     0.029 A 
ATOM     50  C   UNL A   1      46.921  26.094  26.592  1.00  0.00     0.049 A 
ATOM     51  H   UNL A   1      45.165  26.917  27.350  1.00  0.00     0.167 HD
ATOM     52  C   UNL A   1      41.313  28.564  28.652  1.00  0.00     0.037 A 
ATOM     53  C   UNL A   1      47.832  27.084  26.540  1.00  0.00     0.037 A 
ATOM     54  C   UNL A   1      42.247  29.654  28.748  1.00  0.00     0.049 A 
ATOM     55  C   UNL A   1      47.440  28.462  27.000  1.00  0.00     0.074 A 
ATOM     56  C   UNL A   1      42.032  30.936  29.224  1.00  0.00     0.029 A 
ATOM     57  N   UNL A   1      43.575  29.593  28.351  1.00  0.00    -0.354 N 
ATOM     58  N   UNL A   1      46.283  28.885  27.449  1.00  0.00    -0.248 NA
ATOM     59  C   UNL A   1      48.481  29.497  26.951  1.00  0.00     0.031 C 
ATOM     60  C   UNL A   1      43.213  31.666  29.061  1.00  0.00     0.029 A 
ATOM     61  C   UNL A   1      44.183  30.824  28.539  1.00  0.00     0.049 A 
ATOM     62  H   UNL A   1      44.020  28.793  27.988  1.00  0.00     0.167 HD
ATOM     63  C   UNL A   1      46.461  30.228  27.755  1.00  0.00     0.074 A 
ATOM     64  C   UNL A   1      47.845  30.542  27.460  1.00  0.00     0.031 C 
ATOM     65  C   UNL A   1      45.560  31.120  28.235  1.00  0.00     0.037 A 
BRANCH  52  66
ATOM     66  C   UNL A   1      39.877  28.817  29.017  1.00  0.00     0.064 A 
ATOM     67  C   UNL A   1      39.405  28.653  30.330  1.00  0.00     0.173 A 
ATOM     68  C   UNL A   1      38.964  29.257  28.047  1.00  0.00     0.173 A 
ATOM     69  F   UNL A   1      40.232  28.224  31.295  1.00  0.00    -0.203 F 
ATOM     70  C   UNL A   1      38.070  28.883  30.648  1.00  0.00     0.198 A 
ATOM     71  C   UNL A   1      37.636  29.521  28.376  1.00  0.00     0.198 A 
ATOM     72  F   UNL A   1      39.360  29.439  26.778  1.00  0.00    -0.203 F 
ATOM     73  F   UNL A   1      37.632  28.661  31.895  1.00  0.00    -0.200 F 
ATOM     74  C   UNL A   1      37.188  29.323  29.673  1.00  0.00     0.200 A 
ATOM     75  F   UNL A   1      36.789  29.961  27.435  1.00  0.00    -0.200 F 
ATOM     76  F   UNL A   1      35.903  29.549  29.981  1.00  0.00    -0.200 F 
ENDBRANCH  52  66
BRANCH  53  77
ATOM     77  C   UNL A   1      49.206  26.798  26.052  1.00  0.00     0.064 A 
ATOM     78  C   UNL A   1      50.189  26.300  26.919  1.00  0.00     0.173 A 
ATOM     79  C   UNL A   1      49.561  27.000  24.710  1.00  0.00     0.173 A 
ATOM     80  F   UNL A   1      49.903  26.108  28.215  1.00  0.00    -0.203 F 
ATOM     81  C   UNL A   1      51.479  26.032  26.466  1.00  0.00     0.198 A 
ATOM     82  C   UNL A   1      50.843  26.703  24.252  1.00  0.00     0.198 A 
ATOM     83  F   UNL A   1      48.656  27.467  23.839  1.00  0.00    -0.203 F 
ATOM     84  F   UNL A   1      52.411  25.595  27.324  1.00  0.00    -0.200 F 
ATOM     85  C   UNL A   1      51.803  26.226  25.132  1.00  0.00     0.200 A 
ATOM     86  F   UNL A   1      51.146  26.875  22.958  1.00  0.00    -0.200 F 
ATOM     87  F   UNL A   1      53.040  25.958  24.694  1.00  0.00    -0.200 F 
ENDBRANCH  53  77
BRANCH  65  88
ATOM     88  C   UNL A   1      46.047  32.518  28.489  1.00  0.00     0.064 A 
ATOM     89  C   UNL A   1      46.622  32.885  29.714  1.00  0.00     0.173 A 
ATOM     90  C   UNL A   1      45.971  33.491  27.481  1.00  0.00     0.173 A 
ATOM     91  F   UNL A   1      46.703  31.996  30.715  1.00  0.00    -0.203 F 
ATOM     92  C   UNL A   1      47.080  34.182  29.929  1.00  0.00     0.198 A 
ATOM     93  C   UNL A   1      46.460  34.778  27.688  1.00  0.00     0.198 A 
ATOM     94  F   UNL A   1      45.436  33.191  26.288  1.00  0.00    -0.203 F 
ATOM     95  F   UNL A   1      47.580  34.524  31.126  1.00  0.00    -0.200 F 
ATOM     96  C   UNL A   1      47.007  35.125  28.915  1.00  0.00     0.200 A 
ATOM     97  F   UNL A   1      46.403  35.682  26.701  1.00  0.00    -0.200 F 
ATOM     98  F   UNL A   1      47.457  36.370  29.120  1.00  0.00    -0.200 F 
ENDBRANCH  65  88
ENDBRANCH  39  40
ENDBRANCH  31  34
ENDBRANCH  29  30
ENDBRANCH  28  29
ENDBRANCH   1  28
TORSDOF 14
ENDMDL
MODEL 2
REMARK VINA RESULT:     -13.3      0.289      1.929
REMARK SMILES CCc1ncc(C[N@H+]2CCC[C@@H](c3cccc(C(=O)NCCCNC(=O)c4ccc(-c5c6nc(c(-c7c(F)c(F)c(F)c(F)c7F)c7ccc([nH]7)c(-c7c(F)c(F)c(F)c(F)c7F)c7nc(c(-c8c(F)c(F)c(F)c(F)c8F)c8ccc5[nH]8)C=C7)C=C6)cc4)c3)C2)cn1
REMARK SMILES IDX 21 1 20 2 18 3 19 4 17 6 13 7 14 8 90 9 15 10 16 11 12 12
REMARK SMILES IDX 8 13 9 14 91 15 10 17 11 18 7 19 6 20 3 21 4 22 93 23 5 24
REMARK SMILES IDX 92 25 2 26 1 27 22 28 23 29 24 30 25 31 26 33 27 34 28 35
REMARK SMILES IDX 89 36 29 37 88 38 30 39 31 40 32 41 82 42 33 43 87 44 81 45
REMARK SMILES IDX 83 46 34 47 86 48 80 49 79 50 35 52 67 53 47 54 66 55 48 56
REMARK SMILES IDX 51 57 65 58 84 59 49 60 50 61 64 63 85 64 52 65 36 66 37 67
REMARK SMILES IDX 45 68 38 69 39 70 43 71 46 72 40 73 41 74 44 75 42 76 68 77
REMARK SMILES IDX 69 78 77 79 70 80 71 81 75 82 78 83 72 84 73 85 76 86 74 87
REMARK SMILES IDX 53 88 54 89 62 90 55 91 56 92 60 93 63 94 57 95 58 96 61 97
REMARK SMILES IDX 59 98
REMARK H PARENT 20 5 8 16 24 32 83 51 51 62
REMARK Flexibility Score: inf
ROOT
ATOM      1  C   UNL A   1      37.453  20.782  24.666  1.00  0.00     0.118 C 
ENDROOT
BRANCH   1   2
ATOM      2  N   UNL A   1      37.942  22.059  25.174  1.00  0.00    -0.352 N 
ATOM      3  C   UNL A   1      37.351  23.165  25.745  1.00  0.00     0.251 C 
ATOM      4  O   UNL A   1      38.094  24.090  26.077  1.00  0.00    -0.269 OA
ATOM      5  H   UNL A   1      38.917  22.153  25.089  1.00  0.00     0.163 HD
BRANCH   3   6
ATOM      6  C   UNL A   1      35.880  23.332  25.905  1.00  0.00     0.040 A 
ATOM      7  C   UNL A   1      33.878  24.691  25.685  1.00  0.00    -0.039 A 
ATOM      8  C   UNL A   1      33.197  23.835  26.552  1.00  0.00     0.004 A 
ATOM      9  C   UNL A   1      35.154  24.320  25.254  1.00  0.00     0.018 A 
ATOM     10  C   UNL A   1      33.841  22.706  27.062  1.00  0.00     0.001 A 
ATOM     11  C   UNL A   1      35.192  22.486  26.782  1.00  0.00     0.014 A 
BRANCH   7  12
ATOM     12  C   UNL A   1      33.339  26.022  25.192  1.00  0.00     0.074 C 
ATOM     13  N   UNL A   1      31.342  27.111  24.154  1.00  0.00    -0.331 N 
ATOM     14  C   UNL A   1      31.359  28.155  25.187  1.00  0.00     0.262 C 
ATOM     15  C   UNL A   1      31.920  25.852  24.650  1.00  0.00     0.270 C 
ATOM     16  H   UNL A   1      31.938  27.444  23.397  1.00  0.00     0.348 HD
ATOM     17  C   UNL A   1      32.781  28.416  25.689  1.00  0.00     0.062 C 
ATOM     18  C   UNL A   1      33.410  27.140  26.241  1.00  0.00     0.020 C 
BRANCH  13  19
ATOM     19  C   UNL A   1      30.006  26.910  23.555  1.00  0.00     0.302 C 
BRANCH  19  20
ATOM     20  C   UNL A   1      29.412  28.115  22.885  1.00  0.00     0.043 A 
ATOM     21  C   UNL A   1      28.437  30.478  21.966  1.00  0.00     0.127 A 
ATOM     22  N   UNL A   1      29.681  30.122  21.591  1.00  0.00    -0.241 NA
ATOM     23  N   UNL A   1      27.628  29.719  22.726  1.00  0.00    -0.241 NA
ATOM     24  C   UNL A   1      30.137  28.941  22.056  1.00  0.00     0.124 A 
ATOM     25  C   UNL A   1      28.127  28.545  23.147  1.00  0.00     0.124 A 
BRANCH  21  26
ATOM     26  C   UNL A   1      27.985  31.870  21.617  1.00  0.00     0.074 C 
ATOM     27  C   UNL A   1      28.665  32.953  22.442  1.00  0.00     0.012 C 
ENDBRANCH  21  26
ENDBRANCH  19  20
ENDBRANCH  13  19
ENDBRANCH   7  12
ENDBRANCH   3   6
ENDBRANCH   1   2
BRANCH   1  28
ATOM     28  C   UNL A   1      38.345  19.597  24.989  1.00  0.00     0.042 C 
BRANCH  28  29
ATOM     29  C   UNL A   1      39.397  19.891  26.040  1.00  0.00     0.118 C 
BRANCH  29  30
ATOM     30  N   UNL A   1      40.505  18.940  26.006  1.00  0.00    -0.352 N 
ATOM     31  C   UNL A   1      41.865  19.127  26.033  1.00  0.00     0.251 C 
ATOM     32  H   UNL A   1      40.226  17.997  25.956  1.00  0.00     0.163 HD
ATOM     33  O   UNL A   1      42.608  18.189  25.761  1.00  0.00    -0.269 OA
BRANCH  31  34
ATOM     34  C   UNL A   1      42.445  20.446  26.368  1.00  0.00     0.039 A 
ATOM     35  C   UNL A   1      43.154  21.145  25.387  1.00  0.00     0.014 A 
ATOM     36  C   UNL A   1      42.324  20.983  27.649  1.00  0.00     0.014 A 
ATOM     37  C   UNL A   1      43.667  22.413  25.670  1.00  0.00     0.010 A 
ATOM     38  C   UNL A   1      42.732  22.288  27.898  1.00  0.00     0.010 A 
ATOM     39  C   UNL A   1      43.416  23.015  26.914  1.00  0.00    -0.014 A 
BRANCH  39  40
ATOM     40  C   UNL A   1      43.853  24.403  27.210  1.00  0.00     0.031 A 
ATOM     41  C   UNL A   1      42.856  25.424  27.686  1.00  0.00     0.074 A 
ATOM     42  C   UNL A   1      45.126  24.763  26.961  1.00  0.00     0.049 A 
ATOM     43  N   UNL A   1      43.023  26.703  27.909  1.00  0.00    -0.248 NA
ATOM     44  C   UNL A   1      41.479  24.953  27.908  1.00  0.00     0.031 C 
ATOM     45  C   UNL A   1      46.168  23.879  26.436  1.00  0.00     0.029 A 
ATOM     46  N   UNL A   1      45.758  25.973  27.102  1.00  0.00    -0.354 N 
ATOM     47  C   UNL A   1      41.774  27.189  28.272  1.00  0.00     0.074 A 
ATOM     48  C   UNL A   1      40.847  26.083  28.183  1.00  0.00     0.031 C 
ATOM     49  C   UNL A   1      47.314  24.568  26.322  1.00  0.00     0.029 A 
ATOM     50  C   UNL A   1      47.078  25.952  26.722  1.00  0.00     0.049 A 
ATOM     51  H   UNL A   1      45.309  26.780  27.444  1.00  0.00     0.167 HD
ATOM     52  C   UNL A   1      41.437  28.440  28.668  1.00  0.00     0.037 A 
ATOM     53  C   UNL A   1      47.993  26.939  26.687  1.00  0.00     0.037 A 
ATOM     54  C   UNL A   1      42.373  29.527  28.782  1.00  0.00     0.049 A 
ATOM     55  C   UNL A   1      47.596  28.318  27.138  1.00  0.00     0.074 A 
ATOM     56  C   UNL A   1      42.152  30.810  29.253  1.00  0.00     0.029 A 
ATOM     57  N   UNL A   1      43.708  29.462  28.411  1.00  0.00    -0.354 N 
ATOM     58  N   UNL A   1      46.432  28.745  27.563  1.00  0.00    -0.248 NA
ATOM     59  C   UNL A   1      48.641  29.350  27.109  1.00  0.00     0.031 C 
ATOM     60  C   UNL A   1      43.339  31.536  29.112  1.00  0.00     0.029 A 
ATOM     61  C   UNL A   1      44.316  30.691  28.610  1.00  0.00     0.049 A 
ATOM     62  H   UNL A   1      44.158  28.661  28.058  1.00  0.00     0.167 HD
ATOM     63  C   UNL A   1      46.608  30.087  27.872  1.00  0.00     0.074 A 
ATOM     64  C   UNL A   1      47.998  30.397  27.604  1.00  0.00     0.031 C 
ATOM     65  C   UNL A   1      45.700  30.983  28.333  1.00  0.00     0.037 A 
BRANCH  52  66
ATOM     66  C   UNL A   1      39.995  28.698  29.005  1.00  0.00     0.064 A 
ATOM     67  C   UNL A   1      39.078  29.145  28.040  1.00  0.00     0.173 A 
ATOM     68  C   UNL A   1      39.517  28.468  30.303  1.00  0.00     0.173 A 
ATOM     69  F   UNL A   1      39.484  29.392  26.785  1.00  0.00    -0.203 F 
ATOM     70  C   UNL A   1      37.748  29.388  28.372  1.00  0.00     0.198 A 
ATOM     71  C   UNL A   1      38.177  28.678  30.623  1.00  0.00     0.198 A 
ATOM     72  F   UNL A   1      40.346  28.033  31.263  1.00  0.00    -0.203 F 
ATOM     73  F   UNL A   1      36.907  29.872  27.448  1.00  0.00    -0.200 F 
ATOM     74  C   UNL A   1      37.297  29.148  29.661  1.00  0.00     0.200 A 
ATOM     75  F   UNL A   1      37.740  28.431  31.866  1.00  0.00    -0.200 F 
ATOM     76  F   UNL A   1      36.015  29.378  29.978  1.00  0.00    -0.200 F 
ENDBRANCH  52  66
BRANCH  53  77
ATOM     77  C   UNL A   1      49.376  26.648  26.227  1.00  0.00     0.064 A 
ATOM     78  C   UNL A   1      49.752  26.862  24.894  1.00  0.00     0.173 A 
ATOM     79  C   UNL A   1      50.353  26.168  27.112  1.00  0.00     0.173 A 
ATOM     80  F   UNL A   1      48.848  27.302  24.006  1.00  0.00    -0.203 F 
ATOM     81  C   UNL A   1      51.047  26.590  24.458  1.00  0.00     0.198 A 
ATOM     82  C   UNL A   1      51.656  25.925  26.683  1.00  0.00     0.198 A 
ATOM     83  F   UNL A   1      50.047  25.955  28.399  1.00  0.00    -0.203 F 
ATOM     84  F   UNL A   1      51.369  26.764  23.169  1.00  0.00    -0.200 F 
ATOM     85  C   UNL A   1      52.000  26.129  25.354  1.00  0.00     0.200 A 
ATOM     86  F   UNL A   1      52.578  25.498  27.556  1.00  0.00    -0.200 F 
ATOM     87  F   UNL A   1      53.248  25.878  24.939  1.00  0.00    -0.200 F 
ENDBRANCH  53  77
BRANCH  65  88
ATOM     88  C   UNL A   1      46.186  32.380  28.596  1.00  0.00     0.064 A 
ATOM     89  C   UNL A   1      46.168  33.365  27.598  1.00  0.00     0.173 A 
ATOM     90  C   UNL A   1      46.639  32.746  29.872  1.00  0.00     0.173 A 
ATOM     91  F   UNL A   1      45.759  33.062  26.357  1.00  0.00    -0.203 F 
ATOM     92  C   UNL A   1      46.609  34.659  27.862  1.00  0.00     0.198 A 
ATOM     93  C   UNL A   1      47.049  34.048  30.141  1.00  0.00     0.198 A 
ATOM     94  F   UNL A   1      46.670  31.843  30.864  1.00  0.00    -0.203 F 
ATOM     95  F   UNL A   1      46.631  35.571  26.879  1.00  0.00    -0.200 F 
ATOM     96  C   UNL A   1      47.041  35.002  29.134  1.00  0.00     0.200 A 
ATOM     97  F   UNL A   1      47.451  34.382  31.376  1.00  0.00    -0.200 F 
ATOM     98  F   UNL A   1      47.458  36.249  29.389  1.00  0.00    -0.200 F 
ENDBRANCH  65  88
ENDBRANCH  39  40
ENDBRANCH  31  34
ENDBRANCH  29  30
ENDBRANCH  28  29
ENDBRANCH   1  28
TORSDOF 14
ENDMDL
MODEL 3
REMARK VINA RESULT:     -13.1      5.794     11.638
REMARK SMILES CCc1ncc(C[N@H+]2CCC[C@@H](c3cccc(C(=O)NCCCNC(=O)c4ccc(-c5c6nc(c(-c7c(F)c(F)c(F)c(F)c7F)c7ccc([nH]7)c(-c7c(F)c(F)c(F)c(F)c7F)c7nc(c(-c8c(F)c(F)c(F)c(F)c8F)c8ccc5[nH]8)C=C7)C=C6)cc4)c3)C2)cn1
REMARK SMILES IDX 21 1 20 2 18 3 19 4 17 6 13 7 14 8 90 9 15 10 16 11 12 12
REMARK SMILES IDX 8 13 9 14 91 15 10 17 11 18 7 19 6 20 3 21 4 22 93 23 5 24
REMARK SMILES IDX 92 25 2 26 1 27 22 28 23 29 24 30 25 31 26 33 27 34 28 35
REMARK SMILES IDX 89 36 29 37 88 38 30 39 31 40 32 41 82 42 33 43 87 44 81 45
REMARK SMILES IDX 83 46 34 47 86 48 80 49 79 50 35 52 67 53 47 54 66 55 48 56
REMARK SMILES IDX 51 57 65 58 84 59 49 60 50 61 64 63 85 64 52 65 36 66 37 67
REMARK SMILES IDX 45 68 38 69 39 70 43 71 46 72 40 73 41 74 44 75 42 76 68 77
REMARK SMILES IDX 69 78 77 79 70 80 71 81 75 82 78 83 72 84 73 85 76 86 74 87
REMARK SMILES IDX 53 88 54 89 62 90 55 91 56 92 60 93 63 94 57 95 58 96 61 97
REMARK SMILES IDX 59 98
REMARK H PARENT 20 5 8 16 24 32 83 51 51 62
REMARK Flexibility Score: inf
ROOT
ATOM      1  C   UNL A   1      31.421  30.790  26.483  1.00  0.00     0.118 C 
ENDROOT
BRANCH   1   2
ATOM      2  N   UNL A   1      32.341  30.260  25.483  1.00  0.00    -0.352 N 
ATOM      3  C   UNL A   1      32.266  29.274  24.523  1.00  0.00     0.251 C 
ATOM      4  O   UNL A   1      33.263  29.097  23.820  1.00  0.00    -0.269 OA
ATOM      5  H   UNL A   1      33.217  30.709  25.496  1.00  0.00     0.163 HD
BRANCH   3   6
ATOM      6  C   UNL A   1      31.094  28.373  24.347  1.00  0.00     0.040 A 
ATOM      7  C   UNL A   1      30.085  26.170  24.526  1.00  0.00    -0.039 A 
ATOM      8  C   UNL A   1      29.058  26.567  23.668  1.00  0.00     0.004 A 
ATOM      9  C   UNL A   1      30.985  27.140  24.974  1.00  0.00     0.018 A 
ATOM     10  C   UNL A   1      29.024  27.876  23.183  1.00  0.00     0.001 A 
ATOM     11  C   UNL A   1      30.066  28.758  23.478  1.00  0.00     0.014 A 
BRANCH   7  12
ATOM     12  C   UNL A   1      30.313  24.743  24.990  1.00  0.00     0.074 C 
ATOM     13  N   UNL A   1      32.006  22.904  25.049  1.00  0.00    -0.331 N 
ATOM     14  C   UNL A   1      31.781  22.727  26.490  1.00  0.00     0.262 C 
ATOM     15  C   UNL A   1      31.724  24.285  24.625  1.00  0.00     0.270 C 
ATOM     16  H   UNL A   1      31.337  22.296  24.576  1.00  0.00     0.348 HD
ATOM     17  C   UNL A   1      30.346  23.091  26.878  1.00  0.00     0.062 C 
ATOM     18  C   UNL A   1      30.020  24.528  26.481  1.00  0.00     0.020 C 
BRANCH  13  19
ATOM     19  C   UNL A   1      33.342  22.449  24.611  1.00  0.00     0.302 C 
BRANCH  19  20
ATOM     20  C   UNL A   1      33.456  20.985  24.302  1.00  0.00     0.043 A 
ATOM     21  C   UNL A   1      33.518  18.279  24.069  1.00  0.00     0.127 A 
ATOM     22  N   UNL A   1      32.458  18.931  23.553  1.00  0.00    -0.241 NA
ATOM     23  N   UNL A   1      34.571  18.883  24.649  1.00  0.00    -0.241 NA
ATOM     24  C   UNL A   1      32.456  20.273  23.677  1.00  0.00     0.124 A 
ATOM     25  C   UNL A   1      34.524  20.223  24.729  1.00  0.00     0.124 A 
BRANCH  21  26
ATOM     26  C   UNL A   1      33.448  16.777  24.112  1.00  0.00     0.074 C 
ATOM     27  C   UNL A   1      34.486  16.148  25.030  1.00  0.00     0.012 C 
ENDBRANCH  21  26
ENDBRANCH  19  20
ENDBRANCH  13  19
ENDBRANCH   7  12
ENDBRANCH   3   6
ENDBRANCH   1   2
BRANCH   1  28
ATOM     28  C   UNL A   1      31.401  32.305  26.575  1.00  0.00     0.042 C 
BRANCH  28  29
ATOM     29  C   UNL A   1      32.634  32.895  27.230  1.00  0.00     0.118 C 
BRANCH  29  30
ATOM     30  N   UNL A   1      32.441  34.282  27.644  1.00  0.00    -0.352 N 
ATOM     31  C   UNL A   1      33.006  35.016  28.657  1.00  0.00     0.251 C 
ATOM     32  H   UNL A   1      31.789  34.779  27.098  1.00  0.00     0.163 HD
ATOM     33  O   UNL A   1      32.518  36.100  28.961  1.00  0.00    -0.269 OA
BRANCH  31  34
ATOM     34  C   UNL A   1      34.181  34.510  29.399  1.00  0.00     0.039 A 
ATOM     35  C   UNL A   1      33.999  33.971  30.676  1.00  0.00     0.014 A 
ATOM     36  C   UNL A   1      35.464  34.593  28.860  1.00  0.00     0.014 A 
ATOM     37  C   UNL A   1      35.091  33.444  31.371  1.00  0.00     0.010 A 
ATOM     38  C   UNL A   1      36.529  33.968  29.498  1.00  0.00     0.010 A 
ATOM     39  C   UNL A   1      36.356  33.394  30.765  1.00  0.00    -0.014 A 
BRANCH  39  40
ATOM     40  C   UNL A   1      37.513  32.743  31.431  1.00  0.00     0.031 A 
ATOM     41  C   UNL A   1      38.207  31.581  30.776  1.00  0.00     0.074 A 
ATOM     42  C   UNL A   1      37.877  33.143  32.664  1.00  0.00     0.049 A 
ATOM     43  N   UNL A   1      39.172  30.825  31.237  1.00  0.00    -0.248 NA
ATOM     44  C   UNL A   1      37.730  31.192  29.438  1.00  0.00     0.031 C 
ATOM     45  C   UNL A   1      37.238  34.215  33.428  1.00  0.00     0.029 A 
ATOM     46  N   UNL A   1      38.864  32.683  33.500  1.00  0.00    -0.354 N 
ATOM     47  C   UNL A   1      39.398  29.864  30.260  1.00  0.00     0.074 A 
ATOM     48  C   UNL A   1      38.432  30.093  29.209  1.00  0.00     0.031 C 
ATOM     49  C   UNL A   1      37.862  34.347  34.608  1.00  0.00     0.029 A 
ATOM     50  C   UNL A   1      38.915  33.341  34.704  1.00  0.00     0.049 A 
ATOM     51  H   UNL A   1      39.477  31.951  33.259  1.00  0.00     0.167 HD
ATOM     52  C   UNL A   1      40.343  28.894  30.234  1.00  0.00     0.037 A 
ATOM     53  C   UNL A   1      39.713  33.148  35.771  1.00  0.00     0.037 A 
ATOM     54  C   UNL A   1      41.319  28.692  31.272  1.00  0.00     0.049 A 
ATOM     55  C   UNL A   1      40.759  32.068  35.714  1.00  0.00     0.074 A 
ATOM     56  C   UNL A   1      42.371  27.794  31.304  1.00  0.00     0.029 A 
ATOM     57  N   UNL A   1      41.356  29.395  32.467  1.00  0.00    -0.354 N 
ATOM     58  N   UNL A   1      41.021  31.222  34.748  1.00  0.00    -0.248 NA
ATOM     59  C   UNL A   1      41.622  31.921  36.893  1.00  0.00     0.031 C 
ATOM     60  C   UNL A   1      43.008  27.913  32.543  1.00  0.00     0.029 A 
ATOM     61  C   UNL A   1      42.392  28.928  33.259  1.00  0.00     0.049 A 
ATOM     62  H   UNL A   1      40.738  30.119  32.716  1.00  0.00     0.167 HD
ATOM     63  C   UNL A   1      42.091  30.456  35.192  1.00  0.00     0.074 A 
ATOM     64  C   UNL A   1      42.442  30.954  36.507  1.00  0.00     0.031 C 
ATOM     65  C   UNL A   1      42.724  29.431  34.568  1.00  0.00     0.037 A 
BRANCH  52  66
ATOM     66  C   UNL A   1      40.363  27.976  29.044  1.00  0.00     0.064 A 
ATOM     67  C   UNL A   1      41.115  28.269  27.894  1.00  0.00     0.173 A 
ATOM     68  C   UNL A   1      39.642  26.772  29.063  1.00  0.00     0.173 A 
ATOM     69  F   UNL A   1      41.814  29.411  27.818  1.00  0.00    -0.203 F 
ATOM     70  C   UNL A   1      41.114  27.411  26.797  1.00  0.00     0.198 A 
ATOM     71  C   UNL A   1      39.672  25.899  27.978  1.00  0.00     0.198 A 
ATOM     72  F   UNL A   1      38.913  26.437  30.137  1.00  0.00    -0.203 F 
ATOM     73  F   UNL A   1      41.790  27.743  25.690  1.00  0.00    -0.200 F 
ATOM     74  C   UNL A   1      40.398  26.224  26.842  1.00  0.00     0.200 A 
ATOM     75  F   UNL A   1      38.992  24.745  28.029  1.00  0.00    -0.200 F 
ATOM     76  F   UNL A   1      40.402  25.397  25.787  1.00  0.00    -0.200 F 
ENDBRANCH  52  66
BRANCH  53  77
ATOM     77  C   UNL A   1      39.564  34.011  36.971  1.00  0.00     0.064 A 
ATOM     78  C   UNL A   1      38.790  33.598  38.065  1.00  0.00     0.173 A 
ATOM     79  C   UNL A   1      40.202  35.258  37.057  1.00  0.00     0.173 A 
ATOM     80  F   UNL A   1      38.146  32.423  38.022  1.00  0.00    -0.203 F 
ATOM     81  C   UNL A   1      38.647  34.405  39.191  1.00  0.00     0.198 A 
ATOM     82  C   UNL A   1      40.083  36.051  38.197  1.00  0.00     0.198 A 
ATOM     83  F   UNL A   1      40.960  35.696  36.042  1.00  0.00    -0.203 F 
ATOM     84  F   UNL A   1      37.869  34.004  40.206  1.00  0.00    -0.200 F 
ATOM     85  C   UNL A   1      39.299  35.627  39.260  1.00  0.00     0.200 A 
ATOM     86  F   UNL A   1      40.730  37.222  38.266  1.00  0.00    -0.200 F 
ATOM     87  F   UNL A   1      39.171  36.398  40.347  1.00  0.00    -0.200 F 
ENDBRANCH  53  77
BRANCH  65  88
ATOM     88  C   UNL A   1      43.874  28.792  35.293  1.00  0.00     0.064 A 
ATOM     89  C   UNL A   1      45.185  29.269  35.157  1.00  0.00     0.173 A 
ATOM     90  C   UNL A   1      43.655  27.713  36.163  1.00  0.00     0.173 A 
ATOM     91  F   UNL A   1      45.451  30.288  34.326  1.00  0.00    -0.203 F 
ATOM     92  C   UNL A   1      46.239  28.673  35.846  1.00  0.00     0.198 A 
ATOM     93  C   UNL A   1      44.704  27.141  36.875  1.00  0.00     0.198 A 
ATOM     94  F   UNL A   1      42.418  27.222  36.334  1.00  0.00    -0.203 F 
ATOM     95  F   UNL A   1      47.492  29.114  35.662  1.00  0.00    -0.200 F 
ATOM     96  C   UNL A   1      45.997  27.616  36.710  1.00  0.00     0.200 A 
ATOM     97  F   UNL A   1      44.466  26.130  37.722  1.00  0.00    -0.200 F 
ATOM     98  F   UNL A   1      47.010  27.050  37.379  1.00  0.00    -0.200 F 
ENDBRANCH  65  88
ENDBRANCH  39  40
ENDBRANCH  31  34
ENDBRANCH  29  30
ENDBRANCH  28  29
ENDBRANCH   1  28
TORSDOF 14
ENDMDL
