MODEL 1
REMARK VINA RESULT:     -12.8      0.000      0.000
REMARK SMILES CCc1cc(N2CCC(O)(C(=O)NCCCNC(=O)c3ccc(-c4c5nc(c(-c6c(F)c(F)c(F)c(F)c6F)c6ccc([nH]6)c(-c6c(F)c(F)c(F)c(F)c6F)c6nc(c(-c7c(F)c(F)c(F)c(F)c7F)c7ccc4[nH]7)C=C6)C=C5)cc3)CC2)nc(N2CCOCC2)n1
REMARK SMILES IDX 15 1 14 2 13 3 11 4 12 5 9 7 6 8 7 9 84 10 8 11 83 12 5 13
REMARK SMILES IDX 3 14 4 15 93 16 86 17 85 18 2 19 1 20 87 21 88 22 92 23
REMARK SMILES IDX 89 24 91 25 90 26 10 27 16 29 17 30 18 31 19 33 20 34 21 35
REMARK SMILES IDX 82 36 22 37 81 38 23 39 24 40 25 41 75 42 26 43 80 44 74 45
REMARK SMILES IDX 76 46 27 47 79 48 73 49 72 50 28 52 60 53 40 54 59 55 41 56
REMARK SMILES IDX 44 57 58 58 77 59 42 60 43 61 57 63 78 64 45 65 29 66 30 67
REMARK SMILES IDX 38 68 31 69 32 70 36 71 39 72 33 73 34 74 37 75 35 76 61 77
REMARK SMILES IDX 62 78 70 79 63 80 64 81 68 82 71 83 65 84 66 85 69 86 67 87
REMARK SMILES IDX 46 88 47 89 55 90 48 91 49 92 53 93 56 94 50 95 51 96 54 97
REMARK SMILES IDX 52 98
REMARK H PARENT 13 6 10 28 17 32 76 51 44 62
REMARK Flexibility Score: inf
ROOT
ATOM      1  C   UNL A   1      37.590  19.814  24.971  1.00  0.00     0.042 C 
ENDROOT
BRANCH   1   2
ATOM      2  C   UNL A   1      36.459  20.832  24.849  1.00  0.00     0.117 C 
BRANCH   2   3
ATOM      3  N   UNL A   1      35.685  20.926  26.071  1.00  0.00    -0.354 N 
ATOM      4  C   UNL A   1      34.529  21.599  26.340  1.00  0.00     0.252 C 
ATOM      5  O   UNL A   1      34.085  21.480  27.486  1.00  0.00    -0.272 OA
ATOM      6  H   UNL A   1      36.052  20.420  26.831  1.00  0.00     0.163 HD
BRANCH   4   7
ATOM      7  C   UNL A   1      33.822  22.472  25.259  1.00  0.00     0.146 C 
ATOM      8  N   UNL A   1      32.519  24.898  24.482  1.00  0.00    -0.356 N 
ATOM      9  C   UNL A   1      33.858  24.645  23.993  1.00  0.00     0.121 C 
ATOM     10  C   UNL A   1      31.670  23.789  24.876  1.00  0.00     0.121 C 
ATOM     11  C   UNL A   1      34.604  23.763  24.990  1.00  0.00     0.067 C 
ATOM     12  C   UNL A   1      32.416  22.831  25.790  1.00  0.00     0.067 C 
BRANCH   8  13
ATOM     13  C   UNL A   1      32.136  26.179  24.815  1.00  0.00     0.134 A 
ATOM     14  C   UNL A   1      32.364  28.115  26.132  1.00  0.00     0.048 A 
ATOM     15  C   UNL A   1      32.695  26.798  25.910  1.00  0.00     0.071 A 
ATOM     16  N   UNL A   1      31.496  28.764  25.327  1.00  0.00    -0.218 NA
ATOM     17  C   UNL A   1      30.944  28.077  24.314  1.00  0.00     0.227 A 
ATOM     18  N   UNL A   1      31.250  26.805  24.033  1.00  0.00    -0.196 NA
BRANCH  14  19
ATOM     19  C   UNL A   1      32.926  28.917  27.279  1.00  0.00     0.053 C 
ATOM     20  C   UNL A   1      33.365  30.344  26.967  1.00  0.00     0.011 C 
ENDBRANCH  14  19
BRANCH  17  21
ATOM     21  N   UNL A   1      30.028  28.691  23.491  1.00  0.00    -0.336 N 
ATOM     22  C   UNL A   1      30.594  29.409  22.350  1.00  0.00     0.148 C 
ATOM     23  C   UNL A   1      28.752  28.032  23.243  1.00  0.00     0.148 C 
ATOM     24  C   UNL A   1      29.540  30.359  21.763  1.00  0.00     0.181 C 
ATOM     25  C   UNL A   1      27.778  29.071  22.665  1.00  0.00     0.181 C 
ATOM     26  O   UNL A   1      28.304  29.678  21.471  1.00  0.00    -0.378 OA
ENDBRANCH  17  21
ENDBRANCH   8  13
BRANCH   7  27
ATOM     27  O   UNL A   1      33.722  21.758  24.019  1.00  0.00    -0.380 OA
ATOM     28  H   UNL A   1      33.134  22.238  23.415  1.00  0.00     0.212 HD
ENDBRANCH   7  27
ENDBRANCH   4   7
ENDBRANCH   2   3
ENDBRANCH   1   2
BRANCH   1  29
ATOM     29  C   UNL A   1      38.860  20.366  25.605  1.00  0.00     0.118 C 
BRANCH  29  30
ATOM     30  N   UNL A   1      39.886  19.349  25.784  1.00  0.00    -0.352 N 
ATOM     31  C   UNL A   1      41.222  19.482  26.055  1.00  0.00     0.251 C 
ATOM     32  H   UNL A   1      39.570  18.420  25.697  1.00  0.00     0.163 HD
ATOM     33  O   UNL A   1      41.958  18.493  25.981  1.00  0.00    -0.269 OA
BRANCH  31  34
ATOM     34  C   UNL A   1      41.799  20.794  26.412  1.00  0.00     0.039 A 
ATOM     35  C   UNL A   1      42.110  21.693  25.388  1.00  0.00     0.014 A 
ATOM     36  C   UNL A   1      42.073  21.131  27.741  1.00  0.00     0.014 A 
ATOM     37  C   UNL A   1      42.635  22.949  25.698  1.00  0.00     0.010 A 
ATOM     38  C   UNL A   1      42.525  22.410  28.055  1.00  0.00     0.010 A 
ATOM     39  C   UNL A   1      42.817  23.331  27.037  1.00  0.00    -0.014 A 
BRANCH  39  40
ATOM     40  C   UNL A   1      43.313  24.684  27.390  1.00  0.00     0.031 A 
ATOM     41  C   UNL A   1      42.374  25.713  27.954  1.00  0.00     0.074 A 
ATOM     42  C   UNL A   1      44.596  25.008  27.139  1.00  0.00     0.049 A 
ATOM     43  N   UNL A   1      42.599  26.969  28.249  1.00  0.00    -0.248 NA
ATOM     44  C   UNL A   1      40.989  25.279  28.196  1.00  0.00     0.031 C 
ATOM     45  C   UNL A   1      45.594  24.113  26.551  1.00  0.00     0.029 A 
ATOM     46  N   UNL A   1      45.278  26.183  27.336  1.00  0.00    -0.354 N 
ATOM     47  C   UNL A   1      41.387  27.475  28.697  1.00  0.00     0.074 A 
ATOM     48  C   UNL A   1      40.416  26.408  28.584  1.00  0.00     0.031 C 
ATOM     49  C   UNL A   1      46.762  24.767  26.445  1.00  0.00     0.029 A 
ATOM     50  C   UNL A   1      46.588  26.134  26.926  1.00  0.00     0.049 A 
ATOM     51  H   UNL A   1      44.867  26.985  27.733  1.00  0.00     0.167 HD
ATOM     52  C   UNL A   1      41.113  28.711  29.179  1.00  0.00     0.037 A 
ATOM     53  C   UNL A   1      47.537  27.088  26.926  1.00  0.00     0.037 A 
ATOM     54  C   UNL A   1      42.085  29.764  29.308  1.00  0.00     0.049 A 
ATOM     55  C   UNL A   1      47.209  28.452  27.467  1.00  0.00     0.074 A 
ATOM     56  C   UNL A   1      41.920  31.035  29.832  1.00  0.00     0.029 A 
ATOM     57  N   UNL A   1      43.411  29.669  28.908  1.00  0.00    -0.354 N 
ATOM     58  N   UNL A   1      46.075  28.902  27.944  1.00  0.00    -0.248 NA
ATOM     59  C   UNL A   1      48.298  29.440  27.477  1.00  0.00     0.031 C 
ATOM     60  C   UNL A   1      43.132  31.721  29.711  1.00  0.00     0.029 A 
ATOM     61  C   UNL A   1      44.068  30.863  29.156  1.00  0.00     0.049 A 
ATOM     62  H   UNL A   1      43.822  28.869  28.505  1.00  0.00     0.167 HD
ATOM     63  C   UNL A   1      46.316  30.213  28.332  1.00  0.00     0.074 A 
ATOM     64  C   UNL A   1      47.711  30.481  28.050  1.00  0.00     0.031 C 
ATOM     65  C   UNL A   1      45.458  31.113  28.873  1.00  0.00     0.037 A 
BRANCH  52  66
ATOM     66  C   UNL A   1      39.702  28.989  29.609  1.00  0.00     0.064 A 
ATOM     67  C   UNL A   1      38.739  29.464  28.705  1.00  0.00     0.173 A 
ATOM     68  C   UNL A   1      39.297  28.751  30.932  1.00  0.00     0.173 A 
ATOM     69  F   UNL A   1      39.077  29.720  27.432  1.00  0.00    -0.203 F 
ATOM     70  C   UNL A   1      37.434  29.723  29.116  1.00  0.00     0.198 A 
ATOM     71  C   UNL A   1      37.983  28.980  31.331  1.00  0.00     0.198 A 
ATOM     72  F   UNL A   1      40.175  28.289  31.835  1.00  0.00    -0.203 F 
ATOM     73  F   UNL A   1      36.547  30.226  28.248  1.00  0.00    -0.200 F 
ATOM     74  C   UNL A   1      37.056  29.474  30.427  1.00  0.00     0.200 A 
ATOM     75  F   UNL A   1      37.615  28.727  32.595  1.00  0.00    -0.200 F 
ATOM     76  F   UNL A   1      35.797  29.718  30.820  1.00  0.00    -0.200 F 
ENDBRANCH  52  66
BRANCH  53  77
ATOM     77  C   UNL A   1      48.897  26.775  26.415  1.00  0.00     0.064 A 
ATOM     78  C   UNL A   1      49.864  26.195  27.248  1.00  0.00     0.173 A 
ATOM     79  C   UNL A   1      49.254  27.040  25.085  1.00  0.00     0.173 A 
ATOM     80  F   UNL A   1      49.574  25.940  28.533  1.00  0.00    -0.203 F 
ATOM     81  C   UNL A   1      51.142  25.907  26.774  1.00  0.00     0.198 A 
ATOM     82  C   UNL A   1      50.524  26.727  24.606  1.00  0.00     0.198 A 
ATOM     83  F   UNL A   1      48.363  27.589  24.247  1.00  0.00    -0.203 F 
ATOM     84  F   UNL A   1      52.060  25.389  27.602  1.00  0.00    -0.200 F 
ATOM     85  C   UNL A   1      51.469  26.167  25.451  1.00  0.00     0.200 A 
ATOM     86  F   UNL A   1      50.831  26.965  23.324  1.00  0.00    -0.200 F 
ATOM     87  F   UNL A   1      52.696  25.884  24.994  1.00  0.00    -0.200 F 
ENDBRANCH  53  77
BRANCH  65  88
ATOM     88  C   UNL A   1      46.011  32.463  29.222  1.00  0.00     0.064 A 
ATOM     89  C   UNL A   1      45.972  33.532  28.315  1.00  0.00     0.173 A 
ATOM     90  C   UNL A   1      46.551  32.701  30.496  1.00  0.00     0.173 A 
ATOM     91  F   UNL A   1      45.480  33.351  27.080  1.00  0.00    -0.203 F 
ATOM     92  C   UNL A   1      46.475  34.783  28.661  1.00  0.00     0.198 A 
ATOM     93  C   UNL A   1      47.027  33.960  30.848  1.00  0.00     0.198 A 
ATOM     94  F   UNL A   1      46.606  31.714  31.402  1.00  0.00    -0.203 F 
ATOM     95  F   UNL A   1      46.470  35.777  27.763  1.00  0.00    -0.200 F 
ATOM     96  C   UNL A   1      46.995  34.998  29.929  1.00  0.00     0.200 A 
ATOM     97  F   UNL A   1      47.518  34.170  32.078  1.00  0.00    -0.200 F 
ATOM     98  F   UNL A   1      47.473  36.205  30.262  1.00  0.00    -0.200 F 
ENDBRANCH  65  88
ENDBRANCH  39  40
ENDBRANCH  31  34
ENDBRANCH  29  30
ENDBRANCH   1  29
TORSDOF 14
ENDMDL
MODEL 2
REMARK VINA RESULT:     -12.7      4.477     10.262
REMARK SMILES CCc1cc(N2CCC(O)(C(=O)NCCCNC(=O)c3ccc(-c4c5nc(c(-c6c(F)c(F)c(F)c(F)c6F)c6ccc([nH]6)c(-c6c(F)c(F)c(F)c(F)c6F)c6nc(c(-c7c(F)c(F)c(F)c(F)c7F)c7ccc4[nH]7)C=C6)C=C5)cc3)CC2)nc(N2CCOCC2)n1
REMARK SMILES IDX 15 1 14 2 13 3 11 4 12 5 9 7 6 8 7 9 84 10 8 11 83 12 5 13
REMARK SMILES IDX 3 14 4 15 93 16 86 17 85 18 2 19 1 20 87 21 88 22 92 23
REMARK SMILES IDX 89 24 91 25 90 26 10 27 16 29 17 30 18 31 19 33 20 34 21 35
REMARK SMILES IDX 82 36 22 37 81 38 23 39 24 40 25 41 75 42 26 43 80 44 74 45
REMARK SMILES IDX 76 46 27 47 79 48 73 49 72 50 28 52 60 53 40 54 59 55 41 56
REMARK SMILES IDX 44 57 58 58 77 59 42 60 43 61 57 63 78 64 45 65 29 66 30 67
REMARK SMILES IDX 38 68 31 69 32 70 36 71 39 72 33 73 34 74 37 75 35 76 61 77
REMARK SMILES IDX 62 78 70 79 63 80 64 81 68 82 71 83 65 84 66 85 69 86 67 87
REMARK SMILES IDX 46 88 47 89 55 90 48 91 49 92 53 93 56 94 50 95 51 96 54 97
REMARK SMILES IDX 52 98
REMARK H PARENT 13 6 10 28 17 32 76 51 44 62
REMARK Flexibility Score: inf
ROOT
ATOM      1  C   UNL A   1      31.683  28.777  25.500  1.00  0.00     0.042 C 
ENDROOT
BRANCH   1   2
ATOM      2  C   UNL A   1      31.259  28.659  24.038  1.00  0.00     0.117 C 
BRANCH   2   3
ATOM      3  N   UNL A   1      32.402  28.531  23.155  1.00  0.00    -0.354 N 
ATOM      4  C   UNL A   1      33.019  27.421  22.657  1.00  0.00     0.252 C 
ATOM      5  O   UNL A   1      33.977  27.624  21.905  1.00  0.00    -0.272 OA
ATOM      6  H   UNL A   1      32.798  29.385  22.868  1.00  0.00     0.163 HD
BRANCH   4   7
ATOM      7  C   UNL A   1      32.541  25.985  23.028  1.00  0.00     0.146 C 
ATOM      8  N   UNL A   1      33.120  23.295  23.814  1.00  0.00    -0.356 N 
ATOM      9  C   UNL A   1      32.530  24.189  24.789  1.00  0.00     0.121 C 
ATOM     10  C   UNL A   1      32.933  23.544  22.397  1.00  0.00     0.121 C 
ATOM     11  C   UNL A   1      32.930  25.626  24.467  1.00  0.00     0.067 C 
ATOM     12  C   UNL A   1      33.222  24.996  22.056  1.00  0.00     0.067 C 
BRANCH   8  13
ATOM     13  C   UNL A   1      34.059  22.367  24.207  1.00  0.00     0.134 A 
ATOM     14  C   UNL A   1      36.205  21.828  25.008  1.00  0.00     0.048 A 
ATOM     15  C   UNL A   1      35.339  22.775  24.511  1.00  0.00     0.071 A 
ATOM     16  N   UNL A   1      35.826  20.541  25.156  1.00  0.00    -0.218 NA
ATOM     17  C   UNL A   1      34.581  20.206  24.782  1.00  0.00     0.227 A 
ATOM     18  N   UNL A   1      33.687  21.088  24.320  1.00  0.00    -0.196 NA
BRANCH  14  19
ATOM     19  C   UNL A   1      37.625  22.148  25.404  1.00  0.00     0.053 C 
ATOM     20  C   UNL A   1      37.887  23.553  25.938  1.00  0.00     0.011 C 
ENDBRANCH  14  19
BRANCH  17  21
ATOM     21  N   UNL A   1      34.166  18.898  24.884  1.00  0.00    -0.336 N 
ATOM     22  C   UNL A   1      32.720  18.692  24.806  1.00  0.00     0.148 C 
ATOM     23  C   UNL A   1      34.978  17.852  24.277  1.00  0.00     0.148 C 
ATOM     24  C   UNL A   1      32.368  17.291  25.326  1.00  0.00     0.181 C 
ATOM     25  C   UNL A   1      34.547  16.501  24.872  1.00  0.00     0.181 C 
ATOM     26  O   UNL A   1      33.141  16.265  24.674  1.00  0.00    -0.378 OA
ENDBRANCH  17  21
ENDBRANCH   8  13
BRANCH   7  27
ATOM     27  O   UNL A   1      31.114  25.885  22.926  1.00  0.00    -0.380 OA
ATOM     28  H   UNL A   1      30.874  25.010  22.583  1.00  0.00     0.212 HD
ENDBRANCH   7  27
ENDBRANCH   4   7
ENDBRANCH   2   3
ENDBRANCH   1   2
BRANCH   1  29
ATOM     29  C   UNL A   1      32.927  29.628  25.722  1.00  0.00     0.118 C 
BRANCH  29  30
ATOM     30  N   UNL A   1      32.610  30.993  26.114  1.00  0.00    -0.352 N 
ATOM     31  C   UNL A   1      33.177  31.789  27.073  1.00  0.00     0.251 C 
ATOM     32  H   UNL A   1      31.872  31.410  25.612  1.00  0.00     0.163 HD
ATOM     33  O   UNL A   1      32.635  32.856  27.377  1.00  0.00    -0.269 OA
BRANCH  31  34
ATOM     34  C   UNL A   1      34.417  31.381  27.765  1.00  0.00     0.039 A 
ATOM     35  C   UNL A   1      35.438  32.323  27.928  1.00  0.00     0.014 A 
ATOM     36  C   UNL A   1      34.600  30.072  28.220  1.00  0.00     0.014 A 
ATOM     37  C   UNL A   1      36.611  31.972  28.599  1.00  0.00     0.010 A 
ATOM     38  C   UNL A   1      35.737  29.743  28.954  1.00  0.00     0.010 A 
ATOM     39  C   UNL A   1      36.756  30.687  29.147  1.00  0.00    -0.014 A 
BRANCH  39  40
ATOM     40  C   UNL A   1      37.969  30.313  29.918  1.00  0.00     0.031 A 
ATOM     41  C   UNL A   1      38.961  29.342  29.345  1.00  0.00     0.074 A 
ATOM     42  C   UNL A   1      38.140  30.798  31.162  1.00  0.00     0.049 A 
ATOM     43  N   UNL A   1      40.035  28.832  29.895  1.00  0.00    -0.248 NA
ATOM     44  C   UNL A   1      38.699  28.857  27.981  1.00  0.00     0.031 C 
ATOM     45  C   UNL A   1      37.224  31.712  31.847  1.00  0.00     0.029 A 
ATOM     46  N   UNL A   1      39.139  30.580  32.078  1.00  0.00    -0.354 N 
ATOM     47  C   UNL A   1      40.566  27.963  28.952  1.00  0.00     0.074 A 
ATOM     48  C   UNL A   1      39.669  27.970  27.817  1.00  0.00     0.031 C 
ATOM     49  C   UNL A   1      37.709  31.986  33.069  1.00  0.00     0.029 A 
ATOM     50  C   UNL A   1      38.949  31.242  33.267  1.00  0.00     0.049 A 
ATOM     51  H   UNL A   1      39.918  30.005  31.900  1.00  0.00     0.167 HD
ATOM     52  C   UNL A   1      41.710  27.239  29.018  1.00  0.00     0.037 A 
ATOM     53  C   UNL A   1      39.686  31.240  34.393  1.00  0.00     0.037 A 
ATOM     54  C   UNL A   1      42.611  27.249  30.140  1.00  0.00     0.049 A 
ATOM     55  C   UNL A   1      40.953  30.429  34.442  1.00  0.00     0.074 A 
ATOM     56  C   UNL A   1      43.821  26.591  30.284  1.00  0.00     0.029 A 
ATOM     57  N   UNL A   1      42.399  27.954  31.317  1.00  0.00    -0.354 N 
ATOM     58  N   UNL A   1      41.476  29.657  33.522  1.00  0.00    -0.248 NA
ATOM     59  C   UNL A   1      41.735  30.497  35.684  1.00  0.00     0.031 C 
ATOM     60  C   UNL A   1      44.320  26.865  31.561  1.00  0.00     0.029 A 
ATOM     61  C   UNL A   1      43.446  27.732  32.197  1.00  0.00     0.049 A 
ATOM     62  H   UNL A   1      41.619  28.526  31.499  1.00  0.00     0.167 HD
ATOM     63  C   UNL A   1      42.657  29.167  34.061  1.00  0.00     0.074 A 
ATOM     64  C   UNL A   1      42.782  29.741  35.384  1.00  0.00     0.031 C 
ATOM     65  C   UNL A   1      43.558  28.316  33.510  1.00  0.00     0.037 A 
BRANCH  52  66
ATOM     66  C   UNL A   1      42.054  26.381  27.836  1.00  0.00     0.064 A 
ATOM     67  C   UNL A   1      42.995  26.791  26.879  1.00  0.00     0.173 A 
ATOM     68  C   UNL A   1      41.459  25.120  27.670  1.00  0.00     0.173 A 
ATOM     69  F   UNL A   1      43.585  27.992  26.984  1.00  0.00    -0.203 F 
ATOM     70  C   UNL A   1      43.303  25.988  25.784  1.00  0.00     0.198 A 
ATOM     71  C   UNL A   1      41.793  24.307  26.591  1.00  0.00     0.198 A 
ATOM     72  F   UNL A   1      40.558  24.676  28.559  1.00  0.00    -0.203 F 
ATOM     73  F   UNL A   1      44.166  26.424  24.857  1.00  0.00    -0.200 F 
ATOM     74  C   UNL A   1      42.707  24.744  25.645  1.00  0.00     0.200 A 
ATOM     75  F   UNL A   1      41.225  23.099  26.464  1.00  0.00    -0.200 F 
ATOM     76  F   UNL A   1      43.009  23.969  24.593  1.00  0.00    -0.200 F 
ENDBRANCH  52  66
BRANCH  53  77
ATOM     77  C   UNL A   1      39.253  32.051  35.560  1.00  0.00     0.064 A 
ATOM     78  C   UNL A   1      38.408  31.510  36.539  1.00  0.00     0.173 A 
ATOM     79  C   UNL A   1      39.681  33.376  35.726  1.00  0.00     0.173 A 
ATOM     80  F   UNL A   1      37.957  30.253  36.414  1.00  0.00    -0.203 F 
ATOM     81  C   UNL A   1      37.993  32.270  37.631  1.00  0.00     0.198 A 
ATOM     82  C   UNL A   1      39.288  34.126  36.832  1.00  0.00     0.198 A 
ATOM     83  F   UNL A   1      40.496  33.937  34.820  1.00  0.00    -0.203 F 
ATOM     84  F   UNL A   1      37.153  31.742  38.531  1.00  0.00    -0.200 F 
ATOM     85  C   UNL A   1      38.440  33.575  37.780  1.00  0.00     0.200 A 
ATOM     86  F   UNL A   1      39.733  35.380  36.981  1.00  0.00    -0.200 F 
ATOM     87  F   UNL A   1      38.046  34.303  38.834  1.00  0.00    -0.200 F 
ENDBRANCH  53  77
BRANCH  65  88
ATOM     88  C   UNL A   1      44.771  27.978  34.325  1.00  0.00     0.064 A 
ATOM     89  C   UNL A   1      45.942  28.747  34.256  1.00  0.00     0.173 A 
ATOM     90  C   UNL A   1      44.747  26.894  35.216  1.00  0.00     0.173 A 
ATOM     91  F   UNL A   1      46.019  29.784  33.408  1.00  0.00    -0.203 F 
ATOM     92  C   UNL A   1      47.053  28.429  35.032  1.00  0.00     0.198 A 
ATOM     93  C   UNL A   1      45.850  26.596  36.010  1.00  0.00     0.198 A 
ATOM     94  F   UNL A   1      43.650  26.131  35.323  1.00  0.00    -0.203 F 
ATOM     95  F   UNL A   1      48.177  29.149  34.917  1.00  0.00    -0.200 F 
ATOM     96  C   UNL A   1      47.004  27.359  35.914  1.00  0.00     0.200 A 
ATOM     97  F   UNL A   1      45.797  25.569  36.871  1.00  0.00    -0.200 F 
ATOM     98  F   UNL A   1      48.072  27.058  36.664  1.00  0.00    -0.200 F 
ENDBRANCH  65  88
ENDBRANCH  39  40
ENDBRANCH  31  34
ENDBRANCH  29  30
ENDBRANCH   1  29
TORSDOF 14
ENDMDL
MODEL 3
REMARK VINA RESULT:     -12.7      3.360      8.312
REMARK SMILES CCc1cc(N2CCC(O)(C(=O)NCCCNC(=O)c3ccc(-c4c5nc(c(-c6c(F)c(F)c(F)c(F)c6F)c6ccc([nH]6)c(-c6c(F)c(F)c(F)c(F)c6F)c6nc(c(-c7c(F)c(F)c(F)c(F)c7F)c7ccc4[nH]7)C=C6)C=C5)cc3)CC2)nc(N2CCOCC2)n1
REMARK SMILES IDX 15 1 14 2 13 3 11 4 12 5 9 7 6 8 7 9 84 10 8 11 83 12 5 13
REMARK SMILES IDX 3 14 4 15 93 16 86 17 85 18 2 19 1 20 87 21 88 22 92 23
REMARK SMILES IDX 89 24 91 25 90 26 10 27 16 29 17 30 18 31 19 33 20 34 21 35
REMARK SMILES IDX 82 36 22 37 81 38 23 39 24 40 25 41 75 42 26 43 80 44 74 45
REMARK SMILES IDX 76 46 27 47 79 48 73 49 72 50 28 52 60 53 40 54 59 55 41 56
REMARK SMILES IDX 44 57 58 58 77 59 42 60 43 61 57 63 78 64 45 65 29 66 30 67
REMARK SMILES IDX 38 68 31 69 32 70 36 71 39 72 33 73 34 74 37 75 35 76 61 77
REMARK SMILES IDX 62 78 70 79 63 80 64 81 68 82 71 83 65 84 66 85 69 86 67 87
REMARK SMILES IDX 46 88 47 89 55 90 48 91 49 92 53 93 56 94 50 95 51 96 54 97
REMARK SMILES IDX 52 98
REMARK H PARENT 13 6 10 28 17 32 76 51 44 62
REMARK Flexibility Score: inf
ROOT
ATOM      1  C   UNL A   1      36.472  23.468  23.937  1.00  0.00     0.042 C 
ENDROOT
BRANCH   1   2
ATOM      2  C   UNL A   1      34.983  23.136  23.995  1.00  0.00     0.117 C 
BRANCH   2   3
ATOM      3  N   UNL A   1      34.744  21.837  24.592  1.00  0.00    -0.354 N 
ATOM      4  C   UNL A   1      33.630  21.328  25.195  1.00  0.00     0.252 C 
ATOM      5  O   UNL A   1      33.716  20.166  25.603  1.00  0.00    -0.272 OA
ATOM      6  H   UNL A   1      35.510  21.220  24.556  1.00  0.00     0.163 HD
BRANCH   4   7
ATOM      7  C   UNL A   1      32.333  22.176  25.362  1.00  0.00     0.146 C 
ATOM      8  N   UNL A   1      30.976  24.694  25.265  1.00  0.00    -0.356 N 
ATOM      9  C   UNL A   1      30.697  23.717  24.233  1.00  0.00     0.121 C 
ATOM     10  C   UNL A   1      31.472  24.260  26.558  1.00  0.00     0.121 C 
ATOM     11  C   UNL A   1      31.919  22.824  24.036  1.00  0.00     0.067 C 
ATOM     12  C   UNL A   1      32.626  23.284  26.399  1.00  0.00     0.067 C 
BRANCH   8  13
ATOM     13  C   UNL A   1      31.018  26.035  24.953  1.00  0.00     0.134 A 
ATOM     14  C   UNL A   1      30.218  27.890  23.747  1.00  0.00     0.048 A 
ATOM     15  C   UNL A   1      30.223  26.527  23.943  1.00  0.00     0.071 A 
ATOM     16  N   UNL A   1      30.991  28.707  24.493  1.00  0.00    -0.218 NA
ATOM     17  C   UNL A   1      31.786  28.148  25.419  1.00  0.00     0.227 A 
ATOM     18  N   UNL A   1      31.811  26.834  25.673  1.00  0.00    -0.196 NA
BRANCH  14  19
ATOM     19  C   UNL A   1      29.373  28.560  22.692  1.00  0.00     0.053 C 
ATOM     20  C   UNL A   1      28.784  29.921  23.050  1.00  0.00     0.011 C 
ENDBRANCH  14  19
BRANCH  17  21
ATOM     21  N   UNL A   1      32.615  28.943  26.177  1.00  0.00    -0.336 N 
ATOM     22  C   UNL A   1      34.013  28.518  26.228  1.00  0.00     0.148 C 
ATOM     23  C   UNL A   1      32.400  30.384  26.180  1.00  0.00     0.148 C 
ATOM     24  C   UNL A   1      34.725  29.222  27.393  1.00  0.00     0.181 C 
ATOM     25  C   UNL A   1      33.149  30.980  27.383  1.00  0.00     0.181 C 
ATOM     26  O   UNL A   1      34.549  30.651  27.346  1.00  0.00    -0.378 OA
ENDBRANCH  17  21
ENDBRANCH   8  13
BRANCH   7  27
ATOM     27  O   UNL A   1      31.245  21.353  25.803  1.00  0.00    -0.380 OA
ATOM     28  H   UNL A   1      31.447  20.422  25.619  1.00  0.00     0.212 HD
ENDBRANCH   7  27
ENDBRANCH   4   7
ENDBRANCH   2   3
ENDBRANCH   1   2
BRANCH   1  29
ATOM     29  C   UNL A   1      37.109  23.714  25.298  1.00  0.00     0.118 C 
BRANCH  29  30
ATOM     30  N   UNL A   1      38.188  22.781  25.589  1.00  0.00    -0.352 N 
ATOM     31  C   UNL A   1      39.400  22.995  26.191  1.00  0.00     0.251 C 
ATOM     32  H   UNL A   1      38.021  21.852  25.311  1.00  0.00     0.163 HD
ATOM     33  O   UNL A   1      40.253  22.102  26.173  1.00  0.00    -0.269 OA
BRANCH  31  34
ATOM     34  C   UNL A   1      39.710  24.284  26.842  1.00  0.00     0.039 A 
ATOM     35  C   UNL A   1      39.273  24.498  28.153  1.00  0.00     0.014 A 
ATOM     36  C   UNL A   1      40.393  25.297  26.163  1.00  0.00     0.014 A 
ATOM     37  C   UNL A   1      39.572  25.697  28.801  1.00  0.00     0.010 A 
ATOM     38  C   UNL A   1      40.756  26.462  26.834  1.00  0.00     0.010 A 
ATOM     39  C   UNL A   1      40.345  26.677  28.158  1.00  0.00    -0.014 A 
BRANCH  39  40
ATOM     40  C   UNL A   1      40.728  27.932  28.852  1.00  0.00     0.031 A 
ATOM     41  C   UNL A   1      42.112  28.094  29.416  1.00  0.00     0.074 A 
ATOM     42  C   UNL A   1      39.809  28.899  29.033  1.00  0.00     0.049 A 
ATOM     43  N   UNL A   1      42.610  29.079  30.122  1.00  0.00    -0.248 NA
ATOM     44  C   UNL A   1      43.055  26.990  29.176  1.00  0.00     0.031 C 
ATOM     45  C   UNL A   1      38.420  28.841  28.574  1.00  0.00     0.029 A 
ATOM     46  N   UNL A   1      39.900  30.115  29.663  1.00  0.00    -0.354 N 
ATOM     47  C   UNL A   1      43.914  28.709  30.419  1.00  0.00     0.074 A 
ATOM     48  C   UNL A   1      44.115  27.387  29.865  1.00  0.00     0.031 C 
ATOM     49  C   UNL A   1      37.793  29.975  28.926  1.00  0.00     0.029 A 
ATOM     50  C   UNL A   1      38.724  30.823  29.665  1.00  0.00     0.049 A 
ATOM     51  H   UNL A   1      40.730  30.448  30.074  1.00  0.00     0.167 HD
ATOM     52  C   UNL A   1      44.865  29.415  31.075  1.00  0.00     0.037 A 
ATOM     53  C   UNL A   1      38.426  32.017  30.210  1.00  0.00     0.037 A 
ATOM     54  C   UNL A   1      44.668  30.738  31.608  1.00  0.00     0.049 A 
ATOM     55  C   UNL A   1      39.499  32.784  30.934  1.00  0.00     0.074 A 
ATOM     56  C   UNL A   1      45.583  31.559  32.244  1.00  0.00     0.029 A 
ATOM     57  N   UNL A   1      43.469  31.436  31.566  1.00  0.00    -0.354 N 
ATOM     58  N   UNL A   1      40.745  32.450  31.157  1.00  0.00    -0.248 NA
ATOM     59  C   UNL A   1      39.123  34.098  31.474  1.00  0.00     0.031 C 
ATOM     60  C   UNL A   1      44.928  32.735  32.623  1.00  0.00     0.029 A 
ATOM     61  C   UNL A   1      43.617  32.668  32.182  1.00  0.00     0.049 A 
ATOM     62  H   UNL A   1      42.637  31.102  31.160  1.00  0.00     0.167 HD
ATOM     63  C   UNL A   1      41.311  33.518  31.841  1.00  0.00     0.074 A 
ATOM     64  C   UNL A   1      40.274  34.518  31.982  1.00  0.00     0.031 C 
ATOM     65  C   UNL A   1      42.576  33.656  32.310  1.00  0.00     0.037 A 
BRANCH  52  66
ATOM     66  C   UNL A   1      46.210  28.771  31.248  1.00  0.00     0.064 A 
ATOM     67  C   UNL A   1      47.224  28.921  30.290  1.00  0.00     0.173 A 
ATOM     68  C   UNL A   1      46.500  28.018  32.396  1.00  0.00     0.173 A 
ATOM     69  F   UNL A   1      46.995  29.621  29.169  1.00  0.00    -0.203 F 
ATOM     70  C   UNL A   1      48.467  28.315  30.459  1.00  0.00     0.198 A 
ATOM     71  C   UNL A   1      47.753  27.440  32.577  1.00  0.00     0.198 A 
ATOM     72  F   UNL A   1      45.568  27.848  33.347  1.00  0.00    -0.203 F 
ATOM     73  F   UNL A   1      49.401  28.430  29.506  1.00  0.00    -0.200 F 
ATOM     74  C   UNL A   1      48.731  27.581  31.605  1.00  0.00     0.200 A 
ATOM     75  F   UNL A   1      48.012  26.740  33.690  1.00  0.00    -0.200 F 
ATOM     76  F   UNL A   1      49.930  27.002  31.769  1.00  0.00    -0.200 F 
ENDBRANCH  52  66
BRANCH  53  77
ATOM     77  C   UNL A   1      37.053  32.570  30.072  1.00  0.00     0.064 A 
ATOM     78  C   UNL A   1      36.100  32.394  31.086  1.00  0.00     0.173 A 
ATOM     79  C   UNL A   1      36.669  33.291  28.933  1.00  0.00     0.173 A 
ATOM     80  F   UNL A   1      36.416  31.694  32.186  1.00  0.00    -0.203 F 
ATOM     81  C   UNL A   1      34.810  32.904  30.956  1.00  0.00     0.198 A 
ATOM     82  C   UNL A   1      35.387  33.824  28.817  1.00  0.00     0.198 A 
ATOM     83  F   UNL A   1      37.546  33.493  27.938  1.00  0.00    -0.203 F 
ATOM     84  F   UNL A   1      33.907  32.687  31.922  1.00  0.00    -0.200 F 
ATOM     85  C   UNL A   1      34.457  33.625  29.826  1.00  0.00     0.200 A 
ATOM     86  F   UNL A   1      35.054  34.532  27.730  1.00  0.00    -0.200 F 
ATOM     87  F   UNL A   1      33.218  34.121  29.705  1.00  0.00    -0.200 F 
ENDBRANCH  53  77
BRANCH  65  88
ATOM     88  C   UNL A   1      42.916  34.947  32.994  1.00  0.00     0.064 A 
ATOM     89  C   UNL A   1      43.414  36.048  32.283  1.00  0.00     0.173 A 
ATOM     90  C   UNL A   1      42.703  35.096  34.373  1.00  0.00     0.173 A 
ATOM     91  F   UNL A   1      43.649  35.950  30.966  1.00  0.00    -0.203 F 
ATOM     92  C   UNL A   1      43.709  37.244  32.931  1.00  0.00     0.198 A 
ATOM     93  C   UNL A   1      42.973  36.302  35.013  1.00  0.00     0.198 A 
ATOM     94  F   UNL A   1      42.223  34.075  35.097  1.00  0.00    -0.203 F 
ATOM     95  F   UNL A   1      44.228  38.269  32.240  1.00  0.00    -0.200 F 
ATOM     96  C   UNL A   1      43.481  37.373  34.293  1.00  0.00     0.200 A 
ATOM     97  F   UNL A   1      42.741  36.429  36.327  1.00  0.00    -0.200 F 
ATOM     98  F   UNL A   1      43.761  38.527  34.914  1.00  0.00    -0.200 F 
ENDBRANCH  65  88
ENDBRANCH  39  40
ENDBRANCH  31  34
ENDBRANCH  29  30
ENDBRANCH   1  29
TORSDOF 14
ENDMDL
