MODEL 1
REMARK VINA RESULT:     -13.8      0.000      0.000
REMARK SMILES COc1ccc(-c2cc(CC3(C(=O)NCCCNC(=O)c4ccc(-c5c6nc(c(-c7c(F)c(F)c(F)c(F)c7F)c7ccc([nH]7)c(-c7c(F)c(F)c(F)c(F)c7F)c7nc(c(-c8c(F)c(F)c(F)c(F)c8F)c8ccc5[nH]8)C=C7)C=C6)cc4)CCN(C(=O)C4CCCC4)CC3)on2)cc1
REMARK SMILES IDX 15 1 14 2 12 3 13 4 11 6 84 7 95 8 85 9 94 10 86 11 87 12
REMARK SMILES IDX 88 13 10 14 9 15 7 16 8 17 97 18 96 19 6 20 3 21 4 22 99 23
REMARK SMILES IDX 5 24 98 25 2 26 1 27 89 28 90 29 93 30 91 31 92 32 16 33
REMARK SMILES IDX 17 34 18 35 19 36 20 38 21 39 22 40 83 41 23 42 82 43 24 44
REMARK SMILES IDX 25 45 26 46 76 47 27 48 81 49 75 50 77 51 28 52 80 53 74 54
REMARK SMILES IDX 73 55 29 57 61 58 41 59 60 60 42 61 45 62 59 63 78 64 43 65
REMARK SMILES IDX 44 66 58 68 79 69 46 70 30 71 31 72 39 73 32 74 33 75 37 76
REMARK SMILES IDX 40 77 34 78 35 79 38 80 36 81 62 82 63 83 71 84 64 85 65 86
REMARK SMILES IDX 69 87 72 88 66 89 67 90 70 91 68 92 47 93 48 94 56 95 49 96
REMARK SMILES IDX 50 97 54 98 57 99 51 100 52 101 55 102 53 103
REMARK H PARENT 14 5 18 37 77 56 45 67
REMARK Flexibility Score: inf
ROOT
ATOM      1  C   UNL A   1      37.873  22.036  25.523  1.00  0.00     0.117 C 
ENDROOT
BRANCH   1   2
ATOM      2  N   UNL A   1      37.393  22.687  24.310  1.00  0.00    -0.356 N 
ATOM      3  C   UNL A   1      36.142  22.891  23.813  1.00  0.00     0.226 C 
ATOM      4  O   UNL A   1      36.083  23.481  22.731  1.00  0.00    -0.274 OA
ATOM      5  H   UNL A   1      38.112  23.047  23.742  1.00  0.00     0.163 HD
BRANCH   3   6
ATOM      6  C   UNL A   1      34.863  22.436  24.561  1.00  0.00     0.060 C 
ATOM      7  C   UNL A   1      33.674  22.484  23.562  1.00  0.00     0.039 C 
ATOM      8  C   UNL A   1      35.148  21.038  25.172  1.00  0.00     0.039 C 
ATOM      9  C   UNL A   1      32.580  21.440  23.758  1.00  0.00     0.120 C 
ATOM     10  C   UNL A   1      33.933  20.131  25.316  1.00  0.00     0.120 C 
ATOM     11  N   UNL A   1      33.105  20.129  24.120  1.00  0.00    -0.342 N 
ATOM     12  C   UNL A   1      32.582  19.018  23.472  1.00  0.00     0.225 C 
ATOM     13  O   UNL A   1      31.770  19.144  22.547  1.00  0.00    -0.275 OA
BRANCH   6  14
ATOM     14  C   UNL A   1      34.640  23.479  25.710  1.00  0.00     0.095 C 
BRANCH  14  15
ATOM     15  C   UNL A   1      33.498  24.401  25.498  1.00  0.00     0.138 A 
ATOM     16  C   UNL A   1      32.014  25.975  25.080  1.00  0.00     0.114 A 
ATOM     17  C   UNL A   1      33.291  25.498  24.698  1.00  0.00     0.077 A 
ATOM     18  N   UNL A   1      31.468  25.183  26.012  1.00  0.00    -0.080 NA
ATOM     19  O   UNL A   1      32.383  24.175  26.237  1.00  0.00    -0.361 OA
BRANCH  16  20
ATOM     20  C   UNL A   1      31.315  27.135  24.567  1.00  0.00     0.004 A 
ATOM     21  C   UNL A   1      29.899  29.344  23.602  1.00  0.00     0.118 A 
ATOM     22  C   UNL A   1      30.989  29.530  24.455  1.00  0.00     0.047 A 
ATOM     23  C   UNL A   1      29.544  28.056  23.198  1.00  0.00     0.047 A 
ATOM     24  C   UNL A   1      31.691  28.428  24.951  1.00  0.00     0.014 A 
ATOM     25  C   UNL A   1      30.251  26.954  23.680  1.00  0.00     0.014 A 
BRANCH  21  26
ATOM     26  O   UNL A   1      29.266  30.479  23.176  1.00  0.00    -0.497 OA
ATOM     27  C   UNL A   1      27.875  30.306  22.914  1.00  0.00     0.278 C 
ENDBRANCH  21  26
ENDBRANCH  16  20
ENDBRANCH  14  15
ENDBRANCH   6  14
BRANCH  12  28
ATOM     28  C   UNL A   1      33.009  17.601  23.844  1.00  0.00     0.078 C 
ATOM     29  C   UNL A   1      34.517  17.385  23.852  1.00  0.00     0.013 C 
ATOM     30  C   UNL A   1      32.477  17.069  25.172  1.00  0.00     0.013 C 
ATOM     31  C   UNL A   1      34.716  16.159  24.727  1.00  0.00     0.001 C 
ATOM     32  C   UNL A   1      33.558  16.140  25.718  1.00  0.00     0.001 C 
ENDBRANCH  12  28
ENDBRANCH   3   6
ENDBRANCH   1   2
BRANCH   1  33
ATOM     33  C   UNL A   1      38.808  20.871  25.223  1.00  0.00     0.042 C 
BRANCH  33  34
ATOM     34  C   UNL A   1      39.489  20.289  26.455  1.00  0.00     0.118 C 
BRANCH  34  35
ATOM     35  N   UNL A   1      40.518  19.312  26.123  1.00  0.00    -0.352 N 
ATOM     36  C   UNL A   1      41.884  19.456  26.044  1.00  0.00     0.251 C 
ATOM     37  H   UNL A   1      40.183  18.408  25.925  1.00  0.00     0.163 HD
ATOM     38  O   UNL A   1      42.566  18.558  25.566  1.00  0.00    -0.269 OA
BRANCH  36  39
ATOM     39  C   UNL A   1      42.526  20.705  26.505  1.00  0.00     0.039 A 
ATOM     40  C   UNL A   1      43.099  21.560  25.560  1.00  0.00     0.014 A 
ATOM     41  C   UNL A   1      42.555  21.039  27.862  1.00  0.00     0.014 A 
ATOM     42  C   UNL A   1      43.605  22.799  25.964  1.00  0.00     0.010 A 
ATOM     43  C   UNL A   1      42.984  22.305  28.251  1.00  0.00     0.010 A 
ATOM     44  C   UNL A   1      43.496  23.204  27.304  1.00  0.00    -0.014 A 
BRANCH  44  45
ATOM     45  C   UNL A   1      43.865  24.578  27.735  1.00  0.00     0.031 A 
ATOM     46  C   UNL A   1      42.796  25.587  28.044  1.00  0.00     0.074 A 
ATOM     47  C   UNL A   1      45.163  24.939  27.755  1.00  0.00     0.049 A 
ATOM     48  N   UNL A   1      42.913  26.866  28.302  1.00  0.00    -0.248 NA
ATOM     49  C   UNL A   1      41.407  25.100  28.042  1.00  0.00     0.031 C 
ATOM     50  C   UNL A   1      46.292  24.059  27.446  1.00  0.00     0.029 A 
ATOM     51  N   UNL A   1      45.754  26.149  28.030  1.00  0.00    -0.354 N 
ATOM     52  C   UNL A   1      41.620  27.335  28.482  1.00  0.00     0.074 A 
ATOM     53  C   UNL A   1      40.728  26.218  28.255  1.00  0.00     0.031 C 
ATOM     54  C   UNL A   1      47.436  24.752  27.560  1.00  0.00     0.029 A 
ATOM     55  C   UNL A   1      47.121  26.137  27.895  1.00  0.00     0.049 A 
ATOM     56  H   UNL A   1      45.245  26.949  28.296  1.00  0.00     0.167 HD
ATOM     57  C   UNL A   1      41.216  28.580  28.829  1.00  0.00     0.037 A 
ATOM     58  C   UNL A   1      48.019  27.136  28.003  1.00  0.00     0.037 A 
ATOM     59  C   UNL A   1      42.108  29.685  29.065  1.00  0.00     0.049 A 
ATOM     60  C   UNL A   1      47.534  28.524  28.326  1.00  0.00     0.074 A 
ATOM     61  C   UNL A   1      41.798  30.973  29.467  1.00  0.00     0.029 A 
ATOM     62  N   UNL A   1      43.485  29.636  28.911  1.00  0.00    -0.354 N 
ATOM     63  N   UNL A   1      46.314  28.942  28.559  1.00  0.00    -0.248 NA
ATOM     64  C   UNL A   1      48.552  29.583  28.392  1.00  0.00     0.031 C 
ATOM     65  C   UNL A   1      42.981  31.716  29.503  1.00  0.00     0.029 A 
ATOM     66  C   UNL A   1      44.035  30.880  29.177  1.00  0.00     0.049 A 
ATOM     67  H   UNL A   1      43.997  28.834  28.652  1.00  0.00     0.167 HD
ATOM     68  C   UNL A   1      46.420  30.301  28.824  1.00  0.00     0.074 A 
ATOM     69  C   UNL A   1      47.826  30.634  28.744  1.00  0.00     0.031 C 
ATOM     70  C   UNL A   1      45.439  31.194  29.102  1.00  0.00     0.037 A 
BRANCH  57  71
ATOM     71  C   UNL A   1      39.741  28.820  28.982  1.00  0.00     0.064 A 
ATOM     72  C   UNL A   1      39.094  28.654  30.216  1.00  0.00     0.173 A 
ATOM     73  C   UNL A   1      38.976  29.278  27.898  1.00  0.00     0.173 A 
ATOM     74  F   UNL A   1      39.778  28.209  31.281  1.00  0.00    -0.203 F 
ATOM     75  C   UNL A   1      37.734  28.915  30.353  1.00  0.00     0.198 A 
ATOM     76  C   UNL A   1      37.623  29.569  28.046  1.00  0.00     0.198 A 
ATOM     77  F   UNL A   1      39.546  29.461  26.696  1.00  0.00    -0.203 F 
ATOM     78  F   UNL A   1      37.130  28.708  31.532  1.00  0.00    -0.200 F 
ATOM     79  C   UNL A   1      37.001  29.381  29.272  1.00  0.00     0.200 A 
ATOM     80  F   UNL A   1      36.920  30.034  27.005  1.00  0.00    -0.200 F 
ATOM     81  F   UNL A   1      35.695  29.647  29.411  1.00  0.00    -0.200 F 
ENDBRANCH  57  71
BRANCH  58  82
ATOM     82  C   UNL A   1      49.468  26.870  27.796  1.00  0.00     0.064 A 
ATOM     83  C   UNL A   1      50.027  26.894  26.510  1.00  0.00     0.173 A 
ATOM     84  C   UNL A   1      50.316  26.555  28.868  1.00  0.00     0.173 A 
ATOM     85  F   UNL A   1      49.253  27.166  25.450  1.00  0.00    -0.203 F 
ATOM     86  C   UNL A   1      51.370  26.585  26.302  1.00  0.00     0.198 A 
ATOM     87  C   UNL A   1      51.666  26.279  28.662  1.00  0.00     0.198 A 
ATOM     88  F   UNL A   1      49.833  26.518  30.119  1.00  0.00    -0.203 F 
ATOM     89  F   UNL A   1      51.862  26.556  25.056  1.00  0.00    -0.200 F 
ATOM     90  C   UNL A   1      52.190  26.283  27.378  1.00  0.00     0.200 A 
ATOM     91  F   UNL A   1      52.458  25.999  29.706  1.00  0.00    -0.200 F 
ATOM     92  F   UNL A   1      53.479  25.981  27.176  1.00  0.00    -0.200 F 
ENDBRANCH  58  82
BRANCH  70  93
ATOM     93  C   UNL A   1      45.850  32.614  29.364  1.00  0.00     0.064 A 
ATOM     94  C   UNL A   1      46.202  33.050  30.649  1.00  0.00     0.173 A 
ATOM     95  C   UNL A   1      45.948  33.533  28.308  1.00  0.00     0.173 A 
ATOM     96  F   UNL A   1      46.109  32.215  31.695  1.00  0.00    -0.203 F 
ATOM     97  C   UNL A   1      46.622  34.359  30.870  1.00  0.00     0.198 A 
ATOM     98  C   UNL A   1      46.398  34.832  28.527  1.00  0.00     0.198 A 
ATOM     99  F   UNL A   1      45.628  33.164  27.058  1.00  0.00    -0.203 F 
ATOM    100  F   UNL A   1      46.914  34.766  32.113  1.00  0.00    -0.200 F 
ATOM    101  C   UNL A   1      46.730  35.245  29.808  1.00  0.00     0.200 A 
ATOM    102  F   UNL A   1      46.517  35.681  27.497  1.00  0.00    -0.200 F 
ATOM    103  F   UNL A   1      47.149  36.499  30.021  1.00  0.00    -0.200 F 
ENDBRANCH  70  93
ENDBRANCH  44  45
ENDBRANCH  36  39
ENDBRANCH  34  35
ENDBRANCH  33  34
ENDBRANCH   1  33
TORSDOF 15
ENDMDL
MODEL 2
REMARK VINA RESULT:     -13.8      0.970      2.155
REMARK SMILES COc1ccc(-c2cc(CC3(C(=O)NCCCNC(=O)c4ccc(-c5c6nc(c(-c7c(F)c(F)c(F)c(F)c7F)c7ccc([nH]7)c(-c7c(F)c(F)c(F)c(F)c7F)c7nc(c(-c8c(F)c(F)c(F)c(F)c8F)c8ccc5[nH]8)C=C7)C=C6)cc4)CCN(C(=O)C4CCCC4)CC3)on2)cc1
REMARK SMILES IDX 15 1 14 2 12 3 13 4 11 6 84 7 95 8 85 9 94 10 86 11 87 12
REMARK SMILES IDX 88 13 10 14 9 15 7 16 8 17 97 18 96 19 6 20 3 21 4 22 99 23
REMARK SMILES IDX 5 24 98 25 2 26 1 27 89 28 90 29 93 30 91 31 92 32 16 33
REMARK SMILES IDX 17 34 18 35 19 36 20 38 21 39 22 40 83 41 23 42 82 43 24 44
REMARK SMILES IDX 25 45 26 46 76 47 27 48 81 49 75 50 77 51 28 52 80 53 74 54
REMARK SMILES IDX 73 55 29 57 61 58 41 59 60 60 42 61 45 62 59 63 78 64 43 65
REMARK SMILES IDX 44 66 58 68 79 69 46 70 30 71 31 72 39 73 32 74 33 75 37 76
REMARK SMILES IDX 40 77 34 78 35 79 38 80 36 81 62 82 63 83 71 84 64 85 65 86
REMARK SMILES IDX 69 87 72 88 66 89 67 90 70 91 68 92 47 93 48 94 56 95 49 96
REMARK SMILES IDX 50 97 54 98 57 99 51 100 52 101 55 102 53 103
REMARK H PARENT 14 5 18 37 77 56 45 67
REMARK Flexibility Score: inf
ROOT
ATOM      1  C   UNL A   1      37.771  21.984  25.495  1.00  0.00     0.117 C 
ENDROOT
BRANCH   1   2
ATOM      2  N   UNL A   1      37.364  22.590  24.233  1.00  0.00    -0.356 N 
ATOM      3  C   UNL A   1      36.144  22.784  23.661  1.00  0.00     0.226 C 
ATOM      4  O   UNL A   1      36.150  23.332  22.555  1.00  0.00    -0.274 OA
ATOM      5  H   UNL A   1      38.116  22.922  23.691  1.00  0.00     0.163 HD
BRANCH   3   6
ATOM      6  C   UNL A   1      34.822  22.371  24.356  1.00  0.00     0.060 C 
ATOM      7  C   UNL A   1      33.693  22.370  23.288  1.00  0.00     0.039 C 
ATOM      8  C   UNL A   1      35.064  21.004  25.051  1.00  0.00     0.039 C 
ATOM      9  C   UNL A   1      32.584  21.339  23.473  1.00  0.00     0.120 C 
ATOM     10  C   UNL A   1      33.839  20.108  25.170  1.00  0.00     0.120 C 
ATOM     11  N   UNL A   1      33.081  20.047  23.930  1.00  0.00    -0.342 N 
ATOM     12  C   UNL A   1      32.591  18.906  23.309  1.00  0.00     0.225 C 
ATOM     13  O   UNL A   1      31.835  18.986  22.334  1.00  0.00    -0.275 OA
BRANCH   6  14
ATOM     14  C   UNL A   1      34.537  23.470  25.436  1.00  0.00     0.095 C 
BRANCH  14  15
ATOM     15  C   UNL A   1      33.741  24.624  24.953  1.00  0.00     0.138 A 
ATOM     16  C   UNL A   1      32.323  26.139  24.213  1.00  0.00     0.114 A 
ATOM     17  C   UNL A   1      32.399  24.912  24.915  1.00  0.00     0.077 A 
ATOM     18  N   UNL A   1      33.546  26.585  23.897  1.00  0.00    -0.080 NA
ATOM     19  O   UNL A   1      34.431  25.655  24.401  1.00  0.00    -0.361 OA
BRANCH  16  20
ATOM     20  C   UNL A   1      31.131  26.884  23.866  1.00  0.00     0.004 A 
ATOM     21  C   UNL A   1      28.859  28.336  23.124  1.00  0.00     0.118 A 
ATOM     22  C   UNL A   1      28.726  27.056  23.667  1.00  0.00     0.047 A 
ATOM     23  C   UNL A   1      30.126  28.906  22.992  1.00  0.00     0.047 A 
ATOM     24  C   UNL A   1      29.859  26.322  24.026  1.00  0.00     0.014 A 
ATOM     25  C   UNL A   1      31.259  28.181  23.362  1.00  0.00     0.014 A 
BRANCH  21  26
ATOM     26  O   UNL A   1      27.696  28.974  22.791  1.00  0.00    -0.497 OA
ATOM     27  C   UNL A   1      27.657  30.347  23.175  1.00  0.00     0.278 C 
ENDBRANCH  21  26
ENDBRANCH  16  20
ENDBRANCH  14  15
ENDBRANCH   6  14
BRANCH  12  28
ATOM     28  C   UNL A   1      32.989  17.509  23.776  1.00  0.00     0.078 C 
ATOM     29  C   UNL A   1      34.493  17.288  23.876  1.00  0.00     0.013 C 
ATOM     30  C   UNL A   1      32.384  17.048  25.100  1.00  0.00     0.013 C 
ATOM     31  C   UNL A   1      34.639  16.109  24.822  1.00  0.00     0.001 C 
ATOM     32  C   UNL A   1      33.429  16.145  25.750  1.00  0.00     0.001 C 
ENDBRANCH  12  28
ENDBRANCH   3   6
ENDBRANCH   1   2
BRANCH   1  33
ATOM     33  C   UNL A   1      38.626  20.740  25.290  1.00  0.00     0.042 C 
BRANCH  33  34
ATOM     34  C   UNL A   1      39.456  20.351  26.506  1.00  0.00     0.118 C 
BRANCH  34  35
ATOM     35  N   UNL A   1      40.440  19.318  26.211  1.00  0.00    -0.352 N 
ATOM     36  C   UNL A   1      41.806  19.409  26.066  1.00  0.00     0.251 C 
ATOM     37  H   UNL A   1      40.070  18.413  26.097  1.00  0.00     0.163 HD
ATOM     38  O   UNL A   1      42.440  18.455  25.633  1.00  0.00    -0.269 OA
BRANCH  36  39
ATOM     39  C   UNL A   1      42.504  20.668  26.403  1.00  0.00     0.039 A 
ATOM     40  C   UNL A   1      43.021  21.452  25.368  1.00  0.00     0.014 A 
ATOM     41  C   UNL A   1      42.640  21.081  27.731  1.00  0.00     0.014 A 
ATOM     42  C   UNL A   1      43.580  22.700  25.659  1.00  0.00     0.010 A 
ATOM     43  C   UNL A   1      43.121  22.357  28.011  1.00  0.00     0.010 A 
ATOM     44  C   UNL A   1      43.578  23.186  26.976  1.00  0.00    -0.014 A 
BRANCH  44  45
ATOM     45  C   UNL A   1      44.005  24.574  27.295  1.00  0.00     0.031 A 
ATOM     46  C   UNL A   1      42.996  25.591  27.746  1.00  0.00     0.074 A 
ATOM     47  C   UNL A   1      45.285  24.938  27.085  1.00  0.00     0.049 A 
ATOM     48  N   UNL A   1      43.145  26.877  27.940  1.00  0.00    -0.248 NA
ATOM     49  C   UNL A   1      41.630  25.102  27.993  1.00  0.00     0.031 C 
ATOM     50  C   UNL A   1      46.352  24.050  26.619  1.00  0.00     0.029 A 
ATOM     51  N   UNL A   1      45.905  26.157  27.218  1.00  0.00    -0.354 N 
ATOM     52  C   UNL A   1      41.897  27.350  28.320  1.00  0.00     0.074 A 
ATOM     53  C   UNL A   1      40.987  26.225  28.281  1.00  0.00     0.031 C 
ATOM     54  C   UNL A   1      47.494  24.748  26.517  1.00  0.00     0.029 A 
ATOM     55  C   UNL A   1      47.230  26.143  26.856  1.00  0.00     0.049 A 
ATOM     56  H   UNL A   1      45.442  26.964  27.540  1.00  0.00     0.167 HD
ATOM     57  C   UNL A   1      41.548  28.605  28.689  1.00  0.00     0.037 A 
ATOM     58  C   UNL A   1      48.126  27.146  26.780  1.00  0.00     0.037 A 
ATOM     59  C   UNL A   1      42.459  29.719  28.737  1.00  0.00     0.049 A 
ATOM     60  C   UNL A   1      47.692  28.544  27.135  1.00  0.00     0.074 A 
ATOM     61  C   UNL A   1      42.211  31.018  29.144  1.00  0.00     0.029 A 
ATOM     62  N   UNL A   1      43.791  29.667  28.356  1.00  0.00    -0.354 N 
ATOM     63  N   UNL A   1      46.525  28.967  27.556  1.00  0.00    -0.248 NA
ATOM     64  C   UNL A   1      48.699  29.606  26.996  1.00  0.00     0.031 C 
ATOM     65  C   UNL A   1      43.378  31.765  28.957  1.00  0.00     0.029 A 
ATOM     66  C   UNL A   1      44.369  30.920  28.486  1.00  0.00     0.049 A 
ATOM     67  H   UNL A   1      44.258  28.858  28.040  1.00  0.00     0.167 HD
ATOM     68  C   UNL A   1      46.665  30.334  27.756  1.00  0.00     0.074 A 
ATOM     69  C   UNL A   1      48.035  30.666  27.431  1.00  0.00     0.031 C 
ATOM     70  C   UNL A   1      45.738  31.234  28.166  1.00  0.00     0.037 A 
BRANCH  57  71
ATOM     71  C   UNL A   1      40.118  28.847  29.080  1.00  0.00     0.064 A 
ATOM     72  C   UNL A   1      39.141  29.170  28.127  1.00  0.00     0.173 A 
ATOM     73  C   UNL A   1      39.707  28.696  30.414  1.00  0.00     0.173 A 
ATOM     74  F   UNL A   1      39.482  29.335  26.840  1.00  0.00    -0.203 F 
ATOM     75  C   UNL A   1      37.812  29.354  28.496  1.00  0.00     0.198 A 
ATOM     76  C   UNL A   1      38.372  28.850  30.776  1.00  0.00     0.198 A 
ATOM     77  F   UNL A   1      40.600  28.381  31.366  1.00  0.00    -0.203 F 
ATOM     78  F   UNL A   1      36.904  29.703  27.574  1.00  0.00    -0.200 F 
ATOM     79  C   UNL A   1      37.426  29.185  29.818  1.00  0.00     0.200 A 
ATOM     80  F   UNL A   1      37.999  28.671  32.049  1.00  0.00    -0.200 F 
ATOM     81  F   UNL A   1      36.143  29.348  30.169  1.00  0.00    -0.200 F 
ENDBRANCH  57  71
BRANCH  58  82
ATOM     82  C   UNL A   1      49.522  26.876  26.341  1.00  0.00     0.064 A 
ATOM     83  C   UNL A   1      50.525  26.581  27.275  1.00  0.00     0.173 A 
ATOM     84  C   UNL A   1      49.890  26.937  24.988  1.00  0.00     0.173 A 
ATOM     85  F   UNL A   1      50.229  26.535  28.582  1.00  0.00    -0.203 F 
ATOM     86  C   UNL A   1      51.847  26.388  26.876  1.00  0.00     0.198 A 
ATOM     87  C   UNL A   1      51.205  26.710  24.588  1.00  0.00     0.198 A 
ATOM     88  F   UNL A   1      48.970  27.215  24.053  1.00  0.00    -0.203 F 
ATOM     89  F   UNL A   1      52.795  26.169  27.797  1.00  0.00    -0.200 F 
ATOM     90  C   UNL A   1      52.185  26.448  25.533  1.00  0.00     0.200 A 
ATOM     91  F   UNL A   1      51.526  26.758  23.288  1.00  0.00    -0.200 F 
ATOM     92  F   UNL A   1      53.457  26.266  25.153  1.00  0.00    -0.200 F 
ENDBRANCH  58  82
BRANCH  70  93
ATOM     93  C   UNL A   1      46.177  32.662  28.310  1.00  0.00     0.064 A 
ATOM     94  C   UNL A   1      46.023  33.586  27.266  1.00  0.00     0.173 A 
ATOM     95  C   UNL A   1      46.706  33.125  29.525  1.00  0.00     0.173 A 
ATOM     96  F   UNL A   1      45.539  33.190  26.079  1.00  0.00    -0.203 F 
ATOM     97  C   UNL A   1      46.398  34.917  27.429  1.00  0.00     0.198 A 
ATOM     98  C   UNL A   1      47.049  34.463  29.694  1.00  0.00     0.198 A 
ATOM     99  F   UNL A   1      46.868  32.283  30.556  1.00  0.00    -0.203 F 
ATOM    100  F   UNL A   1      46.280  35.773  26.404  1.00  0.00    -0.200 F 
ATOM    101  C   UNL A   1      46.899  35.357  28.644  1.00  0.00     0.200 A 
ATOM    102  F   UNL A   1      47.519  34.889  30.875  1.00  0.00    -0.200 F 
ATOM    103  F   UNL A   1      47.243  36.642  28.803  1.00  0.00    -0.200 F 
ENDBRANCH  70  93
ENDBRANCH  44  45
ENDBRANCH  36  39
ENDBRANCH  34  35
ENDBRANCH  33  34
ENDBRANCH   1  33
TORSDOF 15
ENDMDL
MODEL 3
REMARK VINA RESULT:     -13.6      2.222      5.985
REMARK SMILES COc1ccc(-c2cc(CC3(C(=O)NCCCNC(=O)c4ccc(-c5c6nc(c(-c7c(F)c(F)c(F)c(F)c7F)c7ccc([nH]7)c(-c7c(F)c(F)c(F)c(F)c7F)c7nc(c(-c8c(F)c(F)c(F)c(F)c8F)c8ccc5[nH]8)C=C7)C=C6)cc4)CCN(C(=O)C4CCCC4)CC3)on2)cc1
REMARK SMILES IDX 15 1 14 2 12 3 13 4 11 6 84 7 95 8 85 9 94 10 86 11 87 12
REMARK SMILES IDX 88 13 10 14 9 15 7 16 8 17 97 18 96 19 6 20 3 21 4 22 99 23
REMARK SMILES IDX 5 24 98 25 2 26 1 27 89 28 90 29 93 30 91 31 92 32 16 33
REMARK SMILES IDX 17 34 18 35 19 36 20 38 21 39 22 40 83 41 23 42 82 43 24 44
REMARK SMILES IDX 25 45 26 46 76 47 27 48 81 49 75 50 77 51 28 52 80 53 74 54
REMARK SMILES IDX 73 55 29 57 61 58 41 59 60 60 42 61 45 62 59 63 78 64 43 65
REMARK SMILES IDX 44 66 58 68 79 69 46 70 30 71 31 72 39 73 32 74 33 75 37 76
REMARK SMILES IDX 40 77 34 78 35 79 38 80 36 81 62 82 63 83 71 84 64 85 65 86
REMARK SMILES IDX 69 87 72 88 66 89 67 90 70 91 68 92 47 93 48 94 56 95 49 96
REMARK SMILES IDX 50 97 54 98 57 99 51 100 52 101 55 102 53 103
REMARK H PARENT 14 5 18 37 77 56 45 67
REMARK Flexibility Score: inf
ROOT
ATOM      1  C   UNL A   1      34.501  23.772  26.439  1.00  0.00     0.117 C 
ENDROOT
BRANCH   1   2
ATOM      2  N   UNL A   1      33.143  23.543  26.919  1.00  0.00    -0.356 N 
ATOM      3  C   UNL A   1      31.961  24.165  26.657  1.00  0.00     0.226 C 
ATOM      4  O   UNL A   1      30.976  23.720  27.252  1.00  0.00    -0.274 OA
ATOM      5  H   UNL A   1      33.068  22.795  27.555  1.00  0.00     0.163 HD
BRANCH   3   6
ATOM      6  C   UNL A   1      31.843  25.345  25.660  1.00  0.00     0.060 C 
ATOM      7  C   UNL A   1      30.767  26.329  26.197  1.00  0.00     0.039 C 
ATOM      8  C   UNL A   1      33.259  25.956  25.485  1.00  0.00     0.039 C 
ATOM      9  C   UNL A   1      30.987  27.808  25.894  1.00  0.00     0.120 C 
ATOM     10  C   UNL A   1      33.290  27.444  25.162  1.00  0.00     0.120 C 
ATOM     11  N   UNL A   1      32.384  28.209  26.007  1.00  0.00    -0.342 N 
ATOM     12  C   UNL A   1      32.669  29.389  26.678  1.00  0.00     0.225 C 
ATOM     13  O   UNL A   1      31.777  30.028  27.250  1.00  0.00    -0.275 OA
BRANCH   6  14
ATOM     14  C   UNL A   1      31.367  24.720  24.303  1.00  0.00     0.095 C 
BRANCH  14  15
ATOM     15  C   UNL A   1      31.949  23.391  23.994  1.00  0.00     0.138 A 
ATOM     16  C   UNL A   1      32.658  21.316  23.783  1.00  0.00     0.114 A 
ATOM     17  C   UNL A   1      31.592  22.098  24.287  1.00  0.00     0.077 A 
ATOM     18  N   UNL A   1      33.571  22.087  23.178  1.00  0.00    -0.080 NA
ATOM     19  O   UNL A   1      33.101  23.380  23.275  1.00  0.00    -0.361 OA
BRANCH  16  20
ATOM     20  C   UNL A   1      32.805  19.877  23.849  1.00  0.00     0.004 A 
ATOM     21  C   UNL A   1      33.136  17.101  23.915  1.00  0.00     0.118 A 
ATOM     22  C   UNL A   1      33.373  17.862  25.062  1.00  0.00     0.047 A 
ATOM     23  C   UNL A   1      32.693  17.724  22.747  1.00  0.00     0.047 A 
ATOM     24  C   UNL A   1      33.222  19.250  25.029  1.00  0.00     0.014 A 
ATOM     25  C   UNL A   1      32.528  19.109  22.715  1.00  0.00     0.014 A 
BRANCH  21  26
ATOM     26  O   UNL A   1      33.320  15.752  24.037  1.00  0.00    -0.497 OA
ATOM     27  C   UNL A   1      33.252  15.275  25.379  1.00  0.00     0.278 C 
ENDBRANCH  21  26
ENDBRANCH  16  20
ENDBRANCH  14  15
ENDBRANCH   6  14
BRANCH  12  28
ATOM     28  C   UNL A   1      34.092  29.931  26.774  1.00  0.00     0.078 C 
ATOM     29  C   UNL A   1      34.203  31.279  27.474  1.00  0.00     0.013 C 
ATOM     30  C   UNL A   1      35.118  29.007  27.426  1.00  0.00     0.013 C 
ATOM     31  C   UNL A   1      35.654  31.354  27.920  1.00  0.00     0.001 C 
ATOM     32  C   UNL A   1      36.116  29.917  28.136  1.00  0.00     0.001 C 
ENDBRANCH  12  28
ENDBRANCH   3   6
ENDBRANCH   1   2
BRANCH   1  33
ATOM     33  C   UNL A   1      35.276  22.473  26.257  1.00  0.00     0.042 C 
BRANCH  33  34
ATOM     34  C   UNL A   1      36.521  22.612  25.390  1.00  0.00     0.118 C 
BRANCH  34  35
ATOM     35  N   UNL A   1      37.447  21.497  25.549  1.00  0.00    -0.352 N 
ATOM     36  C   UNL A   1      38.753  21.484  25.983  1.00  0.00     0.251 C 
ATOM     37  H   UNL A   1      37.080  20.616  25.309  1.00  0.00     0.163 HD
ATOM     38  O   UNL A   1      39.424  20.466  25.870  1.00  0.00    -0.269 OA
BRANCH  36  39
ATOM     39  C   UNL A   1      39.356  22.706  26.556  1.00  0.00     0.039 A 
ATOM     40  C   UNL A   1      40.349  22.578  27.530  1.00  0.00     0.014 A 
ATOM     41  C   UNL A   1      38.953  23.974  26.128  1.00  0.00     0.014 A 
ATOM     42  C   UNL A   1      41.011  23.716  27.998  1.00  0.00     0.010 A 
ATOM     43  C   UNL A   1      39.668  25.098  26.532  1.00  0.00     0.010 A 
ATOM     44  C   UNL A   1      40.716  24.978  27.457  1.00  0.00    -0.014 A 
BRANCH  44  45
ATOM     45  C   UNL A   1      41.517  26.181  27.804  1.00  0.00     0.031 A 
ATOM     46  C   UNL A   1      40.909  27.284  28.623  1.00  0.00     0.074 A 
ATOM     47  C   UNL A   1      42.758  26.319  27.299  1.00  0.00     0.049 A 
ATOM     48  N   UNL A   1      41.395  28.465  28.913  1.00  0.00    -0.248 NA
ATOM     49  C   UNL A   1      39.566  27.036  29.172  1.00  0.00     0.031 C 
ATOM     50  C   UNL A   1      43.447  25.332  26.465  1.00  0.00     0.029 A 
ATOM     51  N   UNL A   1      43.657  27.353  27.397  1.00  0.00    -0.354 N 
ATOM     52  C   UNL A   1      40.418  29.101  29.667  1.00  0.00     0.074 A 
ATOM     53  C   UNL A   1      39.290  28.198  29.748  1.00  0.00     0.031 C 
ATOM     54  C   UNL A   1      44.662  25.801  26.138  1.00  0.00     0.029 A 
ATOM     55  C   UNL A   1      44.818  27.142  26.691  1.00  0.00     0.049 A 
ATOM     56  H   UNL A   1      43.485  28.169  27.921  1.00  0.00     0.167 HD
ATOM     57  C   UNL A   1      40.469  30.319  30.256  1.00  0.00     0.037 A 
ATOM     58  C   UNL A   1      45.877  27.950  26.490  1.00  0.00     0.037 A 
ATOM     59  C   UNL A   1      41.598  31.209  30.182  1.00  0.00     0.049 A 
ATOM     60  C   UNL A   1      45.878  29.325  27.105  1.00  0.00     0.074 A 
ATOM     61  C   UNL A   1      41.763  32.444  30.785  1.00  0.00     0.029 A 
ATOM     62  N   UNL A   1      42.751  30.963  29.452  1.00  0.00    -0.354 N 
ATOM     63  N   UNL A   1      44.976  29.889  27.871  1.00  0.00    -0.248 NA
ATOM     64  C   UNL A   1      47.040  30.178  26.821  1.00  0.00     0.031 C 
ATOM     65  C   UNL A   1      42.992  32.969  30.376  1.00  0.00     0.029 A 
ATOM     66  C   UNL A   1      43.617  32.039  29.562  1.00  0.00     0.049 A 
ATOM     67  H   UNL A   1      42.928  30.145  28.933  1.00  0.00     0.167 HD
ATOM     68  C   UNL A   1      45.472  31.149  28.179  1.00  0.00     0.074 A 
ATOM     69  C   UNL A   1      46.764  31.258  27.536  1.00  0.00     0.031 C 
ATOM     70  C   UNL A   1      44.905  32.130  28.923  1.00  0.00     0.037 A 
BRANCH  57  71
ATOM     71  C   UNL A   1      39.269  30.765  31.043  1.00  0.00     0.064 A 
ATOM     72  C   UNL A   1      39.072  30.362  32.372  1.00  0.00     0.173 A 
ATOM     73  C   UNL A   1      38.339  31.654  30.482  1.00  0.00     0.173 A 
ATOM     74  F   UNL A   1      39.927  29.507  32.952  1.00  0.00    -0.203 F 
ATOM     75  C   UNL A   1      37.976  30.813  33.103  1.00  0.00     0.198 A 
ATOM     76  C   UNL A   1      37.261  32.128  31.226  1.00  0.00     0.198 A 
ATOM     77  F   UNL A   1      38.483  32.077  29.217  1.00  0.00    -0.203 F 
ATOM     78  F   UNL A   1      37.786  30.380  34.357  1.00  0.00    -0.200 F 
ATOM     79  C   UNL A   1      37.077  31.702  32.533  1.00  0.00     0.200 A 
ATOM     80  F   UNL A   1      36.403  32.999  30.680  1.00  0.00    -0.200 F 
ATOM     81  F   UNL A   1      36.032  32.147  33.244  1.00  0.00    -0.200 F 
ENDBRANCH  57  71
BRANCH  58  82
ATOM     82  C   UNL A   1      47.026  27.491  25.663  1.00  0.00     0.064 A 
ATOM     83  C   UNL A   1      48.130  26.859  26.253  1.00  0.00     0.173 A 
ATOM     84  C   UNL A   1      47.061  27.700  24.277  1.00  0.00     0.173 A 
ATOM     85  F   UNL A   1      48.156  26.659  27.579  1.00  0.00    -0.203 F 
ATOM     86  C   UNL A   1      49.236  26.483  25.494  1.00  0.00     0.198 A 
ATOM     87  C   UNL A   1      48.153  27.292  23.513  1.00  0.00     0.198 A 
ATOM     88  F   UNL A   1      46.031  28.299  23.661  1.00  0.00    -0.203 F 
ATOM     89  F   UNL A   1      50.303  25.938  26.095  1.00  0.00    -0.200 F 
ATOM     90  C   UNL A   1      49.245  26.695  24.124  1.00  0.00     0.200 A 
ATOM     91  F   UNL A   1      48.152  27.489  22.188  1.00  0.00    -0.200 F 
ATOM     92  F   UNL A   1      50.311  26.337  23.396  1.00  0.00    -0.200 F 
ENDBRANCH  58  82
BRANCH  70  93
ATOM     93  C   UNL A   1      45.686  33.400  29.104  1.00  0.00     0.064 A 
ATOM     94  C   UNL A   1      46.612  33.549  30.146  1.00  0.00     0.173 A 
ATOM     95  C   UNL A   1      45.546  34.456  28.191  1.00  0.00     0.173 A 
ATOM     96  F   UNL A   1      46.771  32.574  31.054  1.00  0.00    -0.203 F 
ATOM     97  C   UNL A   1      47.359  34.717  30.276  1.00  0.00     0.198 A 
ATOM     98  C   UNL A   1      46.317  35.610  28.306  1.00  0.00     0.198 A 
ATOM     99  F   UNL A   1      44.676  34.362  27.174  1.00  0.00    -0.203 F 
ATOM    100  F   UNL A   1      48.209  34.854  31.303  1.00  0.00    -0.200 F 
ATOM    101  C   UNL A   1      47.219  35.741  29.351  1.00  0.00     0.200 A 
ATOM    102  F   UNL A   1      46.191  36.591  27.402  1.00  0.00    -0.200 F 
ATOM    103  F   UNL A   1      47.950  36.857  29.470  1.00  0.00    -0.200 F 
ENDBRANCH  70  93
ENDBRANCH  44  45
ENDBRANCH  36  39
ENDBRANCH  34  35
ENDBRANCH  33  34
ENDBRANCH   1  33
TORSDOF 15
ENDMDL
