MODEL 1
REMARK VINA RESULT:      -9.7      0.000      0.000
REMARK SMILES CCCCCCNC(=O)Oc1cccc(-c2ccc([C@@H](C)C(=O)NCCCNC(=O)c3ccc(-c4c5nc(c(-c6c(F)c(F)c(F)c(F)c6F)c6ccc([nH]6)c(-c6c(F)c(F)c(F)c(F)c6F)c6nc(c(-c7c(F)c(F)c(F)c(F)c7F)c7ccc4[nH]7)C=C6)C=C5)cc3)cc2C)c1
REMARK SMILES IDX 16 1 17 2 18 3 19 4 94 5 95 6 96 7 15 8 11 9 12 10 97 11
REMARK SMILES IDX 13 12 14 13 10 14 8 15 7 16 9 18 6 19 5 20 4 21 3 22 2 23
REMARK SMILES IDX 1 24 20 25 21 26 22 27 23 28 24 29 25 31 26 32 27 33 28 34
REMARK SMILES IDX 29 35 30 37 31 38 32 39 93 40 33 41 92 42 34 43 35 44 36 45
REMARK SMILES IDX 86 46 37 47 91 48 85 49 87 50 38 51 90 52 84 53 83 54 39 56
REMARK SMILES IDX 71 57 51 58 70 59 52 60 55 61 69 62 88 63 53 64 54 65 68 67
REMARK SMILES IDX 89 68 56 69 40 70 41 71 49 72 42 73 43 74 47 75 50 76 44 77
REMARK SMILES IDX 45 78 48 79 46 80 72 81 73 82 81 83 74 84 75 85 79 86 82 87
REMARK SMILES IDX 76 88 77 89 80 90 78 91 57 92 58 93 66 94 59 95 60 96 64 97
REMARK SMILES IDX 67 98 61 99 62 100 65 101 63 102
REMARK H PARENT 7 17 24 30 28 36 87 55 55 66
REMARK Flexibility Score: inf
ROOT
ATOM      1  C   UNL A   1      39.438  34.031  30.393  1.00  0.00    -0.015 A 
ATOM      2  C   UNL A   1      38.531  33.677  29.376  1.00  0.00     0.009 A 
ATOM      3  C   UNL A   1      37.153  33.609  29.601  1.00  0.00     0.005 A 
ATOM      4  C   UNL A   1      36.626  33.791  30.877  1.00  0.00    -0.036 A 
ATOM      5  C   UNL A   1      37.513  34.188  31.888  1.00  0.00     0.008 A 
ATOM      6  C   UNL A   1      38.894  34.369  31.651  1.00  0.00    -0.043 A 
ATOM      7  C   UNL A   1      39.699  34.941  32.789  1.00  0.00     0.045 C 
ENDROOT
BRANCH   1   8
ATOM      8  C   UNL A   1      40.889  34.023  30.086  1.00  0.00    -0.014 A 
ATOM      9  C   UNL A   1      42.868  35.057  29.116  1.00  0.00     0.133 A 
ATOM     10  C   UNL A   1      43.659  33.978  29.496  1.00  0.00     0.047 A 
ATOM     11  C   UNL A   1      41.505  35.099  29.423  1.00  0.00     0.056 A 
ATOM     12  C   UNL A   1      43.078  32.924  30.191  1.00  0.00     0.004 A 
ATOM     13  C   UNL A   1      41.707  32.940  30.467  1.00  0.00     0.009 A 
BRANCH   9  14
ATOM     14  O   UNL A   1      43.464  36.002  28.260  1.00  0.00    -0.410 OA
BRANCH  14  15
ATOM     15  C   UNL A   1      42.882  36.314  27.042  1.00  0.00     0.412 C 
ATOM     16  N   UNL A   1      43.503  35.706  25.986  1.00  0.00    -0.321 N 
ATOM     17  H   UNL A   1      43.168  35.931  25.087  1.00  0.00     0.167 HD
ATOM     18  O   UNL A   1      41.918  37.051  26.874  1.00  0.00    -0.224 OA
BRANCH  16  19
ATOM     19  C   UNL A   1      44.603  34.765  26.053  1.00  0.00     0.119 C 
BRANCH  19  20
ATOM     20  C   UNL A   1      44.144  33.326  25.807  1.00  0.00     0.021 C 
BRANCH  20  21
ATOM     21  C   UNL A   1      45.186  32.250  26.131  1.00  0.00     0.002 C 
BRANCH  21  22
ATOM     22  C   UNL A   1      44.854  31.347  27.323  1.00  0.00    -0.000 C 
BRANCH  22  23
ATOM     23  C   UNL A   1      43.640  30.434  27.138  1.00  0.00    -0.003 C 
ATOM     24  C   UNL A   1      43.678  29.197  28.020  1.00  0.00     0.004 C 
ENDBRANCH  22  23
ENDBRANCH  21  22
ENDBRANCH  20  21
ENDBRANCH  19  20
ENDBRANCH  16  19
ENDBRANCH  14  15
ENDBRANCH   9  14
ENDBRANCH   1   8
BRANCH   4  25
ATOM     25  C   UNL A   1      35.159  33.569  31.205  1.00  0.00     0.105 C 
ATOM     26  C   UNL A   1      34.882  32.501  32.262  1.00  0.00     0.023 C 
BRANCH  25  27
ATOM     27  C   UNL A   1      34.354  34.867  31.376  1.00  0.00     0.227 C 
ATOM     28  O   UNL A   1      34.059  35.263  32.512  1.00  0.00    -0.274 OA
ATOM     29  N   UNL A   1      33.935  35.654  30.348  1.00  0.00    -0.356 N 
ATOM     30  H   UNL A   1      33.501  36.489  30.636  1.00  0.00     0.163 HD
BRANCH  29  31
ATOM     31  C   UNL A   1      34.007  35.495  28.909  1.00  0.00     0.117 C 
BRANCH  31  32
ATOM     32  C   UNL A   1      33.344  34.203  28.439  1.00  0.00     0.042 C 
BRANCH  32  33
ATOM     33  C   UNL A   1      34.328  33.109  28.047  1.00  0.00     0.118 C 
BRANCH  33  34
ATOM     34  N   UNL A   1      33.657  31.935  27.504  1.00  0.00    -0.352 N 
ATOM     35  C   UNL A   1      34.094  30.642  27.356  1.00  0.00     0.251 C 
ATOM     36  H   UNL A   1      32.739  32.096  27.189  1.00  0.00     0.163 HD
ATOM     37  O   UNL A   1      33.434  29.863  26.671  1.00  0.00    -0.269 OA
BRANCH  35  38
ATOM     38  C   UNL A   1      35.343  30.169  27.996  1.00  0.00     0.039 A 
ATOM     39  C   UNL A   1      36.518  30.142  27.236  1.00  0.00     0.014 A 
ATOM     40  C   UNL A   1      35.362  29.694  29.310  1.00  0.00     0.014 A 
ATOM     41  C   UNL A   1      37.713  29.697  27.808  1.00  0.00     0.010 A 
ATOM     42  C   UNL A   1      36.568  29.329  29.904  1.00  0.00     0.010 A 
ATOM     43  C   UNL A   1      37.754  29.315  29.158  1.00  0.00    -0.014 A 
BRANCH  43  44
ATOM     44  C   UNL A   1      39.021  28.884  29.803  1.00  0.00     0.031 A 
ATOM     45  C   UNL A   1      39.513  29.581  31.043  1.00  0.00     0.074 A 
ATOM     46  C   UNL A   1      39.762  27.912  29.238  1.00  0.00     0.049 A 
ATOM     47  N   UNL A   1      40.633  29.414  31.700  1.00  0.00    -0.248 NA
ATOM     48  C   UNL A   1      38.639  30.624  31.604  1.00  0.00     0.031 C 
ATOM     49  C   UNL A   1      39.415  27.190  28.014  1.00  0.00     0.029 A 
ATOM     50  N   UNL A   1      40.969  27.375  29.611  1.00  0.00    -0.354 N 
ATOM     51  C   UNL A   1      40.608  30.341  32.733  1.00  0.00     0.074 A 
ATOM     52  C   UNL A   1      39.385  31.101  32.589  1.00  0.00     0.031 C 
ATOM     53  C   UNL A   1      40.377  26.292  27.745  1.00  0.00     0.029 A 
ATOM     54  C   UNL A   1      41.426  26.403  28.754  1.00  0.00     0.049 A 
ATOM     55  H   UNL A   1      41.461  27.659  30.414  1.00  0.00     0.167 HD
ATOM     56  C   UNL A   1      41.512  30.529  33.724  1.00  0.00     0.037 A 
ATOM     57  C   UNL A   1      42.568  25.690  28.775  1.00  0.00     0.037 A 
ATOM     58  C   UNL A   1      42.714  29.752  33.880  1.00  0.00     0.049 A 
ATOM     59  C   UNL A   1      43.558  25.920  29.884  1.00  0.00     0.074 A 
ATOM     60  C   UNL A   1      43.664  29.824  34.884  1.00  0.00     0.029 A 
ATOM     61  N   UNL A   1      43.133  28.762  33.004  1.00  0.00    -0.354 N 
ATOM     62  N   UNL A   1      43.493  26.755  30.891  1.00  0.00    -0.248 NA
ATOM     63  C   UNL A   1      44.779  25.102  29.861  1.00  0.00     0.031 C 
ATOM     64  C   UNL A   1      44.678  28.905  34.594  1.00  0.00     0.029 A 
ATOM     65  C   UNL A   1      44.337  28.228  33.434  1.00  0.00     0.049 A 
ATOM     66  H   UNL A   1      42.646  28.480  32.196  1.00  0.00     0.167 HD
ATOM     67  C   UNL A   1      44.647  26.549  31.634  1.00  0.00     0.074 A 
ATOM     68  C   UNL A   1      45.389  25.496  30.970  1.00  0.00     0.031 C 
ATOM     69  C   UNL A   1      45.056  27.174  32.765  1.00  0.00     0.037 A 
BRANCH  56  70
ATOM     70  C   UNL A   1      41.232  31.615  34.722  1.00  0.00     0.064 A 
ATOM     71  C   UNL A   1      41.854  32.871  34.638  1.00  0.00     0.173 A 
ATOM     72  C   UNL A   1      40.306  31.412  35.757  1.00  0.00     0.173 A 
ATOM     73  F   UNL A   1      42.754  33.114  33.672  1.00  0.00    -0.203 F 
ATOM     74  C   UNL A   1      41.585  33.870  35.569  1.00  0.00     0.198 A 
ATOM     75  C   UNL A   1      40.017  32.423  36.670  1.00  0.00     0.198 A 
ATOM     76  F   UNL A   1      39.677  30.234  35.880  1.00  0.00    -0.203 F 
ATOM     77  F   UNL A   1      42.230  35.042  35.497  1.00  0.00    -0.200 F 
ATOM     78  C   UNL A   1      40.663  33.647  36.581  1.00  0.00     0.200 A 
ATOM     79  F   UNL A   1      39.115  32.212  37.639  1.00  0.00    -0.200 F 
ATOM     80  F   UNL A   1      40.399  34.612  37.474  1.00  0.00    -0.200 F 
ENDBRANCH  56  70
BRANCH  57  81
ATOM     81  C   UNL A   1      42.822  24.669  27.725  1.00  0.00     0.064 A 
ATOM     82  C   UNL A   1      42.462  23.329  27.926  1.00  0.00     0.173 A 
ATOM     83  C   UNL A   1      43.424  25.007  26.505  1.00  0.00     0.173 A 
ATOM     84  F   UNL A   1      41.903  22.954  29.086  1.00  0.00    -0.203 F 
ATOM     85  C   UNL A   1      42.710  22.364  26.953  1.00  0.00     0.198 A 
ATOM     86  C   UNL A   1      43.646  24.046  25.521  1.00  0.00     0.198 A 
ATOM     87  F   UNL A   1      43.786  26.276  26.262  1.00  0.00    -0.203 F 
ATOM     88  F   UNL A   1      42.394  21.083  27.188  1.00  0.00    -0.200 F 
ATOM     89  C   UNL A   1      43.296  22.724  25.748  1.00  0.00     0.200 A 
ATOM     90  F   UNL A   1      44.200  24.399  24.353  1.00  0.00    -0.200 F 
ATOM     91  F   UNL A   1      43.529  21.796  24.811  1.00  0.00    -0.200 F 
ENDBRANCH  57  81
BRANCH  69  92
ATOM     92  C   UNL A   1      46.347  26.714  33.376  1.00  0.00     0.064 A 
ATOM     93  C   UNL A   1      47.578  27.266  32.997  1.00  0.00     0.173 A 
ATOM     94  C   UNL A   1      46.345  25.738  34.385  1.00  0.00     0.173 A 
ATOM     95  F   UNL A   1      47.634  28.190  32.026  1.00  0.00    -0.203 F 
ATOM     96  C   UNL A   1      48.765  26.843  33.590  1.00  0.00     0.198 A 
ATOM     97  C   UNL A   1      47.530  25.337  34.996  1.00  0.00     0.198 A 
ATOM     98  F   UNL A   1      45.192  25.183  34.788  1.00  0.00    -0.203 F 
ATOM     99  F   UNL A   1      49.935  27.352  33.182  1.00  0.00    -0.200 F 
ATOM    100  C   UNL A   1      48.739  25.885  34.594  1.00  0.00     0.200 A 
ATOM    101  F   UNL A   1      47.502  24.421  35.974  1.00  0.00    -0.200 F 
ATOM    102  F   UNL A   1      49.880  25.484  35.169  1.00  0.00    -0.200 F 
ENDBRANCH  69  92
ENDBRANCH  43  44
ENDBRANCH  35  38
ENDBRANCH  33  34
ENDBRANCH  32  33
ENDBRANCH  31  32
ENDBRANCH  29  31
ENDBRANCH  25  27
ENDBRANCH   4  25
TORSDOF 19
ENDMDL
MODEL 2
REMARK VINA RESULT:      -9.7      2.739      4.550
REMARK SMILES CCCCCCNC(=O)Oc1cccc(-c2ccc([C@@H](C)C(=O)NCCCNC(=O)c3ccc(-c4c5nc(c(-c6c(F)c(F)c(F)c(F)c6F)c6ccc([nH]6)c(-c6c(F)c(F)c(F)c(F)c6F)c6nc(c(-c7c(F)c(F)c(F)c(F)c7F)c7ccc4[nH]7)C=C6)C=C5)cc3)cc2C)c1
REMARK SMILES IDX 16 1 17 2 18 3 19 4 94 5 95 6 96 7 15 8 11 9 12 10 97 11
REMARK SMILES IDX 13 12 14 13 10 14 8 15 7 16 9 18 6 19 5 20 4 21 3 22 2 23
REMARK SMILES IDX 1 24 20 25 21 26 22 27 23 28 24 29 25 31 26 32 27 33 28 34
REMARK SMILES IDX 29 35 30 37 31 38 32 39 93 40 33 41 92 42 34 43 35 44 36 45
REMARK SMILES IDX 86 46 37 47 91 48 85 49 87 50 38 51 90 52 84 53 83 54 39 56
REMARK SMILES IDX 71 57 51 58 70 59 52 60 55 61 69 62 88 63 53 64 54 65 68 67
REMARK SMILES IDX 89 68 56 69 40 70 41 71 49 72 42 73 43 74 47 75 50 76 44 77
REMARK SMILES IDX 45 78 48 79 46 80 72 81 73 82 81 83 74 84 75 85 79 86 82 87
REMARK SMILES IDX 76 88 77 89 80 90 78 91 57 92 58 93 66 94 59 95 60 96 64 97
REMARK SMILES IDX 67 98 61 99 62 100 65 101 63 102
REMARK H PARENT 7 17 24 30 28 36 87 55 55 66
REMARK Flexibility Score: inf
ROOT
ATOM      1  C   UNL A   1      36.332  33.619  33.238  1.00  0.00    -0.015 A 
ATOM      2  C   UNL A   1      35.123  33.618  33.958  1.00  0.00     0.009 A 
ATOM      3  C   UNL A   1      33.930  34.097  33.409  1.00  0.00     0.005 A 
ATOM      4  C   UNL A   1      33.910  34.694  32.151  1.00  0.00    -0.036 A 
ATOM      5  C   UNL A   1      35.097  34.661  31.405  1.00  0.00     0.008 A 
ATOM      6  C   UNL A   1      36.285  34.081  31.904  1.00  0.00    -0.043 A 
ATOM      7  C   UNL A   1      37.438  33.981  30.938  1.00  0.00     0.045 C 
ENDROOT
BRANCH   1   8
ATOM      8  C   UNL A   1      37.564  33.147  33.915  1.00  0.00    -0.014 A 
ATOM      9  C   UNL A   1      39.059  31.358  34.614  1.00  0.00     0.133 A 
ATOM     10  C   UNL A   1      39.914  32.266  35.228  1.00  0.00     0.047 A 
ATOM     11  C   UNL A   1      37.909  31.784  33.943  1.00  0.00     0.056 A 
ATOM     12  C   UNL A   1      39.614  33.623  35.173  1.00  0.00     0.004 A 
ATOM     13  C   UNL A   1      38.444  34.054  34.538  1.00  0.00     0.009 A 
BRANCH   9  14
ATOM     14  O   UNL A   1      39.312  29.995  34.857  1.00  0.00    -0.410 OA
BRANCH  14  15
ATOM     15  C   UNL A   1      39.366  29.091  33.808  1.00  0.00     0.412 C 
ATOM     16  N   UNL A   1      40.621  28.583  33.610  1.00  0.00    -0.321 N 
ATOM     17  H   UNL A   1      40.736  27.975  32.844  1.00  0.00     0.167 HD
ATOM     18  O   UNL A   1      38.425  28.752  33.102  1.00  0.00    -0.224 OA
BRANCH  16  19
ATOM     19  C   UNL A   1      41.799  28.848  34.412  1.00  0.00     0.119 C 
BRANCH  19  20
ATOM     20  C   UNL A   1      42.861  27.758  34.249  1.00  0.00     0.021 C 
BRANCH  20  21
ATOM     21  C   UNL A   1      42.347  26.324  34.415  1.00  0.00     0.002 C 
BRANCH  21  22
ATOM     22  C   UNL A   1      43.283  25.370  35.164  1.00  0.00    -0.000 C 
BRANCH  22  23
ATOM     23  C   UNL A   1      44.548  24.960  34.407  1.00  0.00    -0.003 C 
ATOM     24  C   UNL A   1      44.280  24.545  32.970  1.00  0.00     0.004 C 
ENDBRANCH  22  23
ENDBRANCH  21  22
ENDBRANCH  20  21
ENDBRANCH  19  20
ENDBRANCH  16  19
ENDBRANCH  14  15
ENDBRANCH   9  14
ENDBRANCH   1   8
BRANCH   4  25
ATOM     25  C   UNL A   1      32.678  35.374  31.577  1.00  0.00     0.105 C 
ATOM     26  C   UNL A   1      31.698  35.928  32.610  1.00  0.00     0.023 C 
BRANCH  25  27
ATOM     27  C   UNL A   1      32.978  36.319  30.403  1.00  0.00     0.227 C 
ATOM     28  O   UNL A   1      33.159  37.526  30.615  1.00  0.00    -0.274 OA
ATOM     29  N   UNL A   1      33.076  35.926  29.104  1.00  0.00    -0.356 N 
ATOM     30  H   UNL A   1      33.351  36.643  28.489  1.00  0.00     0.163 HD
BRANCH  29  31
ATOM     31  C   UNL A   1      32.853  34.649  28.455  1.00  0.00     0.117 C 
BRANCH  31  32
ATOM     32  C   UNL A   1      34.151  34.031  27.941  1.00  0.00     0.042 C 
BRANCH  32  33
ATOM     33  C   UNL A   1      34.609  32.811  28.729  1.00  0.00     0.118 C 
BRANCH  33  34
ATOM     34  N   UNL A   1      33.997  31.581  28.244  1.00  0.00    -0.352 N 
ATOM     35  C   UNL A   1      34.551  30.360  27.946  1.00  0.00     0.251 C 
ATOM     36  H   UNL A   1      33.024  31.634  28.106  1.00  0.00     0.163 HD
ATOM     37  O   UNL A   1      33.876  29.529  27.342  1.00  0.00    -0.269 OA
BRANCH  35  38
ATOM     38  C   UNL A   1      35.943  30.029  28.327  1.00  0.00     0.039 A 
ATOM     39  C   UNL A   1      36.184  29.510  29.604  1.00  0.00     0.014 A 
ATOM     40  C   UNL A   1      37.018  30.279  27.471  1.00  0.00     0.014 A 
ATOM     41  C   UNL A   1      37.488  29.192  29.997  1.00  0.00     0.010 A 
ATOM     42  C   UNL A   1      38.306  29.886  27.831  1.00  0.00     0.010 A 
ATOM     43  C   UNL A   1      38.556  29.349  29.101  1.00  0.00    -0.014 A 
BRANCH  43  44
ATOM     44  C   UNL A   1      39.944  28.973  29.476  1.00  0.00     0.031 A 
ATOM     45  C   UNL A   1      40.777  29.901  30.319  1.00  0.00     0.074 A 
ATOM     46  C   UNL A   1      40.478  27.830  29.005  1.00  0.00     0.049 A 
ATOM     47  N   UNL A   1      42.033  29.797  30.674  1.00  0.00    -0.248 NA
ATOM     48  C   UNL A   1      40.117  31.124  30.803  1.00  0.00     0.031 C 
ATOM     49  C   UNL A   1      39.787  26.867  28.145  1.00  0.00     0.029 A 
ATOM     50  N   UNL A   1      41.730  27.292  29.169  1.00  0.00    -0.354 N 
ATOM     51  C   UNL A   1      42.316  30.945  31.402  1.00  0.00     0.074 A 
ATOM     52  C   UNL A   1      41.118  31.756  31.397  1.00  0.00     0.031 C 
ATOM     53  C   UNL A   1      40.617  25.848  27.872  1.00  0.00     0.029 A 
ATOM     54  C   UNL A   1      41.909  26.104  28.502  1.00  0.00     0.049 A 
ATOM     55  H   UNL A   1      42.432  27.716  29.712  1.00  0.00     0.167 HD
ATOM     56  C   UNL A   1      43.465  31.284  32.034  1.00  0.00     0.037 A 
ATOM     57  C   UNL A   1      42.997  25.316  28.403  1.00  0.00     0.037 A 
ATOM     58  C   UNL A   1      44.647  30.463  32.061  1.00  0.00     0.049 A 
ATOM     59  C   UNL A   1      44.261  25.717  29.111  1.00  0.00     0.074 A 
ATOM     60  C   UNL A   1      45.841  30.689  32.723  1.00  0.00     0.029 A 
ATOM     61  N   UNL A   1      44.783  29.256  31.390  1.00  0.00    -0.354 N 
ATOM     62  N   UNL A   1      44.498  26.774  29.849  1.00  0.00    -0.248 NA
ATOM     63  C   UNL A   1      45.410  24.810  28.976  1.00  0.00     0.031 C 
ATOM     64  C   UNL A   1      46.715  29.638  32.421  1.00  0.00     0.029 A 
ATOM     65  C   UNL A   1      46.049  28.735  31.608  1.00  0.00     0.049 A 
ATOM     66  H   UNL A   1      44.084  28.833  30.841  1.00  0.00     0.167 HD
ATOM     67  C   UNL A   1      45.809  26.649  30.286  1.00  0.00     0.074 A 
ATOM     68  C   UNL A   1      46.314  25.405  29.743  1.00  0.00     0.031 C 
ATOM     69  C   UNL A   1      46.531  27.490  31.067  1.00  0.00     0.037 A 
BRANCH  56  70
ATOM     70  C   UNL A   1      43.497  32.601  32.756  1.00  0.00     0.064 A 
ATOM     71  C   UNL A   1      43.675  33.812  32.070  1.00  0.00     0.173 A 
ATOM     72  C   UNL A   1      43.315  32.657  34.147  1.00  0.00     0.173 A 
ATOM     73  F   UNL A   1      43.863  33.814  30.741  1.00  0.00    -0.203 F 
ATOM     74  C   UNL A   1      43.703  35.026  32.751  1.00  0.00     0.198 A 
ATOM     75  C   UNL A   1      43.313  33.875  34.821  1.00  0.00     0.198 A 
ATOM     76  F   UNL A   1      43.133  31.530  34.851  1.00  0.00    -0.203 F 
ATOM     77  F   UNL A   1      43.925  36.164  32.080  1.00  0.00    -0.200 F 
ATOM     78  C   UNL A   1      43.516  35.057  34.125  1.00  0.00     0.200 A 
ATOM     79  F   UNL A   1      43.118  33.905  36.147  1.00  0.00    -0.200 F 
ATOM     80  F   UNL A   1      43.536  36.227  34.780  1.00  0.00    -0.200 F 
ENDBRANCH  56  70
BRANCH  57  81
ATOM     81  C   UNL A   1      42.927  24.053  27.623  1.00  0.00     0.064 A 
ATOM     82  C   UNL A   1      43.210  24.042  26.250  1.00  0.00     0.173 A 
ATOM     83  C   UNL A   1      42.581  22.836  28.228  1.00  0.00     0.173 A 
ATOM     84  F   UNL A   1      43.524  25.185  25.623  1.00  0.00    -0.203 F 
ATOM     85  C   UNL A   1      43.133  22.865  25.509  1.00  0.00     0.198 A 
ATOM     86  C   UNL A   1      42.532  21.655  27.492  1.00  0.00     0.198 A 
ATOM     87  F   UNL A   1      42.303  22.793  29.540  1.00  0.00    -0.203 F 
ATOM     88  F   UNL A   1      43.367  22.890  24.190  1.00  0.00    -0.200 F 
ATOM     89  C   UNL A   1      42.801  21.671  26.132  1.00  0.00     0.200 A 
ATOM     90  F   UNL A   1      42.223  20.500  28.098  1.00  0.00    -0.200 F 
ATOM     91  F   UNL A   1      42.732  20.538  25.419  1.00  0.00    -0.200 F 
ENDBRANCH  57  81
BRANCH  69  92
ATOM     92  C   UNL A   1      47.932  27.076  31.411  1.00  0.00     0.064 A 
ATOM     93  C   UNL A   1      48.212  26.305  32.548  1.00  0.00     0.173 A 
ATOM     94  C   UNL A   1      49.000  27.421  30.569  1.00  0.00     0.173 A 
ATOM     95  F   UNL A   1      47.228  25.964  33.392  1.00  0.00    -0.203 F 
ATOM     96  C   UNL A   1      49.516  25.911  32.841  1.00  0.00     0.198 A 
ATOM     97  C   UNL A   1      50.297  27.002  30.849  1.00  0.00     0.198 A 
ATOM     98  F   UNL A   1      48.783  28.153  29.465  1.00  0.00    -0.203 F 
ATOM     99  F   UNL A   1      49.768  25.212  33.955  1.00  0.00    -0.200 F 
ATOM    100  C   UNL A   1      50.555  26.253  31.988  1.00  0.00     0.200 A 
ATOM    101  F   UNL A   1      51.298  27.323  30.018  1.00  0.00    -0.200 F 
ATOM    102  F   UNL A   1      51.807  25.867  32.267  1.00  0.00    -0.200 F 
ENDBRANCH  69  92
ENDBRANCH  43  44
ENDBRANCH  35  38
ENDBRANCH  33  34
ENDBRANCH  32  33
ENDBRANCH  31  32
ENDBRANCH  29  31
ENDBRANCH  25  27
ENDBRANCH   4  25
TORSDOF 19
ENDMDL
MODEL 3
REMARK VINA RESULT:      -9.5      4.675     11.603
REMARK SMILES CCCCCCNC(=O)Oc1cccc(-c2ccc([C@@H](C)C(=O)NCCCNC(=O)c3ccc(-c4c5nc(c(-c6c(F)c(F)c(F)c(F)c6F)c6ccc([nH]6)c(-c6c(F)c(F)c(F)c(F)c6F)c6nc(c(-c7c(F)c(F)c(F)c(F)c7F)c7ccc4[nH]7)C=C6)C=C5)cc3)cc2C)c1
REMARK SMILES IDX 16 1 17 2 18 3 19 4 94 5 95 6 96 7 15 8 11 9 12 10 97 11
REMARK SMILES IDX 13 12 14 13 10 14 8 15 7 16 9 18 6 19 5 20 4 21 3 22 2 23
REMARK SMILES IDX 1 24 20 25 21 26 22 27 23 28 24 29 25 31 26 32 27 33 28 34
REMARK SMILES IDX 29 35 30 37 31 38 32 39 93 40 33 41 92 42 34 43 35 44 36 45
REMARK SMILES IDX 86 46 37 47 91 48 85 49 87 50 38 51 90 52 84 53 83 54 39 56
REMARK SMILES IDX 71 57 51 58 70 59 52 60 55 61 69 62 88 63 53 64 54 65 68 67
REMARK SMILES IDX 89 68 56 69 40 70 41 71 49 72 42 73 43 74 47 75 50 76 44 77
REMARK SMILES IDX 45 78 48 79 46 80 72 81 73 82 81 83 74 84 75 85 79 86 82 87
REMARK SMILES IDX 76 88 77 89 80 90 78 91 57 92 58 93 66 94 59 95 60 96 64 97
REMARK SMILES IDX 67 98 61 99 62 100 65 101 63 102
REMARK H PARENT 7 17 24 30 28 36 87 55 55 66
REMARK Flexibility Score: inf
ROOT
ATOM      1  C   UNL A   1      36.693  22.357  25.146  1.00  0.00    -0.015 A 
ATOM      2  C   UNL A   1      37.040  23.648  25.587  1.00  0.00     0.009 A 
ATOM      3  C   UNL A   1      38.295  23.936  26.133  1.00  0.00     0.005 A 
ATOM      4  C   UNL A   1      39.225  22.924  26.359  1.00  0.00    -0.036 A 
ATOM      5  C   UNL A   1      38.910  21.643  25.884  1.00  0.00     0.008 A 
ATOM      6  C   UNL A   1      37.690  21.360  25.230  1.00  0.00    -0.043 A 
ATOM      7  C   UNL A   1      37.550  19.980  24.641  1.00  0.00     0.045 C 
ENDROOT
BRANCH   1   8
ATOM      8  C   UNL A   1      35.321  22.126  24.633  1.00  0.00    -0.014 A 
ATOM      9  C   UNL A   1      33.511  22.632  23.087  1.00  0.00     0.133 A 
ATOM     10  C   UNL A   1      32.692  21.677  23.680  1.00  0.00     0.047 A 
ATOM     11  C   UNL A   1      34.817  22.844  23.535  1.00  0.00     0.056 A 
ATOM     12  C   UNL A   1      33.187  20.925  24.739  1.00  0.00     0.004 A 
ATOM     13  C   UNL A   1      34.480  21.159  25.219  1.00  0.00     0.009 A 
BRANCH   9  14
ATOM     14  O   UNL A   1      32.902  23.486  22.148  1.00  0.00    -0.410 OA
BRANCH  14  15
ATOM     15  C   UNL A   1      33.062  24.859  22.238  1.00  0.00     0.412 C 
ATOM     16  N   UNL A   1      31.960  25.490  22.748  1.00  0.00    -0.321 N 
ATOM     17  H   UNL A   1      31.992  26.473  22.787  1.00  0.00     0.167 HD
ATOM     18  O   UNL A   1      34.058  25.489  21.907  1.00  0.00    -0.224 OA
BRANCH  16  19
ATOM     19  C   UNL A   1      30.750  24.859  23.238  1.00  0.00     0.119 C 
BRANCH  19  20
ATOM     20  C   UNL A   1      30.019  25.734  24.258  1.00  0.00     0.021 C 
BRANCH  20  21
ATOM     21  C   UNL A   1      30.869  26.180  25.454  1.00  0.00     0.002 C 
BRANCH  21  22
ATOM     22  C   UNL A   1      31.298  25.064  26.411  1.00  0.00    -0.000 C 
BRANCH  22  23
ATOM     23  C   UNL A   1      32.673  24.452  26.133  1.00  0.00    -0.003 C 
ATOM     24  C   UNL A   1      33.755  25.491  25.886  1.00  0.00     0.004 C 
ENDBRANCH  22  23
ENDBRANCH  21  22
ENDBRANCH  20  21
ENDBRANCH  19  20
ENDBRANCH  16  19
ENDBRANCH  14  15
ENDBRANCH   9  14
ENDBRANCH   1   8
BRANCH   4  25
ATOM     25  C   UNL A   1      40.534  23.154  27.096  1.00  0.00     0.105 C 
ATOM     26  C   UNL A   1      40.521  24.298  28.107  1.00  0.00     0.023 C 
BRANCH  25  27
ATOM     27  C   UNL A   1      41.205  21.863  27.592  1.00  0.00     0.227 C 
ATOM     28  O   UNL A   1      40.544  21.033  28.231  1.00  0.00    -0.274 OA
ATOM     29  N   UNL A   1      42.508  21.538  27.370  1.00  0.00    -0.356 N 
ATOM     30  H   UNL A   1      42.755  20.640  27.688  1.00  0.00     0.163 HD
BRANCH  29  31
ATOM     31  C   UNL A   1      43.600  22.264  26.753  1.00  0.00     0.117 C 
BRANCH  31  32
ATOM     32  C   UNL A   1      43.357  22.515  25.267  1.00  0.00     0.042 C 
BRANCH  32  33
ATOM     33  C   UNL A   1      43.362  23.987  24.879  1.00  0.00     0.118 C 
BRANCH  33  34
ATOM     34  N   UNL A   1      44.711  24.495  24.667  1.00  0.00    -0.352 N 
ATOM     35  C   UNL A   1      45.340  25.608  25.170  1.00  0.00     0.251 C 
ATOM     36  H   UNL A   1      45.264  23.950  24.062  1.00  0.00     0.163 HD
ATOM     37  O   UNL A   1      46.412  25.960  24.682  1.00  0.00    -0.269 OA
BRANCH  35  38
ATOM     38  C   UNL A   1      44.750  26.395  26.277  1.00  0.00     0.039 A 
ATOM     39  C   UNL A   1      44.227  25.713  27.381  1.00  0.00     0.014 A 
ATOM     40  C   UNL A   1      44.650  27.787  26.216  1.00  0.00     0.014 A 
ATOM     41  C   UNL A   1      43.658  26.426  28.441  1.00  0.00     0.010 A 
ATOM     42  C   UNL A   1      44.159  28.501  27.307  1.00  0.00     0.010 A 
ATOM     43  C   UNL A   1      43.648  27.829  28.426  1.00  0.00    -0.014 A 
BRANCH  43  44
ATOM     44  C   UNL A   1      43.094  28.612  29.561  1.00  0.00     0.031 A 
ATOM     45  C   UNL A   1      41.701  29.175  29.482  1.00  0.00     0.074 A 
ATOM     46  C   UNL A   1      43.866  28.874  30.632  1.00  0.00     0.049 A 
ATOM     47  N   UNL A   1      41.073  29.958  30.322  1.00  0.00    -0.248 NA
ATOM     48  C   UNL A   1      40.919  28.835  28.282  1.00  0.00     0.031 C 
ATOM     49  C   UNL A   1      45.246  28.421  30.810  1.00  0.00     0.029 A 
ATOM     50  N   UNL A   1      43.605  29.598  31.769  1.00  0.00    -0.354 N 
ATOM     51  C   UNL A   1      39.836  30.219  29.746  1.00  0.00     0.074 A 
ATOM     52  C   UNL A   1      39.820  29.552  28.462  1.00  0.00     0.031 C 
ATOM     53  C   UNL A   1      45.706  28.862  31.992  1.00  0.00     0.029 A 
ATOM     54  C   UNL A   1      44.668  29.661  32.637  1.00  0.00     0.049 A 
ATOM     55  H   UNL A   1      42.740  30.032  31.945  1.00  0.00     0.167 HD
ATOM     56  C   UNL A   1      38.802  30.932  30.250  1.00  0.00     0.037 A 
ATOM     57  C   UNL A   1      44.794  30.300  33.816  1.00  0.00     0.037 A 
ATOM     58  C   UNL A   1      38.811  31.572  31.540  1.00  0.00     0.049 A 
ATOM     59  C   UNL A   1      43.631  31.089  34.352  1.00  0.00     0.074 A 
ATOM     60  C   UNL A   1      37.792  32.267  32.167  1.00  0.00     0.029 A 
ATOM     61  N   UNL A   1      39.900  31.595  32.400  1.00  0.00    -0.354 N 
ATOM     62  N   UNL A   1      42.445  31.275  33.827  1.00  0.00    -0.248 NA
ATOM     63  C   UNL A   1      43.825  31.753  35.649  1.00  0.00     0.031 C 
ATOM     64  C   UNL A   1      38.276  32.746  33.389  1.00  0.00     0.029 A 
ATOM     65  C   UNL A   1      39.582  32.309  33.545  1.00  0.00     0.049 A 
ATOM     66  H   UNL A   1      40.769  31.168  32.223  1.00  0.00     0.167 HD
ATOM     67  C   UNL A   1      41.743  32.054  34.736  1.00  0.00     0.074 A 
ATOM     68  C   UNL A   1      42.632  32.293  35.855  1.00  0.00     0.031 C 
ATOM     69  C   UNL A   1      40.477  32.529  34.652  1.00  0.00     0.037 A 
BRANCH  56  70
ATOM     70  C   UNL A   1      37.567  31.055  29.404  1.00  0.00     0.064 A 
ATOM     71  C   UNL A   1      36.690  29.974  29.221  1.00  0.00     0.173 A 
ATOM     72  C   UNL A   1      37.237  32.275  28.796  1.00  0.00     0.173 A 
ATOM     73  F   UNL A   1      36.964  28.782  29.773  1.00  0.00    -0.203 F 
ATOM     74  C   UNL A   1      35.548  30.101  28.435  1.00  0.00     0.198 A 
ATOM     75  C   UNL A   1      36.078  32.407  28.035  1.00  0.00     0.198 A 
ATOM     76  F   UNL A   1      38.035  33.343  28.945  1.00  0.00    -0.203 F 
ATOM     77  F   UNL A   1      34.754  29.041  28.233  1.00  0.00    -0.200 F 
ATOM     78  C   UNL A   1      35.240  31.319  27.847  1.00  0.00     0.200 A 
ATOM     79  F   UNL A   1      35.773  33.589  27.479  1.00  0.00    -0.200 F 
ATOM     80  F   UNL A   1      34.137  31.442  27.096  1.00  0.00    -0.200 F 
ENDBRANCH  56  70
BRANCH  57  81
ATOM     81  C   UNL A   1      46.063  30.194  34.583  1.00  0.00     0.064 A 
ATOM     82  C   UNL A   1      47.105  31.109  34.373  1.00  0.00     0.173 A 
ATOM     83  C   UNL A   1      46.260  29.187  35.538  1.00  0.00     0.173 A 
ATOM     84  F   UNL A   1      46.971  32.077  33.455  1.00  0.00    -0.203 F 
ATOM     85  C   UNL A   1      48.302  31.009  35.078  1.00  0.00     0.198 A 
ATOM     86  C   UNL A   1      47.448  29.105  36.262  1.00  0.00     0.198 A 
ATOM     87  F   UNL A   1      45.294  28.289  35.778  1.00  0.00    -0.203 F 
ATOM     88  F   UNL A   1      49.297  31.870  34.828  1.00  0.00    -0.200 F 
ATOM     89  C   UNL A   1      48.470  30.011  36.027  1.00  0.00     0.200 A 
ATOM     90  F   UNL A   1      47.603  28.148  37.187  1.00  0.00    -0.200 F 
ATOM     91  F   UNL A   1      49.620  29.919  36.708  1.00  0.00    -0.200 F 
ENDBRANCH  57  81
BRANCH  69  92
ATOM     92  C   UNL A   1      39.962  33.325  35.816  1.00  0.00     0.064 A 
ATOM     93  C   UNL A   1      39.208  32.730  36.837  1.00  0.00     0.173 A 
ATOM     94  C   UNL A   1      40.265  34.691  35.930  1.00  0.00     0.173 A 
ATOM     95  F   UNL A   1      38.879  31.432  36.766  1.00  0.00    -0.203 F 
ATOM     96  C   UNL A   1      38.757  33.479  37.922  1.00  0.00     0.198 A 
ATOM     97  C   UNL A   1      39.836  35.430  37.029  1.00  0.00     0.198 A 
ATOM     98  F   UNL A   1      40.988  35.305  34.982  1.00  0.00    -0.203 F 
ATOM     99  F   UNL A   1      38.001  32.901  38.864  1.00  0.00    -0.200 F 
ATOM    100  C   UNL A   1      39.078  34.825  38.020  1.00  0.00     0.200 A 
ATOM    101  F   UNL A   1      40.158  36.727  37.129  1.00  0.00    -0.200 F 
ATOM    102  F   UNL A   1      38.649  35.542  39.067  1.00  0.00    -0.200 F 
ENDBRANCH  69  92
ENDBRANCH  43  44
ENDBRANCH  35  38
ENDBRANCH  33  34
ENDBRANCH  32  33
ENDBRANCH  31  32
ENDBRANCH  29  31
ENDBRANCH  25  27
ENDBRANCH   4  25
TORSDOF 19
ENDMDL
