MODEL 1
REMARK VINA RESULT:     -10.7      0.000      0.000
REMARK SMILES O=C(COCCNS(=O)(=O)c1ccccc1)NCCCNC(=O)c1ccc(-c2c3nc(c(-c4c(F)c(F)c(F)c(F)c4F)c4ccc([nH]4)c(-c4c(F)c(F)c(F)c(F)c4F)c4nc(c(-c5c(F)c(F)c(F)c(F)c5F)c5ccc2[nH]5)C=C4)C=C3)cc1
REMARK SMILES IDX 1 1 2 2 17 3 3 5 4 6 5 7 6 8 7 9 8 11 9 12 10 13 11 14 12 15
REMARK SMILES IDX 16 16 13 17 15 18 14 19 18 20 19 21 20 22 21 23 22 24 23 26
REMARK SMILES IDX 24 27 25 28 86 29 26 30 85 31 27 32 28 33 29 34 79 35 30 36
REMARK SMILES IDX 84 37 78 38 80 39 31 40 83 41 77 42 76 43 32 45 64 46 44 47
REMARK SMILES IDX 63 48 45 49 48 50 62 51 81 52 46 53 47 54 61 56 82 57 49 58
REMARK SMILES IDX 33 59 34 60 42 61 35 62 36 63 40 64 43 65 37 66 38 67 41 68
REMARK SMILES IDX 39 69 65 70 66 71 74 72 67 73 68 74 72 75 75 76 69 77 70 78
REMARK SMILES IDX 73 79 71 80 50 81 51 82 59 83 52 84 53 85 57 86 60 87 54 88
REMARK SMILES IDX 55 89 58 90 56 91
REMARK H PARENT 17 4 7 10 21 25 80 44 48 55
REMARK Flexibility Score: inf
ROOT
ATOM      1  O   UNL A   1      32.204  36.407  28.740  1.00  0.00    -0.272 OA
ATOM      2  C   UNL A   1      32.976  36.061  29.629  1.00  0.00     0.245 C 
ATOM      3  N   UNL A   1      34.154  35.382  29.416  1.00  0.00    -0.354 N 
ATOM      4  H   UNL A   1      34.701  35.135  30.198  1.00  0.00     0.163 HD
ENDROOT
BRANCH   2   5
ATOM      5  C   UNL A   1      32.651  36.260  31.110  1.00  0.00     0.259 C 
BRANCH   5   6
ATOM      6  O   UNL A   1      33.012  37.545  31.600  1.00  0.00    -0.370 OA
BRANCH   6   7
ATOM      7  C   UNL A   1      34.029  37.550  32.613  1.00  0.00     0.177 C 
BRANCH   7   8
ATOM      8  C   UNL A   1      34.026  36.327  33.537  1.00  0.00     0.127 C 
BRANCH   8   9
ATOM      9  N   UNL A   1      35.293  35.593  33.487  1.00  0.00    -0.209 NA
ATOM     10  H   UNL A   1      35.610  35.487  34.451  1.00  0.00     0.141 HD
BRANCH   9  11
ATOM     11  S   UNL A   1      35.353  34.077  32.788  1.00  0.00     0.240 S 
ATOM     12  O   UNL A   1      34.043  33.477  32.924  1.00  0.00    -0.207 OA
ATOM     13  O   UNL A   1      36.001  34.223  31.506  1.00  0.00    -0.207 OA
BRANCH  11  14
ATOM     14  C   UNL A   1      36.480  33.220  33.855  1.00  0.00     0.082 A 
ATOM     15  C   UNL A   1      36.896  31.932  33.501  1.00  0.00     0.022 A 
ATOM     16  C   UNL A   1      36.932  33.822  35.031  1.00  0.00     0.022 A 
ATOM     17  C   UNL A   1      37.778  31.244  34.334  1.00  0.00     0.001 A 
ATOM     18  C   UNL A   1      37.812  33.125  35.860  1.00  0.00     0.001 A 
ATOM     19  C   UNL A   1      38.234  31.840  35.511  1.00  0.00     0.000 A 
ENDBRANCH  11  14
ENDBRANCH   9  11
ENDBRANCH   8   9
ENDBRANCH   7   8
ENDBRANCH   6   7
ENDBRANCH   5   6
ENDBRANCH   2   5
BRANCH   3  20
ATOM     20  C   UNL A   1      34.628  35.016  28.100  1.00  0.00     0.117 C 
BRANCH  20  21
ATOM     21  C   UNL A   1      35.140  33.583  28.048  1.00  0.00     0.042 C 
BRANCH  21  22
ATOM     22  C   UNL A   1      34.312  32.590  28.857  1.00  0.00     0.118 C 
BRANCH  22  23
ATOM     23  N   UNL A   1      33.764  31.509  28.053  1.00  0.00    -0.352 N 
ATOM     24  C   UNL A   1      34.341  30.346  27.612  1.00  0.00     0.251 C 
ATOM     25  H   UNL A   1      32.825  31.632  27.782  1.00  0.00     0.163 HD
ATOM     26  O   UNL A   1      33.725  29.633  26.824  1.00  0.00    -0.269 OA
BRANCH  24  27
ATOM     27  C   UNL A   1      35.698  29.946  28.051  1.00  0.00     0.039 A 
ATOM     28  C   UNL A   1      35.846  29.399  29.329  1.00  0.00     0.014 A 
ATOM     29  C   UNL A   1      36.826  30.145  27.251  1.00  0.00     0.014 A 
ATOM     30  C   UNL A   1      37.111  29.024  29.788  1.00  0.00     0.010 A 
ATOM     31  C   UNL A   1      38.074  29.688  27.673  1.00  0.00     0.010 A 
ATOM     32  C   UNL A   1      38.236  29.145  28.956  1.00  0.00    -0.014 A 
BRANCH  32  33
ATOM     33  C   UNL A   1      39.583  28.742  29.441  1.00  0.00     0.031 A 
ATOM     34  C   UNL A   1      40.276  29.540  30.515  1.00  0.00     0.074 A 
ATOM     35  C   UNL A   1      40.191  27.666  28.907  1.00  0.00     0.049 A 
ATOM     36  N   UNL A   1      41.439  29.334  31.080  1.00  0.00    -0.248 NA
ATOM     37  C   UNL A   1      39.582  30.741  31.003  1.00  0.00     0.031 C 
ATOM     38  C   UNL A   1      39.653  26.840  27.826  1.00  0.00     0.029 A 
ATOM     39  N   UNL A   1      41.398  27.079  29.203  1.00  0.00    -0.354 N 
ATOM     40  C   UNL A   1      41.616  30.378  31.979  1.00  0.00     0.074 A 
ATOM     41  C   UNL A   1      40.473  31.254  31.836  1.00  0.00     0.031 C 
ATOM     42  C   UNL A   1      40.504  25.833  27.576  1.00  0.00     0.029 A 
ATOM     43  C   UNL A   1      41.665  25.961  28.453  1.00  0.00     0.049 A 
ATOM     44  H   UNL A   1      42.011  27.428  29.889  1.00  0.00     0.167 HD
ATOM     45  C   UNL A   1      42.622  30.577  32.865  1.00  0.00     0.037 A 
ATOM     46  C   UNL A   1      42.724  25.129  28.472  1.00  0.00     0.037 A 
ATOM     47  C   UNL A   1      43.751  29.696  33.017  1.00  0.00     0.049 A 
ATOM     48  C   UNL A   1      43.829  25.372  29.464  1.00  0.00     0.074 A 
ATOM     49  C   UNL A   1      44.800  29.784  33.914  1.00  0.00     0.029 A 
ATOM     50  N   UNL A   1      43.980  28.565  32.245  1.00  0.00    -0.354 N 
ATOM     51  N   UNL A   1      43.949  26.323  30.359  1.00  0.00    -0.248 NA
ATOM     52  C   UNL A   1      44.940  24.411  29.461  1.00  0.00     0.031 C 
ATOM     53  C   UNL A   1      45.693  28.740  33.649  1.00  0.00     0.029 A 
ATOM     54  C   UNL A   1      45.164  27.959  32.636  1.00  0.00     0.049 A 
ATOM     55  H   UNL A   1      43.389  28.242  31.528  1.00  0.00     0.167 HD
ATOM     56  C   UNL A   1      45.122  26.052  31.051  1.00  0.00     0.074 A 
ATOM     57  C   UNL A   1      45.669  24.838  30.481  1.00  0.00     0.031 C 
ATOM     58  C   UNL A   1      45.693  26.743  32.069  1.00  0.00     0.037 A 
BRANCH  45  59
ATOM     59  C   UNL A   1      42.546  31.796  33.741  1.00  0.00     0.064 A 
ATOM     60  C   UNL A   1      41.920  31.765  34.998  1.00  0.00     0.173 A 
ATOM     61  C   UNL A   1      43.132  33.004  33.335  1.00  0.00     0.173 A 
ATOM     62  F   UNL A   1      41.332  30.639  35.433  1.00  0.00    -0.203 F 
ATOM     63  C   UNL A   1      41.853  32.904  35.796  1.00  0.00     0.198 A 
ATOM     64  C   UNL A   1      43.096  34.132  34.151  1.00  0.00     0.198 A 
ATOM     65  F   UNL A   1      43.749  33.091  32.146  1.00  0.00    -0.203 F 
ATOM     66  F   UNL A   1      41.199  32.865  36.964  1.00  0.00    -0.200 F 
ATOM     67  C   UNL A   1      42.449  34.084  35.376  1.00  0.00     0.200 A 
ATOM     68  F   UNL A   1      43.685  35.267  33.751  1.00  0.00    -0.200 F 
ATOM     69  F   UNL A   1      42.390  35.178  36.148  1.00  0.00    -0.200 F 
ENDBRANCH  45  59
BRANCH  46  70
ATOM     70  C   UNL A   1      42.776  23.966  27.546  1.00  0.00     0.064 A 
ATOM     71  C   UNL A   1      42.343  22.696  27.955  1.00  0.00     0.173 A 
ATOM     72  C   UNL A   1      43.276  24.093  26.243  1.00  0.00     0.173 A 
ATOM     73  F   UNL A   1      41.873  22.518  29.199  1.00  0.00    -0.203 F 
ATOM     74  C   UNL A   1      42.436  21.594  27.108  1.00  0.00     0.198 A 
ATOM     75  C   UNL A   1      43.337  22.998  25.384  1.00  0.00     0.198 A 
ATOM     76  F   UNL A   1      43.696  25.286  25.797  1.00  0.00    -0.203 F 
ATOM     77  F   UNL A   1      42.071  20.382  27.545  1.00  0.00    -0.200 F 
ATOM     78  C   UNL A   1      42.929  21.747  25.821  1.00  0.00     0.200 A 
ATOM     79  F   UNL A   1      43.798  23.153  24.135  1.00  0.00    -0.200 F 
ATOM     80  F   UNL A   1      43.018  20.687  25.005  1.00  0.00    -0.200 F 
ENDBRANCH  46  70
BRANCH  58  81
ATOM     81  C   UNL A   1      46.944  26.169  32.675  1.00  0.00     0.064 A 
ATOM     82  C   UNL A   1      46.908  25.260  33.742  1.00  0.00     0.173 A 
ATOM     83  C   UNL A   1      48.203  26.534  32.170  1.00  0.00     0.173 A 
ATOM     84  F   UNL A   1      45.733  24.886  34.271  1.00  0.00    -0.203 F 
ATOM     85  C   UNL A   1      48.083  24.776  34.312  1.00  0.00     0.198 A 
ATOM     86  C   UNL A   1      49.374  26.017  32.715  1.00  0.00     0.198 A 
ATOM     87  F   UNL A   1      48.298  27.392  31.142  1.00  0.00    -0.203 F 
ATOM     88  F   UNL A   1      48.025  23.965  35.377  1.00  0.00    -0.200 F 
ATOM     89  C   UNL A   1      49.315  25.149  33.794  1.00  0.00     0.200 A 
ATOM     90  F   UNL A   1      50.562  26.365  32.201  1.00  0.00    -0.200 F 
ATOM     91  F   UNL A   1      50.444  24.683  34.344  1.00  0.00    -0.200 F 
ENDBRANCH  58  81
ENDBRANCH  32  33
ENDBRANCH  24  27
ENDBRANCH  22  23
ENDBRANCH  21  22
ENDBRANCH  20  21
ENDBRANCH   3  20
TORSDOF 16
ENDMDL
MODEL 2
REMARK VINA RESULT:     -10.2      1.312      2.005
REMARK SMILES O=C(COCCNS(=O)(=O)c1ccccc1)NCCCNC(=O)c1ccc(-c2c3nc(c(-c4c(F)c(F)c(F)c(F)c4F)c4ccc([nH]4)c(-c4c(F)c(F)c(F)c(F)c4F)c4nc(c(-c5c(F)c(F)c(F)c(F)c5F)c5ccc2[nH]5)C=C4)C=C3)cc1
REMARK SMILES IDX 1 1 2 2 17 3 3 5 4 6 5 7 6 8 7 9 8 11 9 12 10 13 11 14 12 15
REMARK SMILES IDX 16 16 13 17 15 18 14 19 18 20 19 21 20 22 21 23 22 24 23 26
REMARK SMILES IDX 24 27 25 28 86 29 26 30 85 31 27 32 28 33 29 34 79 35 30 36
REMARK SMILES IDX 84 37 78 38 80 39 31 40 83 41 77 42 76 43 32 45 64 46 44 47
REMARK SMILES IDX 63 48 45 49 48 50 62 51 81 52 46 53 47 54 61 56 82 57 49 58
REMARK SMILES IDX 33 59 34 60 42 61 35 62 36 63 40 64 43 65 37 66 38 67 41 68
REMARK SMILES IDX 39 69 65 70 66 71 74 72 67 73 68 74 72 75 75 76 69 77 70 78
REMARK SMILES IDX 73 79 71 80 50 81 51 82 59 83 52 84 53 85 57 86 60 87 54 88
REMARK SMILES IDX 55 89 58 90 56 91
REMARK H PARENT 17 4 7 10 21 25 80 44 48 55
REMARK Flexibility Score: inf
ROOT
ATOM      1  O   UNL A   1      32.237  36.188  28.793  1.00  0.00    -0.272 OA
ATOM      2  C   UNL A   1      33.131  35.990  29.611  1.00  0.00     0.245 C 
ATOM      3  N   UNL A   1      34.315  35.346  29.329  1.00  0.00    -0.354 N 
ATOM      4  H   UNL A   1      34.966  35.223  30.058  1.00  0.00     0.163 HD
ENDROOT
BRANCH   2   5
ATOM      5  C   UNL A   1      32.976  36.352  31.088  1.00  0.00     0.259 C 
BRANCH   5   6
ATOM      6  O   UNL A   1      33.633  35.446  31.965  1.00  0.00    -0.370 OA
BRANCH   6   7
ATOM      7  C   UNL A   1      34.347  36.054  33.051  1.00  0.00     0.177 C 
BRANCH   7   8
ATOM      8  C   UNL A   1      34.872  35.075  34.107  1.00  0.00     0.127 C 
BRANCH   8   9
ATOM      9  N   UNL A   1      35.495  33.893  33.505  1.00  0.00    -0.209 NA
ATOM     10  H   UNL A   1      34.842  33.541  32.805  1.00  0.00     0.141 HD
BRANCH   9  11
ATOM     11  S   UNL A   1      36.983  34.023  32.757  1.00  0.00     0.240 S 
ATOM     12  O   UNL A   1      36.751  34.133  31.332  1.00  0.00    -0.207 OA
ATOM     13  O   UNL A   1      37.745  35.007  33.489  1.00  0.00    -0.207 OA
BRANCH  11  14
ATOM     14  C   UNL A   1      37.705  32.439  33.091  1.00  0.00     0.082 A 
ATOM     15  C   UNL A   1      38.965  32.388  33.700  1.00  0.00     0.022 A 
ATOM     16  C   UNL A   1      37.029  31.268  32.741  1.00  0.00     0.022 A 
ATOM     17  C   UNL A   1      39.548  31.149  33.964  1.00  0.00     0.001 A 
ATOM     18  C   UNL A   1      37.622  30.033  33.005  1.00  0.00     0.001 A 
ATOM     19  C   UNL A   1      38.878  29.975  33.616  1.00  0.00     0.000 A 
ENDBRANCH  11  14
ENDBRANCH   9  11
ENDBRANCH   8   9
ENDBRANCH   7   8
ENDBRANCH   6   7
ENDBRANCH   5   6
ENDBRANCH   2   5
BRANCH   3  20
ATOM     20  C   UNL A   1      34.648  34.845  28.014  1.00  0.00     0.117 C 
BRANCH  20  21
ATOM     21  C   UNL A   1      35.287  33.464  28.067  1.00  0.00     0.042 C 
BRANCH  21  22
ATOM     22  C   UNL A   1      34.638  32.508  29.062  1.00  0.00     0.118 C 
BRANCH  22  23
ATOM     23  N   UNL A   1      34.019  31.354  28.429  1.00  0.00    -0.352 N 
ATOM     24  C   UNL A   1      34.571  30.183  27.979  1.00  0.00     0.251 C 
ATOM     25  H   UNL A   1      33.044  31.425  28.306  1.00  0.00     0.163 HD
ATOM     26  O   UNL A   1      33.871  29.393  27.350  1.00  0.00    -0.269 OA
BRANCH  24  27
ATOM     27  C   UNL A   1      35.997  29.862  28.219  1.00  0.00     0.039 A 
ATOM     28  C   UNL A   1      36.354  29.315  29.455  1.00  0.00     0.014 A 
ATOM     29  C   UNL A   1      36.989  30.135  27.274  1.00  0.00     0.014 A 
ATOM     30  C   UNL A   1      37.690  29.014  29.729  1.00  0.00     0.010 A 
ATOM     31  C   UNL A   1      38.309  29.752  27.512  1.00  0.00     0.010 A 
ATOM     32  C   UNL A   1      38.679  29.210  28.751  1.00  0.00    -0.014 A 
BRANCH  32  33
ATOM     33  C   UNL A   1      40.102  28.885  29.038  1.00  0.00     0.031 A 
ATOM     34  C   UNL A   1      40.950  29.831  29.847  1.00  0.00     0.074 A 
ATOM     35  C   UNL A   1      40.637  27.745  28.561  1.00  0.00     0.049 A 
ATOM     36  N   UNL A   1      42.201  29.713  30.218  1.00  0.00    -0.248 NA
ATOM     37  C   UNL A   1      40.319  31.088  30.277  1.00  0.00     0.031 C 
ATOM     38  C   UNL A   1      39.940  26.770  27.722  1.00  0.00     0.029 A 
ATOM     39  N   UNL A   1      41.893  27.211  28.716  1.00  0.00    -0.354 N 
ATOM     40  C   UNL A   1      42.504  30.876  30.913  1.00  0.00     0.074 A 
ATOM     41  C   UNL A   1      41.329  31.719  30.855  1.00  0.00     0.031 C 
ATOM     42  C   UNL A   1      40.762  25.740  27.468  1.00  0.00     0.029 A 
ATOM     43  C   UNL A   1      42.056  25.997  28.095  1.00  0.00     0.049 A 
ATOM     44  H   UNL A   1      42.608  27.657  29.224  1.00  0.00     0.167 HD
ATOM     45  C   UNL A   1      43.645  31.204  31.567  1.00  0.00     0.037 A 
ATOM     46  C   UNL A   1      43.125  25.180  28.041  1.00  0.00     0.037 A 
ATOM     47  C   UNL A   1      44.808  30.358  31.636  1.00  0.00     0.049 A 
ATOM     48  C   UNL A   1      44.382  25.568  28.774  1.00  0.00     0.074 A 
ATOM     49  C   UNL A   1      45.997  30.578  32.309  1.00  0.00     0.029 A 
ATOM     50  N   UNL A   1      44.930  29.128  31.004  1.00  0.00    -0.354 N 
ATOM     51  N   UNL A   1      44.630  26.638  29.490  1.00  0.00    -0.248 NA
ATOM     52  C   UNL A   1      45.502  24.620  28.707  1.00  0.00     0.031 C 
ATOM     53  C   UNL A   1      46.859  29.509  32.038  1.00  0.00     0.029 A 
ATOM     54  C   UNL A   1      46.182  28.588  31.257  1.00  0.00     0.049 A 
ATOM     55  H   UNL A   1      44.231  28.703  30.457  1.00  0.00     0.167 HD
ATOM     56  C   UNL A   1      45.915  26.473  29.991  1.00  0.00     0.074 A 
ATOM     57  C   UNL A   1      46.387  25.192  29.509  1.00  0.00     0.031 C 
ATOM     58  C   UNL A   1      46.637  27.306  30.781  1.00  0.00     0.037 A 
BRANCH  45  59
ATOM     59  C   UNL A   1      43.690  32.536  32.262  1.00  0.00     0.064 A 
ATOM     60  C   UNL A   1      43.275  32.689  33.595  1.00  0.00     0.173 A 
ATOM     61  C   UNL A   1      44.183  33.670  31.598  1.00  0.00     0.173 A 
ATOM     62  F   UNL A   1      42.784  31.641  34.274  1.00  0.00    -0.203 F 
ATOM     63  C   UNL A   1      43.317  33.932  34.223  1.00  0.00     0.198 A 
ATOM     64  C   UNL A   1      44.259  34.903  32.241  1.00  0.00     0.198 A 
ATOM     65  F   UNL A   1      44.599  33.582  30.326  1.00  0.00    -0.203 F 
ATOM     66  F   UNL A   1      42.860  34.063  35.475  1.00  0.00    -0.200 F 
ATOM     67  C   UNL A   1      43.818  35.036  33.549  1.00  0.00     0.200 A 
ATOM     68  F   UNL A   1      44.757  35.965  31.594  1.00  0.00    -0.200 F 
ATOM     69  F   UNL A   1      43.865  36.228  34.157  1.00  0.00    -0.200 F 
ENDBRANCH  45  59
BRANCH  46  70
ATOM     70  C   UNL A   1      43.046  23.896  27.294  1.00  0.00     0.064 A 
ATOM     71  C   UNL A   1      42.577  22.728  27.913  1.00  0.00     0.173 A 
ATOM     72  C   UNL A   1      43.453  23.804  25.956  1.00  0.00     0.173 A 
ATOM     73  F   UNL A   1      42.193  22.759  29.198  1.00  0.00    -0.203 F 
ATOM     74  C   UNL A   1      42.549  21.512  27.232  1.00  0.00     0.198 A 
ATOM     75  C   UNL A   1      43.392  22.596  25.265  1.00  0.00     0.198 A 
ATOM     76  F   UNL A   1      43.903  24.892  25.314  1.00  0.00    -0.203 F 
ATOM     77  F   UNL A   1      42.153  20.401  27.866  1.00  0.00    -0.200 F 
ATOM     78  C   UNL A   1      42.952  21.449  25.907  1.00  0.00     0.200 A 
ATOM     79  F   UNL A   1      43.767  22.542  23.979  1.00  0.00    -0.200 F 
ATOM     80  F   UNL A   1      42.924  20.280  25.252  1.00  0.00    -0.200 F 
ENDBRANCH  46  70
BRANCH  58  81
ATOM     81  C   UNL A   1      47.992  26.829  31.227  1.00  0.00     0.064 A 
ATOM     82  C   UNL A   1      49.162  27.132  30.515  1.00  0.00     0.173 A 
ATOM     83  C   UNL A   1      48.119  26.060  32.395  1.00  0.00     0.173 A 
ATOM     84  F   UNL A   1      49.097  27.854  29.386  1.00  0.00    -0.203 F 
ATOM     85  C   UNL A   1      50.399  26.644  30.928  1.00  0.00     0.198 A 
ATOM     86  C   UNL A   1      49.362  25.607  32.827  1.00  0.00     0.198 A 
ATOM     87  F   UNL A   1      47.035  25.749  33.123  1.00  0.00    -0.203 F 
ATOM     88  F   UNL A   1      51.493  26.886  30.191  1.00  0.00    -0.200 F 
ATOM     89  C   UNL A   1      50.500  25.887  32.086  1.00  0.00     0.200 A 
ATOM     90  F   UNL A   1      49.458  24.893  33.957  1.00  0.00    -0.200 F 
ATOM     91  F   UNL A   1      51.690  25.418  32.481  1.00  0.00    -0.200 F 
ENDBRANCH  58  81
ENDBRANCH  32  33
ENDBRANCH  24  27
ENDBRANCH  22  23
ENDBRANCH  21  22
ENDBRANCH  20  21
ENDBRANCH   3  20
TORSDOF 16
ENDMDL
MODEL 3
REMARK VINA RESULT:     -10.2      1.204      7.506
REMARK SMILES O=C(COCCNS(=O)(=O)c1ccccc1)NCCCNC(=O)c1ccc(-c2c3nc(c(-c4c(F)c(F)c(F)c(F)c4F)c4ccc([nH]4)c(-c4c(F)c(F)c(F)c(F)c4F)c4nc(c(-c5c(F)c(F)c(F)c(F)c5F)c5ccc2[nH]5)C=C4)C=C3)cc1
REMARK SMILES IDX 1 1 2 2 17 3 3 5 4 6 5 7 6 8 7 9 8 11 9 12 10 13 11 14 12 15
REMARK SMILES IDX 16 16 13 17 15 18 14 19 18 20 19 21 20 22 21 23 22 24 23 26
REMARK SMILES IDX 24 27 25 28 86 29 26 30 85 31 27 32 28 33 29 34 79 35 30 36
REMARK SMILES IDX 84 37 78 38 80 39 31 40 83 41 77 42 76 43 32 45 64 46 44 47
REMARK SMILES IDX 63 48 45 49 48 50 62 51 81 52 46 53 47 54 61 56 82 57 49 58
REMARK SMILES IDX 33 59 34 60 42 61 35 62 36 63 40 64 43 65 37 66 38 67 41 68
REMARK SMILES IDX 39 69 65 70 66 71 74 72 67 73 68 74 72 75 75 76 69 77 70 78
REMARK SMILES IDX 73 79 71 80 50 81 51 82 59 83 52 84 53 85 57 86 60 87 54 88
REMARK SMILES IDX 55 89 58 90 56 91
REMARK H PARENT 17 4 7 10 21 25 80 44 48 55
REMARK Flexibility Score: inf
ROOT
ATOM      1  O   UNL A   1      33.307  37.229  29.078  1.00  0.00    -0.272 OA
ATOM      2  C   UNL A   1      33.194  36.188  29.719  1.00  0.00     0.245 C 
ATOM      3  N   UNL A   1      33.697  34.970  29.320  1.00  0.00    -0.354 N 
ATOM      4  H   UNL A   1      33.543  34.187  29.898  1.00  0.00     0.163 HD
ENDROOT
BRANCH   2   5
ATOM      5  C   UNL A   1      32.374  36.111  31.007  1.00  0.00     0.259 C 
BRANCH   5   6
ATOM      6  O   UNL A   1      32.705  37.123  31.949  1.00  0.00    -0.370 OA
BRANCH   6   7
ATOM      7  C   UNL A   1      33.039  36.650  33.263  1.00  0.00     0.177 C 
BRANCH   7   8
ATOM      8  C   UNL A   1      34.491  36.193  33.435  1.00  0.00     0.127 C 
BRANCH   8   9
ATOM      9  N   UNL A   1      34.587  34.775  33.791  1.00  0.00    -0.209 NA
ATOM     10  H   UNL A   1      33.695  34.518  34.216  1.00  0.00     0.141 HD
BRANCH   9  11
ATOM     11  S   UNL A   1      34.907  33.637  32.611  1.00  0.00     0.240 S 
ATOM     12  O   UNL A   1      33.717  32.830  32.443  1.00  0.00    -0.207 OA
ATOM     13  O   UNL A   1      35.525  34.331  31.505  1.00  0.00    -0.207 OA
BRANCH  11  14
ATOM     14  C   UNL A   1      36.158  32.646  33.380  1.00  0.00     0.082 A 
ATOM     15  C   UNL A   1      36.708  33.076  34.593  1.00  0.00     0.022 A 
ATOM     16  C   UNL A   1      36.590  31.463  32.776  1.00  0.00     0.022 A 
ATOM     17  C   UNL A   1      37.697  32.309  35.207  1.00  0.00     0.001 A 
ATOM     18  C   UNL A   1      37.584  30.704  33.395  1.00  0.00     0.001 A 
ATOM     19  C   UNL A   1      38.134  31.126  34.608  1.00  0.00     0.000 A 
ENDBRANCH  11  14
ENDBRANCH   9  11
ENDBRANCH   8   9
ENDBRANCH   7   8
ENDBRANCH   6   7
ENDBRANCH   5   6
ENDBRANCH   2   5
BRANCH   3  20
ATOM     20  C   UNL A   1      34.443  34.787  28.095  1.00  0.00     0.117 C 
BRANCH  20  21
ATOM     21  C   UNL A   1      35.121  33.425  28.029  1.00  0.00     0.042 C 
BRANCH  21  22
ATOM     22  C   UNL A   1      34.491  32.365  28.927  1.00  0.00     0.118 C 
BRANCH  22  23
ATOM     23  N   UNL A   1      34.010  31.204  28.194  1.00  0.00    -0.352 N 
ATOM     24  C   UNL A   1      34.659  30.055  27.821  1.00  0.00     0.251 C 
ATOM     25  H   UNL A   1      33.064  31.250  27.923  1.00  0.00     0.163 HD
ATOM     26  O   UNL A   1      34.086  29.256  27.084  1.00  0.00    -0.269 OA
BRANCH  24  27
ATOM     27  C   UNL A   1      36.039  29.769  28.275  1.00  0.00     0.039 A 
ATOM     28  C   UNL A   1      37.086  29.945  27.364  1.00  0.00     0.014 A 
ATOM     29  C   UNL A   1      36.315  29.286  29.556  1.00  0.00     0.014 A 
ATOM     30  C   UNL A   1      38.400  29.670  27.746  1.00  0.00     0.010 A 
ATOM     31  C   UNL A   1      37.635  29.097  29.966  1.00  0.00     0.010 A 
ATOM     32  C   UNL A   1      38.692  29.263  29.058  1.00  0.00    -0.014 A 
BRANCH  32  33
ATOM     33  C   UNL A   1      40.091  28.975  29.469  1.00  0.00     0.031 A 
ATOM     34  C   UNL A   1      40.787  27.731  28.980  1.00  0.00     0.074 A 
ATOM     35  C   UNL A   1      40.735  29.824  30.293  1.00  0.00     0.049 A 
ATOM     36  N   UNL A   1      42.009  27.320  29.211  1.00  0.00    -0.248 NA
ATOM     37  C   UNL A   1      40.001  26.816  28.139  1.00  0.00     0.031 C 
ATOM     38  C   UNL A   1      40.158  31.034  30.879  1.00  0.00     0.029 A 
ATOM     39  N   UNL A   1      42.019  29.800  30.780  1.00  0.00    -0.354 N 
ATOM     40  C   UNL A   1      42.132  26.103  28.554  1.00  0.00     0.074 A 
ATOM     41  C   UNL A   1      40.841  25.808  27.971  1.00  0.00     0.031 C 
ATOM     42  C   UNL A   1      41.093  31.656  31.613  1.00  0.00     0.029 A 
ATOM     43  C   UNL A   1      42.325  30.873  31.580  1.00  0.00     0.049 A 
ATOM     44  H   UNL A   1      42.660  29.081  30.573  1.00  0.00     0.167 HD
ATOM     45  C   UNL A   1      43.226  25.315  28.420  1.00  0.00     0.037 A 
ATOM     46  C   UNL A   1      43.470  31.192  32.213  1.00  0.00     0.037 A 
ATOM     47  C   UNL A   1      44.515  25.617  28.988  1.00  0.00     0.049 A 
ATOM     48  C   UNL A   1      44.671  30.299  32.050  1.00  0.00     0.074 A 
ATOM     49  C   UNL A   1      45.697  24.908  28.874  1.00  0.00     0.029 A 
ATOM     50  N   UNL A   1      44.788  26.721  29.783  1.00  0.00    -0.354 N 
ATOM     51  N   UNL A   1      44.794  29.188  31.365  1.00  0.00    -0.248 NA
ATOM     52  C   UNL A   1      45.901  30.718  32.735  1.00  0.00     0.031 C 
ATOM     53  C   UNL A   1      46.671  25.550  29.646  1.00  0.00     0.029 A 
ATOM     54  C   UNL A   1      46.116  26.700  30.182  1.00  0.00     0.049 A 
ATOM     55  H   UNL A   1      44.135  27.416  30.028  1.00  0.00     0.167 HD
ATOM     56  C   UNL A   1      46.121  28.799  31.502  1.00  0.00     0.074 A 
ATOM     57  C   UNL A   1      46.765  29.803  32.323  1.00  0.00     0.031 C 
ATOM     58  C   UNL A   1      46.749  27.712  30.990  1.00  0.00     0.037 A 
BRANCH  45  59
ATOM     59  C   UNL A   1      43.077  24.046  27.626  1.00  0.00     0.064 A 
ATOM     60  C   UNL A   1      42.636  22.852  28.218  1.00  0.00     0.173 A 
ATOM     61  C   UNL A   1      43.349  24.029  26.250  1.00  0.00     0.173 A 
ATOM     62  F   UNL A   1      42.373  22.807  29.534  1.00  0.00    -0.203 F 
ATOM     63  C   UNL A   1      42.509  21.683  27.472  1.00  0.00     0.198 A 
ATOM     64  C   UNL A   1      43.185  22.869  25.499  1.00  0.00     0.198 A 
ATOM     65  F   UNL A   1      43.769  25.143  25.629  1.00  0.00    -0.203 F 
ATOM     66  F   UNL A   1      42.143  20.543  28.073  1.00  0.00    -0.200 F 
ATOM     67  C   UNL A   1      42.774  21.694  26.111  1.00  0.00     0.200 A 
ATOM     68  F   UNL A   1      43.428  22.885  24.181  1.00  0.00    -0.200 F 
ATOM     69  F   UNL A   1      42.644  20.572  25.392  1.00  0.00    -0.200 F 
ENDBRANCH  45  59
BRANCH  46  70
ATOM     70  C   UNL A   1      43.550  32.432  33.031  1.00  0.00     0.064 A 
ATOM     71  C   UNL A   1      43.181  32.429  34.384  1.00  0.00     0.173 A 
ATOM     72  C   UNL A   1      43.975  33.646  32.475  1.00  0.00     0.173 A 
ATOM     73  F   UNL A   1      42.748  31.297  34.958  1.00  0.00    -0.203 F 
ATOM     74  C   UNL A   1      43.206  33.600  35.141  1.00  0.00     0.198 A 
ATOM     75  C   UNL A   1      44.033  34.809  33.241  1.00  0.00     0.198 A 
ATOM     76  F   UNL A   1      44.346  33.703  31.188  1.00  0.00    -0.203 F 
ATOM     77  F   UNL A   1      42.792  33.580  36.415  1.00  0.00    -0.200 F 
ATOM     78  C   UNL A   1      43.637  34.787  34.569  1.00  0.00     0.200 A 
ATOM     79  F   UNL A   1      44.466  35.951  32.690  1.00  0.00    -0.200 F 
ATOM     80  F   UNL A   1      43.662  35.913  35.297  1.00  0.00    -0.200 F 
ENDBRANCH  46  70
BRANCH  58  81
ATOM     81  C   UNL A   1      48.225  27.582  31.252  1.00  0.00     0.064 A 
ATOM     82  C   UNL A   1      48.728  26.881  32.358  1.00  0.00     0.173 A 
ATOM     83  C   UNL A   1      49.151  28.167  30.373  1.00  0.00     0.173 A 
ATOM     84  F   UNL A   1      47.888  26.313  33.237  1.00  0.00    -0.203 F 
ATOM     85  C   UNL A   1      50.098  26.811  32.600  1.00  0.00     0.198 A 
ATOM     86  C   UNL A   1      50.520  28.061  30.595  1.00  0.00     0.198 A 
ATOM     87  F   UNL A   1      48.726  28.839  29.292  1.00  0.00    -0.203 F 
ATOM     88  F   UNL A   1      50.552  26.198  33.702  1.00  0.00    -0.200 F 
ATOM     89  C   UNL A   1      50.993  27.395  31.716  1.00  0.00     0.200 A 
ATOM     90  F   UNL A   1      51.383  28.609  29.729  1.00  0.00    -0.200 F 
ATOM     91  F   UNL A   1      52.310  27.328  31.951  1.00  0.00    -0.200 F 
ENDBRANCH  58  81
ENDBRANCH  32  33
ENDBRANCH  24  27
ENDBRANCH  22  23
ENDBRANCH  21  22
ENDBRANCH  20  21
ENDBRANCH   3  20
TORSDOF 16
ENDMDL
