MODEL 1
REMARK VINA RESULT:     -13.0      0.000      0.000
REMARK SMILES O=C(NCCCNC(=O)c1cc(F)ccc1N1CCCc2ccccc21)c1ccc(-c2c3nc(c(-c4c(F)c(F)c(F)c(F)c4F)c4ccc([nH]4)c(-c4c(F)c(F)c(F)c(F)c4F)c4nc(c(-c5c(F)c(F)c(F)c(F)c5F)c5ccc2[nH]5)C=C4)C=C3)cc1
REMARK SMILES IDX 4 1 3 2 1 3 2 4 27 6 28 7 89 8 29 9 88 10 30 11 31 12 32 13
REMARK SMILES IDX 82 14 33 15 87 16 81 17 83 18 34 19 86 20 80 21 79 22 35 24
REMARK SMILES IDX 67 25 47 26 66 27 48 28 51 29 65 30 84 31 49 32 50 33 64 35
REMARK SMILES IDX 85 36 52 37 36 38 37 39 45 40 38 41 39 42 43 43 46 44 40 45
REMARK SMILES IDX 41 46 44 47 42 48 68 49 69 50 77 51 70 52 71 53 75 54 78 55
REMARK SMILES IDX 72 56 73 57 76 58 74 59 53 60 54 61 62 62 55 63 56 64 60 65
REMARK SMILES IDX 63 66 57 67 58 68 61 69 59 70 5 71 6 72 7 73 8 74 9 76 10 77
REMARK SMILES IDX 11 78 16 79 12 80 15 81 13 82 14 83 17 84 18 85 26 86 19 87
REMARK SMILES IDX 21 88 25 89 20 90 22 91 24 92 23 93
REMARK H PARENT 3 5 83 23 51 34 7 75
REMARK Flexibility Score: inf
ROOT
ATOM      1  C   UNL A   1      32.632  32.516  26.876  1.00  0.00     0.118 C 
ENDROOT
BRANCH   1   2
ATOM      2  N   UNL A   1      32.462  33.859  27.411  1.00  0.00    -0.352 N 
ATOM      3  O   UNL A   1      32.649  35.583  28.840  1.00  0.00    -0.269 OA
ATOM      4  C   UNL A   1      33.087  34.502  28.450  1.00  0.00     0.251 C 
ATOM      5  H   UNL A   1      31.783  34.400  26.947  1.00  0.00     0.163 HD
BRANCH   4   6
ATOM      6  C   UNL A   1      34.263  33.909  29.123  1.00  0.00     0.039 A 
ATOM      7  C   UNL A   1      35.559  34.360  28.861  1.00  0.00     0.014 A 
ATOM      8  C   UNL A   1      34.058  32.914  30.085  1.00  0.00     0.014 A 
ATOM      9  C   UNL A   1      36.650  33.721  29.441  1.00  0.00     0.010 A 
ATOM     10  C   UNL A   1      35.149  32.331  30.733  1.00  0.00     0.010 A 
ATOM     11  C   UNL A   1      36.457  32.706  30.392  1.00  0.00    -0.014 A 
BRANCH  11  12
ATOM     12  C   UNL A   1      37.630  32.080  31.052  1.00  0.00     0.031 A 
ATOM     13  C   UNL A   1      38.432  31.021  30.353  1.00  0.00     0.074 A 
ATOM     14  C   UNL A   1      37.977  32.484  32.288  1.00  0.00     0.049 A 
ATOM     15  N   UNL A   1      39.468  30.347  30.789  1.00  0.00    -0.248 NA
ATOM     16  C   UNL A   1      38.019  30.665  28.986  1.00  0.00     0.031 C 
ATOM     17  C   UNL A   1      37.275  33.506  33.066  1.00  0.00     0.029 A 
ATOM     18  N   UNL A   1      39.010  32.096  33.104  1.00  0.00    -0.354 N 
ATOM     19  C   UNL A   1      39.815  29.477  29.766  1.00  0.00     0.074 A 
ATOM     20  C   UNL A   1      38.869  29.691  28.690  1.00  0.00     0.031 C 
ATOM     21  C   UNL A   1      37.918  33.693  34.228  1.00  0.00     0.029 A 
ATOM     22  C   UNL A   1      39.040  32.763  34.303  1.00  0.00     0.049 A 
ATOM     23  H   UNL A   1      39.665  31.405  32.853  1.00  0.00     0.167 HD
ATOM     24  C   UNL A   1      40.835  28.588  29.727  1.00  0.00     0.037 A 
ATOM     25  C   UNL A   1      39.867  32.631  35.357  1.00  0.00     0.037 A 
ATOM     26  C   UNL A   1      41.787  28.396  30.790  1.00  0.00     0.049 A 
ATOM     27  C   UNL A   1      40.972  31.617  35.300  1.00  0.00     0.074 A 
ATOM     28  C   UNL A   1      42.876  27.542  30.827  1.00  0.00     0.029 A 
ATOM     29  N   UNL A   1      41.764  29.068  32.004  1.00  0.00    -0.354 N 
ATOM     30  N   UNL A   1      41.297  30.808  34.322  1.00  0.00    -0.248 NA
ATOM     31  C   UNL A   1      41.819  31.490  36.493  1.00  0.00     0.031 C 
ATOM     32  C   UNL A   1      43.487  27.667  32.079  1.00  0.00     0.029 A 
ATOM     33  C   UNL A   1      42.807  28.631  32.804  1.00  0.00     0.049 A 
ATOM     34  H   UNL A   1      41.103  29.753  32.258  1.00  0.00     0.167 HD
ATOM     35  C   UNL A   1      42.390  30.085  34.773  1.00  0.00     0.074 A 
ATOM     36  C   UNL A   1      42.684  30.558  36.111  1.00  0.00     0.031 C 
ATOM     37  C   UNL A   1      43.087  29.114  34.133  1.00  0.00     0.037 A 
BRANCH  24  38
ATOM     38  C   UNL A   1      40.978  27.740  28.497  1.00  0.00     0.064 A 
ATOM     39  C   UNL A   1      41.765  28.179  27.420  1.00  0.00     0.173 A 
ATOM     40  C   UNL A   1      40.288  26.527  28.356  1.00  0.00     0.173 A 
ATOM     41  F   UNL A   1      42.439  29.335  27.503  1.00  0.00    -0.203 F 
ATOM     42  C   UNL A   1      41.848  27.438  26.244  1.00  0.00     0.198 A 
ATOM     43  C   UNL A   1      40.393  25.777  27.188  1.00  0.00     0.198 A 
ATOM     44  F   UNL A   1      39.533  26.060  29.360  1.00  0.00    -0.203 F 
ATOM     45  F   UNL A   1      42.584  27.889  25.220  1.00  0.00    -0.200 F 
ATOM     46  C   UNL A   1      41.166  26.236  26.131  1.00  0.00     0.200 A 
ATOM     47  F   UNL A   1      39.751  24.605  27.086  1.00  0.00    -0.200 F 
ATOM     48  F   UNL A   1      41.254  25.518  25.002  1.00  0.00    -0.200 F 
ENDBRANCH  24  38
BRANCH  25  49
ATOM     49  C   UNL A   1      39.669  33.499  36.544  1.00  0.00     0.064 A 
ATOM     50  C   UNL A   1      38.833  33.107  37.599  1.00  0.00     0.173 A 
ATOM     51  C   UNL A   1      40.258  34.768  36.611  1.00  0.00     0.173 A 
ATOM     52  F   UNL A   1      38.241  31.904  37.575  1.00  0.00    -0.203 F 
ATOM     53  C   UNL A   1      38.568  33.965  38.663  1.00  0.00     0.198 A 
ATOM     54  C   UNL A   1      40.012  35.617  37.687  1.00  0.00     0.198 A 
ATOM     55  F   UNL A   1      41.078  35.177  35.631  1.00  0.00    -0.203 F 
ATOM     56  F   UNL A   1      37.730  33.585  39.636  1.00  0.00    -0.200 F 
ATOM     57  C   UNL A   1      39.159  35.220  38.707  1.00  0.00     0.200 A 
ATOM     58  F   UNL A   1      40.598  36.821  37.735  1.00  0.00    -0.200 F 
ATOM     59  F   UNL A   1      38.905  36.046  39.730  1.00  0.00    -0.200 F 
ENDBRANCH  25  49
BRANCH  37  60
ATOM     60  C   UNL A   1      44.251  28.505  34.854  1.00  0.00     0.064 A 
ATOM     61  C   UNL A   1      44.070  27.377  35.666  1.00  0.00     0.173 A 
ATOM     62  C   UNL A   1      45.524  29.089  34.807  1.00  0.00     0.173 A 
ATOM     63  F   UNL A   1      42.868  26.788  35.748  1.00  0.00    -0.203 F 
ATOM     64  C   UNL A   1      45.120  26.866  36.424  1.00  0.00     0.198 A 
ATOM     65  C   UNL A   1      46.578  28.562  35.548  1.00  0.00     0.198 A 
ATOM     66  F   UNL A   1      45.747  30.162  34.032  1.00  0.00    -0.203 F 
ATOM     67  F   UNL A   1      44.917  25.807  37.220  1.00  0.00    -0.200 F 
ATOM     68  C   UNL A   1      46.372  27.458  36.363  1.00  0.00     0.200 A 
ATOM     69  F   UNL A   1      47.794  29.121  35.474  1.00  0.00    -0.200 F 
ATOM     70  F   UNL A   1      47.384  26.963  37.089  1.00  0.00    -0.200 F 
ENDBRANCH  37  60
ENDBRANCH  11  12
ENDBRANCH   4   6
ENDBRANCH   1   2
BRANCH   1  71
ATOM     71  C   UNL A   1      31.312  31.854  26.501  1.00  0.00     0.042 C 
BRANCH  71  72
ATOM     72  C   UNL A   1      31.403  30.349  26.293  1.00  0.00     0.118 C 
BRANCH  72  73
ATOM     73  N   UNL A   1      32.250  29.991  25.164  1.00  0.00    -0.352 N 
ATOM     74  C   UNL A   1      31.956  29.343  23.988  1.00  0.00     0.253 C 
ATOM     75  H   UNL A   1      33.193  30.257  25.261  1.00  0.00     0.163 HD
ATOM     76  O   UNL A   1      32.877  29.075  23.220  1.00  0.00    -0.269 OA
BRANCH  74  77
ATOM     77  C   UNL A   1      30.553  29.014  23.650  1.00  0.00     0.066 A 
ATOM     78  C   UNL A   1      29.801  30.005  22.995  1.00  0.00     0.055 A 
ATOM     79  C   UNL A   1      30.003  27.733  23.861  1.00  0.00     0.054 A 
ATOM     80  C   UNL A   1      28.477  29.767  22.660  1.00  0.00     0.124 A 
ATOM     81  C   UNL A   1      28.651  27.531  23.501  1.00  0.00     0.030 A 
ATOM     82  F   UNL A   1      27.763  30.736  22.075  1.00  0.00    -0.207 F 
ATOM     83  C   UNL A   1      27.887  28.544  22.921  1.00  0.00     0.041 A 
BRANCH  79  84
ATOM     84  N   UNL A   1      30.710  26.622  24.358  1.00  0.00    -0.341 N 
ATOM     85  C   UNL A   1      30.706  26.389  25.805  1.00  0.00     0.123 C 
ATOM     86  C   UNL A   1      31.448  25.695  23.583  1.00  0.00     0.044 A 
ATOM     87  C   UNL A   1      30.326  24.938  26.081  1.00  0.00     0.027 C 
ATOM     88  C   UNL A   1      31.758  24.412  24.076  1.00  0.00    -0.024 A 
ATOM     89  C   UNL A   1      31.889  26.029  22.289  1.00  0.00     0.026 A 
ATOM     90  C   UNL A   1      31.360  24.000  25.470  1.00  0.00     0.039 C 
ATOM     91  C   UNL A   1      32.484  23.507  23.281  1.00  0.00     0.006 A 
ATOM     92  C   UNL A   1      32.610  25.127  21.506  1.00  0.00     0.002 A 
ATOM     93  C   UNL A   1      32.903  23.862  22.001  1.00  0.00     0.000 A 
ENDBRANCH  79  84
ENDBRANCH  74  77
ENDBRANCH  72  73
ENDBRANCH  71  72
ENDBRANCH   1  71
TORSDOF 11
ENDMDL
MODEL 2
REMARK VINA RESULT:     -13.0      0.206      1.145
REMARK SMILES O=C(NCCCNC(=O)c1cc(F)ccc1N1CCCc2ccccc21)c1ccc(-c2c3nc(c(-c4c(F)c(F)c(F)c(F)c4F)c4ccc([nH]4)c(-c4c(F)c(F)c(F)c(F)c4F)c4nc(c(-c5c(F)c(F)c(F)c(F)c5F)c5ccc2[nH]5)C=C4)C=C3)cc1
REMARK SMILES IDX 4 1 3 2 1 3 2 4 27 6 28 7 89 8 29 9 88 10 30 11 31 12 32 13
REMARK SMILES IDX 82 14 33 15 87 16 81 17 83 18 34 19 86 20 80 21 79 22 35 24
REMARK SMILES IDX 67 25 47 26 66 27 48 28 51 29 65 30 84 31 49 32 50 33 64 35
REMARK SMILES IDX 85 36 52 37 36 38 37 39 45 40 38 41 39 42 43 43 46 44 40 45
REMARK SMILES IDX 41 46 44 47 42 48 68 49 69 50 77 51 70 52 71 53 75 54 78 55
REMARK SMILES IDX 72 56 73 57 76 58 74 59 53 60 54 61 62 62 55 63 56 64 60 65
REMARK SMILES IDX 63 66 57 67 58 68 61 69 59 70 5 71 6 72 7 73 8 74 9 76 10 77
REMARK SMILES IDX 11 78 16 79 12 80 15 81 13 82 14 83 17 84 18 85 26 86 19 87
REMARK SMILES IDX 21 88 25 89 20 90 22 91 24 92 23 93
REMARK H PARENT 3 5 83 23 51 34 7 75
REMARK Flexibility Score: inf
ROOT
ATOM      1  C   UNL A   1      32.669  32.457  26.904  1.00  0.00     0.118 C 
ENDROOT
BRANCH   1   2
ATOM      2  N   UNL A   1      32.482  33.803  27.429  1.00  0.00    -0.352 N 
ATOM      3  O   UNL A   1      32.649  35.539  28.845  1.00  0.00    -0.269 OA
ATOM      4  C   UNL A   1      33.101  34.463  28.461  1.00  0.00     0.251 C 
ATOM      5  H   UNL A   1      31.793  34.330  26.964  1.00  0.00     0.163 HD
BRANCH   4   6
ATOM      6  C   UNL A   1      34.288  33.892  29.134  1.00  0.00     0.039 A 
ATOM      7  C   UNL A   1      35.574  34.376  28.880  1.00  0.00     0.014 A 
ATOM      8  C   UNL A   1      34.103  32.885  30.087  1.00  0.00     0.014 A 
ATOM      9  C   UNL A   1      36.678  33.757  29.459  1.00  0.00     0.010 A 
ATOM     10  C   UNL A   1      35.205  32.322  30.734  1.00  0.00     0.010 A 
ATOM     11  C   UNL A   1      36.506  32.730  30.401  1.00  0.00    -0.014 A 
BRANCH  11  12
ATOM     12  C   UNL A   1      37.690  32.127  31.060  1.00  0.00     0.031 A 
ATOM     13  C   UNL A   1      38.511  31.081  30.362  1.00  0.00     0.074 A 
ATOM     14  C   UNL A   1      38.032  32.539  32.296  1.00  0.00     0.049 A 
ATOM     15  N   UNL A   1      39.559  30.427  30.799  1.00  0.00    -0.248 NA
ATOM     16  C   UNL A   1      38.102  30.715  28.997  1.00  0.00     0.031 C 
ATOM     17  C   UNL A   1      37.313  33.550  33.073  1.00  0.00     0.029 A 
ATOM     18  N   UNL A   1      39.072  32.171  33.110  1.00  0.00    -0.354 N 
ATOM     19  C   UNL A   1      39.920  29.561  29.776  1.00  0.00     0.074 A 
ATOM     20  C   UNL A   1      38.969  29.756  28.701  1.00  0.00     0.031 C 
ATOM     21  C   UNL A   1      37.954  33.750  34.233  1.00  0.00     0.029 A 
ATOM     22  C   UNL A   1      39.093  32.841  34.309  1.00  0.00     0.049 A 
ATOM     23  H   UNL A   1      39.740  31.492  32.860  1.00  0.00     0.167 HD
ATOM     24  C   UNL A   1      40.956  28.691  29.737  1.00  0.00     0.037 A 
ATOM     25  C   UNL A   1      39.923  32.726  35.362  1.00  0.00     0.037 A 
ATOM     26  C   UNL A   1      41.913  28.518  30.799  1.00  0.00     0.049 A 
ATOM     27  C   UNL A   1      41.046  31.731  35.305  1.00  0.00     0.074 A 
ATOM     28  C   UNL A   1      43.017  27.684  30.837  1.00  0.00     0.029 A 
ATOM     29  N   UNL A   1      41.879  29.191  32.012  1.00  0.00    -0.354 N 
ATOM     30  N   UNL A   1      41.384  30.926  34.328  1.00  0.00    -0.248 NA
ATOM     31  C   UNL A   1      41.897  31.622  36.497  1.00  0.00     0.031 C 
ATOM     32  C   UNL A   1      43.627  27.822  32.087  1.00  0.00     0.029 A 
ATOM     33  C   UNL A   1      42.931  28.775  32.812  1.00  0.00     0.049 A 
ATOM     34  H   UNL A   1      41.207  29.865  32.266  1.00  0.00     0.167 HD
ATOM     35  C   UNL A   1      42.491  30.224  34.778  1.00  0.00     0.074 A 
ATOM     36  C   UNL A   1      42.778  30.705  36.115  1.00  0.00     0.031 C 
ATOM     37  C   UNL A   1      43.204  29.265  34.139  1.00  0.00     0.037 A 
BRANCH  24  38
ATOM     38  C   UNL A   1      41.113  27.843  28.508  1.00  0.00     0.064 A 
ATOM     39  C   UNL A   1      41.910  28.283  27.440  1.00  0.00     0.173 A 
ATOM     40  C   UNL A   1      40.426  26.630  28.359  1.00  0.00     0.173 A 
ATOM     41  F   UNL A   1      42.583  29.440  27.530  1.00  0.00    -0.203 F 
ATOM     42  C   UNL A   1      42.006  27.543  26.265  1.00  0.00     0.198 A 
ATOM     43  C   UNL A   1      40.544  25.880  27.192  1.00  0.00     0.198 A 
ATOM     44  F   UNL A   1      39.660  26.162  29.356  1.00  0.00    -0.203 F 
ATOM     45  F   UNL A   1      42.753  27.995  25.248  1.00  0.00    -0.200 F 
ATOM     46  C   UNL A   1      41.326  26.340  26.144  1.00  0.00     0.200 A 
ATOM     47  F   UNL A   1      39.903  24.707  27.084  1.00  0.00    -0.200 F 
ATOM     48  F   UNL A   1      41.427  25.622  25.016  1.00  0.00    -0.200 F 
ENDBRANCH  24  38
BRANCH  25  49
ATOM     49  C   UNL A   1      39.711  33.592  36.547  1.00  0.00     0.064 A 
ATOM     50  C   UNL A   1      38.874  33.192  37.599  1.00  0.00     0.173 A 
ATOM     51  C   UNL A   1      40.287  34.866  36.616  1.00  0.00     0.173 A 
ATOM     52  F   UNL A   1      38.295  31.983  37.573  1.00  0.00    -0.203 F 
ATOM     53  C   UNL A   1      38.596  34.048  38.661  1.00  0.00     0.198 A 
ATOM     54  C   UNL A   1      40.028  35.713  37.691  1.00  0.00     0.198 A 
ATOM     55  F   UNL A   1      41.107  35.284  35.641  1.00  0.00    -0.203 F 
ATOM     56  F   UNL A   1      37.757  33.660  39.631  1.00  0.00    -0.200 F 
ATOM     57  C   UNL A   1      39.174  35.308  38.708  1.00  0.00     0.200 A 
ATOM     58  F   UNL A   1      40.602  36.923  37.742  1.00  0.00    -0.200 F 
ATOM     59  F   UNL A   1      38.907  36.132  39.729  1.00  0.00    -0.200 F 
ENDBRANCH  25  49
BRANCH  37  60
ATOM     60  C   UNL A   1      44.380  28.679  34.859  1.00  0.00     0.064 A 
ATOM     61  C   UNL A   1      45.653  29.249  34.720  1.00  0.00     0.173 A 
ATOM     62  C   UNL A   1      44.261  27.505  35.616  1.00  0.00     0.173 A 
ATOM     63  F   UNL A   1      45.817  30.369  34.000  1.00  0.00    -0.203 F 
ATOM     64  C   UNL A   1      46.770  28.654  35.298  1.00  0.00     0.198 A 
ATOM     65  C   UNL A   1      45.377  26.925  36.212  1.00  0.00     0.198 A 
ATOM     66  F   UNL A   1      43.060  26.932  35.788  1.00  0.00    -0.203 F 
ATOM     67  F   UNL A   1      47.983  29.198  35.125  1.00  0.00    -0.200 F 
ATOM     68  C   UNL A   1      46.631  27.494  36.044  1.00  0.00     0.200 A 
ATOM     69  F   UNL A   1      45.239  25.814  36.950  1.00  0.00    -0.200 F 
ATOM     70  F   UNL A   1      47.706  26.923  36.603  1.00  0.00    -0.200 F 
ENDBRANCH  37  60
ENDBRANCH  11  12
ENDBRANCH   4   6
ENDBRANCH   1   2
BRANCH   1  71
ATOM     71  C   UNL A   1      31.358  31.777  26.532  1.00  0.00     0.042 C 
BRANCH  71  72
ATOM     72  C   UNL A   1      31.477  30.279  26.286  1.00  0.00     0.118 C 
BRANCH  72  73
ATOM     73  N   UNL A   1      32.298  29.967  25.125  1.00  0.00    -0.352 N 
ATOM     74  C   UNL A   1      31.997  29.296  23.964  1.00  0.00     0.253 C 
ATOM     75  H   UNL A   1      33.227  30.290  25.182  1.00  0.00     0.163 HD
ATOM     76  O   UNL A   1      32.900  29.080  23.160  1.00  0.00    -0.269 OA
BRANCH  74  77
ATOM     77  C   UNL A   1      30.603  28.882  23.685  1.00  0.00     0.066 A 
ATOM     78  C   UNL A   1      29.769  29.819  23.051  1.00  0.00     0.055 A 
ATOM     79  C   UNL A   1      30.138  27.573  23.929  1.00  0.00     0.054 A 
ATOM     80  C   UNL A   1      28.449  29.500  22.771  1.00  0.00     0.124 A 
ATOM     81  C   UNL A   1      28.788  27.287  23.624  1.00  0.00     0.030 A 
ATOM     82  F   UNL A   1      27.656  30.418  22.206  1.00  0.00    -0.207 F 
ATOM     83  C   UNL A   1      27.943  28.247  23.066  1.00  0.00     0.041 A 
BRANCH  79  84
ATOM     84  N   UNL A   1      30.928  26.511  24.408  1.00  0.00    -0.341 N 
ATOM     85  C   UNL A   1      31.016  26.310  25.857  1.00  0.00     0.123 C 
ATOM     86  C   UNL A   1      31.671  25.606  23.611  1.00  0.00     0.044 A 
ATOM     87  C   UNL A   1      30.728  24.848  26.182  1.00  0.00     0.027 C 
ATOM     88  C   UNL A   1      32.074  24.352  24.111  1.00  0.00    -0.024 A 
ATOM     89  C   UNL A   1      32.023  25.933  22.288  1.00  0.00     0.026 A 
ATOM     90  C   UNL A   1      31.775  23.951  25.533  1.00  0.00     0.039 C 
ATOM     91  C   UNL A   1      32.802  23.468  23.295  1.00  0.00     0.006 A 
ATOM     92  C   UNL A   1      32.746  25.051  21.484  1.00  0.00     0.002 A 
ATOM     93  C   UNL A   1      33.132  23.815  21.987  1.00  0.00     0.000 A 
ENDBRANCH  79  84
ENDBRANCH  74  77
ENDBRANCH  72  73
ENDBRANCH  71  72
ENDBRANCH   1  71
TORSDOF 11
ENDMDL
MODEL 3
REMARK VINA RESULT:     -12.9      0.511      7.314
REMARK SMILES O=C(NCCCNC(=O)c1cc(F)ccc1N1CCCc2ccccc21)c1ccc(-c2c3nc(c(-c4c(F)c(F)c(F)c(F)c4F)c4ccc([nH]4)c(-c4c(F)c(F)c(F)c(F)c4F)c4nc(c(-c5c(F)c(F)c(F)c(F)c5F)c5ccc2[nH]5)C=C4)C=C3)cc1
REMARK SMILES IDX 4 1 3 2 1 3 2 4 27 6 28 7 89 8 29 9 88 10 30 11 31 12 32 13
REMARK SMILES IDX 82 14 33 15 87 16 81 17 83 18 34 19 86 20 80 21 79 22 35 24
REMARK SMILES IDX 67 25 47 26 66 27 48 28 51 29 65 30 84 31 49 32 50 33 64 35
REMARK SMILES IDX 85 36 52 37 36 38 37 39 45 40 38 41 39 42 43 43 46 44 40 45
REMARK SMILES IDX 41 46 44 47 42 48 68 49 69 50 77 51 70 52 71 53 75 54 78 55
REMARK SMILES IDX 72 56 73 57 76 58 74 59 53 60 54 61 62 62 55 63 56 64 60 65
REMARK SMILES IDX 63 66 57 67 58 68 61 69 59 70 5 71 6 72 7 73 8 74 9 76 10 77
REMARK SMILES IDX 11 78 16 79 12 80 15 81 13 82 14 83 17 84 18 85 26 86 19 87
REMARK SMILES IDX 21 88 25 89 20 90 22 91 24 92 23 93
REMARK H PARENT 3 5 83 23 51 34 7 75
REMARK Flexibility Score: inf
ROOT
ATOM      1  C   UNL A   1      32.703  32.496  26.871  1.00  0.00     0.118 C 
ENDROOT
BRANCH   1   2
ATOM      2  N   UNL A   1      32.582  33.828  27.445  1.00  0.00    -0.352 N 
ATOM      3  O   UNL A   1      32.833  35.501  28.924  1.00  0.00    -0.269 OA
ATOM      4  C   UNL A   1      33.232  34.418  28.500  1.00  0.00     0.251 C 
ATOM      5  H   UNL A   1      31.920  34.406  27.001  1.00  0.00     0.163 HD
BRANCH   4   6
ATOM      6  C   UNL A   1      34.390  33.765  29.150  1.00  0.00     0.039 A 
ATOM      7  C   UNL A   1      35.696  34.206  28.927  1.00  0.00     0.014 A 
ATOM      8  C   UNL A   1      34.156  32.722  30.052  1.00  0.00     0.014 A 
ATOM      9  C   UNL A   1      36.769  33.513  29.481  1.00  0.00     0.010 A 
ATOM     10  C   UNL A   1      35.228  32.081  30.677  1.00  0.00     0.010 A 
ATOM     11  C   UNL A   1      36.547  32.450  30.370  1.00  0.00    -0.014 A 
BRANCH  11  12
ATOM     12  C   UNL A   1      37.700  31.765  31.005  1.00  0.00     0.031 A 
ATOM     13  C   UNL A   1      38.091  32.070  32.422  1.00  0.00     0.074 A 
ATOM     14  C   UNL A   1      38.389  30.851  30.296  1.00  0.00     0.049 A 
ATOM     15  N   UNL A   1      39.086  31.588  33.126  1.00  0.00    -0.248 NA
ATOM     16  C   UNL A   1      37.263  33.046  33.147  1.00  0.00     0.031 C 
ATOM     17  C   UNL A   1      38.101  30.470  28.913  1.00  0.00     0.029 A 
ATOM     18  N   UNL A   1      39.462  30.069  30.641  1.00  0.00    -0.354 N 
ATOM     19  C   UNL A   1      39.017  32.215  34.362  1.00  0.00     0.074 A 
ATOM     20  C   UNL A   1      37.895  33.128  34.310  1.00  0.00     0.031 C 
ATOM     21  C   UNL A   1      38.949  29.501  28.538  1.00  0.00     0.029 A 
ATOM     22  C   UNL A   1      39.878  29.235  29.632  1.00  0.00     0.049 A 
ATOM     23  H   UNL A   1      39.894  30.103  31.525  1.00  0.00     0.167 HD
ATOM     24  C   UNL A   1      39.813  32.035  35.442  1.00  0.00     0.037 A 
ATOM     25  C   UNL A   1      40.903  28.364  29.584  1.00  0.00     0.037 A 
ATOM     26  C   UNL A   1      40.914  31.108  35.496  1.00  0.00     0.049 A 
ATOM     27  C   UNL A   1      41.790  28.207  30.785  1.00  0.00     0.074 A 
ATOM     28  C   UNL A   1      41.757  30.833  36.558  1.00  0.00     0.029 A 
ATOM     29  N   UNL A   1      41.324  30.306  34.441  1.00  0.00    -0.354 N 
ATOM     30  N   UNL A   1      41.707  28.797  31.951  1.00  0.00    -0.248 NA
ATOM     31  C   UNL A   1      42.915  27.271  30.661  1.00  0.00     0.031 C 
ATOM     32  C   UNL A   1      42.703  29.894  36.134  1.00  0.00     0.029 A 
ATOM     33  C   UNL A   1      42.421  29.551  34.822  1.00  0.00     0.049 A 
ATOM     34  H   UNL A   1      40.898  30.277  33.553  1.00  0.00     0.167 HD
ATOM     35  C   UNL A   1      42.758  28.299  32.706  1.00  0.00     0.074 A 
ATOM     36  C   UNL A   1      43.461  27.347  31.869  1.00  0.00     0.031 C 
ATOM     37  C   UNL A   1      43.108  28.606  33.978  1.00  0.00     0.037 A 
BRANCH  24  38
ATOM     38  C   UNL A   1      39.537  32.866  36.661  1.00  0.00     0.064 A 
ATOM     39  C   UNL A   1      38.531  32.486  37.565  1.00  0.00     0.173 A 
ATOM     40  C   UNL A   1      40.218  34.068  36.903  1.00  0.00     0.173 A 
ATOM     41  F   UNL A   1      37.847  31.348  37.375  1.00  0.00    -0.203 F 
ATOM     42  C   UNL A   1      38.214  33.283  38.660  1.00  0.00     0.198 A 
ATOM     43  C   UNL A   1      39.914  34.851  38.013  1.00  0.00     0.198 A 
ATOM     44  F   UNL A   1      41.194  34.468  36.075  1.00  0.00    -0.203 F 
ATOM     45  F   UNL A   1      37.233  32.913  39.495  1.00  0.00    -0.200 F 
ATOM     46  C   UNL A   1      38.907  34.463  38.886  1.00  0.00     0.200 A 
ATOM     47  F   UNL A   1      40.599  35.980  38.243  1.00  0.00    -0.200 F 
ATOM     48  F   UNL A   1      38.608  35.226  39.947  1.00  0.00    -0.200 F 
ENDBRANCH  24  38
BRANCH  25  49
ATOM     49  C   UNL A   1      41.124  27.577  28.346  1.00  0.00     0.064 A 
ATOM     50  C   UNL A   1      40.555  26.305  28.182  1.00  0.00     0.173 A 
ATOM     51  C   UNL A   1      41.965  28.054  27.333  1.00  0.00     0.173 A 
ATOM     52  F   UNL A   1      39.749  25.804  29.128  1.00  0.00    -0.203 F 
ATOM     53  C   UNL A   1      40.846  25.527  27.064  1.00  0.00     0.198 A 
ATOM     54  C   UNL A   1      42.236  27.285  26.204  1.00  0.00     0.198 A 
ATOM     55  F   UNL A   1      42.517  29.272  27.441  1.00  0.00    -0.203 F 
ATOM     56  F   UNL A   1      40.327  24.297  26.953  1.00  0.00    -0.200 F 
ATOM     57  C   UNL A   1      41.686  26.018  26.075  1.00  0.00     0.200 A 
ATOM     58  F   UNL A   1      43.035  27.769  25.243  1.00  0.00    -0.200 F 
ATOM     59  F   UNL A   1      41.966  25.270  25.001  1.00  0.00    -0.200 F 
ENDBRANCH  25  49
BRANCH  37  60
ATOM     60  C   UNL A   1      44.291  27.896  34.563  1.00  0.00     0.064 A 
ATOM     61  C   UNL A   1      44.124  26.680  35.242  1.00  0.00     0.173 A 
ATOM     62  C   UNL A   1      45.573  28.461  34.525  1.00  0.00     0.173 A 
ATOM     63  F   UNL A   1      42.914  26.104  35.310  1.00  0.00    -0.203 F 
ATOM     64  C   UNL A   1      45.196  26.064  35.879  1.00  0.00     0.198 A 
ATOM     65  C   UNL A   1      46.649  27.830  35.144  1.00  0.00     0.198 A 
ATOM     66  F   UNL A   1      45.783  29.616  33.875  1.00  0.00    -0.203 F 
ATOM     67  F   UNL A   1      45.008  24.920  36.551  1.00  0.00    -0.200 F 
ATOM     68  C   UNL A   1      46.457  26.639  35.829  1.00  0.00     0.200 A 
ATOM     69  F   UNL A   1      47.872  28.376  35.079  1.00  0.00    -0.200 F 
ATOM     70  F   UNL A   1      47.491  26.044  36.440  1.00  0.00    -0.200 F 
ENDBRANCH  37  60
ENDBRANCH  11  12
ENDBRANCH   4   6
ENDBRANCH   1   2
BRANCH   1  71
ATOM     71  C   UNL A   1      31.357  31.874  26.524  1.00  0.00     0.042 C 
BRANCH  71  72
ATOM     72  C   UNL A   1      31.403  30.370  26.293  1.00  0.00     0.118 C 
BRANCH  72  73
ATOM     73  N   UNL A   1      32.269  30.001  25.182  1.00  0.00    -0.352 N 
ATOM     74  C   UNL A   1      31.998  29.327  24.015  1.00  0.00     0.253 C 
ATOM     75  H   UNL A   1      33.207  30.283  25.284  1.00  0.00     0.163 HD
ATOM     76  O   UNL A   1      32.932  29.056  23.264  1.00  0.00    -0.269 OA
BRANCH  74  77
ATOM     77  C   UNL A   1      30.604  28.971  23.667  1.00  0.00     0.066 A 
ATOM     78  C   UNL A   1      29.836  29.949  23.012  1.00  0.00     0.055 A 
ATOM     79  C   UNL A   1      30.078  27.678  23.870  1.00  0.00     0.054 A 
ATOM     80  C   UNL A   1      28.519  29.687  22.667  1.00  0.00     0.124 A 
ATOM     81  C   UNL A   1      28.733  27.450  23.501  1.00  0.00     0.030 A 
ATOM     82  F   UNL A   1      27.789  30.643  22.082  1.00  0.00    -0.207 F 
ATOM     83  C   UNL A   1      27.952  28.450  22.920  1.00  0.00     0.041 A 
BRANCH  79  84
ATOM     84  N   UNL A   1      30.804  26.580  24.367  1.00  0.00    -0.341 N 
ATOM     85  C   UNL A   1      30.824  26.361  25.816  1.00  0.00     0.123 C 
ATOM     86  C   UNL A   1      31.541  25.653  23.589  1.00  0.00     0.044 A 
ATOM     87  C   UNL A   1      30.464  24.908  26.111  1.00  0.00     0.027 C 
ATOM     88  C   UNL A   1      31.871  24.378  24.090  1.00  0.00    -0.024 A 
ATOM     89  C   UNL A   1      31.958  25.979  22.286  1.00  0.00     0.026 A 
ATOM     90  C   UNL A   1      31.499  23.975  25.494  1.00  0.00     0.039 C 
ATOM     91  C   UNL A   1      32.595  23.473  23.293  1.00  0.00     0.006 A 
ATOM     92  C   UNL A   1      32.677  25.077  21.501  1.00  0.00     0.002 A 
ATOM     93  C   UNL A   1      32.991  23.820  22.004  1.00  0.00     0.000 A 
ENDBRANCH  79  84
ENDBRANCH  74  77
ENDBRANCH  72  73
ENDBRANCH  71  72
ENDBRANCH   1  71
TORSDOF 11
ENDMDL
