MODEL 1
REMARK VINA RESULT:     -14.0      0.000      0.000
REMARK SMILES C[C@@H]1CC[C@H](C)[N@H+]1Cc1cc2c(cc1Cl)C=C(C(=O)NCCCNC(=O)c1ccc(-c3c4nc(c(-c5c(F)c(F)c(F)c(F)c5F)c5ccc([nH]5)c(-c5c(F)c(F)c(F)c(F)c5F)c5nc(c(-c6c(F)c(F)c(F)c(F)c6F)c6ccc3[nH]6)C=C5)C=C4)cc1)[C@@H](C(F)(F)F)O2
REMARK SMILES IDX 22 1 21 2 20 3 18 4 19 5 17 7 9 8 10 9 14 10 11 11 13 12
REMARK SMILES IDX 15 13 12 14 95 15 16 16 90 17 8 18 7 19 6 20 5 21 4 22 3 23
REMARK SMILES IDX 2 24 1 26 91 27 92 28 93 29 94 30 23 31 24 32 25 33 26 35
REMARK SMILES IDX 27 36 28 37 89 38 29 39 88 40 30 41 31 42 32 43 82 44 33 45
REMARK SMILES IDX 87 46 81 47 83 48 34 49 86 50 80 51 79 52 35 54 67 55 47 56
REMARK SMILES IDX 66 57 48 58 51 59 65 60 84 61 49 62 50 63 64 65 85 66 52 67
REMARK SMILES IDX 36 68 37 69 45 70 38 71 39 72 43 73 46 74 40 75 41 76 44 77
REMARK SMILES IDX 42 78 68 79 69 80 77 81 70 82 71 83 75 84 78 85 72 86 73 87
REMARK SMILES IDX 76 88 74 89 53 90 54 91 62 92 55 93 56 94 60 95 63 96 57 97
REMARK SMILES IDX 58 98 61 99 59 100
REMARK H PARENT 20 6 7 25 24 34 83 53 51 64
REMARK Flexibility Score: inf
ROOT
ATOM      1  C   UNL A   1      31.404  32.173  26.556  1.00  0.00     0.042 C 
ENDROOT
BRANCH   1   2
ATOM      2  C   UNL A   1      31.656  30.705  26.244  1.00  0.00     0.118 C 
BRANCH   2   3
ATOM      3  N   UNL A   1      31.212  30.370  24.900  1.00  0.00    -0.352 N 
ATOM      4  C   UNL A   1      31.181  29.275  24.110  1.00  0.00     0.251 C 
ATOM      5  O   UNL A   1      30.749  29.467  22.969  1.00  0.00    -0.270 OA
ATOM      6  H   UNL A   1      30.831  31.154  24.443  1.00  0.00     0.163 HD
BRANCH   4   7
ATOM      7  C   UNL A   1      31.613  27.913  24.517  1.00  0.00     0.067 C 
ATOM      8  C   UNL A   1      31.716  23.059  25.880  1.00  0.00     0.029 A 
ATOM      9  C   UNL A   1      32.617  23.920  25.220  1.00  0.00     0.058 A 
ATOM     10  C   UNL A   1      30.496  23.602  26.324  1.00  0.00     0.050 A 
ATOM     11  C   UNL A   1      32.265  25.236  24.940  1.00  0.00     0.128 A 
ATOM     12  C   UNL A   1      30.118  24.903  25.967  1.00  0.00     0.033 A 
ATOM     13  Cl  UNL A   1      29.430  22.764  27.395  1.00  0.00    -0.084 Cl
ATOM     14  C   UNL A   1      30.996  25.715  25.255  1.00  0.00     0.019 A 
ATOM     15  O   UNL A   1      33.204  26.028  24.336  1.00  0.00    -0.475 OA
ATOM     16  C   UNL A   1      30.623  27.057  24.831  1.00  0.00     0.025 C 
ATOM     17  C   UNL A   1      33.040  27.451  24.620  1.00  0.00     0.314 C 
BRANCH   8  18
ATOM     18  C   UNL A   1      32.109  21.602  26.043  1.00  0.00     0.301 C 
BRANCH  18  19
ATOM     19  N   UNL A   1      32.899  21.007  24.953  1.00  0.00    -0.327 N 
ATOM     20  C   UNL A   1      31.956  21.462  22.710  1.00  0.00     0.075 C 
ATOM     21  C   UNL A   1      32.153  20.439  23.820  1.00  0.00     0.181 C 
ATOM     22  C   UNL A   1      32.982  19.245  23.351  1.00  0.00     0.071 C 
ATOM     23  C   UNL A   1      33.628  18.765  24.634  1.00  0.00     0.071 C 
ATOM     24  C   UNL A   1      33.938  20.058  25.374  1.00  0.00     0.181 C 
ATOM     25  H   UNL A   1      33.355  21.852  24.608  1.00  0.00     0.348 HD
ATOM     26  C   UNL A   1      35.305  20.628  24.998  1.00  0.00     0.075 C 
ENDBRANCH  18  19
ENDBRANCH   8  18
BRANCH  17  27
ATOM     27  C   UNL A   1      33.672  27.807  25.986  1.00  0.00     0.429 C 
ATOM     28  F   UNL A   1      34.280  29.018  25.923  1.00  0.00    -0.167 F 
ATOM     29  F   UNL A   1      32.746  27.892  26.973  1.00  0.00    -0.167 F 
ATOM     30  F   UNL A   1      34.594  26.911  26.397  1.00  0.00    -0.167 F 
ENDBRANCH  17  27
ENDBRANCH   4   7
ENDBRANCH   2   3
ENDBRANCH   1   2
BRANCH   1  31
ATOM     31  C   UNL A   1      32.519  32.772  27.401  1.00  0.00     0.118 C 
BRANCH  31  32
ATOM     32  N   UNL A   1      32.326  34.203  27.625  1.00  0.00    -0.352 N 
ATOM     33  C   UNL A   1      32.911  35.040  28.549  1.00  0.00     0.251 C 
ATOM     34  H   UNL A   1      31.678  34.635  27.024  1.00  0.00     0.163 HD
ATOM     35  O   UNL A   1      32.450  36.151  28.758  1.00  0.00    -0.269 OA
BRANCH  33  36
ATOM     36  C   UNL A   1      34.089  34.567  29.305  1.00  0.00     0.039 A 
ATOM     37  C   UNL A   1      35.352  34.604  28.716  1.00  0.00     0.014 A 
ATOM     38  C   UNL A   1      33.924  34.057  30.594  1.00  0.00     0.014 A 
ATOM     39  C   UNL A   1      36.408  33.941  29.322  1.00  0.00     0.010 A 
ATOM     40  C   UNL A   1      35.018  33.486  31.252  1.00  0.00     0.010 A 
ATOM     41  C   UNL A   1      36.254  33.373  30.597  1.00  0.00    -0.014 A 
BRANCH  41  42
ATOM     42  C   UNL A   1      37.398  32.653  31.210  1.00  0.00     0.031 A 
ATOM     43  C   UNL A   1      37.842  32.974  32.611  1.00  0.00     0.074 A 
ATOM     44  C   UNL A   1      37.984  31.653  30.526  1.00  0.00     0.049 A 
ATOM     45  N   UNL A   1      38.832  32.465  33.300  1.00  0.00    -0.248 NA
ATOM     46  C   UNL A   1      37.076  34.000  33.336  1.00  0.00     0.031 C 
ATOM     47  C   UNL A   1      37.611  31.225  29.176  1.00  0.00     0.029 A 
ATOM     48  N   UNL A   1      38.989  30.790  30.881  1.00  0.00    -0.354 N 
ATOM     49  C   UNL A   1      38.825  33.124  34.522  1.00  0.00     0.074 A 
ATOM     50  C   UNL A   1      37.745  34.086  34.478  1.00  0.00     0.031 C 
ATOM     51  C   UNL A   1      38.325  30.141  28.845  1.00  0.00     0.029 A 
ATOM     52  C   UNL A   1      39.264  29.847  29.921  1.00  0.00     0.049 A 
ATOM     53  H   UNL A   1      39.467  30.841  31.741  1.00  0.00     0.167 HD
ATOM     54  C   UNL A   1      39.641  32.935  35.587  1.00  0.00     0.037 A 
ATOM     55  C   UNL A   1      40.185  28.867  29.901  1.00  0.00     0.037 A 
ATOM     56  C   UNL A   1      40.695  31.955  35.633  1.00  0.00     0.049 A 
ATOM     57  C   UNL A   1      41.113  28.717  31.070  1.00  0.00     0.074 A 
ATOM     58  C   UNL A   1      41.585  31.690  36.660  1.00  0.00     0.029 A 
ATOM     59  N   UNL A   1      40.996  31.069  34.608  1.00  0.00    -0.354 N 
ATOM     60  N   UNL A   1      41.129  29.380  32.200  1.00  0.00    -0.248 NA
ATOM     61  C   UNL A   1      42.164  27.699  30.953  1.00  0.00     0.031 C 
ATOM     62  C   UNL A   1      42.444  30.669  36.244  1.00  0.00     0.029 A 
ATOM     63  C   UNL A   1      42.064  30.266  34.974  1.00  0.00     0.049 A 
ATOM     64  H   UNL A   1      40.520  31.020  33.748  1.00  0.00     0.167 HD
ATOM     65  C   UNL A   1      42.186  28.861  32.931  1.00  0.00     0.074 A 
ATOM     66  C   UNL A   1      42.772  27.808  32.126  1.00  0.00     0.031 C 
ATOM     67  C   UNL A   1      42.635  29.228  34.154  1.00  0.00     0.037 A 
BRANCH  54  68
ATOM     68  C   UNL A   1      39.441  33.811  36.789  1.00  0.00     0.064 A 
ATOM     69  C   UNL A   1      38.674  33.392  37.885  1.00  0.00     0.173 A 
ATOM     70  C   UNL A   1      40.072  35.062  36.868  1.00  0.00     0.173 A 
ATOM     71  F   UNL A   1      38.037  32.214  37.853  1.00  0.00    -0.203 F 
ATOM     72  C   UNL A   1      38.537  34.200  39.013  1.00  0.00     0.198 A 
ATOM     73  C   UNL A   1      39.954  35.856  38.007  1.00  0.00     0.198 A 
ATOM     74  F   UNL A   1      40.820  35.509  35.847  1.00  0.00    -0.203 F 
ATOM     75  F   UNL A   1      37.772  33.794  40.036  1.00  0.00    -0.200 F 
ATOM     76  C   UNL A   1      39.184  35.425  39.076  1.00  0.00     0.200 A 
ATOM     77  F   UNL A   1      40.588  37.034  38.069  1.00  0.00    -0.200 F 
ATOM     78  F   UNL A   1      39.060  36.195  40.166  1.00  0.00    -0.200 F 
ENDBRANCH  54  68
BRANCH  55  79
ATOM     79  C   UNL A   1      40.271  27.967  28.722  1.00  0.00     0.064 A 
ATOM     80  C   UNL A   1      41.028  28.326  27.599  1.00  0.00     0.173 A 
ATOM     81  C   UNL A   1      39.638  26.715  28.712  1.00  0.00     0.173 A 
ATOM     82  F   UNL A   1      41.634  29.521  27.555  1.00  0.00    -0.203 F 
ATOM     83  C   UNL A   1      41.152  27.464  26.512  1.00  0.00     0.198 A 
ATOM     84  C   UNL A   1      39.786  25.843  27.637  1.00  0.00     0.198 A 
ATOM     85  F   UNL A   1      38.905  26.325  29.765  1.00  0.00    -0.203 F 
ATOM     86  F   UNL A   1      41.863  27.840  25.440  1.00  0.00    -0.200 F 
ATOM     87  C   UNL A   1      40.539  26.220  26.536  1.00  0.00     0.200 A 
ATOM     88  F   UNL A   1      39.208  24.634  27.673  1.00  0.00    -0.200 F 
ATOM     89  F   UNL A   1      40.676  25.383  25.498  1.00  0.00    -0.200 F 
ENDBRANCH  55  79
BRANCH  67  90
ATOM     90  C   UNL A   1      43.814  28.481  34.702  1.00  0.00     0.064 A 
ATOM     91  C   UNL A   1      45.123  28.951  34.522  1.00  0.00     0.173 A 
ATOM     92  C   UNL A   1      43.629  27.310  35.451  1.00  0.00     0.173 A 
ATOM     93  F   UNL A   1      45.349  30.058  33.799  1.00  0.00    -0.203 F 
ATOM     94  C   UNL A   1      46.208  28.263  35.058  1.00  0.00     0.198 A 
ATOM     95  C   UNL A   1      44.714  26.639  36.007  1.00  0.00     0.198 A 
ATOM     96  F   UNL A   1      42.395  26.826  35.654  1.00  0.00    -0.203 F 
ATOM     97  F   UNL A   1      47.453  28.707  34.843  1.00  0.00    -0.200 F 
ATOM     98  C   UNL A   1      46.001  27.113  35.807  1.00  0.00     0.200 A 
ATOM     99  F   UNL A   1      44.513  25.535  36.739  1.00  0.00    -0.200 F 
ATOM    100  F   UNL A   1      47.047  26.457  36.329  1.00  0.00    -0.200 F 
ENDBRANCH  67  90
ENDBRANCH  41  42
ENDBRANCH  33  36
ENDBRANCH  31  32
ENDBRANCH   1  31
TORSDOF 13
ENDMDL
MODEL 2
REMARK VINA RESULT:     -14.0      1.025      2.092
REMARK SMILES C[C@@H]1CC[C@H](C)[N@H+]1Cc1cc2c(cc1Cl)C=C(C(=O)NCCCNC(=O)c1ccc(-c3c4nc(c(-c5c(F)c(F)c(F)c(F)c5F)c5ccc([nH]5)c(-c5c(F)c(F)c(F)c(F)c5F)c5nc(c(-c6c(F)c(F)c(F)c(F)c6F)c6ccc3[nH]6)C=C5)C=C4)cc1)[C@@H](C(F)(F)F)O2
REMARK SMILES IDX 22 1 21 2 20 3 18 4 19 5 17 7 9 8 10 9 14 10 11 11 13 12
REMARK SMILES IDX 15 13 12 14 95 15 16 16 90 17 8 18 7 19 6 20 5 21 4 22 3 23
REMARK SMILES IDX 2 24 1 26 91 27 92 28 93 29 94 30 23 31 24 32 25 33 26 35
REMARK SMILES IDX 27 36 28 37 89 38 29 39 88 40 30 41 31 42 32 43 82 44 33 45
REMARK SMILES IDX 87 46 81 47 83 48 34 49 86 50 80 51 79 52 35 54 67 55 47 56
REMARK SMILES IDX 66 57 48 58 51 59 65 60 84 61 49 62 50 63 64 65 85 66 52 67
REMARK SMILES IDX 36 68 37 69 45 70 38 71 39 72 43 73 46 74 40 75 41 76 44 77
REMARK SMILES IDX 42 78 68 79 69 80 77 81 70 82 71 83 75 84 78 85 72 86 73 87
REMARK SMILES IDX 76 88 74 89 53 90 54 91 62 92 55 93 56 94 60 95 63 96 57 97
REMARK SMILES IDX 58 98 61 99 59 100
REMARK H PARENT 20 6 7 25 24 34 83 53 51 64
REMARK Flexibility Score: inf
ROOT
ATOM      1  C   UNL A   1      31.479  31.914  26.862  1.00  0.00     0.042 C 
ENDROOT
BRANCH   1   2
ATOM      2  C   UNL A   1      31.800  30.729  25.964  1.00  0.00     0.118 C 
BRANCH   2   3
ATOM      3  N   UNL A   1      30.812  30.590  24.905  1.00  0.00    -0.352 N 
ATOM      4  C   UNL A   1      30.485  29.676  23.967  1.00  0.00     0.251 C 
ATOM      5  O   UNL A   1      29.572  30.011  23.207  1.00  0.00    -0.270 OA
ATOM      6  H   UNL A   1      30.222  31.378  24.860  1.00  0.00     0.163 HD
BRANCH   4   7
ATOM      7  C   UNL A   1      31.129  28.347  23.806  1.00  0.00     0.067 C 
ATOM      8  C   UNL A   1      32.520  23.530  24.348  1.00  0.00     0.029 A 
ATOM      9  C   UNL A   1      32.467  24.427  23.262  1.00  0.00     0.058 A 
ATOM     10  C   UNL A   1      32.147  24.012  25.616  1.00  0.00     0.050 A 
ATOM     11  C   UNL A   1      31.975  25.717  23.430  1.00  0.00     0.128 A 
ATOM     12  C   UNL A   1      31.578  25.284  25.760  1.00  0.00     0.033 A 
ATOM     13  Cl  UNL A   1      32.436  23.135  27.077  1.00  0.00    -0.084 Cl
ATOM     14  C   UNL A   1      31.472  26.130  24.661  1.00  0.00     0.019 A 
ATOM     15  O   UNL A   1      31.994  26.549  22.343  1.00  0.00    -0.475 OA
ATOM     16  C   UNL A   1      30.849  27.443  24.763  1.00  0.00     0.025 C 
ATOM     17  C   UNL A   1      32.064  27.966  22.691  1.00  0.00     0.314 C 
BRANCH   8  18
ATOM     18  C   UNL A   1      32.948  22.099  24.074  1.00  0.00     0.301 C 
BRANCH  18  19
ATOM     19  N   UNL A   1      34.377  21.794  24.251  1.00  0.00    -0.327 N 
ATOM     20  C   UNL A   1      34.803  19.411  24.771  1.00  0.00     0.075 C 
ATOM     21  C   UNL A   1      34.729  20.833  25.308  1.00  0.00     0.181 C 
ATOM     22  C   UNL A   1      36.077  21.308  25.848  1.00  0.00     0.071 C 
ATOM     23  C   UNL A   1      36.000  22.808  25.664  1.00  0.00     0.071 C 
ATOM     24  C   UNL A   1      35.264  22.960  24.340  1.00  0.00     0.181 C 
ATOM     25  H   UNL A   1      34.550  21.325  23.361  1.00  0.00     0.348 HD
ATOM     26  C   UNL A   1      36.215  22.948  23.144  1.00  0.00     0.075 C 
ENDBRANCH  18  19
ENDBRANCH   8  18
BRANCH  17  27
ATOM     27  C   UNL A   1      33.525  28.379  22.986  1.00  0.00     0.429 C 
ATOM     28  F   UNL A   1      33.591  29.704  23.272  1.00  0.00    -0.167 F 
ATOM     29  F   UNL A   1      34.035  27.727  24.059  1.00  0.00    -0.167 F 
ATOM     30  F   UNL A   1      34.365  28.143  21.955  1.00  0.00    -0.167 F 
ENDBRANCH  17  27
ENDBRANCH   4   7
ENDBRANCH   2   3
ENDBRANCH   1   2
BRANCH   1  31
ATOM     31  C   UNL A   1      32.739  32.646  27.305  1.00  0.00     0.118 C 
BRANCH  31  32
ATOM     32  N   UNL A   1      32.483  34.056  27.584  1.00  0.00    -0.352 N 
ATOM     33  C   UNL A   1      33.008  34.875  28.558  1.00  0.00     0.251 C 
ATOM     34  H   UNL A   1      31.834  34.488  26.982  1.00  0.00     0.163 HD
ATOM     35  O   UNL A   1      32.497  35.957  28.800  1.00  0.00    -0.269 OA
BRANCH  33  36
ATOM     36  C   UNL A   1      34.183  34.417  29.327  1.00  0.00     0.039 A 
ATOM     37  C   UNL A   1      35.465  34.597  28.808  1.00  0.00     0.014 A 
ATOM     38  C   UNL A   1      34.000  33.778  30.554  1.00  0.00     0.014 A 
ATOM     39  C   UNL A   1      36.539  33.956  29.405  1.00  0.00     0.010 A 
ATOM     40  C   UNL A   1      35.103  33.225  31.213  1.00  0.00     0.010 A 
ATOM     41  C   UNL A   1      36.372  33.261  30.614  1.00  0.00    -0.014 A 
BRANCH  41  42
ATOM     42  C   UNL A   1      37.538  32.568  31.216  1.00  0.00     0.031 A 
ATOM     43  C   UNL A   1      37.987  32.900  32.614  1.00  0.00     0.074 A 
ATOM     44  C   UNL A   1      38.141  31.581  30.528  1.00  0.00     0.049 A 
ATOM     45  N   UNL A   1      38.995  32.415  33.294  1.00  0.00    -0.248 NA
ATOM     46  C   UNL A   1      37.205  33.909  33.345  1.00  0.00     0.031 C 
ATOM     47  C   UNL A   1      37.765  31.144  29.181  1.00  0.00     0.029 A 
ATOM     48  N   UNL A   1      39.169  30.742  30.874  1.00  0.00    -0.354 N 
ATOM     49  C   UNL A   1      38.984  33.075  34.516  1.00  0.00     0.074 A 
ATOM     50  C   UNL A   1      37.882  34.011  34.481  1.00  0.00     0.031 C 
ATOM     51  C   UNL A   1      38.501  30.076  28.845  1.00  0.00     0.029 A 
ATOM     52  C   UNL A   1      39.457  29.805  29.912  1.00  0.00     0.049 A 
ATOM     53  H   UNL A   1      39.653  30.806  31.729  1.00  0.00     0.167 HD
ATOM     54  C   UNL A   1      39.814  32.905  35.572  1.00  0.00     0.037 A 
ATOM     55  C   UNL A   1      40.400  28.847  29.884  1.00  0.00     0.037 A 
ATOM     56  C   UNL A   1      40.891  31.951  35.609  1.00  0.00     0.049 A 
ATOM     57  C   UNL A   1      41.342  28.720  31.044  1.00  0.00     0.074 A 
ATOM     58  C   UNL A   1      41.796  31.708  36.629  1.00  0.00     0.029 A 
ATOM     59  N   UNL A   1      41.203  31.071  34.582  1.00  0.00    -0.354 N 
ATOM     60  N   UNL A   1      41.353  29.384  32.174  1.00  0.00    -0.248 NA
ATOM     61  C   UNL A   1      42.415  27.726  30.918  1.00  0.00     0.031 C 
ATOM     62  C   UNL A   1      42.675  30.706  36.205  1.00  0.00     0.029 A 
ATOM     63  C   UNL A   1      42.293  30.293  34.939  1.00  0.00     0.049 A 
ATOM     64  H   UNL A   1      40.720  31.010  33.726  1.00  0.00     0.167 HD
ATOM     65  C   UNL A   1      42.428  28.890  32.895  1.00  0.00     0.074 A 
ATOM     66  C   UNL A   1      43.032  27.850  32.085  1.00  0.00     0.031 C 
ATOM     67  C   UNL A   1      42.881  29.269  34.114  1.00  0.00     0.037 A 
BRANCH  54  68
ATOM     68  C   UNL A   1      39.604  33.778  36.775  1.00  0.00     0.064 A 
ATOM     69  C   UNL A   1      40.156  35.064  36.857  1.00  0.00     0.173 A 
ATOM     70  C   UNL A   1      38.793  33.343  37.835  1.00  0.00     0.173 A 
ATOM     71  F   UNL A   1      40.952  35.521  35.880  1.00  0.00    -0.203 F 
ATOM     72  C   UNL A   1      39.913  35.879  37.962  1.00  0.00     0.198 A 
ATOM     73  C   UNL A   1      38.531  34.169  38.926  1.00  0.00     0.198 A 
ATOM     74  F   UNL A   1      38.238  32.121  37.805  1.00  0.00    -0.203 F 
ATOM     75  F   UNL A   1      40.478  37.092  38.033  1.00  0.00    -0.200 F 
ATOM     76  C   UNL A   1      39.094  35.434  38.989  1.00  0.00     0.200 A 
ATOM     77  F   UNL A   1      37.732  33.742  39.912  1.00  0.00    -0.200 F 
ATOM     78  F   UNL A   1      38.853  36.224  40.045  1.00  0.00    -0.200 F 
ENDBRANCH  54  68
BRANCH  55  79
ATOM     79  C   UNL A   1      40.496  27.949  28.705  1.00  0.00     0.064 A 
ATOM     80  C   UNL A   1      39.795  26.736  28.668  1.00  0.00     0.173 A 
ATOM     81  C   UNL A   1      41.248  28.305  27.575  1.00  0.00     0.173 A 
ATOM     82  F   UNL A   1      39.079  26.345  29.732  1.00  0.00    -0.203 F 
ATOM     83  C   UNL A   1      39.842  25.914  27.544  1.00  0.00     0.198 A 
ATOM     84  C   UNL A   1      41.271  27.497  26.443  1.00  0.00     0.198 A 
ATOM     85  F   UNL A   1      41.933  29.458  27.561  1.00  0.00    -0.203 F 
ATOM     86  F   UNL A   1      39.182  24.748  27.543  1.00  0.00    -0.200 F 
ATOM     87  C   UNL A   1      40.571  26.300  26.429  1.00  0.00     0.200 A 
ATOM     88  F   UNL A   1      41.962  27.883  25.360  1.00  0.00    -0.200 F 
ATOM     89  F   UNL A   1      40.599  25.519  25.341  1.00  0.00    -0.200 F 
ENDBRANCH  55  79
BRANCH  67  90
ATOM     90  C   UNL A   1      44.081  28.549  34.651  1.00  0.00     0.064 A 
ATOM     91  C   UNL A   1      45.375  29.064  34.483  1.00  0.00     0.173 A 
ATOM     92  C   UNL A   1      43.932  27.359  35.379  1.00  0.00     0.173 A 
ATOM     93  F   UNL A   1      45.567  30.191  33.782  1.00  0.00    -0.203 F 
ATOM     94  C   UNL A   1      46.480  28.402  35.010  1.00  0.00     0.198 A 
ATOM     95  C   UNL A   1      45.037  26.713  35.925  1.00  0.00     0.198 A 
ATOM     96  F   UNL A   1      42.714  26.832  35.570  1.00  0.00    -0.203 F 
ATOM     97  F   UNL A   1      47.711  28.889  34.806  1.00  0.00    -0.200 F 
ATOM     98  C   UNL A   1      46.309  27.232  35.737  1.00  0.00     0.200 A 
ATOM     99  F   UNL A   1      44.870  25.590  36.636  1.00  0.00    -0.200 F 
ATOM    100  F   UNL A   1      47.374  26.600  36.250  1.00  0.00    -0.200 F 
ENDBRANCH  67  90
ENDBRANCH  41  42
ENDBRANCH  33  36
ENDBRANCH  31  32
ENDBRANCH   1  31
TORSDOF 13
ENDMDL
MODEL 3
REMARK VINA RESULT:     -14.0      1.059      2.116
REMARK SMILES C[C@@H]1CC[C@H](C)[N@H+]1Cc1cc2c(cc1Cl)C=C(C(=O)NCCCNC(=O)c1ccc(-c3c4nc(c(-c5c(F)c(F)c(F)c(F)c5F)c5ccc([nH]5)c(-c5c(F)c(F)c(F)c(F)c5F)c5nc(c(-c6c(F)c(F)c(F)c(F)c6F)c6ccc3[nH]6)C=C5)C=C4)cc1)[C@@H](C(F)(F)F)O2
REMARK SMILES IDX 22 1 21 2 20 3 18 4 19 5 17 7 9 8 10 9 14 10 11 11 13 12
REMARK SMILES IDX 15 13 12 14 95 15 16 16 90 17 8 18 7 19 6 20 5 21 4 22 3 23
REMARK SMILES IDX 2 24 1 26 91 27 92 28 93 29 94 30 23 31 24 32 25 33 26 35
REMARK SMILES IDX 27 36 28 37 89 38 29 39 88 40 30 41 31 42 32 43 82 44 33 45
REMARK SMILES IDX 87 46 81 47 83 48 34 49 86 50 80 51 79 52 35 54 67 55 47 56
REMARK SMILES IDX 66 57 48 58 51 59 65 60 84 61 49 62 50 63 64 65 85 66 52 67
REMARK SMILES IDX 36 68 37 69 45 70 38 71 39 72 43 73 46 74 40 75 41 76 44 77
REMARK SMILES IDX 42 78 68 79 69 80 77 81 70 82 71 83 75 84 78 85 72 86 73 87
REMARK SMILES IDX 76 88 74 89 53 90 54 91 62 92 55 93 56 94 60 95 63 96 57 97
REMARK SMILES IDX 58 98 61 99 59 100
REMARK H PARENT 20 6 7 25 24 34 83 53 51 64
REMARK Flexibility Score: inf
ROOT
ATOM      1  C   UNL A   1      31.419  31.950  26.810  1.00  0.00     0.042 C 
ENDROOT
BRANCH   1   2
ATOM      2  C   UNL A   1      31.751  30.767  25.913  1.00  0.00     0.118 C 
BRANCH   2   3
ATOM      3  N   UNL A   1      30.770  30.623  24.849  1.00  0.00    -0.352 N 
ATOM      4  C   UNL A   1      30.454  29.707  23.908  1.00  0.00     0.251 C 
ATOM      5  O   UNL A   1      29.542  30.037  23.144  1.00  0.00    -0.270 OA
ATOM      6  H   UNL A   1      30.175  31.406  24.803  1.00  0.00     0.163 HD
BRANCH   4   7
ATOM      7  C   UNL A   1      31.109  28.383  23.749  1.00  0.00     0.067 C 
ATOM      8  C   UNL A   1      32.528  23.575  24.288  1.00  0.00     0.029 A 
ATOM      9  C   UNL A   1      32.479  24.475  23.205  1.00  0.00     0.058 A 
ATOM     10  C   UNL A   1      32.141  24.050  25.554  1.00  0.00     0.050 A 
ATOM     11  C   UNL A   1      31.976  25.760  23.373  1.00  0.00     0.128 A 
ATOM     12  C   UNL A   1      31.561  25.318  25.697  1.00  0.00     0.033 A 
ATOM     13  Cl  UNL A   1      32.423  23.171  27.015  1.00  0.00    -0.084 Cl
ATOM     14  C   UNL A   1      31.459  26.167  24.600  1.00  0.00     0.019 A 
ATOM     15  O   UNL A   1      31.999  26.596  22.288  1.00  0.00    -0.475 OA
ATOM     16  C   UNL A   1      30.827  27.474  24.701  1.00  0.00     0.025 C 
ATOM     17  C   UNL A   1      32.056  28.012  22.642  1.00  0.00     0.314 C 
BRANCH   8  18
ATOM     18  C   UNL A   1      32.968  22.148  24.014  1.00  0.00     0.301 C 
BRANCH  18  19
ATOM     19  N   UNL A   1      34.391  21.843  24.236  1.00  0.00    -0.327 N 
ATOM     20  C   UNL A   1      34.796  19.470  24.816  1.00  0.00     0.075 C 
ATOM     21  C   UNL A   1      34.711  20.903  25.322  1.00  0.00     0.181 C 
ATOM     22  C   UNL A   1      36.045  21.386  25.890  1.00  0.00     0.071 C 
ATOM     23  C   UNL A   1      35.977  22.882  25.674  1.00  0.00     0.071 C 
ATOM     24  C   UNL A   1      35.278  23.009  24.327  1.00  0.00     0.181 C 
ATOM     25  H   UNL A   1      34.588  21.356  23.361  1.00  0.00     0.348 HD
ATOM     26  C   UNL A   1      36.263  22.971  23.158  1.00  0.00     0.075 C 
ENDBRANCH  18  19
ENDBRANCH   8  18
BRANCH  17  27
ATOM     27  C   UNL A   1      33.511  28.435  22.950  1.00  0.00     0.429 C 
ATOM     28  F   UNL A   1      34.268  28.378  21.826  1.00  0.00    -0.167 F 
ATOM     29  F   UNL A   1      33.590  29.710  23.403  1.00  0.00    -0.167 F 
ATOM     30  F   UNL A   1      34.107  27.657  23.880  1.00  0.00    -0.167 F 
ENDBRANCH  17  27
ENDBRANCH   4   7
ENDBRANCH   2   3
ENDBRANCH   1   2
BRANCH   1  31
ATOM     31  C   UNL A   1      32.674  32.661  27.299  1.00  0.00     0.118 C 
BRANCH  31  32
ATOM     32  N   UNL A   1      32.426  34.072  27.585  1.00  0.00    -0.352 N 
ATOM     33  C   UNL A   1      32.970  34.886  28.553  1.00  0.00     0.251 C 
ATOM     34  H   UNL A   1      31.769  34.507  26.996  1.00  0.00     0.163 HD
ATOM     35  O   UNL A   1      32.467  35.969  28.807  1.00  0.00    -0.269 OA
BRANCH  33  36
ATOM     36  C   UNL A   1      34.156  34.422  29.301  1.00  0.00     0.039 A 
ATOM     37  C   UNL A   1      35.431  34.609  28.768  1.00  0.00     0.014 A 
ATOM     38  C   UNL A   1      33.991  33.769  30.525  1.00  0.00     0.014 A 
ATOM     39  C   UNL A   1      36.513  33.963  29.343  1.00  0.00     0.010 A 
ATOM     40  C   UNL A   1      35.103  33.212  31.163  1.00  0.00     0.010 A 
ATOM     41  C   UNL A   1      36.363  33.256  30.547  1.00  0.00    -0.014 A 
BRANCH  41  42
ATOM     42  C   UNL A   1      37.539  32.559  31.127  1.00  0.00     0.031 A 
ATOM     43  C   UNL A   1      38.012  32.884  32.518  1.00  0.00     0.074 A 
ATOM     44  C   UNL A   1      38.129  31.575  30.423  1.00  0.00     0.049 A 
ATOM     45  N   UNL A   1      39.030  32.394  33.179  1.00  0.00    -0.248 NA
ATOM     46  C   UNL A   1      37.243  33.890  33.267  1.00  0.00     0.031 C 
ATOM     47  C   UNL A   1      37.730  31.144  29.081  1.00  0.00     0.029 A 
ATOM     48  N   UNL A   1      39.161  30.732  30.749  1.00  0.00    -0.354 N 
ATOM     49  C   UNL A   1      39.041  33.048  34.404  1.00  0.00     0.074 A 
ATOM     50  C   UNL A   1      37.939  33.985  34.392  1.00  0.00     0.031 C 
ATOM     51  C   UNL A   1      38.458  30.077  28.728  1.00  0.00     0.029 A 
ATOM     52  C   UNL A   1      39.432  29.800  29.777  1.00  0.00     0.049 A 
ATOM     53  H   UNL A   1      39.660  30.791  31.595  1.00  0.00     0.167 HD
ATOM     54  C   UNL A   1      39.888  32.872  35.445  1.00  0.00     0.037 A 
ATOM     55  C   UNL A   1      40.374  28.840  29.728  1.00  0.00     0.037 A 
ATOM     56  C   UNL A   1      40.964  31.916  35.460  1.00  0.00     0.049 A 
ATOM     57  C   UNL A   1      41.334  28.707  30.872  1.00  0.00     0.074 A 
ATOM     58  C   UNL A   1      41.886  31.667  36.463  1.00  0.00     0.029 A 
ATOM     59  N   UNL A   1      41.258  31.041  34.423  1.00  0.00    -0.354 N 
ATOM     60  N   UNL A   1      41.365  29.365  32.005  1.00  0.00    -0.248 NA
ATOM     61  C   UNL A   1      42.404  27.712  30.724  1.00  0.00     0.031 C 
ATOM     62  C   UNL A   1      42.756  30.666  36.019  1.00  0.00     0.029 A 
ATOM     63  C   UNL A   1      42.352  30.260  34.758  1.00  0.00     0.049 A 
ATOM     64  H   UNL A   1      40.760  30.984  33.575  1.00  0.00     0.167 HD
ATOM     65  C   UNL A   1      42.452  28.866  32.706  1.00  0.00     0.074 A 
ATOM     66  C   UNL A   1      43.040  27.830  31.881  1.00  0.00     0.031 C 
ATOM     67  C   UNL A   1      42.925  29.239  33.919  1.00  0.00     0.037 A 
BRANCH  54  68
ATOM     68  C   UNL A   1      39.700  33.739  36.656  1.00  0.00     0.064 A 
ATOM     69  C   UNL A   1      40.280  35.012  36.747  1.00  0.00     0.173 A 
ATOM     70  C   UNL A   1      38.880  33.314  37.714  1.00  0.00     0.173 A 
ATOM     71  F   UNL A   1      41.084  35.459  35.773  1.00  0.00    -0.203 F 
ATOM     72  C   UNL A   1      40.057  35.823  37.859  1.00  0.00     0.198 A 
ATOM     73  C   UNL A   1      38.639  34.136  38.811  1.00  0.00     0.198 A 
ATOM     74  F   UNL A   1      38.298  32.105  37.674  1.00  0.00    -0.203 F 
ATOM     75  F   UNL A   1      40.649  37.022  37.940  1.00  0.00    -0.200 F 
ATOM     76  C   UNL A   1      39.230  35.388  38.884  1.00  0.00     0.200 A 
ATOM     77  F   UNL A   1      37.832  33.719  39.795  1.00  0.00    -0.200 F 
ATOM     78  F   UNL A   1      39.008  36.174  39.947  1.00  0.00    -0.200 F 
ENDBRANCH  54  68
BRANCH  55  79
ATOM     79  C   UNL A   1      40.448  27.948  28.544  1.00  0.00     0.064 A 
ATOM     80  C   UNL A   1      41.194  28.314  27.416  1.00  0.00     0.173 A 
ATOM     81  C   UNL A   1      39.816  26.695  28.533  1.00  0.00     0.173 A 
ATOM     82  F   UNL A   1      41.799  29.509  27.372  1.00  0.00    -0.203 F 
ATOM     83  C   UNL A   1      41.307  27.458  26.322  1.00  0.00     0.198 A 
ATOM     84  C   UNL A   1      39.954  25.830  27.452  1.00  0.00     0.198 A 
ATOM     85  F   UNL A   1      39.094  26.298  29.591  1.00  0.00    -0.203 F 
ATOM     86  F   UNL A   1      42.008  27.841  25.246  1.00  0.00    -0.200 F 
ATOM     87  C   UNL A   1      40.696  26.213  26.346  1.00  0.00     0.200 A 
ATOM     88  F   UNL A   1      39.377  24.620  27.487  1.00  0.00    -0.200 F 
ATOM     89  F   UNL A   1      40.823  25.382  25.301  1.00  0.00    -0.200 F 
ENDBRANCH  55  79
BRANCH  67  90
ATOM     90  C   UNL A   1      44.133  28.515  34.432  1.00  0.00     0.064 A 
ATOM     91  C   UNL A   1      44.014  27.314  35.147  1.00  0.00     0.173 A 
ATOM     92  C   UNL A   1      45.421  29.002  34.168  1.00  0.00     0.173 A 
ATOM     93  F   UNL A   1      42.801  26.818  35.437  1.00  0.00    -0.203 F 
ATOM     94  C   UNL A   1      45.144  26.636  35.596  1.00  0.00     0.198 A 
ATOM     95  C   UNL A   1      46.549  28.308  34.596  1.00  0.00     0.198 A 
ATOM     96  F   UNL A   1      45.585  30.143  33.483  1.00  0.00    -0.203 F 
ATOM     97  F   UNL A   1      45.008  25.511  36.310  1.00  0.00    -0.200 F 
ATOM     98  C   UNL A   1      46.409  27.129  35.313  1.00  0.00     0.200 A 
ATOM     99  F   UNL A   1      47.771  28.780  34.313  1.00  0.00    -0.200 F 
ATOM    100  F   UNL A   1      47.496  26.470  35.739  1.00  0.00    -0.200 F 
ENDBRANCH  67  90
ENDBRANCH  41  42
ENDBRANCH  33  36
ENDBRANCH  31  32
ENDBRANCH   1  31
TORSDOF 13
ENDMDL
