MODEL 1
REMARK VINA RESULT:     -12.2      0.000      0.000
REMARK SMILES CC[C@@H](Oc1ccccc1/C=C1\S/C(=[NH+]\c2cccc(O)c2)N(CC)C1=O)C(=O)NCCCNC(=O)c1ccc(-c2c3nc(c(-c4c(F)c(F)c(F)c(F)c4F)c4ccc([nH]4)c(-c4c(F)c(F)c(F)c(F)c4F)c4nc(c(-c5c(F)c(F)c(F)c(F)c5F)c5ccc2[nH]5)C=C4)C=C3)cc1
REMARK SMILES IDX 28 1 29 2 30 3 3 5 2 6 1 7 4 8 5 9 6 10 10 11 7 12 9 13 8 14
REMARK SMILES IDX 11 15 12 16 13 17 26 18 14 19 23 20 27 21 15 22 24 24 25 25
REMARK SMILES IDX 16 26 17 27 22 28 18 29 20 30 19 31 21 32 31 34 32 35 33 36
REMARK SMILES IDX 34 37 35 38 36 40 37 41 38 42 99 43 39 44 98 45 40 46 41 47
REMARK SMILES IDX 42 48 92 49 43 50 97 51 91 52 93 53 44 54 96 55 90 56 89 57
REMARK SMILES IDX 45 59 77 60 57 61 76 62 58 63 61 64 75 65 94 66 59 67 60 68
REMARK SMILES IDX 74 70 95 71 62 72 46 73 47 74 55 75 48 76 49 77 53 78 56 79
REMARK SMILES IDX 50 80 51 81 54 82 52 83 78 84 79 85 87 86 80 87 81 88 85 89
REMARK SMILES IDX 88 90 82 91 83 92 86 93 84 94 63 95 64 96 72 97 65 98 66 99
REMARK SMILES IDX 70 100 73 101 67 102 68 103 71 104 69 105
REMARK H PARENT 30 4 15 23 21 33 34 39 93 58 61 69
REMARK Flexibility Score: inf
ROOT
ATOM      1  C   UNL A   1      36.328  22.458  23.873  1.00  0.00     0.261 C 
ATOM      2  O   UNL A   1      36.625  23.078  22.842  1.00  0.00    -0.271 OA
ATOM      3  N   UNL A   1      36.698  21.145  23.904  1.00  0.00    -0.353 N 
ATOM      4  H   UNL A   1      36.987  20.789  23.033  1.00  0.00     0.163 HD
ENDROOT
BRANCH   1   5
ATOM      5  C   UNL A   1      35.453  23.157  24.952  1.00  0.00     0.261 C 
BRANCH   5   6
ATOM      6  C   UNL A   1      36.341  24.258  25.569  1.00  0.00     0.052 C 
ATOM      7  C   UNL A   1      37.669  23.731  26.102  1.00  0.00     0.008 C 
ENDBRANCH   5   6
BRANCH   5   8
ATOM      8  O   UNL A   1      34.238  23.729  24.472  1.00  0.00    -0.480 OA
BRANCH   8   9
ATOM      9  C   UNL A   1      33.122  23.553  25.257  1.00  0.00     0.127 A 
ATOM     10  C   UNL A   1      33.212  22.750  26.395  1.00  0.00     0.047 A 
ATOM     11  C   UNL A   1      31.860  24.011  24.815  1.00  0.00     0.018 A 
ATOM     12  C   UNL A   1      32.054  22.413  27.102  1.00  0.00     0.004 A 
ATOM     13  C   UNL A   1      30.708  23.667  25.532  1.00  0.00     0.012 A 
ATOM     14  C   UNL A   1      30.806  22.863  26.667  1.00  0.00     0.001 A 
BRANCH  11  15
ATOM     15  C   UNL A   1      31.733  24.896  23.649  1.00  0.00     0.036 C 
ATOM     16  C   UNL A   1      31.970  26.212  23.672  1.00  0.00     0.110 C 
ATOM     17  S   UNL A   1      32.712  27.101  24.921  1.00  0.00     0.007 SA
ATOM     18  C   UNL A   1      31.385  27.126  22.662  1.00  0.00     0.348 C 
ATOM     19  C   UNL A   1      32.337  28.643  24.180  1.00  0.00     0.324 C 
ATOM     20  N   UNL A   1      31.550  28.438  23.068  1.00  0.00    -0.186 N 
ATOM     21  O   UNL A   1      30.745  26.740  21.690  1.00  0.00    -0.240 OA
ATOM     22  N   UNL A   1      32.676  29.817  24.608  1.00  0.00    -0.234 N 
ATOM     23  H   UNL A   1      32.493  30.607  24.049  1.00  0.00     0.313 HD
BRANCH  20  24
ATOM     24  C   UNL A   1      30.692  29.475  22.508  1.00  0.00     0.244 C 
ATOM     25  C   UNL A   1      29.311  29.550  23.132  1.00  0.00     0.055 C 
ENDBRANCH  20  24
BRANCH  22  26
ATOM     26  C   UNL A   1      33.306  29.986  25.862  1.00  0.00     0.129 A 
ATOM     27  C   UNL A   1      34.314  29.076  26.183  1.00  0.00     0.052 A 
ATOM     28  C   UNL A   1      33.056  31.028  26.757  1.00  0.00     0.097 A 
ATOM     29  C   UNL A   1      35.156  29.274  27.279  1.00  0.00     0.008 A 
ATOM     30  C   UNL A   1      33.919  31.244  27.832  1.00  0.00     0.119 A 
ATOM     31  C   UNL A   1      34.972  30.381  28.094  1.00  0.00     0.046 A 
BRANCH  30  32
ATOM     32  O   UNL A   1      33.792  32.340  28.634  1.00  0.00    -0.508 OA
ATOM     33  H   UNL A   1      33.075  32.930  28.512  1.00  0.00     0.293 HD
ENDBRANCH  30  32
ENDBRANCH  22  26
ENDBRANCH  11  15
ENDBRANCH   8   9
ENDBRANCH   5   8
ENDBRANCH   1   5
BRANCH   3  34
ATOM     34  C   UNL A   1      36.744  20.177  24.984  1.00  0.00     0.118 C 
BRANCH  34  35
ATOM     35  C   UNL A   1      38.111  19.524  25.166  1.00  0.00     0.042 C 
BRANCH  35  36
ATOM     36  C   UNL A   1      39.272  20.423  25.611  1.00  0.00     0.118 C 
BRANCH  36  37
ATOM     37  N   UNL A   1      40.343  19.742  26.333  1.00  0.00    -0.352 N 
ATOM     38  C   UNL A   1      41.378  20.174  27.131  1.00  0.00     0.251 C 
ATOM     39  H   UNL A   1      40.319  18.764  26.226  1.00  0.00     0.163 HD
ATOM     40  O   UNL A   1      42.138  19.324  27.597  1.00  0.00    -0.269 OA
BRANCH  38  41
ATOM     41  C   UNL A   1      41.681  21.608  27.400  1.00  0.00     0.039 A 
ATOM     42  C   UNL A   1      41.409  22.534  26.375  1.00  0.00     0.014 A 
ATOM     43  C   UNL A   1      42.232  22.074  28.592  1.00  0.00     0.014 A 
ATOM     44  C   UNL A   1      41.613  23.906  26.563  1.00  0.00     0.010 A 
ATOM     45  C   UNL A   1      42.414  23.451  28.794  1.00  0.00     0.010 A 
ATOM     46  C   UNL A   1      42.117  24.377  27.779  1.00  0.00    -0.014 A 
BRANCH  46  47
ATOM     47  C   UNL A   1      42.484  25.811  27.935  1.00  0.00     0.031 A 
ATOM     48  C   UNL A   1      43.787  26.291  27.353  1.00  0.00     0.074 A 
ATOM     49  C   UNL A   1      41.678  26.680  28.572  1.00  0.00     0.049 A 
ATOM     50  N   UNL A   1      44.334  27.479  27.399  1.00  0.00    -0.248 NA
ATOM     51  C   UNL A   1      44.586  25.288  26.633  1.00  0.00     0.031 C 
ATOM     52  C   UNL A   1      40.384  26.357  29.168  1.00  0.00     0.029 A 
ATOM     53  N   UNL A   1      41.838  28.023  28.828  1.00  0.00    -0.354 N 
ATOM     54  C   UNL A   1      45.538  27.366  26.715  1.00  0.00     0.074 A 
ATOM     55  C   UNL A   1      45.669  25.981  26.316  1.00  0.00     0.031 C 
ATOM     56  C   UNL A   1      39.869  27.468  29.725  1.00  0.00     0.029 A 
ATOM     57  C   UNL A   1      40.808  28.576  29.549  1.00  0.00     0.049 A 
ATOM     58  H   UNL A   1      42.619  28.538  28.524  1.00  0.00     0.167 HD
ATOM     59  C   UNL A   1      46.444  28.330  26.422  1.00  0.00     0.037 A 
ATOM     60  C   UNL A   1      40.648  29.829  30.022  1.00  0.00     0.037 A 
ATOM     61  C   UNL A   1      46.320  29.708  26.816  1.00  0.00     0.049 A 
ATOM     62  C   UNL A   1      41.703  30.872  29.738  1.00  0.00     0.074 A 
ATOM     63  C   UNL A   1      47.180  30.761  26.555  1.00  0.00     0.029 A 
ATOM     64  N   UNL A   1      45.271  30.226  27.562  1.00  0.00    -0.354 N 
ATOM     65  N   UNL A   1      42.819  30.762  29.058  1.00  0.00    -0.248 NA
ATOM     66  C   UNL A   1      41.467  32.218  30.280  1.00  0.00     0.031 C 
ATOM     67  C   UNL A   1      46.681  31.902  27.191  1.00  0.00     0.029 A 
ATOM     68  C   UNL A   1      45.476  31.577  27.793  1.00  0.00     0.049 A 
ATOM     69  H   UNL A   1      44.496  29.709  27.880  1.00  0.00     0.167 HD
ATOM     70  C   UNL A   1      43.401  32.026  29.068  1.00  0.00     0.074 A 
ATOM     71  C   UNL A   1      42.501  32.892  29.800  1.00  0.00     0.031 C 
ATOM     72  C   UNL A   1      44.575  32.431  28.524  1.00  0.00     0.037 A 
BRANCH  59  73
ATOM     73  C   UNL A   1      47.660  27.915  25.644  1.00  0.00     0.064 A 
ATOM     74  C   UNL A   1      47.634  27.793  24.246  1.00  0.00     0.173 A 
ATOM     75  C   UNL A   1      48.872  27.657  26.302  1.00  0.00     0.173 A 
ATOM     76  F   UNL A   1      46.496  28.013  23.570  1.00  0.00    -0.203 F 
ATOM     77  C   UNL A   1      48.766  27.394  23.540  1.00  0.00     0.198 A 
ATOM     78  C   UNL A   1      50.010  27.292  25.590  1.00  0.00     0.198 A 
ATOM     79  F   UNL A   1      48.952  27.761  27.637  1.00  0.00    -0.203 F 
ATOM     80  F   UNL A   1      48.701  27.227  22.212  1.00  0.00    -0.200 F 
ATOM     81  C   UNL A   1      49.955  27.152  24.211  1.00  0.00     0.200 A 
ATOM     82  F   UNL A   1      51.162  27.071  26.238  1.00  0.00    -0.200 F 
ATOM     83  F   UNL A   1      51.045  26.774  23.530  1.00  0.00    -0.200 F 
ENDBRANCH  59  73
BRANCH  60  84
ATOM     84  C   UNL A   1      39.444  30.180  30.826  1.00  0.00     0.064 A 
ATOM     85  C   UNL A   1      38.347  30.833  30.246  1.00  0.00     0.173 A 
ATOM     86  C   UNL A   1      39.386  29.914  32.203  1.00  0.00     0.173 A 
ATOM     87  F   UNL A   1      38.364  31.141  28.940  1.00  0.00    -0.203 F 
ATOM     88  C   UNL A   1      37.253  31.229  31.013  1.00  0.00     0.198 A 
ATOM     89  C   UNL A   1      38.277  30.280  32.963  1.00  0.00     0.198 A 
ATOM     90  F   UNL A   1      40.410  29.299  32.812  1.00  0.00    -0.203 F 
ATOM     91  F   UNL A   1      36.247  31.908  30.444  1.00  0.00    -0.200 F 
ATOM     92  C   UNL A   1      37.216  30.948  32.370  1.00  0.00     0.200 A 
ATOM     93  F   UNL A   1      38.242  29.997  34.272  1.00  0.00    -0.200 F 
ATOM     94  F   UNL A   1      36.166  31.330  33.109  1.00  0.00    -0.200 F 
ENDBRANCH  60  84
BRANCH  72  95
ATOM     95  C   UNL A   1      44.941  33.884  28.671  1.00  0.00     0.064 A 
ATOM     96  C   UNL A   1      45.723  34.346  29.742  1.00  0.00     0.173 A 
ATOM     97  C   UNL A   1      44.520  34.825  27.716  1.00  0.00     0.173 A 
ATOM     98  F   UNL A   1      46.144  33.493  30.687  1.00  0.00    -0.203 F 
ATOM     99  C   UNL A   1      46.033  35.698  29.872  1.00  0.00     0.198 A 
ATOM    100  C   UNL A   1      44.864  36.169  27.831  1.00  0.00     0.198 A 
ATOM    101  F   UNL A   1      43.781  34.439  26.667  1.00  0.00    -0.203 F 
ATOM    102  F   UNL A   1      46.726  36.123  30.938  1.00  0.00    -0.200 F 
ATOM    103  C   UNL A   1      45.609  36.607  28.915  1.00  0.00     0.200 A 
ATOM    104  F   UNL A   1      44.469  37.043  26.894  1.00  0.00    -0.200 F 
ATOM    105  F   UNL A   1      45.909  37.906  29.044  1.00  0.00    -0.200 F 
ENDBRANCH  72  95
ENDBRANCH  46  47
ENDBRANCH  38  41
ENDBRANCH  36  37
ENDBRANCH  35  36
ENDBRANCH  34  35
ENDBRANCH   3  34
TORSDOF 17
ENDMDL
MODEL 2
REMARK VINA RESULT:     -11.8      4.584      9.454
REMARK SMILES CC[C@@H](Oc1ccccc1/C=C1\S/C(=[NH+]\c2cccc(O)c2)N(CC)C1=O)C(=O)NCCCNC(=O)c1ccc(-c2c3nc(c(-c4c(F)c(F)c(F)c(F)c4F)c4ccc([nH]4)c(-c4c(F)c(F)c(F)c(F)c4F)c4nc(c(-c5c(F)c(F)c(F)c(F)c5F)c5ccc2[nH]5)C=C4)C=C3)cc1
REMARK SMILES IDX 28 1 29 2 30 3 3 5 2 6 1 7 4 8 5 9 6 10 10 11 7 12 9 13 8 14
REMARK SMILES IDX 11 15 12 16 13 17 26 18 14 19 23 20 27 21 15 22 24 24 25 25
REMARK SMILES IDX 16 26 17 27 22 28 18 29 20 30 19 31 21 32 31 34 32 35 33 36
REMARK SMILES IDX 34 37 35 38 36 40 37 41 38 42 99 43 39 44 98 45 40 46 41 47
REMARK SMILES IDX 42 48 92 49 43 50 97 51 91 52 93 53 44 54 96 55 90 56 89 57
REMARK SMILES IDX 45 59 77 60 57 61 76 62 58 63 61 64 75 65 94 66 59 67 60 68
REMARK SMILES IDX 74 70 95 71 62 72 46 73 47 74 55 75 48 76 49 77 53 78 56 79
REMARK SMILES IDX 50 80 51 81 54 82 52 83 78 84 79 85 87 86 80 87 81 88 85 89
REMARK SMILES IDX 88 90 82 91 83 92 86 93 84 94 63 95 64 96 72 97 65 98 66 99
REMARK SMILES IDX 70 100 73 101 67 102 68 103 71 104 69 105
REMARK H PARENT 30 4 15 23 21 33 34 39 93 58 61 69
REMARK Flexibility Score: inf
ROOT
ATOM      1  C   UNL A   1      41.457  25.181  26.007  1.00  0.00     0.261 C 
ATOM      2  O   UNL A   1      41.199  26.389  25.899  1.00  0.00    -0.271 OA
ATOM      3  N   UNL A   1      42.309  24.670  25.072  1.00  0.00    -0.353 N 
ATOM      4  H   UNL A   1      42.473  25.270  24.308  1.00  0.00     0.163 HD
ENDROOT
BRANCH   1   5
ATOM      5  C   UNL A   1      40.697  24.336  27.069  1.00  0.00     0.261 C 
BRANCH   5   6
ATOM      6  C   UNL A   1      40.675  25.190  28.354  1.00  0.00     0.052 C 
ATOM      7  C   UNL A   1      39.278  25.669  28.733  1.00  0.00     0.008 C 
ENDBRANCH   5   6
BRANCH   5   8
ATOM      8  O   UNL A   1      39.367  23.966  26.712  1.00  0.00    -0.480 OA
BRANCH   8   9
ATOM      9  C   UNL A   1      39.162  22.646  26.380  1.00  0.00     0.127 A 
ATOM     10  C   UNL A   1      40.234  21.756  26.448  1.00  0.00     0.047 A 
ATOM     11  C   UNL A   1      37.943  22.240  25.790  1.00  0.00     0.018 A 
ATOM     12  C   UNL A   1      40.094  20.459  25.944  1.00  0.00     0.004 A 
ATOM     13  C   UNL A   1      37.815  20.939  25.291  1.00  0.00     0.012 A 
ATOM     14  C   UNL A   1      38.892  20.055  25.361  1.00  0.00     0.001 A 
BRANCH  11  15
ATOM     15  C   UNL A   1      36.780  23.136  25.745  1.00  0.00     0.036 C 
ATOM     16  C   UNL A   1      35.546  22.754  25.402  1.00  0.00     0.110 C 
ATOM     17  S   UNL A   1      34.980  21.159  25.211  1.00  0.00     0.007 SA
ATOM     18  C   UNL A   1      34.540  23.724  24.904  1.00  0.00     0.348 C 
ATOM     19  C   UNL A   1      33.449  21.677  24.537  1.00  0.00     0.324 C 
ATOM     20  N   UNL A   1      33.464  23.044  24.363  1.00  0.00    -0.186 N 
ATOM     21  O   UNL A   1      34.726  24.935  24.875  1.00  0.00    -0.240 OA
ATOM     22  N   UNL A   1      32.454  20.924  24.190  1.00  0.00    -0.234 N 
ATOM     23  H   UNL A   1      31.604  21.341  23.918  1.00  0.00     0.313 HD
BRANCH  20  24
ATOM     24  C   UNL A   1      32.584  23.728  23.423  1.00  0.00     0.244 C 
ATOM     25  C   UNL A   1      33.286  24.290  22.202  1.00  0.00     0.055 C 
ENDBRANCH  20  24
BRANCH  22  26
ATOM     26  C   UNL A   1      32.565  19.516  24.197  1.00  0.00     0.129 A 
ATOM     27  C   UNL A   1      32.536  18.880  22.955  1.00  0.00     0.052 A 
ATOM     28  C   UNL A   1      32.781  18.729  25.330  1.00  0.00     0.097 A 
ATOM     29  C   UNL A   1      32.863  17.530  22.816  1.00  0.00     0.008 A 
ATOM     30  C   UNL A   1      33.141  17.388  25.187  1.00  0.00     0.119 A 
ATOM     31  C   UNL A   1      33.192  16.786  23.939  1.00  0.00     0.046 A 
BRANCH  30  32
ATOM     32  O   UNL A   1      33.505  16.633  26.263  1.00  0.00    -0.508 OA
ATOM     33  H   UNL A   1      32.857  16.339  26.872  1.00  0.00     0.293 HD
ENDBRANCH  30  32
ENDBRANCH  22  26
ENDBRANCH  11  15
ENDBRANCH   8   9
ENDBRANCH   5   8
ENDBRANCH   1   5
BRANCH   3  34
ATOM     34  C   UNL A   1      43.019  23.407  24.996  1.00  0.00     0.118 C 
BRANCH  34  35
ATOM     35  C   UNL A   1      43.903  23.126  26.208  1.00  0.00     0.042 C 
BRANCH  35  36
ATOM     36  C   UNL A   1      45.406  23.393  26.064  1.00  0.00     0.118 C 
BRANCH  36  37
ATOM     37  N   UNL A   1      45.754  24.584  25.295  1.00  0.00    -0.352 N 
ATOM     38  C   UNL A   1      45.592  25.936  25.506  1.00  0.00     0.251 C 
ATOM     39  H   UNL A   1      46.200  24.377  24.442  1.00  0.00     0.163 HD
ATOM     40  O   UNL A   1      45.997  26.706  24.634  1.00  0.00    -0.269 OA
BRANCH  38  41
ATOM     41  C   UNL A   1      44.887  26.516  26.683  1.00  0.00     0.039 A 
ATOM     42  C   UNL A   1      44.643  27.903  26.677  1.00  0.00     0.014 A 
ATOM     43  C   UNL A   1      44.479  25.772  27.787  1.00  0.00     0.014 A 
ATOM     44  C   UNL A   1      43.940  28.521  27.717  1.00  0.00     0.010 A 
ATOM     45  C   UNL A   1      43.751  26.382  28.820  1.00  0.00     0.010 A 
ATOM     46  C   UNL A   1      43.485  27.763  28.800  1.00  0.00    -0.014 A 
BRANCH  46  47
ATOM     47  C   UNL A   1      42.876  28.431  29.982  1.00  0.00     0.031 A 
ATOM     48  C   UNL A   1      41.507  29.040  29.844  1.00  0.00     0.074 A 
ATOM     49  C   UNL A   1      43.516  28.490  31.166  1.00  0.00     0.049 A 
ATOM     50  N   UNL A   1      40.795  29.704  30.720  1.00  0.00    -0.248 NA
ATOM     51  C   UNL A   1      40.858  28.889  28.533  1.00  0.00     0.031 C 
ATOM     52  C   UNL A   1      44.836  27.930  31.445  1.00  0.00     0.029 A 
ATOM     53  N   UNL A   1      43.135  29.063  32.358  1.00  0.00    -0.354 N 
ATOM     54  C   UNL A   1      39.619  30.048  30.066  1.00  0.00     0.074 A 
ATOM     55  C   UNL A   1      39.737  29.572  28.705  1.00  0.00     0.031 C 
ATOM     56  C   UNL A   1      45.158  28.190  32.726  1.00  0.00     0.029 A 
ATOM     57  C   UNL A   1      44.080  28.957  33.349  1.00  0.00     0.049 A 
ATOM     58  H   UNL A   1      42.266  29.507  32.488  1.00  0.00     0.167 HD
ATOM     59  C   UNL A   1      38.527  30.682  30.557  1.00  0.00     0.037 A 
ATOM     60  C   UNL A   1      44.079  29.436  34.610  1.00  0.00     0.037 A 
ATOM     61  C   UNL A   1      38.404  31.158  31.910  1.00  0.00     0.049 A 
ATOM     62  C   UNL A   1      42.876  30.196  35.116  1.00  0.00     0.074 A 
ATOM     63  C   UNL A   1      37.331  31.801  32.504  1.00  0.00     0.029 A 
ATOM     64  N   UNL A   1      39.391  31.050  32.879  1.00  0.00    -0.354 N 
ATOM     65  N   UNL A   1      41.755  30.484  34.501  1.00  0.00    -0.248 NA
ATOM     66  C   UNL A   1      42.938  30.690  36.500  1.00  0.00     0.031 C 
ATOM     67  C   UNL A   1      37.691  32.132  33.814  1.00  0.00     0.029 A 
ATOM     68  C   UNL A   1      38.962  31.638  34.059  1.00  0.00     0.049 A 
ATOM     69  H   UNL A   1      40.266  30.619  32.747  1.00  0.00     0.167 HD
ATOM     70  C   UNL A   1      40.971  31.163  35.428  1.00  0.00     0.074 A 
ATOM     71  C   UNL A   1      41.736  31.222  36.655  1.00  0.00     0.031 C 
ATOM     72  C   UNL A   1      39.731  31.693  35.276  1.00  0.00     0.037 A 
BRANCH  59  73
ATOM     73  C   UNL A   1      37.381  30.907  29.613  1.00  0.00     0.064 A 
ATOM     74  C   UNL A   1      36.500  29.872  29.265  1.00  0.00     0.173 A 
ATOM     75  C   UNL A   1      37.148  32.177  29.066  1.00  0.00     0.173 A 
ATOM     76  F   UNL A   1      36.687  28.634  29.748  1.00  0.00    -0.203 F 
ATOM     77  C   UNL A   1      35.450  30.092  28.377  1.00  0.00     0.198 A 
ATOM     78  C   UNL A   1      36.077  32.402  28.206  1.00  0.00     0.198 A 
ATOM     79  F   UNL A   1      37.959  33.203  29.367  1.00  0.00    -0.203 F 
ATOM     80  F   UNL A   1      34.657  29.074  28.013  1.00  0.00    -0.200 F 
ATOM     81  C   UNL A   1      35.234  31.358  27.855  1.00  0.00     0.200 A 
ATOM     82  F   UNL A   1      35.863  33.629  27.712  1.00  0.00    -0.200 F 
ATOM     83  F   UNL A   1      34.220  31.571  27.006  1.00  0.00    -0.200 F 
ENDBRANCH  59  73
BRANCH  60  84
ATOM     84  C   UNL A   1      45.259  29.225  35.495  1.00  0.00     0.064 A 
ATOM     85  C   UNL A   1      45.312  28.147  36.390  1.00  0.00     0.173 A 
ATOM     86  C   UNL A   1      46.337  30.124  35.497  1.00  0.00     0.173 A 
ATOM     87  F   UNL A   1      44.294  27.275  36.451  1.00  0.00    -0.203 F 
ATOM     88  C   UNL A   1      46.381  27.991  37.271  1.00  0.00     0.198 A 
ATOM     89  C   UNL A   1      47.421  29.949  36.355  1.00  0.00     0.198 A 
ATOM     90  F   UNL A   1      46.334  31.177  34.668  1.00  0.00    -0.203 F 
ATOM     91  F   UNL A   1      46.375  26.988  38.159  1.00  0.00    -0.200 F 
ATOM     92  C   UNL A   1      47.438  28.889  37.249  1.00  0.00     0.200 A 
ATOM     93  F   UNL A   1      48.443  30.814  36.323  1.00  0.00    -0.200 F 
ATOM     94  F   UNL A   1      48.465  28.742  38.097  1.00  0.00    -0.200 F 
ENDBRANCH  60  84
BRANCH  72  95
ATOM     95  C   UNL A   1      39.111  32.357  36.475  1.00  0.00     0.064 A 
ATOM     96  C   UNL A   1      38.173  31.696  37.285  1.00  0.00     0.173 A 
ATOM     97  C   UNL A   1      39.474  33.666  36.833  1.00  0.00     0.173 A 
ATOM     98  F   UNL A   1      37.783  30.449  36.985  1.00  0.00    -0.203 F 
ATOM     99  C   UNL A   1      37.594  32.335  38.380  1.00  0.00     0.198 A 
ATOM    100  C   UNL A   1      38.920  34.287  37.949  1.00  0.00     0.198 A 
ATOM    101  F   UNL A   1      40.374  34.341  36.103  1.00  0.00    -0.203 F 
ATOM    102  F   UNL A   1      36.653  31.706  39.097  1.00  0.00    -0.200 F 
ATOM    103  C   UNL A   1      37.972  33.626  38.714  1.00  0.00     0.200 A 
ATOM    104  F   UNL A   1      39.301  35.528  38.282  1.00  0.00    -0.200 F 
ATOM    105  F   UNL A   1      37.413  34.237  39.767  1.00  0.00    -0.200 F 
ENDBRANCH  72  95
ENDBRANCH  46  47
ENDBRANCH  38  41
ENDBRANCH  36  37
ENDBRANCH  35  36
ENDBRANCH  34  35
ENDBRANCH   3  34
TORSDOF 17
ENDMDL
MODEL 3
REMARK VINA RESULT:     -11.8     10.015     15.256
REMARK SMILES CC[C@@H](Oc1ccccc1/C=C1\S/C(=[NH+]\c2cccc(O)c2)N(CC)C1=O)C(=O)NCCCNC(=O)c1ccc(-c2c3nc(c(-c4c(F)c(F)c(F)c(F)c4F)c4ccc([nH]4)c(-c4c(F)c(F)c(F)c(F)c4F)c4nc(c(-c5c(F)c(F)c(F)c(F)c5F)c5ccc2[nH]5)C=C4)C=C3)cc1
REMARK SMILES IDX 28 1 29 2 30 3 3 5 2 6 1 7 4 8 5 9 6 10 10 11 7 12 9 13 8 14
REMARK SMILES IDX 11 15 12 16 13 17 26 18 14 19 23 20 27 21 15 22 24 24 25 25
REMARK SMILES IDX 16 26 17 27 22 28 18 29 20 30 19 31 21 32 31 34 32 35 33 36
REMARK SMILES IDX 34 37 35 38 36 40 37 41 38 42 99 43 39 44 98 45 40 46 41 47
REMARK SMILES IDX 42 48 92 49 43 50 97 51 91 52 93 53 44 54 96 55 90 56 89 57
REMARK SMILES IDX 45 59 77 60 57 61 76 62 58 63 61 64 75 65 94 66 59 67 60 68
REMARK SMILES IDX 74 70 95 71 62 72 46 73 47 74 55 75 48 76 49 77 53 78 56 79
REMARK SMILES IDX 50 80 51 81 54 82 52 83 78 84 79 85 87 86 80 87 81 88 85 89
REMARK SMILES IDX 88 90 82 91 83 92 86 93 84 94 63 95 64 96 72 97 65 98 66 99
REMARK SMILES IDX 70 100 73 101 67 102 68 103 71 104 69 105
REMARK H PARENT 30 4 15 23 21 33 34 39 93 58 61 69
REMARK Flexibility Score: inf
ROOT
ATOM      1  C   UNL A   1      46.321  20.637  38.429  1.00  0.00     0.261 C 
ATOM      2  O   UNL A   1      45.964  21.234  39.455  1.00  0.00    -0.271 OA
ATOM      3  N   UNL A   1      46.033  21.261  37.250  1.00  0.00    -0.353 N 
ATOM      4  H   UNL A   1      45.410  22.018  37.338  1.00  0.00     0.163 HD
ENDROOT
BRANCH   1   5
ATOM      5  C   UNL A   1      46.910  19.203  38.551  1.00  0.00     0.261 C 
BRANCH   5   6
ATOM      6  C   UNL A   1      48.426  19.345  38.299  1.00  0.00     0.052 C 
ATOM      7  C   UNL A   1      49.264  19.174  39.562  1.00  0.00     0.008 C 
ENDBRANCH   5   6
BRANCH   5   8
ATOM      8  O   UNL A   1      46.687  18.559  39.804  1.00  0.00    -0.480 OA
BRANCH   8   9
ATOM      9  C   UNL A   1      45.654  17.651  39.855  1.00  0.00     0.127 A 
ATOM     10  C   UNL A   1      45.150  17.129  38.663  1.00  0.00     0.047 A 
ATOM     11  C   UNL A   1      44.982  17.404  41.074  1.00  0.00     0.018 A 
ATOM     12  C   UNL A   1      43.989  16.350  38.681  1.00  0.00     0.004 A 
ATOM     13  C   UNL A   1      43.821  16.622  41.079  1.00  0.00     0.012 A 
ATOM     14  C   UNL A   1      43.323  16.104  39.883  1.00  0.00     0.001 A 
BRANCH  11  15
ATOM     15  C   UNL A   1      45.510  17.899  42.352  1.00  0.00     0.036 C 
ATOM     16  C   UNL A   1      45.675  17.144  43.443  1.00  0.00     0.110 C 
ATOM     17  S   UNL A   1      45.584  15.446  43.542  1.00  0.00     0.007 SA
ATOM     18  C   UNL A   1      45.735  17.739  44.801  1.00  0.00     0.348 C 
ATOM     19  C   UNL A   1      45.659  15.444  45.292  1.00  0.00     0.324 C 
ATOM     20  N   UNL A   1      45.627  16.742  45.753  1.00  0.00    -0.186 N 
ATOM     21  O   UNL A   1      45.749  18.947  45.009  1.00  0.00    -0.240 OA
ATOM     22  N   UNL A   1      45.686  14.410  46.070  1.00  0.00    -0.234 N 
ATOM     23  H   UNL A   1      45.832  14.536  47.036  1.00  0.00     0.313 HD
BRANCH  20  24
ATOM     24  C   UNL A   1      45.208  17.086  47.106  1.00  0.00     0.244 C 
ATOM     25  C   UNL A   1      46.351  17.311  48.078  1.00  0.00     0.055 C 
ENDBRANCH  20  24
BRANCH  22  26
ATOM     26  C   UNL A   1      45.510  13.105  45.560  1.00  0.00     0.129 A 
ATOM     27  C   UNL A   1      44.195  12.667  45.399  1.00  0.00     0.052 A 
ATOM     28  C   UNL A   1      46.538  12.260  45.133  1.00  0.00     0.097 A 
ATOM     29  C   UNL A   1      43.893  11.498  44.697  1.00  0.00     0.008 A 
ATOM     30  C   UNL A   1      46.234  11.110  44.402  1.00  0.00     0.119 A 
ATOM     31  C   UNL A   1      44.920  10.728  44.173  1.00  0.00     0.046 A 
BRANCH  30  32
ATOM     32  O   UNL A   1      47.216  10.346  43.842  1.00  0.00    -0.508 OA
ATOM     33  H   UNL A   1      47.672  10.652  43.083  1.00  0.00     0.293 HD
ENDBRANCH  30  32
ENDBRANCH  22  26
ENDBRANCH  11  15
ENDBRANCH   8   9
ENDBRANCH   5   8
ENDBRANCH   1   5
BRANCH   3  34
ATOM     34  C   UNL A   1      46.478  21.014  35.891  1.00  0.00     0.118 C 
BRANCH  34  35
ATOM     35  C   UNL A   1      46.229  22.183  34.942  1.00  0.00     0.042 C 
BRANCH  35  36
ATOM     36  C   UNL A   1      47.416  23.102  34.625  1.00  0.00     0.118 C 
BRANCH  36  37
ATOM     37  N   UNL A   1      47.820  23.991  35.711  1.00  0.00    -0.352 N 
ATOM     38  C   UNL A   1      47.367  25.212  36.160  1.00  0.00     0.251 C 
ATOM     39  H   UNL A   1      48.578  23.643  36.233  1.00  0.00     0.163 HD
ATOM     40  O   UNL A   1      47.945  25.720  37.123  1.00  0.00    -0.269 OA
BRANCH  38  41
ATOM     41  C   UNL A   1      46.277  25.989  35.507  1.00  0.00     0.039 A 
ATOM     42  C   UNL A   1      44.959  25.518  35.661  1.00  0.00     0.014 A 
ATOM     43  C   UNL A   1      46.492  27.133  34.741  1.00  0.00     0.014 A 
ATOM     44  C   UNL A   1      43.871  26.217  35.126  1.00  0.00     0.010 A 
ATOM     45  C   UNL A   1      45.403  27.851  34.224  1.00  0.00     0.010 A 
ATOM     46  C   UNL A   1      44.084  27.394  34.402  1.00  0.00    -0.014 A 
BRANCH  46  47
ATOM     47  C   UNL A   1      42.955  28.059  33.697  1.00  0.00     0.031 A 
ATOM     48  C   UNL A   1      42.757  27.786  32.230  1.00  0.00     0.074 A 
ATOM     49  C   UNL A   1      42.108  28.883  34.342  1.00  0.00     0.049 A 
ATOM     50  N   UNL A   1      41.872  28.278  31.401  1.00  0.00    -0.248 NA
ATOM     51  C   UNL A   1      43.696  26.838  31.613  1.00  0.00     0.031 C 
ATOM     52  C   UNL A   1      42.172  29.223  35.762  1.00  0.00     0.029 A 
ATOM     53  N   UNL A   1      41.025  29.593  33.876  1.00  0.00    -0.354 N 
ATOM     54  C   UNL A   1      42.148  27.700  30.169  1.00  0.00     0.074 A 
ATOM     55  C   UNL A   1      43.317  26.867  30.345  1.00  0.00     0.031 C 
ATOM     56  C   UNL A   1      41.175  30.079  36.051  1.00  0.00     0.029 A 
ATOM     57  C   UNL A   1      40.418  30.370  34.832  1.00  0.00     0.049 A 
ATOM     58  H   UNL A   1      40.715  29.548  32.943  1.00  0.00     0.167 HD
ATOM     59  C   UNL A   1      41.476  27.828  28.999  1.00  0.00     0.037 A 
ATOM     60  C   UNL A   1      39.381  31.225  34.732  1.00  0.00     0.037 A 
ATOM     61  C   UNL A   1      40.313  28.656  28.817  1.00  0.00     0.049 A 
ATOM     62  C   UNL A   1      38.688  31.402  33.403  1.00  0.00     0.074 A 
ATOM     63  C   UNL A   1      39.556  28.841  27.672  1.00  0.00     0.029 A 
ATOM     64  N   UNL A   1      39.740  29.443  29.806  1.00  0.00    -0.354 N 
ATOM     65  N   UNL A   1      38.934  30.822  32.253  1.00  0.00    -0.248 NA
ATOM     66  C   UNL A   1      37.562  32.348  33.362  1.00  0.00     0.031 C 
ATOM     67  C   UNL A   1      38.561  29.783  27.953  1.00  0.00     0.029 A 
ATOM     68  C   UNL A   1      38.655  30.136  29.290  1.00  0.00     0.049 A 
ATOM     69  H   UNL A   1      40.057  29.500  30.736  1.00  0.00     0.167 HD
ATOM     70  C   UNL A   1      37.981  31.309  31.364  1.00  0.00     0.074 A 
ATOM     71  C   UNL A   1      37.136  32.213  32.116  1.00  0.00     0.031 C 
ATOM     72  C   UNL A   1      37.821  31.035  30.045  1.00  0.00     0.037 A 
BRANCH  59  73
ATOM     73  C   UNL A   1      41.999  27.061  27.819  1.00  0.00     0.064 A 
ATOM     74  C   UNL A   1      41.570  25.755  27.541  1.00  0.00     0.173 A 
ATOM     75  C   UNL A   1      42.926  27.647  26.943  1.00  0.00     0.173 A 
ATOM     76  F   UNL A   1      40.696  25.143  28.356  1.00  0.00    -0.203 F 
ATOM     77  C   UNL A   1      42.074  25.050  26.451  1.00  0.00     0.198 A 
ATOM     78  C   UNL A   1      43.402  26.952  25.835  1.00  0.00     0.198 A 
ATOM     79  F   UNL A   1      43.369  28.894  27.162  1.00  0.00    -0.203 F 
ATOM     80  F   UNL A   1      41.693  23.783  26.239  1.00  0.00    -0.200 F 
ATOM     81  C   UNL A   1      42.983  25.652  25.594  1.00  0.00     0.200 A 
ATOM     82  F   UNL A   1      44.271  27.539  25.001  1.00  0.00    -0.200 F 
ATOM     83  F   UNL A   1      43.464  24.976  24.542  1.00  0.00    -0.200 F 
ENDBRANCH  59  73
BRANCH  60  84
ATOM     84  C   UNL A   1      38.926  31.997  35.923  1.00  0.00     0.064 A 
ATOM     85  C   UNL A   1      39.335  33.323  36.130  1.00  0.00     0.173 A 
ATOM     86  C   UNL A   1      38.111  31.409  36.903  1.00  0.00     0.173 A 
ATOM     87  F   UNL A   1      40.140  33.922  35.241  1.00  0.00    -0.203 F 
ATOM     88  C   UNL A   1      38.971  34.019  37.281  1.00  0.00     0.198 A 
ATOM     89  C   UNL A   1      37.721  32.118  38.037  1.00  0.00     0.198 A 
ATOM     90  F   UNL A   1      37.698  30.142  36.760  1.00  0.00    -0.203 F 
ATOM     91  F   UNL A   1      39.429  35.263  37.483  1.00  0.00    -0.200 F 
ATOM     92  C   UNL A   1      38.160  33.419  38.231  1.00  0.00     0.200 A 
ATOM     93  F   UNL A   1      36.928  31.536  38.948  1.00  0.00    -0.200 F 
ATOM     94  F   UNL A   1      37.811  34.087  39.339  1.00  0.00    -0.200 F 
ENDBRANCH  60  84
BRANCH  72  95
ATOM     95  C   UNL A   1      36.672  31.697  29.335  1.00  0.00     0.064 A 
ATOM     96  C   UNL A   1      36.670  33.072  29.051  1.00  0.00     0.173 A 
ATOM     97  C   UNL A   1      35.564  30.942  28.915  1.00  0.00     0.173 A 
ATOM     98  F   UNL A   1      37.697  33.843  29.437  1.00  0.00    -0.203 F 
ATOM     99  C   UNL A   1      35.586  33.671  28.411  1.00  0.00     0.198 A 
ATOM    100  C   UNL A   1      34.500  31.539  28.243  1.00  0.00     0.198 A 
ATOM    101  F   UNL A   1      35.517  29.623  29.149  1.00  0.00    -0.203 F 
ATOM    102  F   UNL A   1      35.580  34.996  28.210  1.00  0.00    -0.200 F 
ATOM    103  C   UNL A   1      34.506  32.904  28.003  1.00  0.00     0.200 A 
ATOM    104  F   UNL A   1      33.465  30.792  27.832  1.00  0.00    -0.200 F 
ATOM    105  F   UNL A   1      33.465  33.483  27.388  1.00  0.00    -0.200 F 
ENDBRANCH  72  95
ENDBRANCH  46  47
ENDBRANCH  38  41
ENDBRANCH  36  37
ENDBRANCH  35  36
ENDBRANCH  34  35
ENDBRANCH   3  34
TORSDOF 17
ENDMDL
