MODEL 1
REMARK VINA RESULT:     -12.6      0.000      0.000
REMARK SMILES O=C(NCCCNC(=O)c1ccc(COc2cccc(C(F)(F)F)c2)nc1)c1ccc(-c2c3nc(c(-c4c(F)c(F)c(F)c(F)c4F)c4ccc([nH]4)c(-c4c(F)c(F)c(F)c(F)c4F)c4nc(c(-c5c(F)c(F)c(F)c(F)c5F)c5ccc2[nH]5)C=C4)C=C3)cc1
REMARK SMILES IDX 6 1 5 2 4 3 3 4 1 5 2 6 28 8 29 9 90 10 30 11 89 12 31 13
REMARK SMILES IDX 32 14 33 15 83 16 34 17 88 18 82 19 84 20 35 21 87 22 81 23
REMARK SMILES IDX 80 24 36 26 68 27 48 28 67 29 49 30 52 31 66 32 85 33 50 34
REMARK SMILES IDX 51 35 65 37 86 38 53 39 37 40 38 41 46 42 39 43 40 44 44 45
REMARK SMILES IDX 47 46 41 47 42 48 45 49 43 50 69 51 70 52 78 53 71 54 72 55
REMARK SMILES IDX 76 56 79 57 73 58 74 59 77 60 75 61 54 62 55 63 63 64 56 65
REMARK SMILES IDX 57 66 61 67 64 68 58 69 59 70 62 71 60 72 7 73 8 74 9 76
REMARK SMILES IDX 10 77 11 78 27 79 12 80 26 81 13 82 14 83 15 84 16 85 17 86
REMARK SMILES IDX 25 87 18 88 20 89 19 90 21 91 22 92 23 93 24 94
REMARK H PARENT 3 7 84 25 52 36 7 75
REMARK Flexibility Score: inf
ROOT
ATOM      1  C   UNL A   1      31.490  30.814  25.984  1.00  0.00     0.118 C 
ENDROOT
BRANCH   1   2
ATOM      2  C   UNL A   1      31.323  32.225  26.516  1.00  0.00     0.042 C 
BRANCH   2   3
ATOM      3  C   UNL A   1      32.606  32.773  27.113  1.00  0.00     0.118 C 
BRANCH   3   4
ATOM      4  N   UNL A   1      32.432  34.109  27.674  1.00  0.00    -0.352 N 
ATOM      5  O   UNL A   1      32.649  35.778  29.175  1.00  0.00    -0.269 OA
ATOM      6  C   UNL A   1      33.087  34.730  28.711  1.00  0.00     0.251 C 
ATOM      7  H   UNL A   1      31.735  34.652  27.240  1.00  0.00     0.163 HD
BRANCH   6   8
ATOM      8  C   UNL A   1      34.309  34.123  29.274  1.00  0.00     0.039 A 
ATOM      9  C   UNL A   1      34.210  33.139  30.255  1.00  0.00     0.014 A 
ATOM     10  C   UNL A   1      35.566  34.531  28.819  1.00  0.00     0.014 A 
ATOM     11  C   UNL A   1      35.344  32.719  30.926  1.00  0.00     0.010 A 
ATOM     12  C   UNL A   1      36.721  33.993  29.397  1.00  0.00     0.010 A 
ATOM     13  C   UNL A   1      36.618  33.105  30.478  1.00  0.00    -0.014 A 
BRANCH  13  14
ATOM     14  C   UNL A   1      37.800  32.465  31.110  1.00  0.00     0.031 A 
ATOM     15  C   UNL A   1      38.244  32.824  32.498  1.00  0.00     0.074 A 
ATOM     16  C   UNL A   1      38.423  31.486  30.424  1.00  0.00     0.049 A 
ATOM     17  N   UNL A   1      39.215  32.304  33.208  1.00  0.00    -0.248 NA
ATOM     18  C   UNL A   1      37.519  33.908  33.181  1.00  0.00     0.031 C 
ATOM     19  C   UNL A   1      38.084  31.071  29.058  1.00  0.00     0.029 A 
ATOM     20  N   UNL A   1      39.438  30.639  30.781  1.00  0.00    -0.354 N 
ATOM     21  C   UNL A   1      39.225  32.998  34.410  1.00  0.00     0.074 A 
ATOM     22  C   UNL A   1      38.185  34.001  34.325  1.00  0.00     0.031 C 
ATOM     23  C   UNL A   1      38.820  30.004  28.725  1.00  0.00     0.029 A 
ATOM     24  C   UNL A   1      39.746  29.716  29.811  1.00  0.00     0.049 A 
ATOM     25  H   UNL A   1      39.901  30.686  31.649  1.00  0.00     0.167 HD
ATOM     26  C   UNL A   1      40.025  32.804  35.486  1.00  0.00     0.037 A 
ATOM     27  C   UNL A   1      40.687  28.756  29.785  1.00  0.00     0.037 A 
ATOM     28  C   UNL A   1      41.055  31.797  35.560  1.00  0.00     0.049 A 
ATOM     29  C   UNL A   1      41.571  28.588  30.985  1.00  0.00     0.074 A 
ATOM     30  C   UNL A   1      41.912  31.513  36.609  1.00  0.00     0.029 A 
ATOM     31  N   UNL A   1      41.366  30.906  34.542  1.00  0.00    -0.354 N 
ATOM     32  N   UNL A   1      41.553  29.237  32.124  1.00  0.00    -0.248 NA
ATOM     33  C   UNL A   1      42.610  27.555  30.895  1.00  0.00     0.031 C 
ATOM     34  C   UNL A   1      42.772  30.486  36.210  1.00  0.00     0.029 A 
ATOM     35  C   UNL A   1      42.416  30.088  34.932  1.00  0.00     0.049 A 
ATOM     36  H   UNL A   1      40.910  30.861  33.670  1.00  0.00     0.167 HD
ATOM     37  C   UNL A   1      42.569  28.686  32.889  1.00  0.00     0.074 A 
ATOM     38  C   UNL A   1      43.156  27.623  32.100  1.00  0.00     0.031 C 
ATOM     39  C   UNL A   1      42.990  29.038  34.130  1.00  0.00     0.037 A 
BRANCH  26  40
ATOM     40  C   UNL A   1      39.834  33.699  36.677  1.00  0.00     0.064 A 
ATOM     41  C   UNL A   1      40.465  34.949  36.766  1.00  0.00     0.173 A 
ATOM     42  C   UNL A   1      38.947  33.340  37.704  1.00  0.00     0.173 A 
ATOM     43  F   UNL A   1      41.331  35.338  35.818  1.00  0.00    -0.203 F 
ATOM     44  C   UNL A   1      40.224  35.799  37.845  1.00  0.00     0.198 A 
ATOM     45  C   UNL A   1      38.688  34.202  38.766  1.00  0.00     0.198 A 
ATOM     46  F   UNL A   1      38.313  32.158  37.666  1.00  0.00    -0.203 F 
ATOM     47  F   UNL A   1      40.863  36.975  37.924  1.00  0.00    -0.200 F 
ATOM     48  C   UNL A   1      39.329  35.429  38.837  1.00  0.00     0.200 A 
ATOM     49  F   UNL A   1      37.811  33.850  39.716  1.00  0.00    -0.200 F 
ATOM     50  F   UNL A   1      39.085  36.256  39.864  1.00  0.00    -0.200 F 
ENDBRANCH  26  40
BRANCH  27  51
ATOM     51  C   UNL A   1      40.858  27.912  28.574  1.00  0.00     0.064 A 
ATOM     52  C   UNL A   1      41.706  28.302  27.529  1.00  0.00     0.173 A 
ATOM     53  C   UNL A   1      40.162  26.702  28.432  1.00  0.00     0.173 A 
ATOM     54  F   UNL A   1      42.383  29.457  27.610  1.00  0.00    -0.203 F 
ATOM     55  C   UNL A   1      41.827  27.529  26.375  1.00  0.00     0.198 A 
ATOM     56  C   UNL A   1      40.314  25.911  27.297  1.00  0.00     0.198 A 
ATOM     57  F   UNL A   1      39.344  26.278  29.406  1.00  0.00    -0.203 F 
ATOM     58  F   UNL A   1      42.597  27.956  25.366  1.00  0.00    -0.200 F 
ATOM     59  C   UNL A   1      41.136  26.331  26.263  1.00  0.00     0.200 A 
ATOM     60  F   UNL A   1      39.662  24.744  27.204  1.00  0.00    -0.200 F 
ATOM     61  F   UNL A   1      41.253  25.589  25.154  1.00  0.00    -0.200 F 
ENDBRANCH  27  51
BRANCH  39  62
ATOM     62  C   UNL A   1      44.125  28.243  34.704  1.00  0.00     0.064 A 
ATOM     63  C   UNL A   1      43.902  27.059  35.425  1.00  0.00     0.173 A 
ATOM     64  C   UNL A   1      45.450  28.672  34.540  1.00  0.00     0.173 A 
ATOM     65  F   UNL A   1      42.652  26.615  35.626  1.00  0.00    -0.203 F 
ATOM     66  C   UNL A   1      44.961  26.359  35.996  1.00  0.00     0.198 A 
ATOM     67  C   UNL A   1      46.509  27.950  35.083  1.00  0.00     0.198 A 
ATOM     68  F   UNL A   1      45.718  29.794  33.855  1.00  0.00    -0.203 F 
ATOM     69  F   UNL A   1      44.719  25.271  36.740  1.00  0.00    -0.200 F 
ATOM     70  C   UNL A   1      46.264  26.803  35.820  1.00  0.00     0.200 A 
ATOM     71  F   UNL A   1      47.768  28.373  34.900  1.00  0.00    -0.200 F 
ATOM     72  F   UNL A   1      47.282  26.130  36.375  1.00  0.00    -0.200 F 
ENDBRANCH  39  62
ENDBRANCH  13  14
ENDBRANCH   6   8
ENDBRANCH   3   4
ENDBRANCH   2   3
ENDBRANCH   1   2
BRANCH   1  73
ATOM     73  N   UNL A   1      31.680  29.858  27.066  1.00  0.00    -0.352 N 
ATOM     74  C   UNL A   1      31.791  28.496  26.993  1.00  0.00     0.252 C 
ATOM     75  H   UNL A   1      31.735  30.243  27.971  1.00  0.00     0.163 HD
ATOM     76  O   UNL A   1      31.635  27.808  28.003  1.00  0.00    -0.269 OA
BRANCH  74  77
ATOM     77  C   UNL A   1      32.096  27.857  25.709  1.00  0.00     0.058 A 
ATOM     78  C   UNL A   1      33.407  27.588  25.317  1.00  0.00     0.017 A 
ATOM     79  C   UNL A   1      31.063  27.438  24.890  1.00  0.00     0.125 A 
ATOM     80  C   UNL A   1      33.644  26.955  24.104  1.00  0.00     0.028 A 
ATOM     81  N   UNL A   1      31.263  26.795  23.715  1.00  0.00    -0.257 NA
ATOM     82  C   UNL A   1      32.548  26.531  23.352  1.00  0.00     0.078 A 
BRANCH  82  83
ATOM     83  C   UNL A   1      32.767  25.541  22.225  1.00  0.00     0.285 C 
BRANCH  83  84
ATOM     84  O   UNL A   1      33.997  24.792  22.343  1.00  0.00    -0.487 OA
BRANCH  84  85
ATOM     85  C   UNL A   1      33.860  23.548  22.900  1.00  0.00     0.120 A 
ATOM     86  C   UNL A   1      32.629  22.911  22.783  1.00  0.00     0.046 A 
ATOM     87  C   UNL A   1      34.859  22.968  23.683  1.00  0.00     0.059 A 
ATOM     88  C   UNL A   1      32.424  21.673  23.396  1.00  0.00     0.004 A 
ATOM     89  C   UNL A   1      34.698  21.693  24.242  1.00  0.00     0.059 A 
ATOM     90  C   UNL A   1      33.458  21.057  24.107  1.00  0.00     0.013 A 
BRANCH  89  91
ATOM     91  C   UNL A   1      35.835  21.036  24.984  1.00  0.00     0.416 C 
ATOM     92  F   UNL A   1      35.796  19.680  24.921  1.00  0.00    -0.166 F 
ATOM     93  F   UNL A   1      37.054  21.401  24.493  1.00  0.00    -0.166 F 
ATOM     94  F   UNL A   1      35.872  21.355  26.309  1.00  0.00    -0.166 F 
ENDBRANCH  89  91
ENDBRANCH  84  85
ENDBRANCH  83  84
ENDBRANCH  82  83
ENDBRANCH  74  77
ENDBRANCH   1  73
TORSDOF 14
ENDMDL
MODEL 2
REMARK VINA RESULT:     -12.6      0.307      1.623
REMARK SMILES O=C(NCCCNC(=O)c1ccc(COc2cccc(C(F)(F)F)c2)nc1)c1ccc(-c2c3nc(c(-c4c(F)c(F)c(F)c(F)c4F)c4ccc([nH]4)c(-c4c(F)c(F)c(F)c(F)c4F)c4nc(c(-c5c(F)c(F)c(F)c(F)c5F)c5ccc2[nH]5)C=C4)C=C3)cc1
REMARK SMILES IDX 6 1 5 2 4 3 3 4 1 5 2 6 28 8 29 9 90 10 30 11 89 12 31 13
REMARK SMILES IDX 32 14 33 15 83 16 34 17 88 18 82 19 84 20 35 21 87 22 81 23
REMARK SMILES IDX 80 24 36 26 68 27 48 28 67 29 49 30 52 31 66 32 85 33 50 34
REMARK SMILES IDX 51 35 65 37 86 38 53 39 37 40 38 41 46 42 39 43 40 44 44 45
REMARK SMILES IDX 47 46 41 47 42 48 45 49 43 50 69 51 70 52 78 53 71 54 72 55
REMARK SMILES IDX 76 56 79 57 73 58 74 59 77 60 75 61 54 62 55 63 63 64 56 65
REMARK SMILES IDX 57 66 61 67 64 68 58 69 59 70 62 71 60 72 7 73 8 74 9 76
REMARK SMILES IDX 10 77 11 78 27 79 12 80 26 81 13 82 14 83 15 84 16 85 17 86
REMARK SMILES IDX 25 87 18 88 20 89 19 90 21 91 22 92 23 93 24 94
REMARK H PARENT 3 7 84 25 52 36 7 75
REMARK Flexibility Score: inf
ROOT
ATOM      1  C   UNL A   1      31.438  30.828  25.961  1.00  0.00     0.118 C 
ENDROOT
BRANCH   1   2
ATOM      2  C   UNL A   1      31.278  32.236  26.503  1.00  0.00     0.042 C 
BRANCH   2   3
ATOM      3  C   UNL A   1      32.563  32.772  27.109  1.00  0.00     0.118 C 
BRANCH   3   4
ATOM      4  N   UNL A   1      32.405  34.122  27.642  1.00  0.00    -0.352 N 
ATOM      5  O   UNL A   1      32.641  35.818  29.109  1.00  0.00    -0.269 OA
ATOM      6  C   UNL A   1      33.066  34.755  28.668  1.00  0.00     0.251 C 
ATOM      7  H   UNL A   1      31.717  34.666  27.195  1.00  0.00     0.163 HD
BRANCH   6   8
ATOM      8  C   UNL A   1      34.278  34.143  29.247  1.00  0.00     0.039 A 
ATOM      9  C   UNL A   1      34.161  33.103  30.167  1.00  0.00     0.014 A 
ATOM     10  C   UNL A   1      35.542  34.602  28.869  1.00  0.00     0.014 A 
ATOM     11  C   UNL A   1      35.277  32.670  30.860  1.00  0.00     0.010 A 
ATOM     12  C   UNL A   1      36.685  34.057  29.464  1.00  0.00     0.010 A 
ATOM     13  C   UNL A   1      36.559  33.108  30.489  1.00  0.00    -0.014 A 
BRANCH  13  14
ATOM     14  C   UNL A   1      37.729  32.458  31.133  1.00  0.00     0.031 A 
ATOM     15  C   UNL A   1      38.160  32.812  32.526  1.00  0.00     0.074 A 
ATOM     16  C   UNL A   1      38.352  31.476  30.452  1.00  0.00     0.049 A 
ATOM     17  N   UNL A   1      39.119  32.284  33.247  1.00  0.00    -0.248 NA
ATOM     18  C   UNL A   1      37.436  33.900  33.202  1.00  0.00     0.031 C 
ATOM     19  C   UNL A   1      38.025  31.064  29.083  1.00  0.00     0.029 A 
ATOM     20  N   UNL A   1      39.357  30.620  30.820  1.00  0.00    -0.354 N 
ATOM     21  C   UNL A   1      39.121  32.977  34.449  1.00  0.00     0.074 A 
ATOM     22  C   UNL A   1      38.089  33.987  34.354  1.00  0.00     0.031 C 
ATOM     23  C   UNL A   1      38.757  29.992  28.756  1.00  0.00     0.029 A 
ATOM     24  C   UNL A   1      39.668  29.696  29.852  1.00  0.00     0.049 A 
ATOM     25  H   UNL A   1      39.810  30.662  31.693  1.00  0.00     0.167 HD
ATOM     26  C   UNL A   1      39.907  32.775  35.534  1.00  0.00     0.037 A 
ATOM     27  C   UNL A   1      40.602  28.729  29.836  1.00  0.00     0.037 A 
ATOM     28  C   UNL A   1      40.928  31.760  35.618  1.00  0.00     0.049 A 
ATOM     29  C   UNL A   1      41.472  28.553  31.045  1.00  0.00     0.074 A 
ATOM     30  C   UNL A   1      41.772  31.469  36.677  1.00  0.00     0.029 A 
ATOM     31  N   UNL A   1      41.245  30.869  34.602  1.00  0.00    -0.354 N 
ATOM     32  N   UNL A   1      41.446  29.200  32.185  1.00  0.00    -0.248 NA
ATOM     33  C   UNL A   1      42.504  27.513  30.965  1.00  0.00     0.031 C 
ATOM     34  C   UNL A   1      42.629  30.436  36.286  1.00  0.00     0.029 A 
ATOM     35  C   UNL A   1      42.284  30.042  35.003  1.00  0.00     0.049 A 
ATOM     36  H   UNL A   1      40.798  30.828  33.726  1.00  0.00     0.167 HD
ATOM     37  C   UNL A   1      42.449  28.642  32.961  1.00  0.00     0.074 A 
ATOM     38  C   UNL A   1      43.037  27.574  32.177  1.00  0.00     0.031 C 
ATOM     39  C   UNL A   1      42.859  28.988  34.206  1.00  0.00     0.037 A 
BRANCH  26  40
ATOM     40  C   UNL A   1      39.709  33.670  36.724  1.00  0.00     0.064 A 
ATOM     41  C   UNL A   1      40.295  34.944  36.792  1.00  0.00     0.173 A 
ATOM     42  C   UNL A   1      38.860  33.285  37.772  1.00  0.00     0.173 A 
ATOM     43  F   UNL A   1      41.124  35.359  35.822  1.00  0.00    -0.203 F 
ATOM     44  C   UNL A   1      40.047  35.791  37.870  1.00  0.00     0.198 A 
ATOM     45  C   UNL A   1      38.593  34.144  38.835  1.00  0.00     0.198 A 
ATOM     46  F   UNL A   1      38.269  32.080  37.755  1.00  0.00    -0.203 F 
ATOM     47  F   UNL A   1      40.643  36.991  37.928  1.00  0.00    -0.200 F 
ATOM     48  C   UNL A   1      39.189  35.395  38.885  1.00  0.00     0.200 A 
ATOM     49  F   UNL A   1      37.751  33.765  39.807  1.00  0.00    -0.200 F 
ATOM     50  F   UNL A   1      38.937  36.219  39.912  1.00  0.00    -0.200 F 
ENDBRANCH  26  40
BRANCH  27  51
ATOM     51  C   UNL A   1      40.781  27.886  28.626  1.00  0.00     0.064 A 
ATOM     52  C   UNL A   1      40.103  26.668  28.480  1.00  0.00     0.173 A 
ATOM     53  C   UNL A   1      41.647  28.277  27.593  1.00  0.00     0.173 A 
ATOM     54  F   UNL A   1      39.275  26.242  29.445  1.00  0.00    -0.203 F 
ATOM     55  C   UNL A   1      40.309  25.859  27.364  1.00  0.00     0.198 A 
ATOM     56  C   UNL A   1      41.822  27.488  26.460  1.00  0.00     0.198 A 
ATOM     57  F   UNL A   1      42.314  29.437  27.678  1.00  0.00    -0.203 F 
ATOM     58  F   UNL A   1      39.697  24.671  27.279  1.00  0.00    -0.200 F 
ATOM     59  C   UNL A   1      41.164  26.273  26.352  1.00  0.00     0.200 A 
ATOM     60  F   UNL A   1      42.631  27.903  25.475  1.00  0.00    -0.200 F 
ATOM     61  F   UNL A   1      41.361  25.495  25.279  1.00  0.00    -0.200 F 
ENDBRANCH  27  51
BRANCH  39  62
ATOM     62  C   UNL A   1      43.982  28.184  34.793  1.00  0.00     0.064 A 
ATOM     63  C   UNL A   1      45.322  28.565  34.626  1.00  0.00     0.173 A 
ATOM     64  C   UNL A   1      43.716  27.016  35.522  1.00  0.00     0.173 A 
ATOM     65  F   UNL A   1      45.631  29.664  33.921  1.00  0.00    -0.203 F 
ATOM     66  C   UNL A   1      46.356  27.782  35.133  1.00  0.00     0.198 A 
ATOM     67  C   UNL A   1      44.751  26.256  36.057  1.00  0.00     0.198 A 
ATOM     68  F   UNL A   1      42.451  26.612  35.715  1.00  0.00    -0.203 F 
ATOM     69  F   UNL A   1      47.630  28.127  34.900  1.00  0.00    -0.200 F 
ATOM     70  C   UNL A   1      46.069  26.631  35.851  1.00  0.00     0.200 A 
ATOM     71  F   UNL A   1      44.472  25.151  36.763  1.00  0.00    -0.200 F 
ATOM     72  F   UNL A   1      47.066  25.876  36.334  1.00  0.00    -0.200 F 
ENDBRANCH  39  62
ENDBRANCH  13  14
ENDBRANCH   6   8
ENDBRANCH   3   4
ENDBRANCH   2   3
ENDBRANCH   1   2
BRANCH   1  73
ATOM     73  N   UNL A   1      31.657  29.869  27.034  1.00  0.00    -0.352 N 
ATOM     74  C   UNL A   1      31.794  28.510  26.951  1.00  0.00     0.252 C 
ATOM     75  H   UNL A   1      31.711  30.249  27.942  1.00  0.00     0.163 HD
ATOM     76  O   UNL A   1      31.660  27.812  27.957  1.00  0.00    -0.269 OA
BRANCH  74  77
ATOM     77  C   UNL A   1      32.101  27.887  25.660  1.00  0.00     0.058 A 
ATOM     78  C   UNL A   1      33.412  27.748  25.206  1.00  0.00     0.017 A 
ATOM     79  C   UNL A   1      31.078  27.351  24.897  1.00  0.00     0.125 A 
ATOM     80  C   UNL A   1      33.654  27.124  23.989  1.00  0.00     0.028 A 
ATOM     81  N   UNL A   1      31.286  26.715  23.720  1.00  0.00    -0.257 NA
ATOM     82  C   UNL A   1      32.573  26.579  23.296  1.00  0.00     0.078 A 
BRANCH  82  83
ATOM     83  C   UNL A   1      32.838  25.600  22.170  1.00  0.00     0.285 C 
BRANCH  83  84
ATOM     84  O   UNL A   1      34.034  24.811  22.358  1.00  0.00    -0.487 OA
BRANCH  84  85
ATOM     85  C   UNL A   1      33.833  23.602  22.971  1.00  0.00     0.120 A 
ATOM     86  C   UNL A   1      32.751  22.832  22.561  1.00  0.00     0.046 A 
ATOM     87  C   UNL A   1      34.592  23.188  24.067  1.00  0.00     0.059 A 
ATOM     88  C   UNL A   1      32.469  21.626  23.207  1.00  0.00     0.004 A 
ATOM     89  C   UNL A   1      34.371  21.947  24.678  1.00  0.00     0.059 A 
ATOM     90  C   UNL A   1      33.284  21.176  24.248  1.00  0.00     0.013 A 
BRANCH  89  91
ATOM     91  C   UNL A   1      35.278  21.468  25.784  1.00  0.00     0.416 C 
ATOM     92  F   UNL A   1      36.050  20.412  25.417  1.00  0.00    -0.166 F 
ATOM     93  F   UNL A   1      36.142  22.438  26.202  1.00  0.00    -0.166 F 
ATOM     94  F   UNL A   1      34.607  21.079  26.905  1.00  0.00    -0.166 F 
ENDBRANCH  89  91
ENDBRANCH  84  85
ENDBRANCH  83  84
ENDBRANCH  82  83
ENDBRANCH  74  77
ENDBRANCH   1  73
TORSDOF 14
ENDMDL
MODEL 3
REMARK VINA RESULT:     -12.5      0.208      1.247
REMARK SMILES O=C(NCCCNC(=O)c1ccc(COc2cccc(C(F)(F)F)c2)nc1)c1ccc(-c2c3nc(c(-c4c(F)c(F)c(F)c(F)c4F)c4ccc([nH]4)c(-c4c(F)c(F)c(F)c(F)c4F)c4nc(c(-c5c(F)c(F)c(F)c(F)c5F)c5ccc2[nH]5)C=C4)C=C3)cc1
REMARK SMILES IDX 6 1 5 2 4 3 3 4 1 5 2 6 28 8 29 9 90 10 30 11 89 12 31 13
REMARK SMILES IDX 32 14 33 15 83 16 34 17 88 18 82 19 84 20 35 21 87 22 81 23
REMARK SMILES IDX 80 24 36 26 68 27 48 28 67 29 49 30 52 31 66 32 85 33 50 34
REMARK SMILES IDX 51 35 65 37 86 38 53 39 37 40 38 41 46 42 39 43 40 44 44 45
REMARK SMILES IDX 47 46 41 47 42 48 45 49 43 50 69 51 70 52 78 53 71 54 72 55
REMARK SMILES IDX 76 56 79 57 73 58 74 59 77 60 75 61 54 62 55 63 63 64 56 65
REMARK SMILES IDX 57 66 61 67 64 68 58 69 59 70 62 71 60 72 7 73 8 74 9 76
REMARK SMILES IDX 10 77 11 78 27 79 12 80 26 81 13 82 14 83 15 84 16 85 17 86
REMARK SMILES IDX 25 87 18 88 20 89 19 90 21 91 22 92 23 93 24 94
REMARK H PARENT 3 7 84 25 52 36 7 75
REMARK Flexibility Score: inf
ROOT
ATOM      1  C   UNL A   1      31.521  30.873  25.965  1.00  0.00     0.118 C 
ENDROOT
BRANCH   1   2
ATOM      2  C   UNL A   1      31.342  32.280  26.505  1.00  0.00     0.042 C 
BRANCH   2   3
ATOM      3  C   UNL A   1      32.586  32.791  27.209  1.00  0.00     0.118 C 
BRANCH   3   4
ATOM      4  N   UNL A   1      32.457  34.184  27.625  1.00  0.00    -0.352 N 
ATOM      5  O   UNL A   1      32.676  35.980  28.971  1.00  0.00    -0.269 OA
ATOM      6  C   UNL A   1      33.079  34.869  28.641  1.00  0.00     0.251 C 
ATOM      7  H   UNL A   1      31.824  34.718  27.094  1.00  0.00     0.163 HD
BRANCH   6   8
ATOM      8  C   UNL A   1      34.223  34.257  29.345  1.00  0.00     0.039 A 
ATOM      9  C   UNL A   1      35.525  34.552  28.948  1.00  0.00     0.014 A 
ATOM     10  C   UNL A   1      34.001  33.384  30.415  1.00  0.00     0.014 A 
ATOM     11  C   UNL A   1      36.583  33.828  29.466  1.00  0.00     0.010 A 
ATOM     12  C   UNL A   1      35.086  32.764  31.041  1.00  0.00     0.010 A 
ATOM     13  C   UNL A   1      36.386  32.957  30.550  1.00  0.00    -0.014 A 
BRANCH  13  14
ATOM     14  C   UNL A   1      37.586  32.363  31.191  1.00  0.00     0.031 A 
ATOM     15  C   UNL A   1      38.012  32.747  32.578  1.00  0.00     0.074 A 
ATOM     16  C   UNL A   1      38.245  31.401  30.514  1.00  0.00     0.049 A 
ATOM     17  N   UNL A   1      38.997  32.265  33.296  1.00  0.00    -0.248 NA
ATOM     18  C   UNL A   1      37.248  33.809  33.250  1.00  0.00     0.031 C 
ATOM     19  C   UNL A   1      37.926  30.964  29.151  1.00  0.00     0.029 A 
ATOM     20  N   UNL A   1      39.287  30.591  30.882  1.00  0.00    -0.354 N 
ATOM     21  C   UNL A   1      38.978  32.967  34.493  1.00  0.00     0.074 A 
ATOM     22  C   UNL A   1      37.905  33.933  34.397  1.00  0.00     0.031 C 
ATOM     23  C   UNL A   1      38.700  29.921  28.828  1.00  0.00     0.029 A 
ATOM     24  C   UNL A   1      39.630  29.673  29.920  1.00  0.00     0.049 A 
ATOM     25  H   UNL A   1      39.744  30.660  31.752  1.00  0.00     0.167 HD
ATOM     26  C   UNL A   1      39.780  32.808  35.573  1.00  0.00     0.037 A 
ATOM     27  C   UNL A   1      40.604  28.745  29.905  1.00  0.00     0.037 A 
ATOM     28  C   UNL A   1      40.843  31.837  35.659  1.00  0.00     0.049 A 
ATOM     29  C   UNL A   1      41.488  28.615  31.109  1.00  0.00     0.074 A 
ATOM     30  C   UNL A   1      41.705  31.590  36.714  1.00  0.00     0.029 A 
ATOM     31  N   UNL A   1      41.189  30.950  34.648  1.00  0.00    -0.354 N 
ATOM     32  N   UNL A   1      41.443  29.271  32.243  1.00  0.00    -0.248 NA
ATOM     33  C   UNL A   1      42.561  27.618  31.031  1.00  0.00     0.031 C 
ATOM     34  C   UNL A   1      42.601  30.590  36.325  1.00  0.00     0.029 A 
ATOM     35  C   UNL A   1      42.265  30.171  35.049  1.00  0.00     0.049 A 
ATOM     36  H   UNL A   1      40.738  30.884  33.775  1.00  0.00     0.167 HD
ATOM     37  C   UNL A   1      42.474  28.761  33.017  1.00  0.00     0.074 A 
ATOM     38  C   UNL A   1      43.100  27.713  32.237  1.00  0.00     0.031 C 
ATOM     39  C   UNL A   1      42.877  29.136  34.256  1.00  0.00     0.037 A 
BRANCH  26  40
ATOM     40  C   UNL A   1      39.553  33.705  36.757  1.00  0.00     0.064 A 
ATOM     41  C   UNL A   1      38.746  33.310  37.835  1.00  0.00     0.173 A 
ATOM     42  C   UNL A   1      40.213  34.939  36.852  1.00  0.00     0.173 A 
ATOM     43  F   UNL A   1      38.083  32.144  37.792  1.00  0.00    -0.203 F 
ATOM     44  C   UNL A   1      38.600  34.123  38.957  1.00  0.00     0.198 A 
ATOM     45  C   UNL A   1      40.087  35.737  37.987  1.00  0.00     0.198 A 
ATOM     46  F   UNL A   1      41.001  35.364  35.852  1.00  0.00    -0.203 F 
ATOM     47  F   UNL A   1      37.799  33.739  39.962  1.00  0.00    -0.200 F 
ATOM     48  C   UNL A   1      39.278  35.330  39.037  1.00  0.00     0.200 A 
ATOM     49  F   UNL A   1      40.755  36.896  38.068  1.00  0.00    -0.200 F 
ATOM     50  F   UNL A   1      39.151  36.102  40.125  1.00  0.00    -0.200 F 
ENDBRANCH  26  40
BRANCH  27  51
ATOM     51  C   UNL A   1      40.808  27.899  28.700  1.00  0.00     0.064 A 
ATOM     52  C   UNL A   1      41.679  28.291  27.675  1.00  0.00     0.173 A 
ATOM     53  C   UNL A   1      40.123  26.684  28.545  1.00  0.00     0.173 A 
ATOM     54  F   UNL A   1      42.347  29.450  27.769  1.00  0.00    -0.203 F 
ATOM     55  C   UNL A   1      41.832  27.516  26.526  1.00  0.00     0.198 A 
ATOM     56  C   UNL A   1      40.307  25.891  27.416  1.00  0.00     0.198 A 
ATOM     57  F   UNL A   1      39.285  26.258  29.501  1.00  0.00    -0.203 F 
ATOM     58  F   UNL A   1      42.623  27.944  25.534  1.00  0.00    -0.200 F 
ATOM     59  C   UNL A   1      41.151  26.314  26.401  1.00  0.00     0.200 A 
ATOM     60  F   UNL A   1      39.664  24.720  27.311  1.00  0.00    -0.200 F 
ATOM     61  F   UNL A   1      41.299  25.569  25.297  1.00  0.00    -0.200 F 
ENDBRANCH  27  51
BRANCH  39  62
ATOM     62  C   UNL A   1      44.037  28.384  34.841  1.00  0.00     0.064 A 
ATOM     63  C   UNL A   1      43.850  27.200  35.572  1.00  0.00     0.173 A 
ATOM     64  C   UNL A   1      45.347  28.856  34.677  1.00  0.00     0.173 A 
ATOM     65  F   UNL A   1      42.615  26.717  35.773  1.00  0.00    -0.203 F 
ATOM     66  C   UNL A   1      44.930  26.541  36.152  1.00  0.00     0.198 A 
ATOM     67  C   UNL A   1      46.428  28.174  35.229  1.00  0.00     0.198 A 
ATOM     68  F   UNL A   1      45.580  29.980  33.982  1.00  0.00    -0.203 F 
ATOM     69  F   UNL A   1      44.722  25.452  36.905  1.00  0.00    -0.200 F 
ATOM     70  C   UNL A   1      46.218  27.026  35.976  1.00  0.00     0.200 A 
ATOM     71  F   UNL A   1      47.672  28.636  35.046  1.00  0.00    -0.200 F 
ATOM     72  F   UNL A   1      47.256  26.392  36.539  1.00  0.00    -0.200 F 
ENDBRANCH  39  62
ENDBRANCH  13  14
ENDBRANCH   6   8
ENDBRANCH   3   4
ENDBRANCH   2   3
ENDBRANCH   1   2
BRANCH   1  73
ATOM     73  N   UNL A   1      31.692  29.910  27.043  1.00  0.00    -0.352 N 
ATOM     74  C   UNL A   1      31.788  28.547  26.963  1.00  0.00     0.252 C 
ATOM     75  H   UNL A   1      31.743  30.289  27.950  1.00  0.00     0.163 HD
ATOM     76  O   UNL A   1      31.616  27.854  27.967  1.00  0.00    -0.269 OA
BRANCH  74  77
ATOM     77  C   UNL A   1      32.097  27.912  25.678  1.00  0.00     0.058 A 
ATOM     78  C   UNL A   1      33.411  27.717  25.253  1.00  0.00     0.017 A 
ATOM     79  C   UNL A   1      31.070  27.423  24.891  1.00  0.00     0.125 A 
ATOM     80  C   UNL A   1      33.653  27.084  24.041  1.00  0.00     0.028 A 
ATOM     81  N   UNL A   1      31.276  26.779  23.717  1.00  0.00    -0.257 NA
ATOM     82  C   UNL A   1      32.565  26.588  23.322  1.00  0.00     0.078 A 
BRANCH  82  83
ATOM     83  C   UNL A   1      32.814  25.600  22.200  1.00  0.00     0.285 C 
BRANCH  83  84
ATOM     84  O   UNL A   1      34.020  24.823  22.369  1.00  0.00    -0.487 OA
BRANCH  84  85
ATOM     85  C   UNL A   1      33.834  23.588  22.930  1.00  0.00     0.120 A 
ATOM     86  C   UNL A   1      32.604  22.965  22.747  1.00  0.00     0.046 A 
ATOM     87  C   UNL A   1      34.777  23.005  23.777  1.00  0.00     0.059 A 
ATOM     88  C   UNL A   1      32.346  21.736  23.361  1.00  0.00     0.004 A 
ATOM     89  C   UNL A   1      34.566  21.739  24.340  1.00  0.00     0.059 A 
ATOM     90  C   UNL A   1      33.328  21.117  24.139  1.00  0.00     0.013 A 
BRANCH  89  91
ATOM     91  C   UNL A   1      35.648  21.076  25.156  1.00  0.00     0.416 C 
ATOM     92  F   UNL A   1      35.679  19.727  25.001  1.00  0.00    -0.166 F 
ATOM     93  F   UNL A   1      36.894  21.522  24.824  1.00  0.00    -0.166 F 
ATOM     94  F   UNL A   1      35.532  21.304  26.495  1.00  0.00    -0.166 F 
ENDBRANCH  89  91
ENDBRANCH  84  85
ENDBRANCH  83  84
ENDBRANCH  82  83
ENDBRANCH  74  77
ENDBRANCH   1  73
TORSDOF 14
ENDMDL
