MODEL 1
REMARK VINA RESULT:     -12.9      0.000      0.000
REMARK SMILES CCc1ccsc1CNC(=O)N1[C@H]2CC[C@@H]1[C@H](C(=O)NCCCNC(=O)c1ccc(-c3c4nc(c(-c5c(F)c(F)c(F)c(F)c5F)c5ccc([nH]5)c(-c5c(F)c(F)c(F)c(F)c5F)c5nc(c(-c6c(F)c(F)c(F)c(F)c6F)c6ccc3[nH]6)C=C5)C=C4)cc1)C2
REMARK SMILES IDX 21 1 20 2 18 3 19 4 17 6 12 7 13 8 16 9 14 10 90 11 15 12
REMARK SMILES IDX 10 13 9 14 11 16 8 17 7 18 3 19 4 20 5 21 6 22 2 23 1 24
REMARK SMILES IDX 22 25 23 26 24 27 25 28 26 30 27 31 28 32 89 33 29 34 88 35
REMARK SMILES IDX 30 36 31 37 32 38 82 39 33 40 87 41 81 42 83 43 34 44 86 45
REMARK SMILES IDX 80 46 79 47 35 49 67 50 47 51 66 52 48 53 51 54 65 55 84 56
REMARK SMILES IDX 49 57 50 58 64 60 85 61 52 62 36 63 37 64 45 65 38 66 39 67
REMARK SMILES IDX 43 68 46 69 40 70 41 71 44 72 42 73 68 74 69 75 77 76 70 77
REMARK SMILES IDX 71 78 75 79 78 80 72 81 73 82 76 83 74 84 53 85 54 86 62 87
REMARK SMILES IDX 55 88 56 89 60 90 63 91 57 92 58 93 61 94 59 95
REMARK H PARENT 20 5 9 15 24 29 83 48 51 59
REMARK Flexibility Score: inf
ROOT
ATOM      1  C   UNL A   1      31.592  30.790  25.876  1.00  0.00     0.117 C 
ENDROOT
BRANCH   1   2
ATOM      2  N   UNL A   1      30.683  30.562  24.767  1.00  0.00    -0.356 N 
ATOM      3  C   UNL A   1      30.434  29.536  23.924  1.00  0.00     0.225 C 
ATOM      4  O   UNL A   1      29.603  29.784  23.040  1.00  0.00    -0.275 OA
ATOM      5  H   UNL A   1      30.110  31.341  24.586  1.00  0.00     0.163 HD
BRANCH   3   6
ATOM      6  C   UNL A   1      31.094  28.169  23.933  1.00  0.00     0.103 C 
ATOM      7  N   UNL A   1      32.737  26.718  23.285  1.00  0.00    -0.318 N 
ATOM      8  C   UNL A   1      33.112  27.077  24.637  1.00  0.00     0.088 C 
ATOM      9  C   UNL A   1      32.176  27.984  22.848  1.00  0.00     0.099 C 
ATOM     10  C   UNL A   1      34.013  28.297  24.356  1.00  0.00     0.027 C 
ATOM     11  C   UNL A   1      31.746  27.533  25.182  1.00  0.00     0.040 C 
ATOM     12  C   UNL A   1      33.370  28.915  23.096  1.00  0.00     0.028 C 
BRANCH   7  13
ATOM     13  C   UNL A   1      33.301  25.797  22.468  1.00  0.00     0.318 C 
ATOM     14  N   UNL A   1      33.498  24.543  22.946  1.00  0.00    -0.333 N 
ATOM     15  H   UNL A   1      34.154  23.997  22.457  1.00  0.00     0.165 HD
ATOM     16  O   UNL A   1      33.594  26.039  21.300  1.00  0.00    -0.249 OA
BRANCH  14  17
ATOM     17  C   UNL A   1      32.871  23.901  24.082  1.00  0.00     0.165 C 
BRANCH  17  18
ATOM     18  C   UNL A   1      33.742  22.826  24.685  1.00  0.00     0.027 A 
ATOM     19  C   UNL A   1      33.606  21.446  24.540  1.00  0.00    -0.033 A 
ATOM     20  C   UNL A   1      34.667  20.757  25.221  1.00  0.00     0.016 A 
ATOM     21  C   UNL A   1      35.565  21.607  25.821  1.00  0.00     0.065 A 
ATOM     22  S   UNL A   1      35.159  23.237  25.565  1.00  0.00    -0.147 S 
BRANCH  19  23
ATOM     23  C   UNL A   1      32.498  20.791  23.749  1.00  0.00     0.033 C 
ATOM     24  C   UNL A   1      32.548  19.273  23.684  1.00  0.00     0.009 C 
ENDBRANCH  19  23
ENDBRANCH  17  18
ENDBRANCH  14  17
ENDBRANCH   7  13
ENDBRANCH   3   6
ENDBRANCH   1   2
BRANCH   1  25
ATOM     25  C   UNL A   1      31.333  32.126  26.570  1.00  0.00     0.042 C 
BRANCH  25  26
ATOM     26  C   UNL A   1      32.556  32.699  27.276  1.00  0.00     0.118 C 
BRANCH  26  27
ATOM     27  N   UNL A   1      32.398  34.114  27.572  1.00  0.00    -0.352 N 
ATOM     28  C   UNL A   1      32.966  34.884  28.558  1.00  0.00     0.251 C 
ATOM     29  H   UNL A   1      31.786  34.596  26.970  1.00  0.00     0.163 HD
ATOM     30  O   UNL A   1      32.504  35.998  28.784  1.00  0.00    -0.269 OA
BRANCH  28  31
ATOM     31  C   UNL A   1      34.122  34.402  29.355  1.00  0.00     0.039 A 
ATOM     32  C   UNL A   1      35.408  34.546  28.820  1.00  0.00     0.014 A 
ATOM     33  C   UNL A   1      33.953  33.714  30.559  1.00  0.00     0.014 A 
ATOM     34  C   UNL A   1      36.517  34.027  29.498  1.00  0.00     0.010 A 
ATOM     35  C   UNL A   1      35.064  33.252  31.267  1.00  0.00     0.010 A 
ATOM     36  C   UNL A   1      36.354  33.380  30.732  1.00  0.00    -0.014 A 
BRANCH  36  37
ATOM     37  C   UNL A   1      37.503  32.751  31.434  1.00  0.00     0.031 A 
ATOM     38  C   UNL A   1      38.278  31.653  30.758  1.00  0.00     0.074 A 
ATOM     39  C   UNL A   1      37.829  33.119  32.687  1.00  0.00     0.049 A 
ATOM     40  N   UNL A   1      39.215  30.877  31.243  1.00  0.00    -0.248 NA
ATOM     41  C   UNL A   1      37.934  31.370  29.355  1.00  0.00     0.031 C 
ATOM     42  C   UNL A   1      37.153  34.149  33.473  1.00  0.00     0.029 A 
ATOM     43  N   UNL A   1      38.816  32.655  33.521  1.00  0.00    -0.354 N 
ATOM     44  C   UNL A   1      39.522  29.977  30.232  1.00  0.00     0.074 A 
ATOM     45  C   UNL A   1      38.681  30.306  29.101  1.00  0.00     0.031 C 
ATOM     46  C   UNL A   1      37.759  34.257  34.668  1.00  0.00     0.029 A 
ATOM     47  C   UNL A   1      38.849  33.285  34.738  1.00  0.00     0.049 A 
ATOM     48  H   UNL A   1      39.441  31.938  33.269  1.00  0.00     0.167 HD
ATOM     49  C   UNL A   1      40.421  28.964  30.244  1.00  0.00     0.037 A 
ATOM     50  C   UNL A   1      39.667  33.102  35.792  1.00  0.00     0.037 A 
ATOM     51  C   UNL A   1      41.320  28.681  31.329  1.00  0.00     0.049 A 
ATOM     52  C   UNL A   1      40.745  32.059  35.732  1.00  0.00     0.074 A 
ATOM     53  C   UNL A   1      42.290  27.696  31.415  1.00  0.00     0.029 A 
ATOM     54  N   UNL A   1      41.380  29.407  32.506  1.00  0.00    -0.354 N 
ATOM     55  N   UNL A   1      41.008  31.200  34.779  1.00  0.00    -0.248 NA
ATOM     56  C   UNL A   1      41.641  31.962  36.894  1.00  0.00     0.031 C 
ATOM     57  C   UNL A   1      42.946  27.835  32.645  1.00  0.00     0.029 A 
ATOM     58  C   UNL A   1      42.387  28.910  33.315  1.00  0.00     0.049 A 
ATOM     59  H   UNL A   1      40.796  30.166  32.733  1.00  0.00     0.167 HD
ATOM     60  C   UNL A   1      42.103  30.470  35.218  1.00  0.00     0.074 A 
ATOM     61  C   UNL A   1      42.461  30.989  36.521  1.00  0.00     0.031 C 
ATOM     62  C   UNL A   1      42.746  29.454  34.596  1.00  0.00     0.037 A 
BRANCH  49  63
ATOM     63  C   UNL A   1      40.467  28.079  29.040  1.00  0.00     0.064 A 
ATOM     64  C   UNL A   1      41.270  28.387  27.934  1.00  0.00     0.173 A 
ATOM     65  C   UNL A   1      39.708  26.901  29.001  1.00  0.00     0.173 A 
ATOM     66  F   UNL A   1      41.997  29.514  27.922  1.00  0.00    -0.203 F 
ATOM     67  C   UNL A   1      41.297  27.553  26.819  1.00  0.00     0.198 A 
ATOM     68  C   UNL A   1      39.750  26.061  27.891  1.00  0.00     0.198 A 
ATOM     69  F   UNL A   1      38.924  26.566  30.037  1.00  0.00    -0.203 F 
ATOM     70  F   UNL A   1      42.045  27.882  25.757  1.00  0.00    -0.200 F 
ATOM     71  C   UNL A   1      40.541  26.390  26.800  1.00  0.00     0.200 A 
ATOM     72  F   UNL A   1      39.021  24.937  27.874  1.00  0.00    -0.200 F 
ATOM     73  F   UNL A   1      40.566  25.590  25.725  1.00  0.00    -0.200 F 
ENDBRANCH  49  63
BRANCH  50  74
ATOM     74  C   UNL A   1      39.522  33.966  36.986  1.00  0.00     0.064 A 
ATOM     75  C   UNL A   1      38.780  33.531  38.091  1.00  0.00     0.173 A 
ATOM     76  C   UNL A   1      40.128  35.227  37.053  1.00  0.00     0.173 A 
ATOM     77  F   UNL A   1      38.167  32.338  38.057  1.00  0.00    -0.203 F 
ATOM     78  C   UNL A   1      38.643  34.330  39.222  1.00  0.00     0.198 A 
ATOM     79  C   UNL A   1      40.001  36.021  38.190  1.00  0.00     0.198 A 
ATOM     80  F   UNL A   1      40.846  35.682  36.016  1.00  0.00    -0.203 F 
ATOM     81  F   UNL A   1      37.911  33.900  40.259  1.00  0.00    -0.200 F 
ATOM     82  C   UNL A   1      39.257  35.572  39.273  1.00  0.00     0.200 A 
ATOM     83  F   UNL A   1      40.595  37.220  38.237  1.00  0.00    -0.200 F 
ATOM     84  F   UNL A   1      39.128  36.342  40.363  1.00  0.00    -0.200 F 
ENDBRANCH  50  74
BRANCH  62  85
ATOM     85  C   UNL A   1      43.923  28.858  35.300  1.00  0.00     0.064 A 
ATOM     86  C   UNL A   1      45.223  29.319  35.054  1.00  0.00     0.173 A 
ATOM     87  C   UNL A   1      43.744  27.849  36.256  1.00  0.00     0.173 A 
ATOM     88  F   UNL A   1      45.439  30.273  34.138  1.00  0.00    -0.203 F 
ATOM     89  C   UNL A   1      46.309  28.785  35.743  1.00  0.00     0.198 A 
ATOM     90  C   UNL A   1      44.830  27.323  36.947  1.00  0.00     0.198 A 
ATOM     91  F   UNL A   1      42.516  27.377  36.517  1.00  0.00    -0.203 F 
ATOM     92  F   UNL A   1      47.547  29.226  35.485  1.00  0.00    -0.200 F 
ATOM     93  C   UNL A   1      46.111  27.790  36.690  1.00  0.00     0.200 A 
ATOM     94  F   UNL A   1      44.639  26.360  37.861  1.00  0.00    -0.200 F 
ATOM     95  F   UNL A   1      47.157  27.277  37.352  1.00  0.00    -0.200 F 
ENDBRANCH  62  85
ENDBRANCH  36  37
ENDBRANCH  28  31
ENDBRANCH  26  27
ENDBRANCH  25  26
ENDBRANCH   1  25
TORSDOF 14
ENDMDL
MODEL 2
REMARK VINA RESULT:     -12.9      0.826      1.911
REMARK SMILES CCc1ccsc1CNC(=O)N1[C@H]2CC[C@@H]1[C@H](C(=O)NCCCNC(=O)c1ccc(-c3c4nc(c(-c5c(F)c(F)c(F)c(F)c5F)c5ccc([nH]5)c(-c5c(F)c(F)c(F)c(F)c5F)c5nc(c(-c6c(F)c(F)c(F)c(F)c6F)c6ccc3[nH]6)C=C5)C=C4)cc1)C2
REMARK SMILES IDX 21 1 20 2 18 3 19 4 17 6 12 7 13 8 16 9 14 10 90 11 15 12
REMARK SMILES IDX 10 13 9 14 11 16 8 17 7 18 3 19 4 20 5 21 6 22 2 23 1 24
REMARK SMILES IDX 22 25 23 26 24 27 25 28 26 30 27 31 28 32 89 33 29 34 88 35
REMARK SMILES IDX 30 36 31 37 32 38 82 39 33 40 87 41 81 42 83 43 34 44 86 45
REMARK SMILES IDX 80 46 79 47 35 49 67 50 47 51 66 52 48 53 51 54 65 55 84 56
REMARK SMILES IDX 49 57 50 58 64 60 85 61 52 62 36 63 37 64 45 65 38 66 39 67
REMARK SMILES IDX 43 68 46 69 40 70 41 71 44 72 42 73 68 74 69 75 77 76 70 77
REMARK SMILES IDX 71 78 75 79 78 80 72 81 73 82 76 83 74 84 53 85 54 86 62 87
REMARK SMILES IDX 55 88 56 89 60 90 63 91 57 92 58 93 61 94 59 95
REMARK H PARENT 20 5 9 15 24 29 83 48 51 59
REMARK Flexibility Score: inf
ROOT
ATOM      1  C   UNL A   1      31.614  30.819  25.859  1.00  0.00     0.117 C 
ENDROOT
BRANCH   1   2
ATOM      2  N   UNL A   1      30.657  30.714  24.772  1.00  0.00    -0.356 N 
ATOM      3  C   UNL A   1      30.308  29.755  23.887  1.00  0.00     0.225 C 
ATOM      4  O   UNL A   1      29.471  30.108  23.045  1.00  0.00    -0.275 OA
ATOM      5  H   UNL A   1      30.138  31.542  24.650  1.00  0.00     0.163 HD
BRANCH   3   6
ATOM      6  C   UNL A   1      30.866  28.346  23.805  1.00  0.00     0.103 C 
ATOM      7  N   UNL A   1      32.402  26.825  23.061  1.00  0.00    -0.318 N 
ATOM      8  C   UNL A   1      32.795  27.065  24.434  1.00  0.00     0.088 C 
ATOM      9  C   UNL A   1      31.937  28.155  22.710  1.00  0.00     0.099 C 
ATOM     10  C   UNL A   1      33.785  28.231  24.235  1.00  0.00     0.027 C 
ATOM     11  C   UNL A   1      31.463  27.582  25.008  1.00  0.00     0.040 C 
ATOM     12  C   UNL A   1      33.194  28.978  23.019  1.00  0.00     0.028 C 
BRANCH   7  13
ATOM     13  C   UNL A   1      32.901  25.921  22.184  1.00  0.00     0.318 C 
ATOM     14  N   UNL A   1      32.542  24.621  22.322  1.00  0.00    -0.333 N 
ATOM     15  H   UNL A   1      33.128  23.967  21.878  1.00  0.00     0.165 HD
ATOM     16  O   UNL A   1      33.623  26.241  21.243  1.00  0.00    -0.249 OA
BRANCH  14  17
ATOM     17  C   UNL A   1      31.412  24.066  23.037  1.00  0.00     0.165 C 
BRANCH  17  18
ATOM     18  C   UNL A   1      31.757  22.776  23.740  1.00  0.00     0.027 A 
ATOM     19  C   UNL A   1      31.609  22.485  25.095  1.00  0.00    -0.033 A 
ATOM     20  C   UNL A   1      31.995  21.128  25.368  1.00  0.00     0.016 A 
ATOM     21  C   UNL A   1      32.385  20.441  24.243  1.00  0.00     0.065 A 
ATOM     22  S   UNL A   1      32.280  21.404  22.847  1.00  0.00    -0.147 S 
BRANCH  19  23
ATOM     23  C   UNL A   1      31.091  23.473  26.113  1.00  0.00     0.033 C 
ATOM     24  C   UNL A   1      29.966  22.969  27.003  1.00  0.00     0.009 C 
ENDBRANCH  19  23
ENDBRANCH  17  18
ENDBRANCH  14  17
ENDBRANCH   7  13
ENDBRANCH   3   6
ENDBRANCH   1   2
BRANCH   1  25
ATOM     25  C   UNL A   1      31.371  32.052  26.726  1.00  0.00     0.042 C 
BRANCH  25  26
ATOM     26  C   UNL A   1      32.649  32.684  27.267  1.00  0.00     0.118 C 
BRANCH  26  27
ATOM     27  N   UNL A   1      32.463  34.090  27.589  1.00  0.00    -0.352 N 
ATOM     28  C   UNL A   1      33.009  34.850  28.594  1.00  0.00     0.251 C 
ATOM     29  H   UNL A   1      31.849  34.574  26.991  1.00  0.00     0.163 HD
ATOM     30  O   UNL A   1      32.526  35.952  28.838  1.00  0.00    -0.269 OA
BRANCH  28  31
ATOM     31  C   UNL A   1      34.166  34.373  29.393  1.00  0.00     0.039 A 
ATOM     32  C   UNL A   1      35.453  34.535  28.867  1.00  0.00     0.014 A 
ATOM     33  C   UNL A   1      33.997  33.670  30.589  1.00  0.00     0.014 A 
ATOM     34  C   UNL A   1      36.564  34.021  29.546  1.00  0.00     0.010 A 
ATOM     35  C   UNL A   1      35.109  33.212  31.299  1.00  0.00     0.010 A 
ATOM     36  C   UNL A   1      36.401  33.359  30.773  1.00  0.00    -0.014 A 
BRANCH  36  37
ATOM     37  C   UNL A   1      37.552  32.735  31.474  1.00  0.00     0.031 A 
ATOM     38  C   UNL A   1      38.336  31.645  30.796  1.00  0.00     0.074 A 
ATOM     39  C   UNL A   1      37.873  33.101  32.730  1.00  0.00     0.049 A 
ATOM     40  N   UNL A   1      39.277  30.873  31.280  1.00  0.00    -0.248 NA
ATOM     41  C   UNL A   1      37.996  31.365  29.391  1.00  0.00     0.031 C 
ATOM     42  C   UNL A   1      37.189  34.124  33.518  1.00  0.00     0.029 A 
ATOM     43  N   UNL A   1      38.862  32.640  33.564  1.00  0.00    -0.354 N 
ATOM     44  C   UNL A   1      39.592  29.979  30.267  1.00  0.00     0.074 A 
ATOM     45  C   UNL A   1      38.750  30.306  29.135  1.00  0.00     0.031 C 
ATOM     46  C   UNL A   1      37.792  34.231  34.714  1.00  0.00     0.029 A 
ATOM     47  C   UNL A   1      38.888  33.266  34.784  1.00  0.00     0.049 A 
ATOM     48  H   UNL A   1      39.492  31.928  33.311  1.00  0.00     0.167 HD
ATOM     49  C   UNL A   1      40.497  28.972  30.277  1.00  0.00     0.037 A 
ATOM     50  C   UNL A   1      39.705  33.085  35.838  1.00  0.00     0.037 A 
ATOM     51  C   UNL A   1      41.396  28.690  31.363  1.00  0.00     0.049 A 
ATOM     52  C   UNL A   1      40.790  32.048  35.777  1.00  0.00     0.074 A 
ATOM     53  C   UNL A   1      42.372  27.712  31.447  1.00  0.00     0.029 A 
ATOM     54  N   UNL A   1      41.449  29.413  32.543  1.00  0.00    -0.354 N 
ATOM     55  N   UNL A   1      41.061  31.195  34.822  1.00  0.00    -0.248 NA
ATOM     56  C   UNL A   1      41.684  31.953  36.941  1.00  0.00     0.031 C 
ATOM     57  C   UNL A   1      43.024  27.850  32.679  1.00  0.00     0.029 A 
ATOM     58  C   UNL A   1      42.458  28.919  33.352  1.00  0.00     0.049 A 
ATOM     59  H   UNL A   1      40.859  30.167  32.771  1.00  0.00     0.167 HD
ATOM     60  C   UNL A   1      42.159  30.470  35.260  1.00  0.00     0.074 A 
ATOM     61  C   UNL A   1      42.511  30.987  36.566  1.00  0.00     0.031 C 
ATOM     62  C   UNL A   1      42.810  29.461  34.636  1.00  0.00     0.037 A 
BRANCH  49  63
ATOM     63  C   UNL A   1      40.551  28.091  29.070  1.00  0.00     0.064 A 
ATOM     64  C   UNL A   1      41.391  28.383  27.987  1.00  0.00     0.173 A 
ATOM     65  C   UNL A   1      39.762  26.933  29.005  1.00  0.00     0.173 A 
ATOM     66  F   UNL A   1      42.147  29.490  28.000  1.00  0.00    -0.203 F 
ATOM     67  C   UNL A   1      41.425  27.554  26.869  1.00  0.00     0.198 A 
ATOM     68  C   UNL A   1      39.812  26.099  27.892  1.00  0.00     0.198 A 
ATOM     69  F   UNL A   1      38.944  26.615  30.018  1.00  0.00    -0.203 F 
ATOM     70  F   UNL A   1      42.209  27.868  25.828  1.00  0.00    -0.200 F 
ATOM     71  C   UNL A   1      40.639  26.412  26.824  1.00  0.00     0.200 A 
ATOM     72  F   UNL A   1      39.054  24.994  27.850  1.00  0.00    -0.200 F 
ATOM     73  F   UNL A   1      40.672  25.616  25.745  1.00  0.00    -0.200 F 
ENDBRANCH  49  63
BRANCH  50  74
ATOM     74  C   UNL A   1      39.552  33.943  37.035  1.00  0.00     0.064 A 
ATOM     75  C   UNL A   1      40.155  35.207  37.084  1.00  0.00     0.173 A 
ATOM     76  C   UNL A   1      38.798  33.529  38.139  1.00  0.00     0.173 A 
ATOM     77  F   UNL A   1      40.904  35.630  36.055  1.00  0.00    -0.203 F 
ATOM     78  C   UNL A   1      40.013  36.026  38.200  1.00  0.00     0.198 A 
ATOM     79  C   UNL A   1      38.645  34.354  39.251  1.00  0.00     0.198 A 
ATOM     80  F   UNL A   1      38.205  32.326  38.134  1.00  0.00    -0.203 F 
ATOM     81  F   UNL A   1      40.615  37.222  38.232  1.00  0.00    -0.200 F 
ATOM     82  C   UNL A   1      39.255  35.601  39.281  1.00  0.00     0.200 A 
ATOM     83  F   UNL A   1      37.912  33.943  40.293  1.00  0.00    -0.200 F 
ATOM     84  F   UNL A   1      39.115  36.391  40.355  1.00  0.00    -0.200 F 
ENDBRANCH  50  74
BRANCH  62  85
ATOM     85  C   UNL A   1      43.990  28.870  35.340  1.00  0.00     0.064 A 
ATOM     86  C   UNL A   1      43.837  27.813  36.247  1.00  0.00     0.173 A 
ATOM     87  C   UNL A   1      45.284  29.335  35.071  1.00  0.00     0.173 A 
ATOM     88  F   UNL A   1      42.614  27.348  36.541  1.00  0.00    -0.203 F 
ATOM     89  C   UNL A   1      44.945  27.244  36.868  1.00  0.00     0.198 A 
ATOM     90  C   UNL A   1      46.390  28.759  35.688  1.00  0.00     0.198 A 
ATOM     91  F   UNL A   1      45.473  30.347  34.212  1.00  0.00    -0.203 F 
ATOM     92  F   UNL A   1      44.780  26.245  37.745  1.00  0.00    -0.200 F 
ATOM     93  C   UNL A   1      46.220  27.715  36.586  1.00  0.00     0.200 A 
ATOM     94  F   UNL A   1      47.621  29.215  35.417  1.00  0.00    -0.200 F 
ATOM     95  F   UNL A   1      47.285  27.165  37.184  1.00  0.00    -0.200 F 
ENDBRANCH  62  85
ENDBRANCH  36  37
ENDBRANCH  28  31
ENDBRANCH  26  27
ENDBRANCH  25  26
ENDBRANCH   1  25
TORSDOF 14
ENDMDL
MODEL 3
REMARK VINA RESULT:     -12.8      0.143      1.590
REMARK SMILES CCc1ccsc1CNC(=O)N1[C@H]2CC[C@@H]1[C@H](C(=O)NCCCNC(=O)c1ccc(-c3c4nc(c(-c5c(F)c(F)c(F)c(F)c5F)c5ccc([nH]5)c(-c5c(F)c(F)c(F)c(F)c5F)c5nc(c(-c6c(F)c(F)c(F)c(F)c6F)c6ccc3[nH]6)C=C5)C=C4)cc1)C2
REMARK SMILES IDX 21 1 20 2 18 3 19 4 17 6 12 7 13 8 16 9 14 10 90 11 15 12
REMARK SMILES IDX 10 13 9 14 11 16 8 17 7 18 3 19 4 20 5 21 6 22 2 23 1 24
REMARK SMILES IDX 22 25 23 26 24 27 25 28 26 30 27 31 28 32 89 33 29 34 88 35
REMARK SMILES IDX 30 36 31 37 32 38 82 39 33 40 87 41 81 42 83 43 34 44 86 45
REMARK SMILES IDX 80 46 79 47 35 49 67 50 47 51 66 52 48 53 51 54 65 55 84 56
REMARK SMILES IDX 49 57 50 58 64 60 85 61 52 62 36 63 37 64 45 65 38 66 39 67
REMARK SMILES IDX 43 68 46 69 40 70 41 71 44 72 42 73 68 74 69 75 77 76 70 77
REMARK SMILES IDX 71 78 75 79 78 80 72 81 73 82 76 83 74 84 53 85 54 86 62 87
REMARK SMILES IDX 55 88 56 89 60 90 63 91 57 92 58 93 61 94 59 95
REMARK H PARENT 20 5 9 15 24 29 83 48 51 59
REMARK Flexibility Score: inf
ROOT
ATOM      1  C   UNL A   1      31.603  30.752  25.844  1.00  0.00     0.117 C 
ENDROOT
BRANCH   1   2
ATOM      2  N   UNL A   1      30.697  30.540  24.730  1.00  0.00    -0.356 N 
ATOM      3  C   UNL A   1      30.447  29.524  23.874  1.00  0.00     0.225 C 
ATOM      4  O   UNL A   1      29.620  29.785  22.990  1.00  0.00    -0.275 OA
ATOM      5  H   UNL A   1      30.127  31.324  24.556  1.00  0.00     0.163 HD
BRANCH   3   6
ATOM      6  C   UNL A   1      31.102  28.155  23.870  1.00  0.00     0.103 C 
ATOM      7  N   UNL A   1      32.749  26.709  23.221  1.00  0.00    -0.318 N 
ATOM      8  C   UNL A   1      33.106  27.045  24.583  1.00  0.00     0.088 C 
ATOM      9  C   UNL A   1      32.199  27.985  22.797  1.00  0.00     0.099 C 
ATOM     10  C   UNL A   1      34.016  28.266  24.335  1.00  0.00     0.027 C 
ATOM     11  C   UNL A   1      31.735  27.496  25.116  1.00  0.00     0.040 C 
ATOM     12  C   UNL A   1      33.392  28.907  23.076  1.00  0.00     0.028 C 
BRANCH   7  13
ATOM     13  C   UNL A   1      33.321  25.799  22.397  1.00  0.00     0.318 C 
ATOM     14  N   UNL A   1      33.565  24.555  22.877  1.00  0.00    -0.333 N 
ATOM     15  H   UNL A   1      34.226  24.025  22.376  1.00  0.00     0.165 HD
ATOM     16  O   UNL A   1      33.580  26.043  21.220  1.00  0.00    -0.249 OA
BRANCH  14  17
ATOM     17  C   UNL A   1      32.983  23.902  24.031  1.00  0.00     0.165 C 
BRANCH  17  18
ATOM     18  C   UNL A   1      33.861  22.799  24.568  1.00  0.00     0.027 A 
ATOM     19  C   UNL A   1      33.662  21.425  24.449  1.00  0.00    -0.033 A 
ATOM     20  C   UNL A   1      34.751  20.700  25.045  1.00  0.00     0.016 A 
ATOM     21  C   UNL A   1      35.727  21.520  25.559  1.00  0.00     0.065 A 
ATOM     22  S   UNL A   1      35.362  23.162  25.321  1.00  0.00    -0.147 S 
BRANCH  19  23
ATOM     23  C   UNL A   1      32.468  20.807  23.762  1.00  0.00     0.033 C 
ATOM     24  C   UNL A   1      32.488  19.291  23.646  1.00  0.00     0.009 C 
ENDBRANCH  19  23
ENDBRANCH  17  18
ENDBRANCH  14  17
ENDBRANCH   7  13
ENDBRANCH   3   6
ENDBRANCH   1   2
BRANCH   1  25
ATOM     25  C   UNL A   1      31.333  32.071  26.565  1.00  0.00     0.042 C 
BRANCH  25  26
ATOM     26  C   UNL A   1      32.561  32.660  27.251  1.00  0.00     0.118 C 
BRANCH  26  27
ATOM     27  N   UNL A   1      32.385  34.069  27.562  1.00  0.00    -0.352 N 
ATOM     28  C   UNL A   1      32.946  34.836  28.554  1.00  0.00     0.251 C 
ATOM     29  H   UNL A   1      31.765  34.550  26.967  1.00  0.00     0.163 HD
ATOM     30  O   UNL A   1      32.471  35.942  28.793  1.00  0.00    -0.269 OA
BRANCH  28  31
ATOM     31  C   UNL A   1      34.111  34.361  29.343  1.00  0.00     0.039 A 
ATOM     32  C   UNL A   1      35.395  34.555  28.820  1.00  0.00     0.014 A 
ATOM     33  C   UNL A   1      33.954  33.633  30.524  1.00  0.00     0.014 A 
ATOM     34  C   UNL A   1      36.514  34.044  29.488  1.00  0.00     0.010 A 
ATOM     35  C   UNL A   1      35.073  33.178  31.225  1.00  0.00     0.010 A 
ATOM     36  C   UNL A   1      36.363  33.356  30.701  1.00  0.00    -0.014 A 
BRANCH  36  37
ATOM     37  C   UNL A   1      37.524  32.737  31.390  1.00  0.00     0.031 A 
ATOM     38  C   UNL A   1      38.306  31.651  30.702  1.00  0.00     0.074 A 
ATOM     39  C   UNL A   1      37.856  33.103  32.643  1.00  0.00     0.049 A 
ATOM     40  N   UNL A   1      39.255  30.884  31.176  1.00  0.00    -0.248 NA
ATOM     41  C   UNL A   1      37.953  31.372  29.301  1.00  0.00     0.031 C 
ATOM     42  C   UNL A   1      37.175  34.121  33.439  1.00  0.00     0.029 A 
ATOM     43  N   UNL A   1      38.855  32.645  33.466  1.00  0.00    -0.354 N 
ATOM     44  C   UNL A   1      39.564  29.992  30.158  1.00  0.00     0.074 A 
ATOM     45  C   UNL A   1      38.710  30.317  29.035  1.00  0.00     0.031 C 
ATOM     46  C   UNL A   1      37.790  34.230  34.630  1.00  0.00     0.029 A 
ATOM     47  C   UNL A   1      38.891  33.270  34.687  1.00  0.00     0.049 A 
ATOM     48  H   UNL A   1      39.486  31.937  33.205  1.00  0.00     0.167 HD
ATOM     49  C   UNL A   1      40.474  28.990  30.157  1.00  0.00     0.037 A 
ATOM     50  C   UNL A   1      39.719  33.091  35.733  1.00  0.00     0.037 A 
ATOM     51  C   UNL A   1      41.385  28.711  31.233  1.00  0.00     0.049 A 
ATOM     52  C   UNL A   1      40.808  32.060  35.658  1.00  0.00     0.074 A 
ATOM     53  C   UNL A   1      42.367  27.737  31.307  1.00  0.00     0.029 A 
ATOM     54  N   UNL A   1      41.447  29.432  32.414  1.00  0.00    -0.354 N 
ATOM     55  N   UNL A   1      41.074  31.209  34.699  1.00  0.00    -0.248 NA
ATOM     56  C   UNL A   1      41.715  31.967  36.813  1.00  0.00     0.031 C 
ATOM     57  C   UNL A   1      43.032  27.877  32.531  1.00  0.00     0.029 A 
ATOM     58  C   UNL A   1      42.467  28.942  33.212  1.00  0.00     0.049 A 
ATOM     59  H   UNL A   1      40.856  30.183  32.649  1.00  0.00     0.167 HD
ATOM     60  C   UNL A   1      42.180  30.489  35.125  1.00  0.00     0.074 A 
ATOM     61  C   UNL A   1      42.543  31.005  36.428  1.00  0.00     0.031 C 
ATOM     62  C   UNL A   1      42.830  29.483  34.493  1.00  0.00     0.037 A 
BRANCH  49  63
ATOM     63  C   UNL A   1      40.520  28.111  28.948  1.00  0.00     0.064 A 
ATOM     64  C   UNL A   1      39.768  26.932  28.870  1.00  0.00     0.173 A 
ATOM     65  C   UNL A   1      41.317  28.464  27.849  1.00  0.00     0.173 A 
ATOM     66  F   UNL A   1      39.008  26.547  29.906  1.00  0.00    -0.203 F 
ATOM     67  C   UNL A   1      39.827  26.124  27.738  1.00  0.00     0.198 A 
ATOM     68  C   UNL A   1      41.361  27.662  26.713  1.00  0.00     0.198 A 
ATOM     69  F   UNL A   1      42.054  29.584  27.881  1.00  0.00    -0.203 F 
ATOM     70  F   UNL A   1      39.128  24.981  27.696  1.00  0.00    -0.200 F 
ATOM     71  C   UNL A   1      40.620  26.491  26.660  1.00  0.00     0.200 A 
ATOM     72  F   UNL A   1      42.125  28.018  25.671  1.00  0.00    -0.200 F 
ATOM     73  F   UNL A   1      40.677  25.710  25.572  1.00  0.00    -0.200 F 
ENDBRANCH  49  63
BRANCH  50  74
ATOM     74  C   UNL A   1      39.575  33.947  36.932  1.00  0.00     0.064 A 
ATOM     75  C   UNL A   1      38.830  33.505  38.033  1.00  0.00     0.173 A 
ATOM     76  C   UNL A   1      40.183  35.206  37.008  1.00  0.00     0.173 A 
ATOM     77  F   UNL A   1      38.215  32.315  37.990  1.00  0.00    -0.203 F 
ATOM     78  C   UNL A   1      38.693  34.297  39.170  1.00  0.00     0.198 A 
ATOM     79  C   UNL A   1      40.056  35.993  38.150  1.00  0.00     0.198 A 
ATOM     80  F   UNL A   1      40.903  35.667  35.975  1.00  0.00    -0.203 F 
ATOM     81  F   UNL A   1      37.960  33.862  40.203  1.00  0.00    -0.200 F 
ATOM     82  C   UNL A   1      39.310  35.538  39.229  1.00  0.00     0.200 A 
ATOM     83  F   UNL A   1      40.653  37.191  38.207  1.00  0.00    -0.200 F 
ATOM     84  F   UNL A   1      39.180  36.300  40.324  1.00  0.00    -0.200 F 
ENDBRANCH  50  74
BRANCH  62  85
ATOM     85  C   UNL A   1      44.019  28.897  35.184  1.00  0.00     0.064 A 
ATOM     86  C   UNL A   1      43.882  27.832  36.084  1.00  0.00     0.173 A 
ATOM     87  C   UNL A   1      45.307  29.376  34.910  1.00  0.00     0.173 A 
ATOM     88  F   UNL A   1      42.666  27.354  36.382  1.00  0.00    -0.203 F 
ATOM     89  C   UNL A   1      45.000  27.267  36.693  1.00  0.00     0.198 A 
ATOM     90  C   UNL A   1      46.422  28.805  35.515  1.00  0.00     0.198 A 
ATOM     91  F   UNL A   1      45.481  30.397  34.058  1.00  0.00    -0.203 F 
ATOM     92  F   UNL A   1      44.849  26.260  37.562  1.00  0.00    -0.200 F 
ATOM     93  C   UNL A   1      46.268  27.752  36.405  1.00  0.00     0.200 A 
ATOM     94  F   UNL A   1      47.647  29.274  35.239  1.00  0.00    -0.200 F 
ATOM     95  F   UNL A   1      47.342  27.207  36.992  1.00  0.00    -0.200 F 
ENDBRANCH  62  85
ENDBRANCH  36  37
ENDBRANCH  28  31
ENDBRANCH  26  27
ENDBRANCH  25  26
ENDBRANCH   1  25
TORSDOF 14
ENDMDL
