MODEL 1
REMARK VINA RESULT:     -11.9      0.000      0.000
REMARK SMILES CCCC[C@H]1C[NH2+]CCN1c1ccc(C(=O)NCCCNC(=O)c2ccc(-c3c4nc(c(-c5c(F)c(F)c(F)c(F)c5F)c5ccc([nH]5)c(-c5c(F)c(F)c(F)c(F)c5F)c5nc(c(-c6c(F)c(F)c(F)c(F)c6F)c6ccc3[nH]6)C=C5)C=C4)cc2)cc1
REMARK SMILES IDX 18 1 17 2 15 3 16 4 14 6 11 7 12 8 88 9 13 10 87 11 10 12
REMARK SMILES IDX 5 13 6 14 7 15 9 16 8 17 4 20 3 21 2 22 1 23 19 24 20 25
REMARK SMILES IDX 21 26 22 27 23 29 24 30 25 31 86 32 26 33 85 34 27 35 28 36
REMARK SMILES IDX 29 37 79 38 30 39 84 40 78 41 80 42 31 43 83 44 77 45 76 46
REMARK SMILES IDX 32 48 64 49 44 50 63 51 45 52 48 53 62 54 81 55 46 56 47 57
REMARK SMILES IDX 61 59 82 60 49 61 33 62 34 63 42 64 35 65 36 66 40 67 43 68
REMARK SMILES IDX 37 69 38 70 41 71 39 72 65 73 66 74 74 75 67 76 68 77 72 78
REMARK SMILES IDX 75 79 69 80 70 81 73 82 71 83 50 84 51 85 59 86 52 87 53 88
REMARK SMILES IDX 57 89 60 90 54 91 55 92 58 93 56 94
REMARK H PARENT 17 5 7 18 7 19 21 28 80 47 48 58
REMARK Flexibility Score: inf
ROOT
ATOM      1  C   UNL A   1      37.413  20.693  24.627  1.00  0.00     0.118 C 
ENDROOT
BRANCH   1   2
ATOM      2  N   UNL A   1      37.974  21.936  25.125  1.00  0.00    -0.352 N 
ATOM      3  C   UNL A   1      37.418  23.164  25.376  1.00  0.00     0.251 C 
ATOM      4  O   UNL A   1      38.146  24.026  25.866  1.00  0.00    -0.269 OA
ATOM      5  H   UNL A   1      38.937  21.887  25.320  1.00  0.00     0.163 HD
BRANCH   3   6
ATOM      6  C   UNL A   1      35.984  23.481  25.131  1.00  0.00     0.039 A 
ATOM      7  C   UNL A   1      33.226  24.050  24.851  1.00  0.00     0.037 A 
ATOM      8  C   UNL A   1      33.800  23.903  26.115  1.00  0.00     0.027 A 
ATOM      9  C   UNL A   1      34.058  23.960  23.733  1.00  0.00     0.027 A 
ATOM     10  C   UNL A   1      35.161  23.615  26.257  1.00  0.00     0.016 A 
ATOM     11  C   UNL A   1      35.428  23.701  23.870  1.00  0.00     0.016 A 
BRANCH   7  12
ATOM     12  N   UNL A   1      31.867  24.276  24.743  1.00  0.00    -0.357 N 
ATOM     13  C   UNL A   1      31.367  25.665  24.791  1.00  0.00     0.137 C 
ATOM     14  C   UNL A   1      30.605  25.923  26.126  1.00  0.00     0.285 C 
ATOM     15  N   UNL A   1      29.611  24.891  26.499  1.00  0.00    -0.343 N 
ATOM     16  C   UNL A   1      30.954  23.209  25.164  1.00  0.00     0.178 C 
ATOM     17  C   UNL A   1      30.274  23.568  26.504  1.00  0.00     0.282 C 
ATOM     18  H   UNL A   1      28.849  24.890  25.823  1.00  0.00     0.346 HD
ATOM     19  H   UNL A   1      29.236  25.092  27.426  1.00  0.00     0.346 HD
BRANCH  13  20
ATOM     20  C   UNL A   1      30.485  25.902  23.547  1.00  0.00     0.031 C 
BRANCH  20  21
ATOM     21  C   UNL A   1      29.438  27.009  23.721  1.00  0.00     0.002 C 
BRANCH  21  22
ATOM     22  C   UNL A   1      29.769  28.345  23.044  1.00  0.00    -0.003 C 
ATOM     23  C   UNL A   1      30.653  29.260  23.879  1.00  0.00     0.004 C 
ENDBRANCH  21  22
ENDBRANCH  20  21
ENDBRANCH  13  20
ENDBRANCH   7  12
ENDBRANCH   3   6
ENDBRANCH   1   2
BRANCH   1  24
ATOM     24  C   UNL A   1      38.296  19.502  24.998  1.00  0.00     0.042 C 
BRANCH  24  25
ATOM     25  C   UNL A   1      39.282  19.799  26.126  1.00  0.00     0.118 C 
BRANCH  25  26
ATOM     26  N   UNL A   1      40.437  18.915  26.092  1.00  0.00    -0.352 N 
ATOM     27  C   UNL A   1      41.778  19.210  26.105  1.00  0.00     0.251 C 
ATOM     28  H   UNL A   1      40.225  17.955  26.053  1.00  0.00     0.163 HD
ATOM     29  O   UNL A   1      42.592  18.325  25.858  1.00  0.00    -0.269 OA
BRANCH  27  30
ATOM     30  C   UNL A   1      42.256  20.578  26.402  1.00  0.00     0.039 A 
ATOM     31  C   UNL A   1      42.596  21.414  25.333  1.00  0.00     0.014 A 
ATOM     32  C   UNL A   1      42.435  21.023  27.716  1.00  0.00     0.014 A 
ATOM     33  C   UNL A   1      43.068  22.707  25.578  1.00  0.00     0.010 A 
ATOM     34  C   UNL A   1      42.849  22.332  27.958  1.00  0.00     0.010 A 
ATOM     35  C   UNL A   1      43.175  23.185  26.893  1.00  0.00    -0.014 A 
BRANCH  35  36
ATOM     36  C   UNL A   1      43.627  24.572  27.171  1.00  0.00     0.031 A 
ATOM     37  C   UNL A   1      42.656  25.600  27.680  1.00  0.00     0.074 A 
ATOM     38  C   UNL A   1      44.900  24.922  26.903  1.00  0.00     0.049 A 
ATOM     39  N   UNL A   1      42.841  26.877  27.904  1.00  0.00    -0.248 NA
ATOM     40  C   UNL A   1      41.286  25.136  27.949  1.00  0.00     0.031 C 
ATOM     41  C   UNL A   1      45.926  24.028  26.366  1.00  0.00     0.029 A 
ATOM     42  N   UNL A   1      45.542  26.129  27.030  1.00  0.00    -0.354 N 
ATOM     43  C   UNL A   1      41.611  27.371  28.318  1.00  0.00     0.074 A 
ATOM     44  C   UNL A   1      40.677  26.266  28.279  1.00  0.00     0.031 C 
ATOM     45  C   UNL A   1      47.072  24.712  26.219  1.00  0.00     0.029 A 
ATOM     46  C   UNL A   1      46.851  26.099  26.618  1.00  0.00     0.049 A 
ATOM     47  H   UNL A   1      45.105  26.938  27.382  1.00  0.00     0.167 HD
ATOM     48  C   UNL A   1      41.295  28.629  28.712  1.00  0.00     0.037 A 
ATOM     49  C   UNL A   1      47.769  27.084  26.559  1.00  0.00     0.037 A 
ATOM     50  C   UNL A   1      42.235  29.717  28.782  1.00  0.00     0.049 A 
ATOM     51  C   UNL A   1      47.396  28.467  27.015  1.00  0.00     0.074 A 
ATOM     52  C   UNL A   1      42.027  31.008  29.236  1.00  0.00     0.029 A 
ATOM     53  N   UNL A   1      43.561  29.641  28.386  1.00  0.00    -0.354 N 
ATOM     54  N   UNL A   1      46.248  28.906  27.469  1.00  0.00    -0.248 NA
ATOM     55  C   UNL A   1      48.450  29.490  26.957  1.00  0.00     0.031 C 
ATOM     56  C   UNL A   1      43.218  31.725  29.077  1.00  0.00     0.029 A 
ATOM     57  C   UNL A   1      44.179  30.868  28.567  1.00  0.00     0.049 A 
ATOM     58  H   UNL A   1      43.999  28.835  28.030  1.00  0.00     0.167 HD
ATOM     59  C   UNL A   1      46.445  30.246  27.773  1.00  0.00     0.074 A 
ATOM     60  C   UNL A   1      47.829  30.546  27.466  1.00  0.00     0.031 C 
ATOM     61  C   UNL A   1      45.559  31.147  28.262  1.00  0.00     0.037 A 
BRANCH  48  62
ATOM     62  C   UNL A   1      39.871  28.899  29.101  1.00  0.00     0.064 A 
ATOM     63  C   UNL A   1      38.918  29.320  28.162  1.00  0.00     0.173 A 
ATOM     64  C   UNL A   1      39.443  28.692  30.421  1.00  0.00     0.173 A 
ATOM     65  F   UNL A   1      39.278  29.541  26.888  1.00  0.00    -0.203 F 
ATOM     66  C   UNL A   1      37.596  29.549  28.535  1.00  0.00     0.198 A 
ATOM     67  C   UNL A   1      38.115  28.895  30.785  1.00  0.00     0.198 A 
ATOM     68  F   UNL A   1      40.313  28.283  31.358  1.00  0.00    -0.203 F 
ATOM     69  F   UNL A   1      36.713  29.993  27.630  1.00  0.00    -0.200 F 
ATOM     70  C   UNL A   1      37.194  29.330  29.845  1.00  0.00     0.200 A 
ATOM     71  F   UNL A   1      37.726  28.671  32.048  1.00  0.00    -0.200 F 
ATOM     72  F   UNL A   1      35.919  29.544  30.200  1.00  0.00    -0.200 F 
ENDBRANCH  48  62
BRANCH  49  73
ATOM     73  C   UNL A   1      49.139  26.787  26.066  1.00  0.00     0.064 A 
ATOM     74  C   UNL A   1      49.480  26.994  24.723  1.00  0.00     0.173 A 
ATOM     75  C   UNL A   1      50.132  26.294  26.924  1.00  0.00     0.173 A 
ATOM     76  F   UNL A   1      48.557  27.445  23.861  1.00  0.00    -0.203 F 
ATOM     77  C   UNL A   1      50.758  26.703  24.251  1.00  0.00     0.198 A 
ATOM     78  C   UNL A   1      51.418  26.027  26.458  1.00  0.00     0.198 A 
ATOM     79  F   UNL A   1      49.857  26.083  28.221  1.00  0.00    -0.203 F 
ATOM     80  F   UNL A   1      51.046  26.871  22.954  1.00  0.00    -0.200 F 
ATOM     81  C   UNL A   1      51.727  26.225  25.120  1.00  0.00     0.200 A 
ATOM     82  F   UNL A   1      52.355  25.579  27.303  1.00  0.00    -0.200 F 
ATOM     83  F   UNL A   1      52.958  25.950  24.669  1.00  0.00    -0.200 F 
ENDBRANCH  49  73
BRANCH  61  84
ATOM     84  C   UNL A   1      46.067  32.534  28.526  1.00  0.00     0.064 A 
ATOM     85  C   UNL A   1      45.989  33.542  27.553  1.00  0.00     0.173 A 
ATOM     86  C   UNL A   1      46.599  32.868  29.780  1.00  0.00     0.173 A 
ATOM     87  F   UNL A   1      45.502  33.266  26.334  1.00  0.00    -0.203 F 
ATOM     88  C   UNL A   1      46.449  34.828  27.819  1.00  0.00     0.198 A 
ATOM     89  C   UNL A   1      47.032  34.164  30.051  1.00  0.00     0.198 A 
ATOM     90  F   UNL A   1      46.690  31.942  30.745  1.00  0.00    -0.203 F 
ATOM     91  F   UNL A   1      46.405  35.765  26.862  1.00  0.00    -0.200 F 
ATOM     92  C   UNL A   1      46.962  35.140  29.069  1.00  0.00     0.200 A 
ATOM     93  F   UNL A   1      47.519  34.466  31.263  1.00  0.00    -0.200 F 
ATOM     94  F   UNL A   1      47.399  36.382  29.326  1.00  0.00    -0.200 F 
ENDBRANCH  61  84
ENDBRANCH  35  36
ENDBRANCH  27  30
ENDBRANCH  25  26
ENDBRANCH  24  25
ENDBRANCH   1  24
TORSDOF 14
ENDMDL
MODEL 2
REMARK VINA RESULT:     -11.8      5.820     11.290
REMARK SMILES CCCC[C@H]1C[NH2+]CCN1c1ccc(C(=O)NCCCNC(=O)c2ccc(-c3c4nc(c(-c5c(F)c(F)c(F)c(F)c5F)c5ccc([nH]5)c(-c5c(F)c(F)c(F)c(F)c5F)c5nc(c(-c6c(F)c(F)c(F)c(F)c6F)c6ccc3[nH]6)C=C5)C=C4)cc2)cc1
REMARK SMILES IDX 18 1 17 2 15 3 16 4 14 6 11 7 12 8 88 9 13 10 87 11 10 12
REMARK SMILES IDX 5 13 6 14 7 15 9 16 8 17 4 20 3 21 2 22 1 23 19 24 20 25
REMARK SMILES IDX 21 26 22 27 23 29 24 30 25 31 86 32 26 33 85 34 27 35 28 36
REMARK SMILES IDX 29 37 79 38 30 39 84 40 78 41 80 42 31 43 83 44 77 45 76 46
REMARK SMILES IDX 32 48 64 49 44 50 63 51 45 52 48 53 62 54 81 55 46 56 47 57
REMARK SMILES IDX 61 59 82 60 49 61 33 62 34 63 42 64 35 65 36 66 40 67 43 68
REMARK SMILES IDX 37 69 38 70 41 71 39 72 65 73 66 74 74 75 67 76 68 77 72 78
REMARK SMILES IDX 75 79 69 80 70 81 73 82 71 83 50 84 51 85 59 86 52 87 53 88
REMARK SMILES IDX 57 89 60 90 54 91 55 92 58 93 56 94
REMARK H PARENT 17 5 7 18 7 19 21 28 80 47 48 58
REMARK Flexibility Score: inf
ROOT
ATOM      1  C   UNL A   1      31.419  30.714  26.171  1.00  0.00     0.118 C 
ENDROOT
BRANCH   1   2
ATOM      2  N   UNL A   1      31.033  30.473  24.792  1.00  0.00    -0.352 N 
ATOM      3  C   UNL A   1      31.053  29.346  24.012  1.00  0.00     0.251 C 
ATOM      4  O   UNL A   1      30.593  29.436  22.873  1.00  0.00    -0.269 OA
ATOM      5  H   UNL A   1      30.691  31.272  24.329  1.00  0.00     0.163 HD
BRANCH   3   6
ATOM      6  C   UNL A   1      31.553  28.027  24.487  1.00  0.00     0.039 A 
ATOM      7  C   UNL A   1      32.321  25.473  25.433  1.00  0.00     0.037 A 
ATOM      8  C   UNL A   1      30.976  25.780  25.221  1.00  0.00     0.027 A 
ATOM      9  C   UNL A   1      33.278  26.440  25.118  1.00  0.00     0.027 A 
ATOM     10  C   UNL A   1      30.592  27.044  24.760  1.00  0.00     0.016 A 
ATOM     11  C   UNL A   1      32.902  27.698  24.628  1.00  0.00     0.016 A 
BRANCH   7  12
ATOM     12  N   UNL A   1      32.664  24.235  25.944  1.00  0.00    -0.357 N 
ATOM     13  C   UNL A   1      33.542  23.353  25.150  1.00  0.00     0.137 C 
ATOM     14  C   UNL A   1      32.738  22.136  24.601  1.00  0.00     0.285 C 
ATOM     15  N   UNL A   1      31.886  21.439  25.591  1.00  0.00    -0.343 N 
ATOM     16  C   UNL A   1      31.746  23.604  26.897  1.00  0.00     0.178 C 
ATOM     17  C   UNL A   1      30.994  22.428  26.236  1.00  0.00     0.282 C 
ATOM     18  H   UNL A   1      32.474  20.996  26.297  1.00  0.00     0.346 HD
ATOM     19  H   UNL A   1      31.328  20.724  25.125  1.00  0.00     0.346 HD
BRANCH  13  20
ATOM     20  C   UNL A   1      34.729  22.928  26.042  1.00  0.00     0.031 C 
BRANCH  20  21
ATOM     21  C   UNL A   1      36.022  23.711  25.782  1.00  0.00     0.002 C 
BRANCH  21  22
ATOM     22  C   UNL A   1      36.784  23.328  24.508  1.00  0.00    -0.003 C 
ATOM     23  C   UNL A   1      36.845  21.830  24.250  1.00  0.00     0.004 C 
ENDBRANCH  21  22
ENDBRANCH  20  21
ENDBRANCH  13  20
ENDBRANCH   7  12
ENDBRANCH   3   6
ENDBRANCH   1   2
BRANCH   1  24
ATOM     24  C   UNL A   1      31.357  32.204  26.508  1.00  0.00     0.042 C 
BRANCH  24  25
ATOM     25  C   UNL A   1      32.615  32.728  27.196  1.00  0.00     0.118 C 
BRANCH  25  26
ATOM     26  N   UNL A   1      32.470  34.111  27.625  1.00  0.00    -0.352 N 
ATOM     27  C   UNL A   1      33.095  34.794  28.639  1.00  0.00     0.251 C 
ATOM     28  H   UNL A   1      31.821  34.640  27.107  1.00  0.00     0.163 HD
ATOM     29  O   UNL A   1      32.675  35.899  28.970  1.00  0.00    -0.269 OA
BRANCH  27  30
ATOM     30  C   UNL A   1      34.258  34.214  29.346  1.00  0.00     0.039 A 
ATOM     31  C   UNL A   1      34.026  33.388  30.450  1.00  0.00     0.014 A 
ATOM     32  C   UNL A   1      35.570  34.526  28.976  1.00  0.00     0.014 A 
ATOM     33  C   UNL A   1      35.103  32.837  31.152  1.00  0.00     0.010 A 
ATOM     34  C   UNL A   1      36.642  33.930  29.639  1.00  0.00     0.010 A 
ATOM     35  C   UNL A   1      36.420  33.085  30.736  1.00  0.00    -0.014 A 
BRANCH  35  36
ATOM     36  C   UNL A   1      37.574  32.470  31.439  1.00  0.00     0.031 A 
ATOM     37  C   UNL A   1      38.311  31.314  30.822  1.00  0.00     0.074 A 
ATOM     38  C   UNL A   1      37.919  32.911  32.664  1.00  0.00     0.049 A 
ATOM     39  N   UNL A   1      39.288  30.595  31.315  1.00  0.00    -0.248 NA
ATOM     40  C   UNL A   1      37.874  30.894  29.481  1.00  0.00     0.031 C 
ATOM     41  C   UNL A   1      37.255  33.996  33.387  1.00  0.00     0.029 A 
ATOM     42  N   UNL A   1      38.902  32.490  33.524  1.00  0.00    -0.354 N 
ATOM     43  C   UNL A   1      39.567  29.628  30.359  1.00  0.00     0.074 A 
ATOM     44  C   UNL A   1      38.632  29.827  29.271  1.00  0.00     0.031 C 
ATOM     45  C   UNL A   1      37.855  34.163  34.577  1.00  0.00     0.029 A 
ATOM     46  C   UNL A   1      38.922  33.176  34.713  1.00  0.00     0.049 A 
ATOM     47  H   UNL A   1      39.533  31.765  33.309  1.00  0.00     0.167 HD
ATOM     48  C   UNL A   1      40.527  28.672  30.378  1.00  0.00     0.037 A 
ATOM     49  C   UNL A   1      39.706  33.019  35.797  1.00  0.00     0.037 A 
ATOM     50  C   UNL A   1      41.477  28.498  31.446  1.00  0.00     0.049 A 
ATOM     51  C   UNL A   1      40.773  31.960  35.787  1.00  0.00     0.074 A 
ATOM     52  C   UNL A   1      42.533  27.606  31.525  1.00  0.00     0.029 A 
ATOM     53  N   UNL A   1      41.486  29.233  32.622  1.00  0.00    -0.354 N 
ATOM     54  N   UNL A   1      41.072  31.095  34.848  1.00  0.00    -0.248 NA
ATOM     55  C   UNL A   1      41.618  31.859  36.986  1.00  0.00     0.031 C 
ATOM     56  C   UNL A   1      43.155  27.773  32.766  1.00  0.00     0.029 A 
ATOM     57  C   UNL A   1      42.516  28.801  33.441  1.00  0.00     0.049 A 
ATOM     58  H   UNL A   1      40.854  29.955  32.841  1.00  0.00     0.167 HD
ATOM     59  C   UNL A   1      42.150  30.366  35.330  1.00  0.00     0.074 A 
ATOM     60  C   UNL A   1      42.464  30.898  36.639  1.00  0.00     0.031 C 
ATOM     61  C   UNL A   1      42.819  29.346  34.739  1.00  0.00     0.037 A 
BRANCH  48  62
ATOM     62  C   UNL A   1      40.602  27.737  29.206  1.00  0.00     0.064 A 
ATOM     63  C   UNL A   1      39.765  26.616  29.104  1.00  0.00     0.173 A 
ATOM     64  C   UNL A   1      41.492  27.989  28.151  1.00  0.00     0.173 A 
ATOM     65  F   UNL A   1      38.903  26.325  30.090  1.00  0.00    -0.203 F 
ATOM     66  C   UNL A   1      39.834  25.767  28.002  1.00  0.00     0.198 A 
ATOM     67  C   UNL A   1      41.540  27.154  27.038  1.00  0.00     0.198 A 
ATOM     68  F   UNL A   1      42.311  29.052  28.196  1.00  0.00    -0.203 F 
ATOM     69  F   UNL A   1      39.056  24.679  27.946  1.00  0.00    -0.200 F 
ATOM     70  C   UNL A   1      40.717  26.041  26.967  1.00  0.00     0.200 A 
ATOM     71  F   UNL A   1      42.384  27.428  26.033  1.00  0.00    -0.200 F 
ATOM     72  F   UNL A   1      40.777  25.228  25.903  1.00  0.00    -0.200 F 
ENDBRANCH  48  62
BRANCH  49  73
ATOM     73  C   UNL A   1      39.522  33.904  36.976  1.00  0.00     0.064 A 
ATOM     74  C   UNL A   1      40.105  35.178  37.016  1.00  0.00     0.173 A 
ATOM     75  C   UNL A   1      38.763  33.497  38.083  1.00  0.00     0.173 A 
ATOM     76  F   UNL A   1      40.857  35.602  35.989  1.00  0.00    -0.203 F 
ATOM     77  C   UNL A   1      39.949  36.007  38.126  1.00  0.00     0.198 A 
ATOM     78  C   UNL A   1      38.586  34.336  39.181  1.00  0.00     0.198 A 
ATOM     79  F   UNL A   1      38.181  32.288  38.091  1.00  0.00    -0.203 F 
ATOM     80  F   UNL A   1      40.550  37.203  38.155  1.00  0.00    -0.200 F 
ATOM     81  C   UNL A   1      39.185  35.587  39.204  1.00  0.00     0.200 A 
ATOM     82  F   UNL A   1      37.837  33.933  40.215  1.00  0.00    -0.200 F 
ATOM     83  F   UNL A   1      39.031  36.385  40.269  1.00  0.00    -0.200 F 
ENDBRANCH  49  73
BRANCH  61  84
ATOM     84  C   UNL A   1      43.977  28.760  35.491  1.00  0.00     0.064 A 
ATOM     85  C   UNL A   1      45.283  29.243  35.322  1.00  0.00     0.173 A 
ATOM     86  C   UNL A   1      43.771  27.730  36.422  1.00  0.00     0.173 A 
ATOM     87  F   UNL A   1      45.532  30.216  34.432  1.00  0.00    -0.203 F 
ATOM     88  C   UNL A   1      46.344  28.700  36.040  1.00  0.00     0.198 A 
ATOM     89  C   UNL A   1      44.831  27.209  37.159  1.00  0.00     0.198 A 
ATOM     90  F   UNL A   1      42.540  27.237  36.624  1.00  0.00    -0.203 F 
ATOM     91  F   UNL A   1      47.590  29.147  35.832  1.00  0.00    -0.200 F 
ATOM     92  C   UNL A   1      46.116  27.690  36.963  1.00  0.00     0.200 A 
ATOM     93  F   UNL A   1      44.608  26.240  38.057  1.00  0.00    -0.200 F 
ATOM     94  F   UNL A   1      47.140  27.173  37.659  1.00  0.00    -0.200 F 
ENDBRANCH  61  84
ENDBRANCH  35  36
ENDBRANCH  27  30
ENDBRANCH  25  26
ENDBRANCH  24  25
ENDBRANCH   1  24
TORSDOF 14
ENDMDL
MODEL 3
REMARK VINA RESULT:     -11.7      1.355      2.681
REMARK SMILES CCCC[C@H]1C[NH2+]CCN1c1ccc(C(=O)NCCCNC(=O)c2ccc(-c3c4nc(c(-c5c(F)c(F)c(F)c(F)c5F)c5ccc([nH]5)c(-c5c(F)c(F)c(F)c(F)c5F)c5nc(c(-c6c(F)c(F)c(F)c(F)c6F)c6ccc3[nH]6)C=C5)C=C4)cc2)cc1
REMARK SMILES IDX 18 1 17 2 15 3 16 4 14 6 11 7 12 8 88 9 13 10 87 11 10 12
REMARK SMILES IDX 5 13 6 14 7 15 9 16 8 17 4 20 3 21 2 22 1 23 19 24 20 25
REMARK SMILES IDX 21 26 22 27 23 29 24 30 25 31 86 32 26 33 85 34 27 35 28 36
REMARK SMILES IDX 29 37 79 38 30 39 84 40 78 41 80 42 31 43 83 44 77 45 76 46
REMARK SMILES IDX 32 48 64 49 44 50 63 51 45 52 48 53 62 54 81 55 46 56 47 57
REMARK SMILES IDX 61 59 82 60 49 61 33 62 34 63 42 64 35 65 36 66 40 67 43 68
REMARK SMILES IDX 37 69 38 70 41 71 39 72 65 73 66 74 74 75 67 76 68 77 72 78
REMARK SMILES IDX 75 79 69 80 70 81 73 82 71 83 50 84 51 85 59 86 52 87 53 88
REMARK SMILES IDX 57 89 60 90 54 91 55 92 58 93 56 94
REMARK H PARENT 17 5 7 18 7 19 21 28 80 47 48 58
REMARK Flexibility Score: inf
ROOT
ATOM      1  C   UNL A   1      36.748  20.460  24.681  1.00  0.00     0.118 C 
ENDROOT
BRANCH   1   2
ATOM      2  N   UNL A   1      35.464  19.989  25.168  1.00  0.00    -0.352 N 
ATOM      3  C   UNL A   1      34.238  20.593  25.269  1.00  0.00     0.251 C 
ATOM      4  O   UNL A   1      33.299  19.906  25.672  1.00  0.00    -0.269 OA
ATOM      5  H   UNL A   1      35.477  19.058  25.487  1.00  0.00     0.163 HD
BRANCH   3   6
ATOM      6  C   UNL A   1      33.983  22.005  24.874  1.00  0.00     0.039 A 
ATOM      7  C   UNL A   1      33.502  24.633  23.938  1.00  0.00     0.037 A 
ATOM      8  C   UNL A   1      33.418  23.541  23.073  1.00  0.00     0.027 A 
ATOM      9  C   UNL A   1      33.778  24.389  25.285  1.00  0.00     0.027 A 
ATOM     10  C   UNL A   1      33.662  22.241  23.530  1.00  0.00     0.016 A 
ATOM     11  C   UNL A   1      33.994  23.087  25.756  1.00  0.00     0.016 A 
BRANCH   7  12
ATOM     12  N   UNL A   1      33.312  25.909  23.443  1.00  0.00    -0.357 N 
ATOM     13  C   UNL A   1      32.597  26.899  24.274  1.00  0.00     0.137 C 
ATOM     14  C   UNL A   1      31.191  27.201  23.672  1.00  0.00     0.285 C 
ATOM     15  N   UNL A   1      31.169  27.477  22.217  1.00  0.00    -0.343 N 
ATOM     16  C   UNL A   1      33.274  26.087  21.988  1.00  0.00     0.178 C 
ATOM     17  C   UNL A   1      31.831  26.360  21.508  1.00  0.00     0.282 C 
ATOM     18  H   UNL A   1      31.667  28.346  22.027  1.00  0.00     0.346 HD
ATOM     19  H   UNL A   1      30.205  27.566  21.897  1.00  0.00     0.346 HD
BRANCH  13  20
ATOM     20  C   UNL A   1      33.480  28.161  24.385  1.00  0.00     0.031 C 
BRANCH  20  21
ATOM     21  C   UNL A   1      33.228  28.994  25.647  1.00  0.00     0.002 C 
BRANCH  21  22
ATOM     22  C   UNL A   1      33.155  28.204  26.959  1.00  0.00    -0.003 C 
ATOM     23  C   UNL A   1      31.778  28.205  27.607  1.00  0.00     0.004 C 
ENDBRANCH  21  22
ENDBRANCH  20  21
ENDBRANCH  13  20
ENDBRANCH   7  12
ENDBRANCH   3   6
ENDBRANCH   1   2
BRANCH   1  24
ATOM     24  C   UNL A   1      37.859  19.459  24.998  1.00  0.00     0.042 C 
BRANCH  24  25
ATOM     25  C   UNL A   1      39.037  20.072  25.751  1.00  0.00     0.118 C 
BRANCH  25  26
ATOM     26  N   UNL A   1      40.133  19.128  25.915  1.00  0.00    -0.352 N 
ATOM     27  C   UNL A   1      41.473  19.353  26.114  1.00  0.00     0.251 C 
ATOM     28  H   UNL A   1      39.873  18.179  25.878  1.00  0.00     0.163 HD
ATOM     29  O   UNL A   1      42.262  18.417  26.018  1.00  0.00    -0.269 OA
BRANCH  27  30
ATOM     30  C   UNL A   1      41.982  20.705  26.431  1.00  0.00     0.039 A 
ATOM     31  C   UNL A   1      42.230  21.590  25.377  1.00  0.00     0.014 A 
ATOM     32  C   UNL A   1      42.277  21.088  27.743  1.00  0.00     0.014 A 
ATOM     33  C   UNL A   1      42.727  22.870  25.640  1.00  0.00     0.010 A 
ATOM     34  C   UNL A   1      42.716  22.384  28.010  1.00  0.00     0.010 A 
ATOM     35  C   UNL A   1      42.951  23.286  26.961  1.00  0.00    -0.014 A 
BRANCH  35  36
ATOM     36  C   UNL A   1      43.433  24.658  27.263  1.00  0.00     0.031 A 
ATOM     37  C   UNL A   1      42.488  25.691  27.810  1.00  0.00     0.074 A 
ATOM     38  C   UNL A   1      44.707  24.992  26.982  1.00  0.00     0.049 A 
ATOM     39  N   UNL A   1      42.699  26.959  28.059  1.00  0.00    -0.248 NA
ATOM     40  C   UNL A   1      41.114  25.245  28.090  1.00  0.00     0.031 C 
ATOM     41  C   UNL A   1      45.709  24.092  26.409  1.00  0.00     0.029 A 
ATOM     42  N   UNL A   1      45.373  26.183  27.125  1.00  0.00    -0.354 N 
ATOM     43  C   UNL A   1      41.486  27.465  28.504  1.00  0.00     0.074 A 
ATOM     44  C   UNL A   1      40.531  26.378  28.455  1.00  0.00     0.031 C 
ATOM     45  C   UNL A   1      46.864  24.759  26.259  1.00  0.00     0.029 A 
ATOM     46  C   UNL A   1      46.675  26.141  26.693  1.00  0.00     0.049 A 
ATOM     47  H   UNL A   1      44.956  26.992  27.502  1.00  0.00     0.167 HD
ATOM     48  C   UNL A   1      41.198  28.719  28.930  1.00  0.00     0.037 A 
ATOM     49  C   UNL A   1      47.609  27.110  26.641  1.00  0.00     0.037 A 
ATOM     50  C   UNL A   1      42.158  29.789  29.010  1.00  0.00     0.049 A 
ATOM     51  C   UNL A   1      47.268  28.489  27.133  1.00  0.00     0.074 A 
ATOM     52  C   UNL A   1      41.981  31.073  29.496  1.00  0.00     0.029 A 
ATOM     53  N   UNL A   1      43.476  29.699  28.591  1.00  0.00    -0.354 N 
ATOM     54  N   UNL A   1      46.135  28.938  27.615  1.00  0.00    -0.248 NA
ATOM     55  C   UNL A   1      48.339  29.494  27.082  1.00  0.00     0.031 C 
ATOM     56  C   UNL A   1      43.182  31.772  29.334  1.00  0.00     0.029 A 
ATOM     57  C   UNL A   1      44.119  30.910  28.789  1.00  0.00     0.049 A 
ATOM     58  H   UNL A   1      43.895  28.893  28.210  1.00  0.00     0.167 HD
ATOM     59  C   UNL A   1      46.361  30.267  27.946  1.00  0.00     0.074 A 
ATOM     60  C   UNL A   1      47.745  30.549  27.624  1.00  0.00     0.031 C 
ATOM     61  C   UNL A   1      45.499  31.172  28.469  1.00  0.00     0.037 A 
BRANCH  48  62
ATOM     62  C   UNL A   1      39.785  29.005  29.348  1.00  0.00     0.064 A 
ATOM     63  C   UNL A   1      39.359  28.826  30.673  1.00  0.00     0.173 A 
ATOM     64  C   UNL A   1      38.857  29.506  28.423  1.00  0.00     0.173 A 
ATOM     65  F   UNL A   1      40.205  28.340  31.594  1.00  0.00    -0.203 F 
ATOM     66  C   UNL A   1      38.049  29.112  31.050  1.00  0.00     0.198 A 
ATOM     67  C   UNL A   1      37.556  29.817  28.809  1.00  0.00     0.198 A 
ATOM     68  F   UNL A   1      39.215  29.701  27.145  1.00  0.00    -0.203 F 
ATOM     69  F   UNL A   1      37.652  28.893  32.310  1.00  0.00    -0.200 F 
ATOM     70  C   UNL A   1      37.151  29.614  30.119  1.00  0.00     0.200 A 
ATOM     71  F   UNL A   1      36.693  30.314  27.911  1.00  0.00    -0.200 F 
ATOM     72  F   UNL A   1      35.893  29.896  30.485  1.00  0.00    -0.200 F 
ENDBRANCH  48  62
BRANCH  49  73
ATOM     73  C   UNL A   1      48.966  26.801  26.120  1.00  0.00     0.064 A 
ATOM     74  C   UNL A   1      49.962  26.295  26.965  1.00  0.00     0.173 A 
ATOM     75  C   UNL A   1      49.293  27.002  24.771  1.00  0.00     0.173 A 
ATOM     76  F   UNL A   1      49.702  26.105  28.268  1.00  0.00    -0.203 F 
ATOM     77  C   UNL A   1      51.241  26.018  26.486  1.00  0.00     0.198 A 
ATOM     78  C   UNL A   1      50.564  26.701  24.286  1.00  0.00     0.198 A 
ATOM     79  F   UNL A   1      48.372  27.480  23.920  1.00  0.00    -0.203 F 
ATOM     80  F   UNL A   1      52.187  25.575  27.324  1.00  0.00    -0.200 F 
ATOM     81  C   UNL A   1      51.539  26.216  25.146  1.00  0.00     0.200 A 
ATOM     82  F   UNL A   1      50.843  26.881  22.989  1.00  0.00    -0.200 F 
ATOM     83  F   UNL A   1      52.767  25.946  24.684  1.00  0.00    -0.200 F 
ENDBRANCH  49  73
BRANCH  61  84
ATOM     84  C   UNL A   1      46.035  32.544  28.755  1.00  0.00     0.064 A 
ATOM     85  C   UNL A   1      46.619  32.861  29.991  1.00  0.00     0.173 A 
ATOM     86  C   UNL A   1      46.001  33.539  27.767  1.00  0.00     0.173 A 
ATOM     87  F   UNL A   1      46.660  31.947  30.972  1.00  0.00    -0.203 F 
ATOM     88  C   UNL A   1      47.127  34.133  30.234  1.00  0.00     0.198 A 
ATOM     89  C   UNL A   1      46.537  34.802  28.005  1.00  0.00     0.198 A 
ATOM     90  F   UNL A   1      45.459  33.283  26.567  1.00  0.00    -0.203 F 
ATOM     91  F   UNL A   1      47.642  34.428  31.436  1.00  0.00    -0.200 F 
ATOM     92  C   UNL A   1      47.093  35.099  29.239  1.00  0.00     0.200 A 
ATOM     93  F   UNL A   1      46.512  35.731  27.040  1.00  0.00    -0.200 F 
ATOM     94  F   UNL A   1      47.590  36.323  29.474  1.00  0.00    -0.200 F 
ENDBRANCH  61  84
ENDBRANCH  35  36
ENDBRANCH  27  30
ENDBRANCH  25  26
ENDBRANCH  24  25
ENDBRANCH   1  24
TORSDOF 14
ENDMDL
