MODEL 1
REMARK VINA RESULT:     -10.7      0.000      0.000
REMARK SMILES [NH3+][C@H](CCc1c[nH]nc1C(F)(F)F)C(=O)NCCCNC(=O)c1ccc(-c2c3nc(c(-c4c(F)c(F)c(F)c(F)c4F)c4ccc([nH]4)c(-c4c(F)c(F)c(F)c(F)c4F)c4nc(c(-c5c(F)c(F)c(F)c(F)c5F)c5ccc2[nH]5)C=C4)C=C3)cc1
REMARK SMILES IDX 17 1 16 2 14 3 15 4 2 6 1 7 3 11 4 12 5 13 6 14 9 15 7 16
REMARK SMILES IDX 8 17 10 19 11 20 12 21 13 22 18 23 19 24 20 25 21 26 22 28
REMARK SMILES IDX 23 29 24 30 85 31 25 32 84 33 26 34 27 35 28 36 78 37 29 38
REMARK SMILES IDX 83 39 77 40 79 41 30 42 82 43 76 44 75 45 31 47 63 48 43 49
REMARK SMILES IDX 62 50 44 51 47 52 61 53 80 54 45 55 46 56 60 58 81 59 48 60
REMARK SMILES IDX 32 61 33 62 41 63 34 64 35 65 39 66 42 67 36 68 37 69 40 70
REMARK SMILES IDX 38 71 64 72 65 73 73 74 66 75 67 76 71 77 74 78 68 79 69 80
REMARK SMILES IDX 72 81 70 82 49 83 50 84 58 85 51 86 52 87 56 88 59 89 53 90
REMARK SMILES IDX 54 91 57 92 55 93
REMARK H PARENT 16 5 1 8 1 9 1 10 7 18 20 27 79 46 47 57
REMARK Flexibility Score: inf
ROOT
ATOM      1  C   UNL A   1      33.282  34.702  29.133  1.00  0.00     0.118 C 
ENDROOT
BRANCH   1   2
ATOM      2  N   UNL A   1      33.218  36.020  29.725  1.00  0.00    -0.351 N 
ATOM      3  C   UNL A   1      33.085  36.431  31.016  1.00  0.00     0.278 C 
ATOM      4  O   UNL A   1      32.884  37.640  31.179  1.00  0.00    -0.268 OA
ATOM      5  H   UNL A   1      33.283  36.756  29.074  1.00  0.00     0.163 HD
BRANCH   3   6
ATOM      6  C   UNL A   1      33.216  35.484  32.238  1.00  0.00     0.271 C 
BRANCH   6   7
ATOM      7  N   UNL A   1      31.907  35.173  32.818  1.00  0.00    -0.347 N 
ATOM      8  H   UNL A   1      31.884  35.482  33.790  1.00  0.00     0.345 HD
ATOM      9  H   UNL A   1      31.746  34.167  32.776  1.00  0.00     0.345 HD
ATOM     10  H   UNL A   1      31.178  35.656  32.291  1.00  0.00     0.345 HD
ENDBRANCH   6   7
BRANCH   6  11
ATOM     11  C   UNL A   1      34.388  35.690  33.216  1.00  0.00     0.080 C 
BRANCH  11  12
ATOM     12  C   UNL A   1      35.814  35.188  32.987  1.00  0.00     0.046 C 
BRANCH  12  13
ATOM     13  C   UNL A   1      36.399  34.083  33.821  1.00  0.00     0.003 A 
ATOM     14  C   UNL A   1      37.181  34.146  34.956  1.00  0.00     0.109 A 
ATOM     15  C   UNL A   1      36.392  32.669  33.506  1.00  0.00     0.169 A 
ATOM     16  N   UNL A   1      37.520  32.872  35.296  1.00  0.00    -0.285 N 
ATOM     17  N   UNL A   1      37.056  31.960  34.443  1.00  0.00    -0.171 NA
ATOM     18  H   UNL A   1      38.054  32.647  36.092  1.00  0.00     0.189 HD
BRANCH  15  19
ATOM     19  C   UNL A   1      35.790  31.967  32.306  1.00  0.00     0.435 C 
ATOM     20  F   UNL A   1      36.395  32.316  31.138  1.00  0.00    -0.164 F 
ATOM     21  F   UNL A   1      35.876  30.615  32.409  1.00  0.00    -0.164 F 
ATOM     22  F   UNL A   1      34.470  32.258  32.136  1.00  0.00    -0.164 F 
ENDBRANCH  15  19
ENDBRANCH  12  13
ENDBRANCH  11  12
ENDBRANCH   6  11
ENDBRANCH   3   6
ENDBRANCH   1   2
BRANCH   1  23
ATOM     23  C   UNL A   1      34.475  34.585  28.192  1.00  0.00     0.042 C 
BRANCH  23  24
ATOM     24  C   UNL A   1      35.143  33.223  28.214  1.00  0.00     0.118 C 
BRANCH  24  25
ATOM     25  N   UNL A   1      34.299  32.181  27.653  1.00  0.00    -0.352 N 
ATOM     26  C   UNL A   1      34.564  30.843  27.460  1.00  0.00     0.251 C 
ATOM     27  H   UNL A   1      33.403  32.475  27.369  1.00  0.00     0.163 HD
ATOM     28  O   UNL A   1      33.793  30.159  26.801  1.00  0.00    -0.269 OA
BRANCH  26  29
ATOM     29  C   UNL A   1      35.793  30.239  28.025  1.00  0.00     0.039 A 
ATOM     30  C   UNL A   1      36.980  30.293  27.289  1.00  0.00     0.014 A 
ATOM     31  C   UNL A   1      35.778  29.620  29.277  1.00  0.00     0.014 A 
ATOM     32  C   UNL A   1      38.165  29.796  27.842  1.00  0.00     0.010 A 
ATOM     33  C   UNL A   1      36.971  29.220  29.865  1.00  0.00     0.010 A 
ATOM     34  C   UNL A   1      38.178  29.294  29.153  1.00  0.00    -0.014 A 
BRANCH  34  35
ATOM     35  C   UNL A   1      39.422  28.811  29.806  1.00  0.00     0.031 A 
ATOM     36  C   UNL A   1      39.974  29.558  30.991  1.00  0.00     0.074 A 
ATOM     37  C   UNL A   1      40.109  27.779  29.278  1.00  0.00     0.049 A 
ATOM     38  N   UNL A   1      41.125  29.422  31.597  1.00  0.00    -0.248 NA
ATOM     39  C   UNL A   1      39.128  30.629  31.544  1.00  0.00     0.031 C 
ATOM     40  C   UNL A   1      39.698  26.996  28.112  1.00  0.00     0.029 A 
ATOM     41  N   UNL A   1      41.313  27.227  29.640  1.00  0.00    -0.354 N 
ATOM     42  C   UNL A   1      41.153  30.407  32.576  1.00  0.00     0.074 A 
ATOM     43  C   UNL A   1      39.930  31.167  32.449  1.00  0.00     0.031 C 
ATOM     44  C   UNL A   1      40.626  26.058  27.863  1.00  0.00     0.029 A 
ATOM     45  C   UNL A   1      41.720  26.205  28.818  1.00  0.00     0.049 A 
ATOM     46  H   UNL A   1      41.835  27.535  30.416  1.00  0.00     0.167 HD
ATOM     47  C   UNL A   1      42.105  30.641  33.512  1.00  0.00     0.037 A 
ATOM     48  C   UNL A   1      42.859  25.484  28.820  1.00  0.00     0.037 A 
ATOM     49  C   UNL A   1      43.302  29.857  33.654  1.00  0.00     0.049 A 
ATOM     50  C   UNL A   1      43.906  25.770  29.864  1.00  0.00     0.074 A 
ATOM     51  C   UNL A   1      44.302  29.976  34.603  1.00  0.00     0.029 A 
ATOM     52  N   UNL A   1      43.659  28.806  32.823  1.00  0.00    -0.354 N 
ATOM     53  N   UNL A   1      43.901  26.670  30.817  1.00  0.00    -0.248 NA
ATOM     54  C   UNL A   1      45.117  24.936  29.836  1.00  0.00     0.031 C 
ATOM     55  C   UNL A   1      45.288  29.028  34.317  1.00  0.00     0.029 A 
ATOM     56  C   UNL A   1      44.875  28.278  33.228  1.00  0.00     0.049 A 
ATOM     57  H   UNL A   1      43.129  28.483  32.060  1.00  0.00     0.167 HD
ATOM     58  C   UNL A   1      45.080  26.486  31.525  1.00  0.00     0.074 A 
ATOM     59  C   UNL A   1      45.779  25.386  30.893  1.00  0.00     0.031 C 
ATOM     60  C   UNL A   1      45.540  27.163  32.605  1.00  0.00     0.037 A 
BRANCH  47  61
ATOM     61  C   UNL A   1      41.888  31.792  34.453  1.00  0.00     0.064 A 
ATOM     62  C   UNL A   1      41.151  31.647  35.638  1.00  0.00     0.173 A 
ATOM     63  C   UNL A   1      42.454  33.048  34.183  1.00  0.00     0.173 A 
ATOM     64  F   UNL A   1      40.579  30.472  35.940  1.00  0.00    -0.203 F 
ATOM     65  C   UNL A   1      40.959  32.724  36.500  1.00  0.00     0.198 A 
ATOM     66  C   UNL A   1      42.290  34.114  35.064  1.00  0.00     0.198 A 
ATOM     67  F   UNL A   1      43.174  33.241  33.068  1.00  0.00    -0.203 F 
ATOM     68  F   UNL A   1      40.203  32.577  37.596  1.00  0.00    -0.200 F 
ATOM     69  C   UNL A   1      41.535  33.954  36.217  1.00  0.00     0.200 A 
ATOM     70  F   UNL A   1      42.860  35.296  34.797  1.00  0.00    -0.200 F 
ATOM     71  F   UNL A   1      41.356  34.987  37.051  1.00  0.00    -0.200 F 
ENDBRANCH  47  61
BRANCH  48  72
ATOM     72  C   UNL A   1      43.061  24.408  27.813  1.00  0.00     0.064 A 
ATOM     73  C   UNL A   1      43.647  24.687  26.570  1.00  0.00     0.173 A 
ATOM     74  C   UNL A   1      42.667  23.085  28.065  1.00  0.00     0.173 A 
ATOM     75  F   UNL A   1      44.020  25.941  26.274  1.00  0.00    -0.203 F 
ATOM     76  C   UNL A   1      43.813  23.690  25.611  1.00  0.00     0.198 A 
ATOM     77  C   UNL A   1      42.863  22.083  27.116  1.00  0.00     0.198 A 
ATOM     78  F   UNL A   1      42.106  22.763  29.240  1.00  0.00    -0.203 F 
ATOM     79  F   UNL A   1      44.331  23.996  24.414  1.00  0.00    -0.200 F 
ATOM     80  C   UNL A   1      43.426  22.388  25.887  1.00  0.00     0.200 A 
ATOM     81  F   UNL A   1      42.500  20.823  27.392  1.00  0.00    -0.200 F 
ATOM     82  F   UNL A   1      43.587  21.429  24.964  1.00  0.00    -0.200 F 
ENDBRANCH  48  72
BRANCH  60  83
ATOM     83  C   UNL A   1      46.827  26.699  33.223  1.00  0.00     0.064 A 
ATOM     84  C   UNL A   1      48.069  27.212  32.825  1.00  0.00     0.173 A 
ATOM     85  C   UNL A   1      46.804  25.777  34.282  1.00  0.00     0.173 A 
ATOM     86  F   UNL A   1      48.146  28.083  31.808  1.00  0.00    -0.203 F 
ATOM     87  C   UNL A   1      49.244  26.808  33.456  1.00  0.00     0.198 A 
ATOM     88  C   UNL A   1      47.975  25.401  34.931  1.00  0.00     0.198 A 
ATOM     89  F   UNL A   1      45.639  25.263  34.706  1.00  0.00    -0.203 F 
ATOM     90  F   UNL A   1      50.424  27.284  33.037  1.00  0.00    -0.200 F 
ATOM     91  C   UNL A   1      49.194  25.913  34.514  1.00  0.00     0.200 A 
ATOM     92  F   UNL A   1      47.924  24.550  35.965  1.00  0.00    -0.200 F 
ATOM     93  F   UNL A   1      50.325  25.541  35.133  1.00  0.00    -0.200 F 
ENDBRANCH  60  83
ENDBRANCH  34  35
ENDBRANCH  26  29
ENDBRANCH  24  25
ENDBRANCH  23  24
ENDBRANCH   1  23
TORSDOF 15
ENDMDL
MODEL 2
REMARK VINA RESULT:     -10.7      3.660      9.913
REMARK SMILES [NH3+][C@H](CCc1c[nH]nc1C(F)(F)F)C(=O)NCCCNC(=O)c1ccc(-c2c3nc(c(-c4c(F)c(F)c(F)c(F)c4F)c4ccc([nH]4)c(-c4c(F)c(F)c(F)c(F)c4F)c4nc(c(-c5c(F)c(F)c(F)c(F)c5F)c5ccc2[nH]5)C=C4)C=C3)cc1
REMARK SMILES IDX 17 1 16 2 14 3 15 4 2 6 1 7 3 11 4 12 5 13 6 14 9 15 7 16
REMARK SMILES IDX 8 17 10 19 11 20 12 21 13 22 18 23 19 24 20 25 21 26 22 28
REMARK SMILES IDX 23 29 24 30 85 31 25 32 84 33 26 34 27 35 28 36 78 37 29 38
REMARK SMILES IDX 83 39 77 40 79 41 30 42 82 43 76 44 75 45 31 47 63 48 43 49
REMARK SMILES IDX 62 50 44 51 47 52 61 53 80 54 45 55 46 56 60 58 81 59 48 60
REMARK SMILES IDX 32 61 33 62 41 63 34 64 35 65 39 66 42 67 36 68 37 69 40 70
REMARK SMILES IDX 38 71 64 72 65 73 73 74 66 75 67 76 71 77 74 78 68 79 69 80
REMARK SMILES IDX 72 81 70 82 49 83 50 84 58 85 51 86 52 87 56 88 59 89 53 90
REMARK SMILES IDX 54 91 57 92 55 93
REMARK H PARENT 16 5 1 8 1 9 1 10 7 18 20 27 79 46 47 57
REMARK Flexibility Score: inf
ROOT
ATOM      1  C   UNL A   1      31.728  30.868  25.976  1.00  0.00     0.118 C 
ENDROOT
BRANCH   1   2
ATOM      2  N   UNL A   1      32.925  30.238  26.489  1.00  0.00    -0.351 N 
ATOM      3  C   UNL A   1      33.157  28.988  26.975  1.00  0.00     0.278 C 
ATOM      4  O   UNL A   1      34.262  28.812  27.504  1.00  0.00    -0.268 OA
ATOM      5  H   UNL A   1      33.718  30.822  26.485  1.00  0.00     0.163 HD
BRANCH   3   6
ATOM      6  C   UNL A   1      32.149  27.817  26.852  1.00  0.00     0.271 C 
BRANCH   6   7
ATOM      7  N   UNL A   1      31.266  27.745  28.020  1.00  0.00    -0.347 N 
ATOM      8  H   UNL A   1      31.659  28.305  28.777  1.00  0.00     0.345 HD
ATOM      9  H   UNL A   1      31.181  26.775  28.323  1.00  0.00     0.345 HD
ATOM     10  H   UNL A   1      30.345  28.106  27.772  1.00  0.00     0.345 HD
ENDBRANCH   6   7
BRANCH   6  11
ATOM     11  C   UNL A   1      32.627  26.483  26.249  1.00  0.00     0.080 C 
BRANCH  11  12
ATOM     12  C   UNL A   1      33.830  26.327  25.318  1.00  0.00     0.046 C 
BRANCH  12  13
ATOM     13  C   UNL A   1      33.703  26.525  23.833  1.00  0.00     0.003 A 
ATOM     14  C   UNL A   1      33.406  27.663  23.112  1.00  0.00     0.109 A 
ATOM     15  C   UNL A   1      33.714  25.489  22.821  1.00  0.00     0.169 A 
ATOM     16  N   UNL A   1      33.334  27.312  21.798  1.00  0.00    -0.285 N 
ATOM     17  N   UNL A   1      33.519  26.009  21.591  1.00  0.00    -0.171 NA
ATOM     18  H   UNL A   1      33.162  27.957  21.073  1.00  0.00     0.189 HD
BRANCH  15  19
ATOM     19  C   UNL A   1      33.878  23.993  22.997  1.00  0.00     0.435 C 
ATOM     20  F   UNL A   1      35.156  23.639  23.300  1.00  0.00    -0.164 F 
ATOM     21  F   UNL A   1      33.086  23.506  23.988  1.00  0.00    -0.164 F 
ATOM     22  F   UNL A   1      33.561  23.294  21.871  1.00  0.00    -0.164 F 
ENDBRANCH  15  19
ENDBRANCH  12  13
ENDBRANCH  11  12
ENDBRANCH   6  11
ENDBRANCH   3   6
ENDBRANCH   1   2
BRANCH   1  23
ATOM     23  C   UNL A   1      31.419  32.152  26.738  1.00  0.00     0.042 C 
BRANCH  23  24
ATOM     24  C   UNL A   1      32.646  32.840  27.305  1.00  0.00     0.118 C 
BRANCH  24  25
ATOM     25  N   UNL A   1      32.397  34.232  27.644  1.00  0.00    -0.352 N 
ATOM     26  C   UNL A   1      32.987  35.023  28.605  1.00  0.00     0.251 C 
ATOM     27  H   UNL A   1      31.701  34.675  27.107  1.00  0.00     0.163 HD
ATOM     28  O   UNL A   1      32.512  36.119  28.866  1.00  0.00    -0.269 OA
BRANCH  26  29
ATOM     29  C   UNL A   1      34.178  34.536  29.340  1.00  0.00     0.039 A 
ATOM     30  C   UNL A   1      34.011  33.960  30.603  1.00  0.00     0.014 A 
ATOM     31  C   UNL A   1      35.456  34.647  28.789  1.00  0.00     0.014 A 
ATOM     32  C   UNL A   1      35.115  33.427  31.277  1.00  0.00     0.010 A 
ATOM     33  C   UNL A   1      36.533  34.028  29.411  1.00  0.00     0.010 A 
ATOM     34  C   UNL A   1      36.379  33.418  30.666  1.00  0.00    -0.014 A 
BRANCH  34  35
ATOM     35  C   UNL A   1      37.570  32.810  31.313  1.00  0.00     0.031 A 
ATOM     36  C   UNL A   1      38.261  31.648  30.651  1.00  0.00     0.074 A 
ATOM     37  C   UNL A   1      37.963  33.223  32.534  1.00  0.00     0.049 A 
ATOM     38  N   UNL A   1      39.194  30.860  31.116  1.00  0.00    -0.248 NA
ATOM     39  C   UNL A   1      37.810  31.305  29.292  1.00  0.00     0.031 C 
ATOM     40  C   UNL A   1      37.356  34.315  33.296  1.00  0.00     0.029 A 
ATOM     41  N   UNL A   1      38.955  32.754  33.361  1.00  0.00    -0.354 N 
ATOM     42  C   UNL A   1      39.418  29.913  30.124  1.00  0.00     0.074 A 
ATOM     43  C   UNL A   1      38.486  30.192  29.055  1.00  0.00     0.031 C 
ATOM     44  C   UNL A   1      37.994  34.440  34.471  1.00  0.00     0.029 A 
ATOM     45  C   UNL A   1      39.021  33.407  34.567  1.00  0.00     0.049 A 
ATOM     46  H   UNL A   1      39.561  32.019  33.111  1.00  0.00     0.167 HD
ATOM     47  C   UNL A   1      40.334  28.915  30.100  1.00  0.00     0.037 A 
ATOM     48  C   UNL A   1      39.807  33.183  35.639  1.00  0.00     0.037 A 
ATOM     49  C   UNL A   1      41.281  28.667  31.153  1.00  0.00     0.049 A 
ATOM     50  C   UNL A   1      40.811  32.062  35.591  1.00  0.00     0.074 A 
ATOM     51  C   UNL A   1      42.287  27.719  31.201  1.00  0.00     0.029 A 
ATOM     52  N   UNL A   1      41.340  29.377  32.343  1.00  0.00    -0.354 N 
ATOM     53  N   UNL A   1      41.049  31.205  34.628  1.00  0.00    -0.248 NA
ATOM     54  C   UNL A   1      41.659  31.878  36.777  1.00  0.00     0.031 C 
ATOM     55  C   UNL A   1      42.923  27.822  32.442  1.00  0.00     0.029 A 
ATOM     56  C   UNL A   1      42.355  28.874  33.141  1.00  0.00     0.049 A 
ATOM     57  H   UNL A   1      40.749  30.125  32.586  1.00  0.00     0.167 HD
ATOM     58  C   UNL A   1      42.097  30.410  35.072  1.00  0.00     0.074 A 
ATOM     59  C   UNL A   1      42.452  30.888  36.393  1.00  0.00     0.031 C 
ATOM     60  C   UNL A   1      42.713  29.382  34.441  1.00  0.00     0.037 A 
BRANCH  47  61
ATOM     61  C   UNL A   1      40.354  28.018  28.895  1.00  0.00     0.064 A 
ATOM     62  C   UNL A   1      41.103  28.335  27.751  1.00  0.00     0.173 A 
ATOM     63  C   UNL A   1      39.642  26.808  28.897  1.00  0.00     0.173 A 
ATOM     64  F   UNL A   1      41.793  29.483  27.691  1.00  0.00    -0.203 F 
ATOM     65  C   UNL A   1      41.110  27.492  26.643  1.00  0.00     0.198 A 
ATOM     66  C   UNL A   1      39.679  25.951  27.801  1.00  0.00     0.198 A 
ATOM     67  F   UNL A   1      38.914  26.453  29.966  1.00  0.00    -0.203 F 
ATOM     68  F   UNL A   1      41.787  27.843  25.540  1.00  0.00    -0.200 F 
ATOM     69  C   UNL A   1      40.406  26.298  26.670  1.00  0.00     0.200 A 
ATOM     70  F   UNL A   1      39.011  24.790  27.836  1.00  0.00    -0.200 F 
ATOM     71  F   UNL A   1      40.420  25.484  25.606  1.00  0.00    -0.200 F 
ENDBRANCH  47  61
BRANCH  48  72
ATOM     72  C   UNL A   1      39.691  34.051  36.841  1.00  0.00     0.064 A 
ATOM     73  C   UNL A   1      40.378  35.271  36.917  1.00  0.00     0.173 A 
ATOM     74  C   UNL A   1      38.901  33.679  37.940  1.00  0.00     0.173 A 
ATOM     75  F   UNL A   1      41.163  35.660  35.902  1.00  0.00    -0.203 F 
ATOM     76  C   UNL A   1      40.297  36.075  38.052  1.00  0.00     0.198 A 
ATOM     77  C   UNL A   1      38.796  34.500  39.062  1.00  0.00     0.198 A 
ATOM     78  F   UNL A   1      38.219  32.525  37.918  1.00  0.00    -0.203 F 
ATOM     79  F   UNL A   1      41.004  37.212  38.116  1.00  0.00    -0.200 F 
ATOM     80  C   UNL A   1      39.502  35.692  39.121  1.00  0.00     0.200 A 
ATOM     81  F   UNL A   1      38.016  34.132  40.087  1.00  0.00    -0.200 F 
ATOM     82  F   UNL A   1      39.423  36.466  40.212  1.00  0.00    -0.200 F 
ENDBRANCH  48  72
BRANCH  60  83
ATOM     83  C   UNL A   1      43.882  28.740  35.130  1.00  0.00     0.064 A 
ATOM     84  C   UNL A   1      43.725  27.644  35.990  1.00  0.00     0.173 A 
ATOM     85  C   UNL A   1      45.186  29.188  34.865  1.00  0.00     0.173 A 
ATOM     86  F   UNL A   1      42.499  27.187  36.287  1.00  0.00    -0.203 F 
ATOM     87  C   UNL A   1      44.832  27.028  36.570  1.00  0.00     0.198 A 
ATOM     88  C   UNL A   1      46.290  28.551  35.421  1.00  0.00     0.198 A 
ATOM     89  F   UNL A   1      45.389  30.229  34.042  1.00  0.00    -0.203 F 
ATOM     90  F   UNL A   1      44.658  26.004  37.417  1.00  0.00    -0.200 F 
ATOM     91  C   UNL A   1      46.111  27.475  36.277  1.00  0.00     0.200 A 
ATOM     92  F   UNL A   1      47.526  28.973  35.123  1.00  0.00    -0.200 F 
ATOM     93  F   UNL A   1      47.176  26.868  36.822  1.00  0.00    -0.200 F 
ENDBRANCH  60  83
ENDBRANCH  34  35
ENDBRANCH  26  29
ENDBRANCH  24  25
ENDBRANCH  23  24
ENDBRANCH   1  23
TORSDOF 15
ENDMDL
MODEL 3
REMARK VINA RESULT:     -10.6      4.143     10.094
REMARK SMILES [NH3+][C@H](CCc1c[nH]nc1C(F)(F)F)C(=O)NCCCNC(=O)c1ccc(-c2c3nc(c(-c4c(F)c(F)c(F)c(F)c4F)c4ccc([nH]4)c(-c4c(F)c(F)c(F)c(F)c4F)c4nc(c(-c5c(F)c(F)c(F)c(F)c5F)c5ccc2[nH]5)C=C4)C=C3)cc1
REMARK SMILES IDX 17 1 16 2 14 3 15 4 2 6 1 7 3 11 4 12 5 13 6 14 9 15 7 16
REMARK SMILES IDX 8 17 10 19 11 20 12 21 13 22 18 23 19 24 20 25 21 26 22 28
REMARK SMILES IDX 23 29 24 30 85 31 25 32 84 33 26 34 27 35 28 36 78 37 29 38
REMARK SMILES IDX 83 39 77 40 79 41 30 42 82 43 76 44 75 45 31 47 63 48 43 49
REMARK SMILES IDX 62 50 44 51 47 52 61 53 80 54 45 55 46 56 60 58 81 59 48 60
REMARK SMILES IDX 32 61 33 62 41 63 34 64 35 65 39 66 42 67 36 68 37 69 40 70
REMARK SMILES IDX 38 71 64 72 65 73 73 74 66 75 67 76 71 77 74 78 68 79 69 80
REMARK SMILES IDX 72 81 70 82 49 83 50 84 58 85 51 86 52 87 56 88 59 89 53 90
REMARK SMILES IDX 54 91 57 92 55 93
REMARK H PARENT 16 5 1 8 1 9 1 10 7 18 20 27 79 46 47 57
REMARK Flexibility Score: inf
ROOT
ATOM      1  C   UNL A   1      31.662  30.288  26.293  1.00  0.00     0.118 C 
ENDROOT
BRANCH   1   2
ATOM      2  N   UNL A   1      32.399  30.007  25.081  1.00  0.00    -0.351 N 
ATOM      3  C   UNL A   1      32.082  29.287  23.971  1.00  0.00     0.278 C 
ATOM      4  O   UNL A   1      33.008  29.089  23.174  1.00  0.00    -0.268 OA
ATOM      5  H   UNL A   1      33.296  30.413  25.054  1.00  0.00     0.163 HD
BRANCH   3   6
ATOM      6  C   UNL A   1      30.654  28.768  23.662  1.00  0.00     0.271 C 
BRANCH   6   7
ATOM      7  N   UNL A   1      30.465  27.398  24.148  1.00  0.00    -0.347 N 
ATOM      8  H   UNL A   1      31.024  26.758  23.585  1.00  0.00     0.345 HD
ATOM      9  H   UNL A   1      29.480  27.145  24.076  1.00  0.00     0.345 HD
ATOM     10  H   UNL A   1      30.760  27.340  25.123  1.00  0.00     0.345 HD
ENDBRANCH   6   7
BRANCH   6  11
ATOM     11  C   UNL A   1      30.006  29.131  22.313  1.00  0.00     0.080 C 
BRANCH  11  12
ATOM     12  C   UNL A   1      28.546  29.548  22.130  1.00  0.00     0.046 C 
BRANCH  12  13
ATOM     13  C   UNL A   1      28.176  30.801  21.387  1.00  0.00     0.003 A 
ATOM     14  C   UNL A   1      27.945  30.998  20.041  1.00  0.00     0.109 A 
ATOM     15  C   UNL A   1      28.133  32.144  21.928  1.00  0.00     0.169 A 
ATOM     16  N   UNL A   1      27.715  32.327  19.852  1.00  0.00    -0.285 N 
ATOM     17  N   UNL A   1      27.818  33.042  20.971  1.00  0.00    -0.171 NA
ATOM     18  H   UNL A   1      27.494  32.719  18.976  1.00  0.00     0.189 HD
BRANCH  15  19
ATOM     19  C   UNL A   1      28.418  32.606  23.342  1.00  0.00     0.435 C 
ATOM     20  F   UNL A   1      28.621  33.950  23.421  1.00  0.00    -0.164 F 
ATOM     21  F   UNL A   1      27.401  32.308  24.191  1.00  0.00    -0.164 F 
ATOM     22  F   UNL A   1      29.538  32.034  23.865  1.00  0.00    -0.164 F 
ENDBRANCH  15  19
ENDBRANCH  12  13
ENDBRANCH  11  12
ENDBRANCH   6  11
ENDBRANCH   3   6
ENDBRANCH   1   2
BRANCH   1  23
ATOM     23  C   UNL A   1      31.493  31.790  26.492  1.00  0.00     0.042 C 
BRANCH  23  24
ATOM     24  C   UNL A   1      32.643  32.445  27.233  1.00  0.00     0.118 C 
BRANCH  24  25
ATOM     25  N   UNL A   1      32.389  33.846  27.528  1.00  0.00    -0.352 N 
ATOM     26  C   UNL A   1      32.979  34.670  28.460  1.00  0.00     0.251 C 
ATOM     27  H   UNL A   1      31.690  34.269  26.979  1.00  0.00     0.163 HD
ATOM     28  O   UNL A   1      32.500  35.772  28.688  1.00  0.00    -0.269 OA
BRANCH  26  29
ATOM     29  C   UNL A   1      34.175  34.212  29.207  1.00  0.00     0.039 A 
ATOM     30  C   UNL A   1      34.004  33.466  30.377  1.00  0.00     0.014 A 
ATOM     31  C   UNL A   1      35.461  34.517  28.757  1.00  0.00     0.014 A 
ATOM     32  C   UNL A   1      35.121  32.962  31.050  1.00  0.00     0.010 A 
ATOM     33  C   UNL A   1      36.564  33.931  29.367  1.00  0.00     0.010 A 
ATOM     34  C   UNL A   1      36.410  33.155  30.526  1.00  0.00    -0.014 A 
BRANCH  34  35
ATOM     35  C   UNL A   1      37.622  32.587  31.170  1.00  0.00     0.031 A 
ATOM     36  C   UNL A   1      38.362  31.463  30.496  1.00  0.00     0.074 A 
ATOM     37  C   UNL A   1      37.994  33.002  32.397  1.00  0.00     0.049 A 
ATOM     38  N   UNL A   1      39.326  30.708  30.955  1.00  0.00    -0.248 NA
ATOM     39  C   UNL A   1      37.929  31.118  29.131  1.00  0.00     0.031 C 
ATOM     40  C   UNL A   1      37.341  34.058  33.170  1.00  0.00     0.029 A 
ATOM     41  N   UNL A   1      39.003  32.564  33.221  1.00  0.00    -0.354 N 
ATOM     42  C   UNL A   1      39.590  29.783  29.953  1.00  0.00     0.074 A 
ATOM     43  C   UNL A   1      38.651  30.037  28.883  1.00  0.00     0.031 C 
ATOM     44  C   UNL A   1      37.971  34.196  34.348  1.00  0.00     0.029 A 
ATOM     45  C   UNL A   1      39.039  33.205  34.435  1.00  0.00     0.049 A 
ATOM     46  H   UNL A   1      39.638  31.858  32.965  1.00  0.00     0.167 HD
ATOM     47  C   UNL A   1      40.546  28.824  29.919  1.00  0.00     0.037 A 
ATOM     48  C   UNL A   1      39.830  33.000  35.507  1.00  0.00     0.037 A 
ATOM     49  C   UNL A   1      41.500  28.603  30.973  1.00  0.00     0.049 A 
ATOM     50  C   UNL A   1      40.879  31.922  35.449  1.00  0.00     0.074 A 
ATOM     51  C   UNL A   1      42.544  27.696  31.013  1.00  0.00     0.029 A 
ATOM     52  N   UNL A   1      41.526  29.299  32.172  1.00  0.00    -0.354 N 
ATOM     53  N   UNL A   1      41.154  31.086  34.477  1.00  0.00    -0.248 NA
ATOM     54  C   UNL A   1      41.731  31.759  36.636  1.00  0.00     0.031 C 
ATOM     55  C   UNL A   1      43.172  27.809  32.257  1.00  0.00     0.029 A 
ATOM     56  C   UNL A   1      42.559  28.829  32.967  1.00  0.00     0.049 A 
ATOM     57  H   UNL A   1      40.905  30.020  32.421  1.00  0.00     0.167 HD
ATOM     58  C   UNL A   1      42.233  30.330  34.915  1.00  0.00     0.074 A 
ATOM     59  C   UNL A   1      42.565  30.806  36.242  1.00  0.00     0.031 C 
ATOM     60  C   UNL A   1      42.892  29.335  34.273  1.00  0.00     0.037 A 
BRANCH  47  61
ATOM     61  C   UNL A   1      40.606  27.943  28.704  1.00  0.00     0.064 A 
ATOM     62  C   UNL A   1      39.889  26.739  28.630  1.00  0.00     0.173 A 
ATOM     63  C   UNL A   1      41.364  28.323  27.586  1.00  0.00     0.173 A 
ATOM     64  F   UNL A   1      39.157  26.322  29.674  1.00  0.00    -0.203 F 
ATOM     65  C   UNL A   1      39.956  25.933  27.496  1.00  0.00     0.198 A 
ATOM     66  C   UNL A   1      41.402  27.532  26.441  1.00  0.00     0.198 A 
ATOM     67  F   UNL A   1      42.065  29.467  27.600  1.00  0.00    -0.203 F 
ATOM     68  F   UNL A   1      39.308  24.760  27.471  1.00  0.00    -0.200 F 
ATOM     69  C   UNL A   1      40.704  26.333  26.400  1.00  0.00     0.200 A 
ATOM     70  F   UNL A   1      42.113  27.929  25.377  1.00  0.00    -0.200 F 
ATOM     71  F   UNL A   1      40.762  25.560  25.307  1.00  0.00    -0.200 F 
ENDBRANCH  47  61
BRANCH  48  72
ATOM     72  C   UNL A   1      39.675  33.848  36.719  1.00  0.00     0.064 A 
ATOM     73  C   UNL A   1      40.343  35.076  36.829  1.00  0.00     0.173 A 
ATOM     74  C   UNL A   1      38.866  33.449  37.794  1.00  0.00     0.173 A 
ATOM     75  F   UNL A   1      41.144  35.491  35.837  1.00  0.00    -0.203 F 
ATOM     76  C   UNL A   1      40.226  35.862  37.973  1.00  0.00     0.198 A 
ATOM     77  C   UNL A   1      38.725  34.251  38.926  1.00  0.00     0.198 A 
ATOM     78  F   UNL A   1      38.201  32.285  37.740  1.00  0.00    -0.203 F 
ATOM     79  F   UNL A   1      40.915  37.007  38.070  1.00  0.00    -0.200 F 
ATOM     80  C   UNL A   1      39.413  35.451  39.018  1.00  0.00     0.200 A 
ATOM     81  F   UNL A   1      37.928  33.857  39.928  1.00  0.00    -0.200 F 
ATOM     82  F   UNL A   1      39.299  36.208  40.119  1.00  0.00    -0.200 F 
ENDBRANCH  48  72
BRANCH  60  83
ATOM     83  C   UNL A   1      44.084  28.733  34.959  1.00  0.00     0.064 A 
ATOM     84  C   UNL A   1      43.975  27.604  35.781  1.00  0.00     0.173 A 
ATOM     85  C   UNL A   1      45.366  29.257  34.727  1.00  0.00     0.173 A 
ATOM     86  F   UNL A   1      42.771  27.074  36.046  1.00  0.00    -0.203 F 
ATOM     87  C   UNL A   1      45.105  27.028  36.358  1.00  0.00     0.198 A 
ATOM     88  C   UNL A   1      46.495  28.661  35.279  1.00  0.00     0.198 A 
ATOM     89  F   UNL A   1      45.525  30.334  33.941  1.00  0.00    -0.203 F 
ATOM     90  F   UNL A   1      44.975  25.970  37.170  1.00  0.00    -0.200 F 
ATOM     91  C   UNL A   1      46.363  27.550  36.097  1.00  0.00     0.200 A 
ATOM     92  F   UNL A   1      47.711  29.157  35.012  1.00  0.00    -0.200 F 
ATOM     93  F   UNL A   1      47.451  26.983  36.639  1.00  0.00    -0.200 F 
ENDBRANCH  60  83
ENDBRANCH  34  35
ENDBRANCH  26  29
ENDBRANCH  24  25
ENDBRANCH  23  24
ENDBRANCH   1  23
TORSDOF 15
ENDMDL
