MODEL 1
REMARK VINA RESULT:     -12.4      0.000      0.000
REMARK SMILES C[C@@](O)(CNC(=O)c1ccc(Br)cc1N)CC(=O)NCCCNC(=O)c1ccc(-c2c3nc(c(-c4c(F)c(F)c(F)c(F)c4F)c4ccc([nH]4)c(-c4c(F)c(F)c(F)c(F)c4F)c4nc(c(-c5c(F)c(F)c(F)c(F)c5F)c5ccc2[nH]5)C=C4)C=C3)cc1
REMARK SMILES IDX 17 1 18 2 19 3 16 5 2 6 1 7 3 8 4 10 5 11 6 12 7 14 8 15
REMARK SMILES IDX 9 16 14 17 10 18 13 19 11 20 12 21 15 22 20 25 21 26 22 27
REMARK SMILES IDX 23 28 24 29 25 31 26 32 27 33 88 34 28 35 87 36 29 37 30 38
REMARK SMILES IDX 31 39 81 40 32 41 86 42 80 43 82 44 33 45 85 46 79 47 78 48
REMARK SMILES IDX 34 50 66 51 46 52 65 53 47 54 50 55 64 56 83 57 48 58 49 59
REMARK SMILES IDX 63 61 84 62 51 63 35 64 36 65 44 66 37 67 38 68 42 69 45 70
REMARK SMILES IDX 39 71 40 72 43 73 41 74 67 75 68 76 76 77 69 78 70 79 74 80
REMARK SMILES IDX 77 81 71 82 72 83 75 84 73 85 52 86 53 87 61 88 54 89 55 90
REMARK SMILES IDX 59 91 62 92 56 93 57 94 60 95 58 96
REMARK H PARENT 19 4 3 9 5 13 15 23 15 24 23 30 82 49 50 60
REMARK Flexibility Score: inf
ROOT
ATOM      1  C   UNL A   1      30.474  29.114  23.320  1.00  0.00     0.222 C 
ATOM      2  O   UNL A   1      30.109  29.443  22.187  1.00  0.00    -0.275 OA
ATOM      3  N   UNL A   1      30.963  30.071  24.153  1.00  0.00    -0.356 N 
ATOM      4  H   UNL A   1      30.978  30.948  23.705  1.00  0.00     0.163 HD
ENDROOT
BRANCH   1   5
ATOM      5  C   UNL A   1      30.292  27.702  23.744  1.00  0.00     0.136 C 
BRANCH   5   6
ATOM      6  C   UNL A   1      31.221  26.737  23.058  1.00  0.00     0.088 C 
ATOM      7  C   UNL A   1      32.687  27.080  23.402  1.00  0.00     0.044 C 
BRANCH   6   8
ATOM      8  O   UNL A   1      31.177  27.038  21.632  1.00  0.00    -0.388 OA
ATOM      9  H   UNL A   1      31.632  27.878  21.466  1.00  0.00     0.211 HD
ENDBRANCH   6   8
BRANCH   6  10
ATOM     10  C   UNL A   1      30.912  25.201  23.231  1.00  0.00     0.151 C 
BRANCH  10  11
ATOM     11  N   UNL A   1      31.648  23.986  22.648  1.00  0.00    -0.349 N 
ATOM     12  C   UNL A   1      32.594  22.948  22.801  1.00  0.00     0.253 C 
ATOM     13  H   UNL A   1      31.292  23.880  21.737  1.00  0.00     0.163 HD
ATOM     14  O   UNL A   1      32.275  21.945  22.134  1.00  0.00    -0.269 OA
BRANCH  12  15
ATOM     15  C   UNL A   1      33.952  22.758  23.532  1.00  0.00     0.062 A 
ATOM     16  C   UNL A   1      35.109  23.583  23.501  1.00  0.00     0.017 A 
ATOM     17  C   UNL A   1      34.036  21.732  24.491  1.00  0.00     0.045 A 
ATOM     18  C   UNL A   1      36.350  23.245  24.059  1.00  0.00     0.016 A 
ATOM     19  C   UNL A   1      35.299  21.334  24.999  1.00  0.00     0.042 A 
ATOM     20  C   UNL A   1      36.456  22.063  24.744  1.00  0.00     0.020 A 
ATOM     21  Br  UNL A   1      38.149  21.477  25.330  1.00  0.00    -0.051 Br
BRANCH  17  22
ATOM     22  N   UNL A   1      32.912  21.005  24.890  1.00  0.00    -0.398 N 
ATOM     23  H   UNL A   1      32.233  20.746  24.227  1.00  0.00     0.156 HD
ATOM     24  H   UNL A   1      32.800  20.753  25.836  1.00  0.00     0.156 HD
ENDBRANCH  17  22
ENDBRANCH  12  15
ENDBRANCH  10  11
ENDBRANCH   6  10
ENDBRANCH   5   6
ENDBRANCH   1   5
BRANCH   3  25
ATOM     25  C   UNL A   1      31.476  30.180  25.530  1.00  0.00     0.117 C 
BRANCH  25  26
ATOM     26  C   UNL A   1      31.608  31.479  26.529  1.00  0.00     0.042 C 
BRANCH  26  27
ATOM     27  C   UNL A   1      32.747  32.364  27.284  1.00  0.00     0.118 C 
BRANCH  27  28
ATOM     28  N   UNL A   1      32.582  33.801  27.584  1.00  0.00    -0.352 N 
ATOM     29  C   UNL A   1      33.051  34.649  28.558  1.00  0.00     0.251 C 
ATOM     30  H   UNL A   1      32.000  34.258  26.934  1.00  0.00     0.163 HD
ATOM     31  O   UNL A   1      32.567  35.747  28.729  1.00  0.00    -0.269 OA
BRANCH  29  32
ATOM     32  C   UNL A   1      34.225  34.248  29.323  1.00  0.00     0.039 A 
ATOM     33  C   UNL A   1      35.480  34.462  28.756  1.00  0.00     0.014 A 
ATOM     34  C   UNL A   1      34.069  33.720  30.604  1.00  0.00     0.014 A 
ATOM     35  C   UNL A   1      36.594  33.965  29.401  1.00  0.00     0.010 A 
ATOM     36  C   UNL A   1      35.197  33.262  31.274  1.00  0.00     0.010 A 
ATOM     37  C   UNL A   1      36.447  33.319  30.638  1.00  0.00    -0.014 A 
BRANCH  37  38
ATOM     38  C   UNL A   1      37.603  32.594  31.191  1.00  0.00     0.031 A 
ATOM     39  C   UNL A   1      38.071  32.926  32.578  1.00  0.00     0.074 A 
ATOM     40  C   UNL A   1      38.148  31.592  30.483  1.00  0.00     0.049 A 
ATOM     41  N   UNL A   1      39.052  32.403  33.264  1.00  0.00    -0.248 NA
ATOM     42  C   UNL A   1      37.341  33.989  33.293  1.00  0.00     0.031 C 
ATOM     43  C   UNL A   1      37.719  31.177  29.148  1.00  0.00     0.029 A 
ATOM     44  N   UNL A   1      39.159  30.727  30.798  1.00  0.00    -0.354 N 
ATOM     45  C   UNL A   1      39.067  33.081  34.475  1.00  0.00     0.074 A 
ATOM     46  C   UNL A   1      38.022  34.077  34.425  1.00  0.00     0.031 C 
ATOM     47  C   UNL A   1      38.442  30.113  28.769  1.00  0.00     0.029 A 
ATOM     48  C   UNL A   1      39.418  29.812  29.810  1.00  0.00     0.049 A 
ATOM     49  H   UNL A   1      39.653  30.758  31.650  1.00  0.00     0.167 HD
ATOM     50  C   UNL A   1      39.877  32.871  35.537  1.00  0.00     0.037 A 
ATOM     51  C   UNL A   1      40.357  28.849  29.754  1.00  0.00     0.037 A 
ATOM     52  C   UNL A   1      40.893  31.854  35.572  1.00  0.00     0.049 A 
ATOM     53  C   UNL A   1      41.282  28.680  30.927  1.00  0.00     0.074 A 
ATOM     54  C   UNL A   1      41.762  31.542  36.600  1.00  0.00     0.029 A 
ATOM     55  N   UNL A   1      41.169  30.981  34.529  1.00  0.00    -0.354 N 
ATOM     56  N   UNL A   1      41.291  29.321  32.071  1.00  0.00    -0.248 NA
ATOM     57  C   UNL A   1      42.331  27.661  30.802  1.00  0.00     0.031 C 
ATOM     58  C   UNL A   1      42.599  30.513  36.162  1.00  0.00     0.029 A 
ATOM     59  C   UNL A   1      42.215  30.145  34.882  1.00  0.00     0.049 A 
ATOM     60  H   UNL A   1      40.693  30.959  33.668  1.00  0.00     0.167 HD
ATOM     61  C   UNL A   1      42.332  28.777  32.807  1.00  0.00     0.074 A 
ATOM     62  C   UNL A   1      42.918  27.735  31.987  1.00  0.00     0.031 C 
ATOM     63  C   UNL A   1      42.771  29.111  34.044  1.00  0.00     0.037 A 
BRANCH  50  64
ATOM     64  C   UNL A   1      39.711  33.751  36.740  1.00  0.00     0.064 A 
ATOM     65  C   UNL A   1      40.279  35.032  36.800  1.00  0.00     0.173 A 
ATOM     66  C   UNL A   1      38.905  33.338  37.813  1.00  0.00     0.173 A 
ATOM     67  F   UNL A   1      41.073  35.467  35.810  1.00  0.00    -0.203 F 
ATOM     68  C   UNL A   1      40.050  35.866  37.892  1.00  0.00     0.198 A 
ATOM     69  C   UNL A   1      38.656  34.185  38.890  1.00  0.00     0.198 A 
ATOM     70  F   UNL A   1      38.340  32.122  37.806  1.00  0.00    -0.203 F 
ATOM     71  F   UNL A   1      40.625  37.075  37.941  1.00  0.00    -0.200 F 
ATOM     72  C   UNL A   1      39.229  35.447  38.929  1.00  0.00     0.200 A 
ATOM     73  F   UNL A   1      37.852  33.783  39.884  1.00  0.00    -0.200 F 
ATOM     74  F   UNL A   1      38.991  36.260  39.967  1.00  0.00    -0.200 F 
ENDBRANCH  50  64
BRANCH  51  75
ATOM     75  C   UNL A   1      40.457  27.991  28.547  1.00  0.00     0.064 A 
ATOM     76  C   UNL A   1      41.222  28.385  27.443  1.00  0.00     0.173 A 
ATOM     77  C   UNL A   1      39.817  26.743  28.486  1.00  0.00     0.173 A 
ATOM     78  F   UNL A   1      41.841  29.575  27.447  1.00  0.00    -0.203 F 
ATOM     79  C   UNL A   1      41.336  27.570  26.318  1.00  0.00     0.198 A 
ATOM     80  C   UNL A   1      39.956  25.915  27.375  1.00  0.00     0.198 A 
ATOM     81  F   UNL A   1      39.076  26.316  29.519  1.00  0.00    -0.203 F 
ATOM     82  F   UNL A   1      42.046  27.986  25.261  1.00  0.00    -0.200 F 
ATOM     83  C   UNL A   1      40.711  26.331  26.289  1.00  0.00     0.200 A 
ATOM     84  F   UNL A   1      39.365  24.712  27.360  1.00  0.00    -0.200 F 
ATOM     85  F   UNL A   1      40.832  25.543  25.213  1.00  0.00    -0.200 F 
ENDBRANCH  51  75
BRANCH  63  86
ATOM     86  C   UNL A   1      43.930  28.338  34.598  1.00  0.00     0.064 A 
ATOM     87  C   UNL A   1      45.248  28.788  34.445  1.00  0.00     0.173 A 
ATOM     88  C   UNL A   1      43.711  27.182  35.365  1.00  0.00     0.173 A 
ATOM     89  F   UNL A   1      45.507  29.881  33.711  1.00  0.00    -0.203 F 
ATOM     90  C   UNL A   1      46.308  28.102  35.028  1.00  0.00     0.198 A 
ATOM     91  C   UNL A   1      44.770  26.518  35.974  1.00  0.00     0.198 A 
ATOM     92  F   UNL A   1      42.465  26.719  35.549  1.00  0.00    -0.203 F 
ATOM     93  F   UNL A   1      47.564  28.531  34.842  1.00  0.00    -0.200 F 
ATOM     94  C   UNL A   1      46.067  26.976  35.802  1.00  0.00     0.200 A 
ATOM     95  F   UNL A   1      44.534  25.441  36.736  1.00  0.00    -0.200 F 
ATOM     96  F   UNL A   1      47.088  26.330  36.381  1.00  0.00    -0.200 F 
ENDBRANCH  63  86
ENDBRANCH  37  38
ENDBRANCH  29  32
ENDBRANCH  27  28
ENDBRANCH  26  27
ENDBRANCH  25  26
ENDBRANCH   3  25
TORSDOF 16
ENDMDL
MODEL 2
REMARK VINA RESULT:     -12.3      5.501     11.120
REMARK SMILES C[C@@](O)(CNC(=O)c1ccc(Br)cc1N)CC(=O)NCCCNC(=O)c1ccc(-c2c3nc(c(-c4c(F)c(F)c(F)c(F)c4F)c4ccc([nH]4)c(-c4c(F)c(F)c(F)c(F)c4F)c4nc(c(-c5c(F)c(F)c(F)c(F)c5F)c5ccc2[nH]5)C=C4)C=C3)cc1
REMARK SMILES IDX 17 1 18 2 19 3 16 5 2 6 1 7 3 8 4 10 5 11 6 12 7 14 8 15
REMARK SMILES IDX 9 16 14 17 10 18 13 19 11 20 12 21 15 22 20 25 21 26 22 27
REMARK SMILES IDX 23 28 24 29 25 31 26 32 27 33 88 34 28 35 87 36 29 37 30 38
REMARK SMILES IDX 31 39 81 40 32 41 86 42 80 43 82 44 33 45 85 46 79 47 78 48
REMARK SMILES IDX 34 50 66 51 46 52 65 53 47 54 50 55 64 56 83 57 48 58 49 59
REMARK SMILES IDX 63 61 84 62 51 63 35 64 36 65 44 66 37 67 38 68 42 69 45 70
REMARK SMILES IDX 39 71 40 72 43 73 41 74 67 75 68 76 76 77 69 78 70 79 74 80
REMARK SMILES IDX 77 81 71 82 72 83 75 84 73 85 52 86 53 87 61 88 54 89 55 90
REMARK SMILES IDX 59 91 62 92 56 93 57 94 60 95 58 96
REMARK H PARENT 19 4 3 9 5 13 15 23 15 24 23 30 82 49 50 60
REMARK Flexibility Score: inf
ROOT
ATOM      1  C   UNL A   1      34.443  21.834  26.794  1.00  0.00     0.222 C 
ATOM      2  O   UNL A   1      33.614  21.470  27.633  1.00  0.00    -0.275 OA
ATOM      3  N   UNL A   1      35.078  20.891  26.049  1.00  0.00    -0.356 N 
ATOM      4  H   UNL A   1      34.786  19.987  26.308  1.00  0.00     0.163 HD
ENDROOT
BRANCH   1   5
ATOM      5  C   UNL A   1      34.653  23.291  26.587  1.00  0.00     0.136 C 
BRANCH   5   6
ATOM      6  C   UNL A   1      33.782  23.884  25.512  1.00  0.00     0.088 C 
ATOM      7  C   UNL A   1      32.941  25.041  26.091  1.00  0.00     0.044 C 
BRANCH   6   8
ATOM      8  O   UNL A   1      32.752  22.900  25.203  1.00  0.00    -0.388 OA
ATOM      9  H   UNL A   1      32.295  22.643  26.019  1.00  0.00     0.211 HD
ENDBRANCH   6   8
BRANCH   6  10
ATOM     10  C   UNL A   1      34.487  24.278  24.158  1.00  0.00     0.151 C 
BRANCH  10  11
ATOM     11  N   UNL A   1      33.894  24.942  22.907  1.00  0.00    -0.349 N 
ATOM     12  C   UNL A   1      33.083  25.945  22.330  1.00  0.00     0.253 C 
ATOM     13  H   UNL A   1      34.246  24.424  22.148  1.00  0.00     0.163 HD
ATOM     14  O   UNL A   1      33.510  26.282  21.209  1.00  0.00    -0.269 OA
BRANCH  12  15
ATOM     15  C   UNL A   1      31.769  26.686  22.704  1.00  0.00     0.062 A 
ATOM     16  C   UNL A   1      30.602  26.178  23.334  1.00  0.00     0.017 A 
ATOM     17  C   UNL A   1      31.752  28.087  22.566  1.00  0.00     0.045 A 
ATOM     18  C   UNL A   1      29.398  26.881  23.480  1.00  0.00     0.016 A 
ATOM     19  C   UNL A   1      30.523  28.793  22.633  1.00  0.00     0.042 A 
ATOM     20  C   UNL A   1      29.345  28.179  23.044  1.00  0.00     0.020 A 
ATOM     21  Br  UNL A   1      27.694  29.089  23.033  1.00  0.00    -0.051 Br
BRANCH  17  22
ATOM     22  N   UNL A   1      32.905  28.809  22.252  1.00  0.00    -0.398 N 
ATOM     23  H   UNL A   1      33.492  29.135  22.971  1.00  0.00     0.156 HD
ATOM     24  H   UNL A   1      33.129  28.993  21.311  1.00  0.00     0.156 HD
ENDBRANCH  17  22
ENDBRANCH  12  15
ENDBRANCH  10  11
ENDBRANCH   6  10
ENDBRANCH   5   6
ENDBRANCH   1   5
BRANCH   3  25
ATOM     25  C   UNL A   1      36.074  20.825  24.965  1.00  0.00     0.117 C 
BRANCH  25  26
ATOM     26  C   UNL A   1      37.646  20.344  24.977  1.00  0.00     0.042 C 
BRANCH  26  27
ATOM     27  C   UNL A   1      39.017  20.572  25.826  1.00  0.00     0.118 C 
BRANCH  27  28
ATOM     28  N   UNL A   1      40.049  19.527  25.982  1.00  0.00    -0.352 N 
ATOM     29  C   UNL A   1      41.422  19.521  26.034  1.00  0.00     0.251 C 
ATOM     30  H   UNL A   1      39.664  18.625  26.069  1.00  0.00     0.163 HD
ATOM     31  O   UNL A   1      42.056  18.495  25.920  1.00  0.00    -0.269 OA
BRANCH  29  32
ATOM     32  C   UNL A   1      42.113  20.768  26.342  1.00  0.00     0.039 A 
ATOM     33  C   UNL A   1      42.370  21.060  27.680  1.00  0.00     0.014 A 
ATOM     34  C   UNL A   1      42.540  21.597  25.306  1.00  0.00     0.014 A 
ATOM     35  C   UNL A   1      42.895  22.295  28.002  1.00  0.00     0.010 A 
ATOM     36  C   UNL A   1      43.113  22.820  25.629  1.00  0.00     0.010 A 
ATOM     37  C   UNL A   1      43.221  23.196  26.977  1.00  0.00    -0.014 A 
BRANCH  37  38
ATOM     38  C   UNL A   1      43.554  24.583  27.343  1.00  0.00     0.031 A 
ATOM     39  C   UNL A   1      44.944  25.087  27.084  1.00  0.00     0.074 A 
ATOM     40  C   UNL A   1      42.587  25.389  27.810  1.00  0.00     0.049 A 
ATOM     41  N   UNL A   1      45.446  26.271  27.311  1.00  0.00    -0.248 NA
ATOM     42  C   UNL A   1      45.900  24.135  26.490  1.00  0.00     0.031 C 
ATOM     43  C   UNL A   1      41.200  24.986  28.045  1.00  0.00     0.029 A 
ATOM     44  N   UNL A   1      42.616  26.714  28.143  1.00  0.00    -0.354 N 
ATOM     45  C   UNL A   1      46.773  26.200  26.906  1.00  0.00     0.074 A 
ATOM     46  C   UNL A   1      47.013  24.852  26.450  1.00  0.00     0.031 C 
ATOM     47  C   UNL A   1      40.500  26.054  28.455  1.00  0.00     0.029 A 
ATOM     48  C   UNL A   1      41.402  27.195  28.564  1.00  0.00     0.049 A 
ATOM     49  H   UNL A   1      43.427  27.269  28.087  1.00  0.00     0.167 HD
ATOM     50  C   UNL A   1      47.696  27.188  26.906  1.00  0.00     0.037 A 
ATOM     51  C   UNL A   1      41.069  28.422  29.005  1.00  0.00     0.037 A 
ATOM     52  C   UNL A   1      47.424  28.531  27.340  1.00  0.00     0.049 A 
ATOM     53  C   UNL A   1      42.134  29.482  29.048  1.00  0.00     0.074 A 
ATOM     54  C   UNL A   1      48.280  29.615  27.369  1.00  0.00     0.029 A 
ATOM     55  N   UNL A   1      46.197  28.971  27.818  1.00  0.00    -0.354 N 
ATOM     56  N   UNL A   1      43.386  29.412  28.662  1.00  0.00    -0.248 NA
ATOM     57  C   UNL A   1      41.746  30.789  29.593  1.00  0.00     0.031 C 
ATOM     58  C   UNL A   1      47.587  30.700  27.911  1.00  0.00     0.029 A 
ATOM     59  C   UNL A   1      46.282  30.308  28.167  1.00  0.00     0.049 A 
ATOM     60  H   UNL A   1      45.388  28.416  27.896  1.00  0.00     0.167 HD
ATOM     61  C   UNL A   1      43.931  30.663  28.903  1.00  0.00     0.074 A 
ATOM     62  C   UNL A   1      42.866  31.482  29.447  1.00  0.00     0.031 C 
ATOM     63  C   UNL A   1      45.199  31.097  28.701  1.00  0.00     0.037 A 
BRANCH  50  64
ATOM     64  C   UNL A   1      49.081  26.861  26.432  1.00  0.00     0.064 A 
ATOM     65  C   UNL A   1      50.032  26.277  27.281  1.00  0.00     0.173 A 
ATOM     66  C   UNL A   1      49.435  27.062  25.088  1.00  0.00     0.173 A 
ATOM     67  F   UNL A   1      49.751  26.082  28.578  1.00  0.00    -0.203 F 
ATOM     68  C   UNL A   1      51.288  25.909  26.804  1.00  0.00     0.198 A 
ATOM     69  C   UNL A   1      50.682  26.668  24.608  1.00  0.00     0.198 A 
ATOM     70  F   UNL A   1      48.563  27.619  24.235  1.00  0.00    -0.203 F 
ATOM     71  F   UNL A   1      52.191  25.378  27.639  1.00  0.00    -0.200 F 
ATOM     72  C   UNL A   1      51.607  26.093  25.466  1.00  0.00     0.200 A 
ATOM     73  F   UNL A   1      50.982  26.834  23.313  1.00  0.00    -0.200 F 
ATOM     74  F   UNL A   1      52.807  25.716  25.004  1.00  0.00    -0.200 F 
ENDBRANCH  50  64
BRANCH  51  75
ATOM     75  C   UNL A   1      39.675  28.694  29.437  1.00  0.00     0.064 A 
ATOM     76  C   UNL A   1      39.283  28.506  30.767  1.00  0.00     0.173 A 
ATOM     77  C   UNL A   1      38.715  29.179  28.535  1.00  0.00     0.173 A 
ATOM     78  F   UNL A   1      40.160  28.030  31.664  1.00  0.00    -0.203 F 
ATOM     79  C   UNL A   1      37.980  28.783  31.179  1.00  0.00     0.198 A 
ATOM     80  C   UNL A   1      37.423  29.485  28.953  1.00  0.00     0.198 A 
ATOM     81  F   UNL A   1      39.041  29.381  27.250  1.00  0.00    -0.203 F 
ATOM     82  F   UNL A   1      37.621  28.561  32.451  1.00  0.00    -0.200 F 
ATOM     83  C   UNL A   1      37.054  29.281  30.274  1.00  0.00     0.200 A 
ATOM     84  F   UNL A   1      36.538  29.983  28.079  1.00  0.00    -0.200 F 
ATOM     85  F   UNL A   1      35.807  29.560  30.674  1.00  0.00    -0.200 F 
ENDBRANCH  51  75
BRANCH  63  86
ATOM     86  C   UNL A   1      45.506  32.522  29.053  1.00  0.00     0.064 A 
ATOM     87  C   UNL A   1      46.032  32.867  30.305  1.00  0.00     0.173 A 
ATOM     88  C   UNL A   1      45.355  33.538  28.096  1.00  0.00     0.173 A 
ATOM     89  F   UNL A   1      46.183  31.931  31.255  1.00  0.00    -0.203 F 
ATOM     90  C   UNL A   1      46.384  34.181  30.593  1.00  0.00     0.198 A 
ATOM     91  C   UNL A   1      45.738  34.845  28.377  1.00  0.00     0.198 A 
ATOM     92  F   UNL A   1      44.866  33.254  26.879  1.00  0.00    -0.203 F 
ATOM     93  F   UNL A   1      46.854  34.496  31.808  1.00  0.00    -0.200 F 
ATOM     94  C   UNL A   1      46.248  35.166  29.625  1.00  0.00     0.200 A 
ATOM     95  F   UNL A   1      45.625  35.792  27.435  1.00  0.00    -0.200 F 
ATOM     96  F   UNL A   1      46.610  36.427  29.898  1.00  0.00    -0.200 F 
ENDBRANCH  63  86
ENDBRANCH  37  38
ENDBRANCH  29  32
ENDBRANCH  27  28
ENDBRANCH  26  27
ENDBRANCH  25  26
ENDBRANCH   3  25
TORSDOF 16
ENDMDL
MODEL 3
REMARK VINA RESULT:     -12.3      5.489     10.741
REMARK SMILES C[C@@](O)(CNC(=O)c1ccc(Br)cc1N)CC(=O)NCCCNC(=O)c1ccc(-c2c3nc(c(-c4c(F)c(F)c(F)c(F)c4F)c4ccc([nH]4)c(-c4c(F)c(F)c(F)c(F)c4F)c4nc(c(-c5c(F)c(F)c(F)c(F)c5F)c5ccc2[nH]5)C=C4)C=C3)cc1
REMARK SMILES IDX 17 1 18 2 19 3 16 5 2 6 1 7 3 8 4 10 5 11 6 12 7 14 8 15
REMARK SMILES IDX 9 16 14 17 10 18 13 19 11 20 12 21 15 22 20 25 21 26 22 27
REMARK SMILES IDX 23 28 24 29 25 31 26 32 27 33 88 34 28 35 87 36 29 37 30 38
REMARK SMILES IDX 31 39 81 40 32 41 86 42 80 43 82 44 33 45 85 46 79 47 78 48
REMARK SMILES IDX 34 50 66 51 46 52 65 53 47 54 50 55 64 56 83 57 48 58 49 59
REMARK SMILES IDX 63 61 84 62 51 63 35 64 36 65 44 66 37 67 38 68 42 69 45 70
REMARK SMILES IDX 39 71 40 72 43 73 41 74 67 75 68 76 76 77 69 78 70 79 74 80
REMARK SMILES IDX 77 81 71 82 72 83 75 84 73 85 52 86 53 87 61 88 54 89 55 90
REMARK SMILES IDX 59 91 62 92 56 93 57 94 60 95 58 96
REMARK H PARENT 19 4 3 9 5 13 15 23 15 24 23 30 82 49 50 60
REMARK Flexibility Score: inf
ROOT
ATOM      1  C   UNL A   1      34.047  21.843  26.443  1.00  0.00     0.222 C 
ATOM      2  O   UNL A   1      33.488  21.690  27.533  1.00  0.00    -0.275 OA
ATOM      3  N   UNL A   1      35.084  21.026  26.119  1.00  0.00    -0.356 N 
ATOM      4  H   UNL A   1      35.272  20.396  26.851  1.00  0.00     0.163 HD
ENDROOT
BRANCH   1   5
ATOM      5  C   UNL A   1      33.512  22.865  25.506  1.00  0.00     0.136 C 
BRANCH   5   6
ATOM      6  C   UNL A   1      32.329  22.394  24.703  1.00  0.00     0.088 C 
ATOM      7  C   UNL A   1      31.019  22.898  25.344  1.00  0.00     0.044 C 
BRANCH   6   8
ATOM      8  O   UNL A   1      32.219  20.954  24.906  1.00  0.00    -0.388 OA
ATOM      9  H   UNL A   1      31.441  20.765  25.454  1.00  0.00     0.211 HD
ENDBRANCH   6   8
BRANCH   6  10
ATOM     10  C   UNL A   1      32.371  22.654  23.149  1.00  0.00     0.151 C 
BRANCH  10  11
ATOM     11  N   UNL A   1      32.511  23.979  22.385  1.00  0.00    -0.349 N 
ATOM     12  C   UNL A   1      32.894  25.339  22.367  1.00  0.00     0.253 C 
ATOM     13  H   UNL A   1      32.171  23.793  21.480  1.00  0.00     0.163 HD
ATOM     14  O   UNL A   1      33.288  25.681  21.236  1.00  0.00    -0.269 OA
BRANCH  12  15
ATOM     15  C   UNL A   1      32.895  26.524  23.372  1.00  0.00     0.062 A 
ATOM     16  C   UNL A   1      33.817  26.816  24.412  1.00  0.00     0.017 A 
ATOM     17  C   UNL A   1      31.968  27.561  23.154  1.00  0.00     0.045 A 
ATOM     18  C   UNL A   1      33.645  27.816  25.380  1.00  0.00     0.016 A 
ATOM     19  C   UNL A   1      31.733  28.529  24.164  1.00  0.00     0.042 A 
ATOM     20  C   UNL A   1      32.541  28.624  25.292  1.00  0.00     0.020 A 
ATOM     21  Br  UNL A   1      32.167  29.840  26.683  1.00  0.00    -0.051 Br
BRANCH  17  22
ATOM     22  N   UNL A   1      31.178  27.611  22.004  1.00  0.00    -0.398 N 
ATOM     23  H   UNL A   1      30.571  28.371  21.856  1.00  0.00     0.156 HD
ATOM     24  H   UNL A   1      31.227  26.884  21.341  1.00  0.00     0.156 HD
ENDBRANCH  17  22
ENDBRANCH  12  15
ENDBRANCH  10  11
ENDBRANCH   6  10
ENDBRANCH   5   6
ENDBRANCH   1   5
BRANCH   3  25
ATOM     25  C   UNL A   1      36.009  20.807  24.993  1.00  0.00     0.117 C 
BRANCH  25  26
ATOM     26  C   UNL A   1      37.598  20.389  24.972  1.00  0.00     0.042 C 
BRANCH  26  27
ATOM     27  C   UNL A   1      38.956  20.592  25.847  1.00  0.00     0.118 C 
BRANCH  27  28
ATOM     28  N   UNL A   1      39.969  19.530  26.019  1.00  0.00    -0.352 N 
ATOM     29  C   UNL A   1      41.339  19.503  26.111  1.00  0.00     0.251 C 
ATOM     30  H   UNL A   1      39.568  18.633  26.082  1.00  0.00     0.163 HD
ATOM     31  O   UNL A   1      41.961  18.468  26.001  1.00  0.00    -0.269 OA
BRANCH  29  32
ATOM     32  C   UNL A   1      42.038  20.734  26.456  1.00  0.00     0.039 A 
ATOM     33  C   UNL A   1      42.243  21.015  27.806  1.00  0.00     0.014 A 
ATOM     34  C   UNL A   1      42.526  21.560  25.444  1.00  0.00     0.014 A 
ATOM     35  C   UNL A   1      42.776  22.238  28.158  1.00  0.00     0.010 A 
ATOM     36  C   UNL A   1      43.107  22.771  25.799  1.00  0.00     0.010 A 
ATOM     37  C   UNL A   1      43.162  23.138  27.153  1.00  0.00    -0.014 A 
BRANCH  37  38
ATOM     38  C   UNL A   1      43.505  24.517  27.542  1.00  0.00     0.031 A 
ATOM     39  C   UNL A   1      44.942  24.947  27.496  1.00  0.00     0.074 A 
ATOM     40  C   UNL A   1      42.519  25.380  27.835  1.00  0.00     0.049 A 
ATOM     41  N   UNL A   1      45.463  26.111  27.778  1.00  0.00    -0.248 NA
ATOM     42  C   UNL A   1      45.929  23.935  27.078  1.00  0.00     0.031 C 
ATOM     43  C   UNL A   1      41.094  25.050  27.855  1.00  0.00     0.029 A 
ATOM     44  N   UNL A   1      42.563  26.711  28.144  1.00  0.00    -0.354 N 
ATOM     45  C   UNL A   1      46.831  25.966  27.589  1.00  0.00     0.074 A 
ATOM     46  C   UNL A   1      47.070  24.596  27.202  1.00  0.00     0.031 C 
ATOM     47  C   UNL A   1      40.394  26.161  28.130  1.00  0.00     0.029 A 
ATOM     48  C   UNL A   1      41.325  27.260  28.359  1.00  0.00     0.049 A 
ATOM     49  H   UNL A   1      43.401  27.224  28.206  1.00  0.00     0.167 HD
ATOM     50  C   UNL A   1      47.792  26.908  27.716  1.00  0.00     0.037 A 
ATOM     51  C   UNL A   1      40.991  28.513  28.719  1.00  0.00     0.037 A 
ATOM     52  C   UNL A   1      47.525  28.274  28.078  1.00  0.00     0.049 A 
ATOM     53  C   UNL A   1      42.089  29.522  28.910  1.00  0.00     0.074 A 
ATOM     54  C   UNL A   1      48.421  29.316  28.221  1.00  0.00     0.029 A 
ATOM     55  N   UNL A   1      46.263  28.784  28.347  1.00  0.00    -0.354 N 
ATOM     56  N   UNL A   1      43.380  29.381  28.729  1.00  0.00    -0.248 NA
ATOM     57  C   UNL A   1      41.688  30.859  29.363  1.00  0.00     0.031 C 
ATOM     58  C   UNL A   1      47.707  30.447  28.627  1.00  0.00     0.029 A 
ATOM     59  C   UNL A   1      46.360  30.124  28.681  1.00  0.00     0.049 A 
ATOM     60  H   UNL A   1      45.424  28.270  28.307  1.00  0.00     0.167 HD
ATOM     61  C   UNL A   1      43.944  30.611  29.029  1.00  0.00     0.074 A 
ATOM     62  C   UNL A   1      42.851  31.494  29.383  1.00  0.00     0.031 C 
ATOM     63  C   UNL A   1      45.249  30.978  29.022  1.00  0.00     0.037 A 
BRANCH  50  64
ATOM     64  C   UNL A   1      49.216  26.503  27.473  1.00  0.00     0.064 A 
ATOM     65  C   UNL A   1      49.750  26.429  26.178  1.00  0.00     0.173 A 
ATOM     66  C   UNL A   1      50.079  26.266  28.555  1.00  0.00     0.173 A 
ATOM     67  F   UNL A   1      48.964  26.628  25.110  1.00  0.00    -0.203 F 
ATOM     68  C   UNL A   1      51.095  26.127  25.975  1.00  0.00     0.198 A 
ATOM     69  C   UNL A   1      51.429  25.992  28.348  1.00  0.00     0.198 A 
ATOM     70  F   UNL A   1      49.618  26.323  29.813  1.00  0.00    -0.203 F 
ATOM     71  F   UNL A   1      51.578  26.035  24.728  1.00  0.00    -0.200 F 
ATOM     72  C   UNL A   1      51.935  25.923  27.060  1.00  0.00     0.200 A 
ATOM     73  F   UNL A   1      52.241  25.807  29.398  1.00  0.00    -0.200 F 
ATOM     74  F   UNL A   1      53.234  25.657  26.862  1.00  0.00    -0.200 F 
ENDBRANCH  50  64
BRANCH  51  75
ATOM     75  C   UNL A   1      39.562  28.862  28.920  1.00  0.00     0.064 A 
ATOM     76  C   UNL A   1      38.766  29.290  27.851  1.00  0.00     0.173 A 
ATOM     77  C   UNL A   1      38.955  28.745  30.181  1.00  0.00     0.173 A 
ATOM     78  F   UNL A   1      39.305  29.432  26.631  1.00  0.00    -0.203 F 
ATOM     79  C   UNL A   1      37.419  29.596  28.034  1.00  0.00     0.198 A 
ATOM     80  C   UNL A   1      37.601  29.022  30.357  1.00  0.00     0.198 A 
ATOM     81  F   UNL A   1      39.672  28.335  31.237  1.00  0.00    -0.203 F 
ATOM     82  F   UNL A   1      36.688  30.036  27.001  1.00  0.00    -0.200 F 
ATOM     83  C   UNL A   1      36.835  29.453  29.285  1.00  0.00     0.200 A 
ATOM     84  F   UNL A   1      37.039  28.863  31.563  1.00  0.00    -0.200 F 
ATOM     85  F   UNL A   1      35.538  29.735  29.457  1.00  0.00    -0.200 F 
ENDBRANCH  51  75
BRANCH  63  86
ATOM     86  C   UNL A   1      45.570  32.395  29.392  1.00  0.00     0.064 A 
ATOM     87  C   UNL A   1      45.897  32.750  30.707  1.00  0.00     0.173 A 
ATOM     88  C   UNL A   1      45.636  33.390  28.403  1.00  0.00     0.173 A 
ATOM     89  F   UNL A   1      45.837  31.835  31.688  1.00  0.00    -0.203 F 
ATOM     90  C   UNL A   1      46.267  34.052  31.024  1.00  0.00     0.198 A 
ATOM     91  C   UNL A   1      46.037  34.684  28.718  1.00  0.00     0.198 A 
ATOM     92  F   UNL A   1      45.342  33.095  27.127  1.00  0.00    -0.203 F 
ATOM     93  F   UNL A   1      46.544  34.378  32.294  1.00  0.00    -0.200 F 
ATOM     94  C   UNL A   1      46.348  35.015  30.027  1.00  0.00     0.200 A 
ATOM     95  F   UNL A   1      46.134  35.607  27.751  1.00  0.00    -0.200 F 
ATOM     96  F   UNL A   1      46.727  36.263  30.331  1.00  0.00    -0.200 F 
ENDBRANCH  63  86
ENDBRANCH  37  38
ENDBRANCH  29  32
ENDBRANCH  27  28
ENDBRANCH  26  27
ENDBRANCH  25  26
ENDBRANCH   3  25
TORSDOF 16
ENDMDL
