MODEL 1
REMARK VINA RESULT:     -10.1      0.000      0.000
REMARK SMILES CCCn1c(N2CCC[C@@H](C)C2)c(/C=C2/SC(=S)N(CC(=O)NCCCNC(=O)c3ccc(-c4c5nc(c(-c6c(F)c(F)c(F)c(F)c6F)c6ccc([nH]6)c(-c6c(F)c(F)c(F)c(F)c6F)c6nc(c(-c7c(F)c(F)c(F)c(F)c7F)c7ccc4[nH]7)C=C6)C=C5)cc3)C2=O)c(C)c(C#N)c1=O
REMARK SMILES IDX 24 1 23 2 21 3 22 4 20 6 19 7 14 8 15 9 16 10 93 11 17 12
REMARK SMILES IDX 94 13 18 14 13 15 4 16 5 17 100 18 97 19 101 20 95 21 96 22
REMARK SMILES IDX 3 23 2 24 1 25 6 26 7 27 12 28 8 29 10 30 9 31 11 32 98 33
REMARK SMILES IDX 99 34 25 35 26 36 27 37 28 38 29 40 30 41 31 42 92 43 32 44
REMARK SMILES IDX 91 45 33 46 34 47 35 48 85 49 36 50 90 51 84 52 86 53 37 54
REMARK SMILES IDX 89 55 83 56 82 57 38 59 70 60 50 61 69 62 51 63 54 64 68 65
REMARK SMILES IDX 87 66 52 67 53 68 67 70 88 71 55 72 39 73 40 74 48 75 41 76
REMARK SMILES IDX 42 77 46 78 49 79 43 80 44 81 47 82 45 83 71 84 72 85 80 86
REMARK SMILES IDX 73 87 74 88 78 89 81 90 75 91 76 92 79 93 77 94 56 95 57 96
REMARK SMILES IDX 65 97 58 98 59 99 63 100 66 101 60 102 61 103 64 104 62 105
REMARK H PARENT 23 5 27 39 86 58 54 69
REMARK Flexibility Score: inf
ROOT
ATOM      1  C   UNL A   1      51.469  26.061  33.615  1.00  0.00     0.117 C 
ENDROOT
BRANCH   1   2
ATOM      2  N   UNL A   1      51.308  24.776  32.967  1.00  0.00    -0.354 N 
ATOM      3  C   UNL A   1      51.346  23.520  33.496  1.00  0.00     0.240 C 
ATOM      4  O   UNL A   1      50.944  22.600  32.781  1.00  0.00    -0.273 OA
ATOM      5  H   UNL A   1      51.146  24.815  31.997  1.00  0.00     0.163 HD
BRANCH   3   6
ATOM      6  C   UNL A   1      51.772  23.274  34.951  1.00  0.00     0.227 C 
BRANCH   6   7
ATOM      7  N   UNL A   1      51.367  21.951  35.433  1.00  0.00    -0.283 N 
ATOM      8  C   UNL A   1      48.587  19.956  36.667  1.00  0.00     0.033 C 
ATOM      9  C   UNL A   1      49.792  20.430  36.312  1.00  0.00     0.081 C 
ATOM     10  S   UNL A   1      51.193  19.461  36.078  1.00  0.00    -0.054 SA
ATOM     11  C   UNL A   1      50.124  21.855  36.025  1.00  0.00     0.266 C 
ATOM     12  C   UNL A   1      52.157  20.828  35.514  1.00  0.00     0.148 C 
ATOM     13  O   UNL A   1      49.403  22.802  36.296  1.00  0.00    -0.268 OA
ATOM     14  S   UNL A   1      53.783  20.674  35.178  1.00  0.00    -0.052 S 
BRANCH   8  15
ATOM     15  C   UNL A   1      47.389  20.795  36.829  1.00  0.00     0.021 A 
ATOM     16  N   UNL A   1      46.031  22.255  38.142  1.00  0.00    -0.293 N 
ATOM     17  C   UNL A   1      47.086  21.319  38.063  1.00  0.00     0.119 A 
ATOM     18  C   UNL A   1      45.416  22.795  37.006  1.00  0.00     0.270 A 
ATOM     19  C   UNL A   1      45.635  22.101  35.722  1.00  0.00     0.121 A 
ATOM     20  O   UNL A   1      44.679  23.781  37.035  1.00  0.00    -0.268 OA
ATOM     21  C   UNL A   1      46.553  21.122  35.652  1.00  0.00    -0.017 A 
ATOM     22  C   UNL A   1      46.802  20.351  34.371  1.00  0.00     0.047 C 
BRANCH  16  23
ATOM     23  C   UNL A   1      45.686  22.912  39.405  1.00  0.00     0.127 C 
BRANCH  23  24
ATOM     24  C   UNL A   1      46.311  24.302  39.630  1.00  0.00     0.019 C 
ATOM     25  C   UNL A   1      45.317  25.392  40.002  1.00  0.00     0.006 C 
ENDBRANCH  23  24
ENDBRANCH  16  23
BRANCH  17  26
ATOM     26  N   UNL A   1      47.855  21.014  39.215  1.00  0.00    -0.357 N 
ATOM     27  C   UNL A   1      48.951  21.876  39.691  1.00  0.00     0.118 C 
ATOM     28  C   UNL A   1      47.439  19.995  40.192  1.00  0.00     0.121 C 
ATOM     29  C   UNL A   1      50.163  21.036  40.121  1.00  0.00     0.022 C 
ATOM     30  C   UNL A   1      48.616  19.086  40.554  1.00  0.00     0.005 C 
ATOM     31  C   UNL A   1      49.789  19.916  41.088  1.00  0.00     0.007 C 
ATOM     32  C   UNL A   1      48.184  18.040  41.580  1.00  0.00     0.009 C 
ENDBRANCH  17  26
BRANCH  19  33
ATOM     33  C   UNL A   1      44.852  22.517  34.609  1.00  0.00     0.105 C 
ATOM     34  N   UNL A   1      44.275  22.902  33.676  1.00  0.00    -0.192 NA
ENDBRANCH  19  33
ENDBRANCH   8  15
ENDBRANCH   6   7
ENDBRANCH   3   6
ENDBRANCH   1   2
BRANCH   1  35
ATOM     35  C   UNL A   1      50.130  26.715  33.927  1.00  0.00     0.042 C 
BRANCH  35  36
ATOM     36  C   UNL A   1      49.092  25.722  34.441  1.00  0.00     0.118 C 
BRANCH  36  37
ATOM     37  N   UNL A   1      48.817  25.903  35.861  1.00  0.00    -0.352 N 
ATOM     38  C   UNL A   1      47.786  26.575  36.469  1.00  0.00     0.251 C 
ATOM     39  H   UNL A   1      49.465  25.481  36.472  1.00  0.00     0.163 HD
ATOM     40  O   UNL A   1      47.818  26.811  37.671  1.00  0.00    -0.269 OA
BRANCH  38  41
ATOM     41  C   UNL A   1      46.644  27.027  35.656  1.00  0.00     0.039 A 
ATOM     42  C   UNL A   1      45.505  26.223  35.576  1.00  0.00     0.014 A 
ATOM     43  C   UNL A   1      46.704  28.249  34.980  1.00  0.00     0.014 A 
ATOM     44  C   UNL A   1      44.397  26.676  34.860  1.00  0.00     0.010 A 
ATOM     45  C   UNL A   1      45.576  28.729  34.327  1.00  0.00     0.010 A 
ATOM     46  C   UNL A   1      44.418  27.941  34.250  1.00  0.00    -0.014 A 
BRANCH  46  47
ATOM     47  C   UNL A   1      43.254  28.431  33.477  1.00  0.00     0.031 A 
ATOM     48  C   UNL A   1      42.279  29.371  34.128  1.00  0.00     0.074 A 
ATOM     49  C   UNL A   1      43.062  28.016  32.212  1.00  0.00     0.049 A 
ATOM     50  N   UNL A   1      41.192  29.903  33.633  1.00  0.00    -0.248 NA
ATOM     51  C   UNL A   1      42.555  29.751  35.522  1.00  0.00     0.031 C 
ATOM     52  C   UNL A   1      43.932  27.091  31.486  1.00  0.00     0.029 A 
ATOM     53  N   UNL A   1      42.071  28.318  31.312  1.00  0.00    -0.354 N 
ATOM     54  C   UNL A   1      40.665  30.688  34.649  1.00  0.00     0.074 A 
ATOM     55  C   UNL A   1      41.506  30.508  35.810  1.00  0.00     0.031 C 
ATOM     56  C   UNL A   1      43.452  26.923  30.243  1.00  0.00     0.029 A 
ATOM     57  C   UNL A   1      42.223  27.698  30.095  1.00  0.00     0.049 A 
ATOM     58  H   UNL A   1      41.323  28.924  31.517  1.00  0.00     0.167 HD
ATOM     59  C   UNL A   1      39.595  31.515  34.604  1.00  0.00     0.037 A 
ATOM     60  C   UNL A   1      41.455  27.752  28.990  1.00  0.00     0.037 A 
ATOM     61  C   UNL A   1      38.764  31.694  33.443  1.00  0.00     0.049 A 
ATOM     62  C   UNL A   1      40.227  28.625  28.991  1.00  0.00     0.074 A 
ATOM     63  C   UNL A   1      37.672  32.528  33.291  1.00  0.00     0.029 A 
ATOM     64  N   UNL A   1      38.930  31.024  32.241  1.00  0.00    -0.354 N 
ATOM     65  N   UNL A   1      39.773  29.414  29.935  1.00  0.00    -0.248 NA
ATOM     66  C   UNL A   1      39.407  28.621  27.771  1.00  0.00     0.031 C 
ATOM     67  C   UNL A   1      37.136  32.317  32.019  1.00  0.00     0.029 A 
ATOM     68  C   UNL A   1      37.936  31.403  31.352  1.00  0.00     0.049 A 
ATOM     69  H   UNL A   1      39.645  30.376  32.047  1.00  0.00     0.167 HD
ATOM     70  C   UNL A   1      38.637  30.022  29.414  1.00  0.00     0.074 A 
ATOM     71  C   UNL A   1      38.481  29.524  28.064  1.00  0.00     0.031 C 
ATOM     72  C   UNL A   1      37.799  30.908  30.005  1.00  0.00     0.037 A 
BRANCH  59  73
ATOM     73  C   UNL A   1      39.268  32.304  35.837  1.00  0.00     0.064 A 
ATOM     74  C   UNL A   1      39.813  33.579  36.055  1.00  0.00     0.173 A 
ATOM     75  C   UNL A   1      38.339  31.820  36.771  1.00  0.00     0.173 A 
ATOM     76  F   UNL A   1      40.714  34.084  35.199  1.00  0.00    -0.203 F 
ATOM     77  C   UNL A   1      39.451  34.332  37.168  1.00  0.00     0.198 A 
ATOM     78  C   UNL A   1      37.955  32.590  37.864  1.00  0.00     0.198 A 
ATOM     79  F   UNL A   1      37.786  30.609  36.608  1.00  0.00    -0.203 F 
ATOM     80  F   UNL A   1      40.012  35.533  37.373  1.00  0.00    -0.200 F 
ATOM     81  C   UNL A   1      38.513  33.844  38.064  1.00  0.00     0.200 A 
ATOM     82  F   UNL A   1      37.034  32.124  38.718  1.00  0.00    -0.200 F 
ATOM     83  F   UNL A   1      38.147  34.581  39.120  1.00  0.00    -0.200 F 
ENDBRANCH  59  73
BRANCH  60  84
ATOM     84  C   UNL A   1      41.843  26.981  27.778  1.00  0.00     0.064 A 
ATOM     85  C   UNL A   1      42.587  27.580  26.751  1.00  0.00     0.173 A 
ATOM     86  C   UNL A   1      41.489  25.632  27.621  1.00  0.00     0.173 A 
ATOM     87  F   UNL A   1      42.934  28.872  26.844  1.00  0.00    -0.203 F 
ATOM     88  C   UNL A   1      42.946  26.868  25.610  1.00  0.00     0.198 A 
ATOM     89  C   UNL A   1      41.877  24.911  26.493  1.00  0.00     0.198 A 
ATOM     90  F   UNL A   1      40.781  25.007  28.573  1.00  0.00    -0.203 F 
ATOM     91  F   UNL A   1      43.619  27.480  24.626  1.00  0.00    -0.200 F 
ATOM     92  C   UNL A   1      42.599  25.532  25.485  1.00  0.00     0.200 A 
ATOM     93  F   UNL A   1      41.555  23.614  26.386  1.00  0.00    -0.200 F 
ATOM     94  F   UNL A   1      42.955  24.843  24.392  1.00  0.00    -0.200 F 
ENDBRANCH  60  84
BRANCH  72  95
ATOM     95  C   UNL A   1      36.640  31.425  29.199  1.00  0.00     0.064 A 
ATOM     96  C   UNL A   1      35.525  30.623  28.918  1.00  0.00     0.173 A 
ATOM     97  C   UNL A   1      36.602  32.767  28.788  1.00  0.00     0.173 A 
ATOM     98  F   UNL A   1      35.514  29.330  29.279  1.00  0.00    -0.203 F 
ATOM     99  C   UNL A   1      34.422  31.140  28.243  1.00  0.00     0.198 A 
ATOM    100  C   UNL A   1      35.483  33.291  28.147  1.00  0.00     0.198 A 
ATOM    101  F   UNL A   1      37.637  33.583  29.041  1.00  0.00    -0.203 F 
ATOM    102  F   UNL A   1      33.383  30.344  27.953  1.00  0.00    -0.200 F 
ATOM    103  C   UNL A   1      34.396  32.476  27.870  1.00  0.00     0.200 A 
ATOM    104  F   UNL A   1      35.451  34.587  27.809  1.00  0.00    -0.200 F 
ATOM    105  F   UNL A   1      33.323  32.977  27.245  1.00  0.00    -0.200 F 
ENDBRANCH  72  95
ENDBRANCH  46  47
ENDBRANCH  38  41
ENDBRANCH  36  37
ENDBRANCH  35  36
ENDBRANCH   1  35
TORSDOF 16
ENDMDL
MODEL 2
REMARK VINA RESULT:     -10.1      5.093      9.389
REMARK SMILES CCCn1c(N2CCC[C@@H](C)C2)c(/C=C2/SC(=S)N(CC(=O)NCCCNC(=O)c3ccc(-c4c5nc(c(-c6c(F)c(F)c(F)c(F)c6F)c6ccc([nH]6)c(-c6c(F)c(F)c(F)c(F)c6F)c6nc(c(-c7c(F)c(F)c(F)c(F)c7F)c7ccc4[nH]7)C=C6)C=C5)cc3)C2=O)c(C)c(C#N)c1=O
REMARK SMILES IDX 24 1 23 2 21 3 22 4 20 6 19 7 14 8 15 9 16 10 93 11 17 12
REMARK SMILES IDX 94 13 18 14 13 15 4 16 5 17 100 18 97 19 101 20 95 21 96 22
REMARK SMILES IDX 3 23 2 24 1 25 6 26 7 27 12 28 8 29 10 30 9 31 11 32 98 33
REMARK SMILES IDX 99 34 25 35 26 36 27 37 28 38 29 40 30 41 31 42 92 43 32 44
REMARK SMILES IDX 91 45 33 46 34 47 35 48 85 49 36 50 90 51 84 52 86 53 37 54
REMARK SMILES IDX 89 55 83 56 82 57 38 59 70 60 50 61 69 62 51 63 54 64 68 65
REMARK SMILES IDX 87 66 52 67 53 68 67 70 88 71 55 72 39 73 40 74 48 75 41 76
REMARK SMILES IDX 42 77 46 78 49 79 43 80 44 81 47 82 45 83 71 84 72 85 80 86
REMARK SMILES IDX 73 87 74 88 78 89 81 90 75 91 76 92 79 93 77 94 56 95 57 96
REMARK SMILES IDX 65 97 58 98 59 99 63 100 66 101 60 102 61 103 64 104 62 105
REMARK H PARENT 23 5 27 39 86 58 54 69
REMARK Flexibility Score: inf
ROOT
ATOM      1  C   UNL A   1      51.277  26.000  29.942  1.00  0.00     0.117 C 
ENDROOT
BRANCH   1   2
ATOM      2  N   UNL A   1      49.971  26.606  29.796  1.00  0.00    -0.354 N 
ATOM      3  C   UNL A   1      48.897  26.202  29.059  1.00  0.00     0.240 C 
ATOM      4  O   UNL A   1      47.821  26.758  29.288  1.00  0.00    -0.273 OA
ATOM      5  H   UNL A   1      49.837  27.437  30.307  1.00  0.00     0.163 HD
BRANCH   3   6
ATOM      6  C   UNL A   1      48.999  25.035  28.065  1.00  0.00     0.227 C 
BRANCH   6   7
ATOM      7  N   UNL A   1      48.283  25.306  26.816  1.00  0.00    -0.283 N 
ATOM      8  C   UNL A   1      45.169  24.808  25.003  1.00  0.00     0.033 C 
ATOM      9  C   UNL A   1      46.425  25.102  25.376  1.00  0.00     0.081 C 
ATOM     10  S   UNL A   1      47.477  26.157  24.520  1.00  0.00    -0.054 SA
ATOM     11  C   UNL A   1      47.115  24.603  26.600  1.00  0.00     0.266 C 
ATOM     12  C   UNL A   1      48.734  26.058  25.756  1.00  0.00     0.148 C 
ATOM     13  O   UNL A   1      46.711  23.688  27.299  1.00  0.00    -0.268 OA
ATOM     14  S   UNL A   1      50.220  26.787  25.555  1.00  0.00    -0.052 S 
BRANCH   8  15
ATOM     15  C   UNL A   1      44.269  23.930  25.767  1.00  0.00     0.021 A 
ATOM     16  N   UNL A   1      42.465  23.622  27.300  1.00  0.00    -0.293 N 
ATOM     17  C   UNL A   1      43.432  24.469  26.714  1.00  0.00     0.119 A 
ATOM     18  C   UNL A   1      42.212  22.328  26.830  1.00  0.00     0.270 A 
ATOM     19  C   UNL A   1      43.224  21.720  25.943  1.00  0.00     0.121 A 
ATOM     20  O   UNL A   1      41.224  21.668  27.150  1.00  0.00    -0.268 OA
ATOM     21  C   UNL A   1      44.224  22.480  25.467  1.00  0.00    -0.017 A 
ATOM     22  C   UNL A   1      45.309  21.908  24.578  1.00  0.00     0.047 C 
BRANCH  16  23
ATOM     23  C   UNL A   1      41.490  24.131  28.268  1.00  0.00     0.127 C 
BRANCH  23  24
ATOM     24  C   UNL A   1      40.217  24.759  27.670  1.00  0.00     0.019 C 
ATOM     25  C   UNL A   1      39.596  25.861  28.514  1.00  0.00     0.006 C 
ENDBRANCH  23  24
ENDBRANCH  16  23
BRANCH  17  26
ATOM     26  N   UNL A   1      43.459  25.849  27.038  1.00  0.00    -0.357 N 
ATOM     27  C   UNL A   1      44.279  26.393  28.133  1.00  0.00     0.118 C 
ATOM     28  C   UNL A   1      42.923  26.881  26.134  1.00  0.00     0.121 C 
ATOM     29  C   UNL A   1      43.495  27.439  28.939  1.00  0.00     0.022 C 
ATOM     30  C   UNL A   1      42.055  27.874  26.909  1.00  0.00     0.005 C 
ATOM     31  C   UNL A   1      42.856  28.506  28.054  1.00  0.00     0.007 C 
ATOM     32  C   UNL A   1      41.513  28.952  25.972  1.00  0.00     0.009 C 
ENDBRANCH  17  26
BRANCH  19  33
ATOM     33  C   UNL A   1      43.078  20.339  25.631  1.00  0.00     0.105 C 
ATOM     34  N   UNL A   1      42.879  19.223  25.373  1.00  0.00    -0.192 NA
ENDBRANCH  19  33
ENDBRANCH   8  15
ENDBRANCH   6   7
ENDBRANCH   3   6
ENDBRANCH   1   2
BRANCH   1  35
ATOM     35  C   UNL A   1      52.398  27.021  29.810  1.00  0.00     0.042 C 
BRANCH  35  36
ATOM     36  C   UNL A   1      52.642  27.804  31.097  1.00  0.00     0.118 C 
BRANCH  36  37
ATOM     37  N   UNL A   1      53.212  29.119  30.838  1.00  0.00    -0.352 N 
ATOM     38  C   UNL A   1      52.577  30.302  30.547  1.00  0.00     0.251 C 
ATOM     39  H   UNL A   1      54.195  29.168  30.878  1.00  0.00     0.163 HD
ATOM     40  O   UNL A   1      53.213  31.270  30.148  1.00  0.00    -0.269 OA
BRANCH  38  41
ATOM     41  C   UNL A   1      51.115  30.389  30.703  1.00  0.00     0.039 A 
ATOM     42  C   UNL A   1      50.583  30.758  31.940  1.00  0.00     0.014 A 
ATOM     43  C   UNL A   1      50.275  30.111  29.620  1.00  0.00     0.014 A 
ATOM     44  C   UNL A   1      49.203  30.905  32.076  1.00  0.00     0.010 A 
ATOM     45  C   UNL A   1      48.908  30.325  29.737  1.00  0.00     0.010 A 
ATOM     46  C   UNL A   1      48.359  30.711  30.969  1.00  0.00    -0.014 A 
BRANCH  46  47
ATOM     47  C   UNL A   1      46.891  30.852  31.100  1.00  0.00     0.031 A 
ATOM     48  C   UNL A   1      46.093  29.728  31.696  1.00  0.00     0.074 A 
ATOM     49  C   UNL A   1      46.279  31.969  30.665  1.00  0.00     0.049 A 
ATOM     50  N   UNL A   1      44.801  29.645  31.886  1.00  0.00    -0.248 NA
ATOM     51  C   UNL A   1      46.842  28.535  32.121  1.00  0.00     0.031 C 
ATOM     52  C   UNL A   1      46.951  33.115  30.053  1.00  0.00     0.029 A 
ATOM     53  N   UNL A   1      44.954  32.323  30.671  1.00  0.00    -0.354 N 
ATOM     54  C   UNL A   1      44.589  28.400  32.463  1.00  0.00     0.074 A 
ATOM     55  C   UNL A   1      45.869  27.732  32.525  1.00  0.00     0.031 C 
ATOM     56  C   UNL A   1      46.037  34.057  29.768  1.00  0.00     0.029 A 
ATOM     57  C   UNL A   1      44.712  33.568  30.143  1.00  0.00     0.049 A 
ATOM     58  H   UNL A   1      44.242  31.740  31.022  1.00  0.00     0.167 HD
ATOM     59  C   UNL A   1      43.432  27.878  32.932  1.00  0.00     0.037 A 
ATOM     60  C   UNL A   1      43.553  34.234  29.980  1.00  0.00     0.037 A 
ATOM     61  C   UNL A   1      42.162  28.549  32.872  1.00  0.00     0.049 A 
ATOM     62  C   UNL A   1      42.269  33.598  30.447  1.00  0.00     0.074 A 
ATOM     63  C   UNL A   1      40.938  28.112  33.343  1.00  0.00     0.029 A 
ATOM     64  N   UNL A   1      41.952  29.794  32.299  1.00  0.00    -0.354 N 
ATOM     65  N   UNL A   1      42.087  32.448  31.050  1.00  0.00    -0.248 NA
ATOM     66  C   UNL A   1      41.030  34.354  30.216  1.00  0.00     0.031 C 
ATOM     67  C   UNL A   1      39.974  29.063  33.000  1.00  0.00     0.029 A 
ATOM     68  C   UNL A   1      40.609  30.126  32.377  1.00  0.00     0.049 A 
ATOM     69  H   UNL A   1      42.652  30.359  31.898  1.00  0.00     0.167 HD
ATOM     70  C   UNL A   1      40.723  32.357  31.298  1.00  0.00     0.074 A 
ATOM     71  C   UNL A   1      40.126  33.576  30.796  1.00  0.00     0.031 C 
ATOM     72  C   UNL A   1      40.029  31.350  31.884  1.00  0.00     0.037 A 
BRANCH  59  73
ATOM     73  C   UNL A   1      43.486  26.520  33.569  1.00  0.00     0.064 A 
ATOM     74  C   UNL A   1      43.699  25.362  32.805  1.00  0.00     0.173 A 
ATOM     75  C   UNL A   1      43.405  26.381  34.963  1.00  0.00     0.173 A 
ATOM     76  F   UNL A   1      43.772  25.439  31.468  1.00  0.00    -0.203 F 
ATOM     77  C   UNL A   1      43.815  24.115  33.412  1.00  0.00     0.198 A 
ATOM     78  C   UNL A   1      43.555  25.137  35.568  1.00  0.00     0.198 A 
ATOM     79  F   UNL A   1      43.205  27.456  35.740  1.00  0.00    -0.203 F 
ATOM     80  F   UNL A   1      43.984  23.019  32.659  1.00  0.00    -0.200 F 
ATOM     81  C   UNL A   1      43.757  24.005  34.793  1.00  0.00     0.200 A 
ATOM     82  F   UNL A   1      43.518  25.035  36.904  1.00  0.00    -0.200 F 
ATOM     83  F   UNL A   1      43.895  22.807  35.377  1.00  0.00    -0.200 F 
ENDBRANCH  59  73
BRANCH  60  84
ATOM     84  C   UNL A   1      43.557  35.595  29.378  1.00  0.00     0.064 A 
ATOM     85  C   UNL A   1      43.785  36.731  30.169  1.00  0.00     0.173 A 
ATOM     86  C   UNL A   1      43.342  35.792  28.006  1.00  0.00     0.173 A 
ATOM     87  F   UNL A   1      43.976  36.598  31.490  1.00  0.00    -0.203 F 
ATOM     88  C   UNL A   1      43.780  38.009  29.615  1.00  0.00     0.198 A 
ATOM     89  C   UNL A   1      43.370  37.068  27.447  1.00  0.00     0.198 A 
ATOM     90  F   UNL A   1      43.123  34.741  27.202  1.00  0.00    -0.203 F 
ATOM     91  F   UNL A   1      43.958  39.078  30.403  1.00  0.00    -0.200 F 
ATOM     92  C   UNL A   1      43.583  38.176  28.254  1.00  0.00     0.200 A 
ATOM     93  F   UNL A   1      43.197  37.223  26.127  1.00  0.00    -0.200 F 
ATOM     94  F   UNL A   1      43.591  39.405  27.718  1.00  0.00    -0.200 F 
ENDBRANCH  60  84
BRANCH  72  95
ATOM     95  C   UNL A   1      38.544  31.519  32.042  1.00  0.00     0.064 A 
ATOM     96  C   UNL A   1      37.990  32.132  33.175  1.00  0.00     0.173 A 
ATOM     97  C   UNL A   1      37.672  31.150  31.004  1.00  0.00     0.173 A 
ATOM     98  F   UNL A   1      38.777  32.494  34.200  1.00  0.00    -0.203 F 
ATOM     99  C   UNL A   1      36.619  32.357  33.270  1.00  0.00     0.198 A 
ATOM    100  C   UNL A   1      36.307  31.411  31.086  1.00  0.00     0.198 A 
ATOM    101  F   UNL A   1      38.150  30.570  29.892  1.00  0.00    -0.203 F 
ATOM    102  F   UNL A   1      36.109  32.911  34.379  1.00  0.00    -0.200 F 
ATOM    103  C   UNL A   1      35.781  32.009  32.221  1.00  0.00     0.200 A 
ATOM    104  F   UNL A   1      35.504  31.096  30.062  1.00  0.00    -0.200 F 
ATOM    105  F   UNL A   1      34.466  32.252  32.304  1.00  0.00    -0.200 F 
ENDBRANCH  72  95
ENDBRANCH  46  47
ENDBRANCH  38  41
ENDBRANCH  36  37
ENDBRANCH  35  36
ENDBRANCH   1  35
TORSDOF 16
ENDMDL
MODEL 3
REMARK VINA RESULT:     -10.0      1.475      2.977
REMARK SMILES CCCn1c(N2CCC[C@@H](C)C2)c(/C=C2/SC(=S)N(CC(=O)NCCCNC(=O)c3ccc(-c4c5nc(c(-c6c(F)c(F)c(F)c(F)c6F)c6ccc([nH]6)c(-c6c(F)c(F)c(F)c(F)c6F)c6nc(c(-c7c(F)c(F)c(F)c(F)c7F)c7ccc4[nH]7)C=C6)C=C5)cc3)C2=O)c(C)c(C#N)c1=O
REMARK SMILES IDX 24 1 23 2 21 3 22 4 20 6 19 7 14 8 15 9 16 10 93 11 17 12
REMARK SMILES IDX 94 13 18 14 13 15 4 16 5 17 100 18 97 19 101 20 95 21 96 22
REMARK SMILES IDX 3 23 2 24 1 25 6 26 7 27 12 28 8 29 10 30 9 31 11 32 98 33
REMARK SMILES IDX 99 34 25 35 26 36 27 37 28 38 29 40 30 41 31 42 92 43 32 44
REMARK SMILES IDX 91 45 33 46 34 47 35 48 85 49 36 50 90 51 84 52 86 53 37 54
REMARK SMILES IDX 89 55 83 56 82 57 38 59 70 60 50 61 69 62 51 63 54 64 68 65
REMARK SMILES IDX 87 66 52 67 53 68 67 70 88 71 55 72 39 73 40 74 48 75 41 76
REMARK SMILES IDX 42 77 46 78 49 79 43 80 44 81 47 82 45 83 71 84 72 85 80 86
REMARK SMILES IDX 73 87 74 88 78 89 81 90 75 91 76 92 79 93 77 94 56 95 57 96
REMARK SMILES IDX 65 97 58 98 59 99 63 100 66 101 60 102 61 103 64 104 62 105
REMARK H PARENT 23 5 27 39 86 58 54 69
REMARK Flexibility Score: inf
ROOT
ATOM      1  C   UNL A   1      51.087  24.347  34.727  1.00  0.00     0.117 C 
ENDROOT
BRANCH   1   2
ATOM      2  N   UNL A   1      51.569  23.979  36.041  1.00  0.00    -0.354 N 
ATOM      3  C   UNL A   1      51.568  22.766  36.664  1.00  0.00     0.240 C 
ATOM      4  O   UNL A   1      52.251  22.662  37.684  1.00  0.00    -0.273 OA
ATOM      5  H   UNL A   1      51.957  24.716  36.564  1.00  0.00     0.163 HD
BRANCH   3   6
ATOM      6  C   UNL A   1      50.836  21.556  36.064  1.00  0.00     0.227 C 
BRANCH   6   7
ATOM      7  N   UNL A   1      49.820  21.016  36.972  1.00  0.00    -0.283 N 
ATOM      8  C   UNL A   1      46.366  21.301  38.077  1.00  0.00     0.033 C 
ATOM      9  C   UNL A   1      47.665  20.995  37.934  1.00  0.00     0.081 C 
ATOM     10  S   UNL A   1      48.433  19.634  38.649  1.00  0.00    -0.054 SA
ATOM     11  C   UNL A   1      48.658  21.748  37.114  1.00  0.00     0.266 C 
ATOM     12  C   UNL A   1      49.964  19.950  37.828  1.00  0.00     0.148 C 
ATOM     13  O   UNL A   1      48.471  22.862  36.652  1.00  0.00    -0.268 OA
ATOM     14  S   UNL A   1      51.328  19.041  38.136  1.00  0.00    -0.052 S 
BRANCH   8  15
ATOM     15  C   UNL A   1      45.716  22.451  37.430  1.00  0.00     0.021 A 
ATOM     16  N   UNL A   1      44.535  23.414  35.592  1.00  0.00    -0.293 N 
ATOM     17  C   UNL A   1      45.305  22.355  36.122  1.00  0.00     0.119 A 
ATOM     18  C   UNL A   1      44.028  24.449  36.386  1.00  0.00     0.270 A 
ATOM     19  C   UNL A   1      44.616  24.622  37.729  1.00  0.00     0.121 A 
ATOM     20  O   UNL A   1      43.161  25.236  36.008  1.00  0.00    -0.268 OA
ATOM     21  C   UNL A   1      45.450  23.683  38.208  1.00  0.00    -0.017 A 
ATOM     22  C   UNL A   1      46.109  23.818  39.566  1.00  0.00     0.047 C 
BRANCH  16  23
ATOM     23  C   UNL A   1      44.000  23.361  34.229  1.00  0.00     0.127 C 
BRANCH  23  24
ATOM     24  C   UNL A   1      44.531  24.432  33.257  1.00  0.00     0.019 C 
ATOM     25  C   UNL A   1      46.020  24.715  33.377  1.00  0.00     0.006 C 
ENDBRANCH  23  24
ENDBRANCH  16  23
BRANCH  17  26
ATOM     26  N   UNL A   1      45.558  21.198  35.342  1.00  0.00    -0.357 N 
ATOM     27  C   UNL A   1      44.618  20.066  35.270  1.00  0.00     0.118 C 
ATOM     28  C   UNL A   1      46.612  21.155  34.315  1.00  0.00     0.121 C 
ATOM     29  C   UNL A   1      45.365  18.727  35.342  1.00  0.00     0.022 C 
ATOM     30  C   UNL A   1      47.430  19.869  34.439  1.00  0.00     0.005 C 
ATOM     31  C   UNL A   1      46.517  18.641  34.343  1.00  0.00     0.007 C 
ATOM     32  C   UNL A   1      48.513  19.821  33.362  1.00  0.00     0.009 C 
ENDBRANCH  17  26
BRANCH  19  33
ATOM     33  C   UNL A   1      44.259  25.791  38.457  1.00  0.00     0.105 C 
ATOM     34  N   UNL A   1      44.046  26.760  39.064  1.00  0.00    -0.192 NA
ENDBRANCH  19  33
ENDBRANCH   8  15
ENDBRANCH   6   7
ENDBRANCH   3   6
ENDBRANCH   1   2
BRANCH   1  35
ATOM     35  C   UNL A   1      50.851  25.846  34.604  1.00  0.00     0.042 C 
BRANCH  35  36
ATOM     36  C   UNL A   1      49.431  26.256  34.984  1.00  0.00     0.118 C 
BRANCH  36  37
ATOM     37  N   UNL A   1      49.397  27.043  36.209  1.00  0.00    -0.352 N 
ATOM     38  C   UNL A   1      48.556  28.070  36.561  1.00  0.00     0.251 C 
ATOM     39  H   UNL A   1      50.075  26.804  36.883  1.00  0.00     0.163 HD
ATOM     40  O   UNL A   1      48.797  28.766  37.539  1.00  0.00    -0.269 OA
BRANCH  38  41
ATOM     41  C   UNL A   1      47.366  28.339  35.735  1.00  0.00     0.039 A 
ATOM     42  C   UNL A   1      46.225  27.554  35.910  1.00  0.00     0.014 A 
ATOM     43  C   UNL A   1      47.383  29.372  34.793  1.00  0.00     0.014 A 
ATOM     44  C   UNL A   1      45.074  27.845  35.177  1.00  0.00     0.010 A 
ATOM     45  C   UNL A   1      46.218  29.705  34.115  1.00  0.00     0.010 A 
ATOM     46  C   UNL A   1      45.057  28.936  34.292  1.00  0.00    -0.014 A 
BRANCH  46  47
ATOM     47  C   UNL A   1      43.848  29.251  33.499  1.00  0.00     0.031 A 
ATOM     48  C   UNL A   1      42.788  30.136  34.089  1.00  0.00     0.074 A 
ATOM     49  C   UNL A   1      43.693  28.728  32.269  1.00  0.00     0.049 A 
ATOM     50  N   UNL A   1      41.651  30.521  33.569  1.00  0.00    -0.248 NA
ATOM     51  C   UNL A   1      43.030  30.643  35.449  1.00  0.00     0.031 C 
ATOM     52  C   UNL A   1      44.648  27.842  31.603  1.00  0.00     0.029 A 
ATOM     53  N   UNL A   1      42.674  28.864  31.360  1.00  0.00    -0.354 N 
ATOM     54  C   UNL A   1      41.053  31.323  34.531  1.00  0.00     0.074 A 
ATOM     55  C   UNL A   1      41.912  31.312  35.693  1.00  0.00     0.031 C 
ATOM     56  C   UNL A   1      44.182  27.537  30.381  1.00  0.00     0.029 A 
ATOM     57  C   UNL A   1      42.882  28.175  30.190  1.00  0.00     0.049 A 
ATOM     58  H   UNL A   1      41.870  29.407  31.529  1.00  0.00     0.167 HD
ATOM     59  C   UNL A   1      39.906  32.035  34.437  1.00  0.00     0.037 A 
ATOM     60  C   UNL A   1      42.108  28.071  29.092  1.00  0.00     0.037 A 
ATOM     61  C   UNL A   1      39.058  32.047  33.276  1.00  0.00     0.049 A 
ATOM     62  C   UNL A   1      40.800  28.818  29.043  1.00  0.00     0.074 A 
ATOM     63  C   UNL A   1      37.888  32.755  33.076  1.00  0.00     0.029 A 
ATOM     64  N   UNL A   1      39.284  31.309  32.124  1.00  0.00    -0.354 N 
ATOM     65  N   UNL A   1      40.274  29.625  29.932  1.00  0.00    -0.248 NA
ATOM     66  C   UNL A   1      39.980  28.643  27.835  1.00  0.00     0.031 C 
ATOM     67  C   UNL A   1      37.371  32.400  31.829  1.00  0.00     0.029 A 
ATOM     68  C   UNL A   1      38.255  31.523  31.220  1.00  0.00     0.049 A 
ATOM     69  H   UNL A   1      40.059  30.722  31.970  1.00  0.00     0.167 HD
ATOM     70  C   UNL A   1      39.082  30.079  29.381  1.00  0.00     0.074 A 
ATOM     71  C   UNL A   1      38.971  29.470  28.073  1.00  0.00     0.031 C 
ATOM     72  C   UNL A   1      38.162  30.919  29.915  1.00  0.00     0.037 A 
BRANCH  59  73
ATOM     73  C   UNL A   1      39.507  32.877  35.614  1.00  0.00     0.064 A 
ATOM     74  C   UNL A   1      38.673  32.373  36.624  1.00  0.00     0.173 A 
ATOM     75  C   UNL A   1      40.027  34.170  35.777  1.00  0.00     0.173 A 
ATOM     76  F   UNL A   1      38.141  31.147  36.511  1.00  0.00    -0.203 F 
ATOM     77  C   UNL A   1      38.364  33.137  37.745  1.00  0.00     0.198 A 
ATOM     78  C   UNL A   1      39.742  34.918  36.915  1.00  0.00     0.198 A 
ATOM     79  F   UNL A   1      40.832  34.698  34.842  1.00  0.00    -0.203 F 
ATOM     80  F   UNL A   1      37.537  32.648  38.679  1.00  0.00    -0.200 F 
ATOM     81  C   UNL A   1      38.909  34.404  37.897  1.00  0.00     0.200 A 
ATOM     82  F   UNL A   1      40.285  36.134  37.068  1.00  0.00    -0.200 F 
ATOM     83  F   UNL A   1      38.631  35.127  38.989  1.00  0.00    -0.200 F 
ENDBRANCH  59  73
BRANCH  60  84
ATOM     84  C   UNL A   1      42.566  27.255  27.936  1.00  0.00     0.064 A 
ATOM     85  C   UNL A   1      43.372  27.816  26.933  1.00  0.00     0.173 A 
ATOM     86  C   UNL A   1      42.219  25.902  27.808  1.00  0.00     0.173 A 
ATOM     87  F   UNL A   1      43.715  29.110  26.998  1.00  0.00    -0.203 F 
ATOM     88  C   UNL A   1      43.796  27.061  25.842  1.00  0.00     0.198 A 
ATOM     89  C   UNL A   1      42.672  25.139  26.733  1.00  0.00     0.198 A 
ATOM     90  F   UNL A   1      41.454  25.312  28.739  1.00  0.00    -0.203 F 
ATOM     91  F   UNL A   1      44.529  27.636  24.879  1.00  0.00    -0.200 F 
ATOM     92  C   UNL A   1      43.455  25.721  25.748  1.00  0.00     0.200 A 
ATOM     93  F   UNL A   1      42.354  23.839  26.656  1.00  0.00    -0.200 F 
ATOM     94  F   UNL A   1      43.874  24.992  24.704  1.00  0.00    -0.200 F 
ENDBRANCH  60  84
BRANCH  72  95
ATOM     95  C   UNL A   1      36.955  31.259  29.086  1.00  0.00     0.064 A 
ATOM     96  C   UNL A   1      35.930  30.328  28.865  1.00  0.00     0.173 A 
ATOM     97  C   UNL A   1      36.776  32.561  28.590  1.00  0.00     0.173 A 
ATOM     98  F   UNL A   1      36.055  29.068  29.308  1.00  0.00    -0.203 F 
ATOM     99  C   UNL A   1      34.778  30.683  28.167  1.00  0.00     0.198 A 
ATOM    100  C   UNL A   1      35.608  32.922  27.926  1.00  0.00     0.198 A 
ATOM    101  F   UNL A   1      37.721  33.495  28.784  1.00  0.00    -0.203 F 
ATOM    102  F   UNL A   1      33.829  29.765  27.935  1.00  0.00    -0.200 F 
ATOM    103  C   UNL A   1      34.613  31.982  27.710  1.00  0.00     0.200 A 
ATOM    104  F   UNL A   1      35.440  34.184  27.506  1.00  0.00    -0.200 F 
ATOM    105  F   UNL A   1      33.492  32.327  27.061  1.00  0.00    -0.200 F 
ENDBRANCH  72  95
ENDBRANCH  46  47
ENDBRANCH  38  41
ENDBRANCH  36  37
ENDBRANCH  35  36
ENDBRANCH   1  35
TORSDOF 16
ENDMDL
