MODEL 1
REMARK VINA RESULT:     -12.3      0.000      0.000
REMARK SMILES O=C(NCCCNC(=O)[C@H]1COc2c(O)cccc2C1)c1ccc(-c2c3nc(c(-c4c(F)c(F)c(F)c(F)c4F)c4ccc([nH]4)c(-c4c(F)c(F)c(F)c(F)c4F)c4nc(c(-c5c(F)c(F)c(F)c(F)c5F)c5ccc2[nH]5)C=C4)C=C3)cc1
REMARK SMILES IDX 4 1 3 2 1 3 2 4 21 6 22 7 83 8 23 9 82 10 24 11 25 12 26 13
REMARK SMILES IDX 76 14 27 15 81 16 75 17 77 18 28 19 80 20 74 21 73 22 29 24
REMARK SMILES IDX 61 25 41 26 60 27 42 28 45 29 59 30 78 31 43 32 44 33 58 35
REMARK SMILES IDX 79 36 46 37 30 38 31 39 39 40 32 41 33 42 37 43 40 44 34 45
REMARK SMILES IDX 35 46 38 47 36 48 62 49 63 50 71 51 64 52 65 53 69 54 72 55
REMARK SMILES IDX 66 56 67 57 70 58 68 59 47 60 48 61 56 62 49 63 50 64 54 65
REMARK SMILES IDX 57 66 51 67 52 68 55 69 53 70 5 71 6 72 7 73 8 74 9 76 10 77
REMARK SMILES IDX 11 78 20 79 12 80 19 81 13 82 18 83 14 84 17 85 16 86 15 87
REMARK H PARENT 3 5 77 23 45 34 7 75 15 88
REMARK Flexibility Score: inf
ROOT
ATOM      1  C   UNL A   1      33.553  28.985  25.325  1.00  0.00     0.118 C 
ENDROOT
BRANCH   1   2
ATOM      2  N   UNL A   1      33.002  30.269  25.732  1.00  0.00    -0.352 N 
ATOM      3  O   UNL A   1      32.537  31.961  27.142  1.00  0.00    -0.269 OA
ATOM      4  C   UNL A   1      33.293  31.049  26.824  1.00  0.00     0.251 C 
ATOM      5  H   UNL A   1      32.313  30.635  25.132  1.00  0.00     0.163 HD
BRANCH   4   6
ATOM      6  C   UNL A   1      34.513  30.802  27.623  1.00  0.00     0.039 A 
ATOM      7  C   UNL A   1      34.734  29.564  28.232  1.00  0.00     0.014 A 
ATOM      8  C   UNL A   1      35.495  31.798  27.690  1.00  0.00     0.014 A 
ATOM      9  C   UNL A   1      35.880  29.357  28.991  1.00  0.00     0.010 A 
ATOM     10  C   UNL A   1      36.675  31.569  28.402  1.00  0.00     0.010 A 
ATOM     11  C   UNL A   1      36.866  30.353  29.073  1.00  0.00    -0.014 A 
BRANCH  11  12
ATOM     12  C   UNL A   1      38.122  30.064  29.805  1.00  0.00     0.031 A 
ATOM     13  C   UNL A   1      38.356  30.606  31.182  1.00  0.00     0.074 A 
ATOM     14  C   UNL A   1      39.032  29.258  29.227  1.00  0.00     0.049 A 
ATOM     15  N   UNL A   1      39.345  30.363  32.005  1.00  0.00    -0.248 NA
ATOM     16  C   UNL A   1      37.353  31.544  31.709  1.00  0.00     0.031 C 
ATOM     17  C   UNL A   1      38.910  28.685  27.886  1.00  0.00     0.029 A 
ATOM     18  N   UNL A   1      40.220  28.761  29.698  1.00  0.00    -0.354 N 
ATOM     19  C   UNL A   1      39.080  31.105  33.146  1.00  0.00     0.074 A 
ATOM     20  C   UNL A   1      37.859  31.840  32.899  1.00  0.00     0.031 C 
ATOM     21  C   UNL A   1      39.958  27.880  27.658  1.00  0.00     0.029 A 
ATOM     22  C   UNL A   1      40.838  27.904  28.822  1.00  0.00     0.049 A 
ATOM     23  H   UNL A   1      40.593  28.997  30.577  1.00  0.00     0.167 HD
ATOM     24  C   UNL A   1      39.789  31.152  34.300  1.00  0.00     0.037 A 
ATOM     25  C   UNL A   1      41.983  27.207  28.948  1.00  0.00     0.037 A 
ATOM     26  C   UNL A   1      41.004  30.418  34.538  1.00  0.00     0.049 A 
ATOM     27  C   UNL A   1      42.768  27.309  30.222  1.00  0.00     0.074 A 
ATOM     28  C   UNL A   1      41.776  30.379  35.686  1.00  0.00     0.029 A 
ATOM     29  N   UNL A   1      41.629  29.602  33.608  1.00  0.00    -0.354 N 
ATOM     30  N   UNL A   1      42.482  27.975  31.314  1.00  0.00    -0.248 NA
ATOM     31  C   UNL A   1      44.033  26.564  30.285  1.00  0.00     0.031 C 
ATOM     32  C   UNL A   1      42.888  29.567  35.438  1.00  0.00     0.029 A 
ATOM     33  C   UNL A   1      42.790  29.072  34.147  1.00  0.00     0.049 A 
ATOM     34  H   UNL A   1      41.297  29.425  32.698  1.00  0.00     0.167 HD
ATOM     35  C   UNL A   1      43.520  27.721  32.198  1.00  0.00     0.074 A 
ATOM     36  C   UNL A   1      44.439  26.830  31.520  1.00  0.00     0.031 C 
ATOM     37  C   UNL A   1      43.693  28.187  33.459  1.00  0.00     0.037 A 
BRANCH  24  38
ATOM     38  C   UNL A   1      39.267  32.023  35.402  1.00  0.00     0.064 A 
ATOM     39  C   UNL A   1      38.448  31.502  36.415  1.00  0.00     0.173 A 
ATOM     40  C   UNL A   1      39.639  33.372  35.484  1.00  0.00     0.173 A 
ATOM     41  F   UNL A   1      38.056  30.220  36.374  1.00  0.00    -0.203 F 
ATOM     42  C   UNL A   1      38.012  32.305  37.465  1.00  0.00     0.198 A 
ATOM     43  C   UNL A   1      39.217  34.167  36.546  1.00  0.00     0.198 A 
ATOM     44  F   UNL A   1      40.425  33.916  34.542  1.00  0.00    -0.203 F 
ATOM     45  F   UNL A   1      37.208  31.794  38.409  1.00  0.00    -0.200 F 
ATOM     46  C   UNL A   1      38.403  33.634  37.535  1.00  0.00     0.200 A 
ATOM     47  F   UNL A   1      39.602  35.449  36.617  1.00  0.00    -0.200 F 
ATOM     48  F   UNL A   1      37.990  34.403  38.551  1.00  0.00    -0.200 F 
ENDBRANCH  24  38
BRANCH  25  49
ATOM     49  C   UNL A   1      42.420  26.326  27.838  1.00  0.00     0.064 A 
ATOM     50  C   UNL A   1      41.875  25.046  27.683  1.00  0.00     0.173 A 
ATOM     51  C   UNL A   1      43.347  26.765  26.882  1.00  0.00     0.173 A 
ATOM     52  F   UNL A   1      40.996  24.579  28.582  1.00  0.00    -0.203 F 
ATOM     53  C   UNL A   1      42.238  24.236  26.609  1.00  0.00     0.198 A 
ATOM     54  C   UNL A   1      43.695  25.963  25.798  1.00  0.00     0.198 A 
ATOM     55  F   UNL A   1      43.892  27.986  26.987  1.00  0.00    -0.203 F 
ATOM     56  F   UNL A   1      41.714  23.008  26.490  1.00  0.00    -0.200 F 
ATOM     57  C   UNL A   1      43.141  24.698  25.663  1.00  0.00     0.200 A 
ATOM     58  F   UNL A   1      44.557  26.418  24.879  1.00  0.00    -0.200 F 
ATOM     59  F   UNL A   1      43.477  23.926  24.622  1.00  0.00    -0.200 F 
ENDBRANCH  25  49
BRANCH  37  60
ATOM     60  C   UNL A   1      44.915  27.738  34.198  1.00  0.00     0.064 A 
ATOM     61  C   UNL A   1      46.095  28.494  34.180  1.00  0.00     0.173 A 
ATOM     62  C   UNL A   1      44.881  26.583  34.993  1.00  0.00     0.173 A 
ATOM     63  F   UNL A   1      46.176  29.599  33.423  1.00  0.00    -0.203 F 
ATOM     64  C   UNL A   1      47.201  28.108  34.930  1.00  0.00     0.198 A 
ATOM     65  C   UNL A   1      45.983  26.210  35.758  1.00  0.00     0.198 A 
ATOM     66  F   UNL A   1      43.772  25.830  35.045  1.00  0.00    -0.203 F 
ATOM     67  F   UNL A   1      48.327  28.834  34.884  1.00  0.00    -0.200 F 
ATOM     68  C   UNL A   1      47.142  26.972  35.725  1.00  0.00     0.200 A 
ATOM     69  F   UNL A   1      45.921  25.118  36.532  1.00  0.00    -0.200 F 
ATOM     70  F   UNL A   1      48.203  26.609  36.458  1.00  0.00    -0.200 F 
ENDBRANCH  37  60
ENDBRANCH  11  12
ENDBRANCH   4   6
ENDBRANCH   1   2
BRANCH   1  71
ATOM     71  C   UNL A   1      32.592  27.838  25.617  1.00  0.00     0.042 C 
BRANCH  71  72
ATOM     72  C   UNL A   1      31.762  27.417  24.409  1.00  0.00     0.117 C 
BRANCH  72  73
ATOM     73  N   UNL A   1      32.601  27.105  23.266  1.00  0.00    -0.356 N 
ATOM     74  C   UNL A   1      32.915  25.983  22.583  1.00  0.00     0.226 C 
ATOM     75  H   UNL A   1      33.050  27.902  22.903  1.00  0.00     0.163 HD
ATOM     76  O   UNL A   1      33.705  26.167  21.645  1.00  0.00    -0.275 OA
BRANCH  74  77
ATOM     77  C   UNL A   1      32.466  24.556  22.905  1.00  0.00     0.120 C 
ATOM     78  C   UNL A   1      33.018  23.378  22.127  1.00  0.00     0.243 C 
ATOM     79  C   UNL A   1      32.799  24.263  24.379  1.00  0.00     0.056 C 
ATOM     80  O   UNL A   1      34.447  23.321  22.146  1.00  0.00    -0.489 OA
ATOM     81  C   UNL A   1      34.258  23.909  24.511  1.00  0.00    -0.001 A 
ATOM     82  C   UNL A   1      34.990  23.479  23.398  1.00  0.00     0.164 A 
ATOM     83  C   UNL A   1      34.901  24.007  25.752  1.00  0.00     0.008 A 
ATOM     84  C   UNL A   1      36.357  23.223  23.520  1.00  0.00     0.157 A 
ATOM     85  C   UNL A   1      36.265  23.721  25.866  1.00  0.00     0.004 A 
ATOM     86  C   UNL A   1      37.000  23.339  24.744  1.00  0.00     0.050 A 
BRANCH  84  87
ATOM     87  O   UNL A   1      37.093  22.857  22.428  1.00  0.00    -0.504 OA
ATOM     88  H   UNL A   1      37.336  21.960  22.305  1.00  0.00     0.293 HD
ENDBRANCH  84  87
ENDBRANCH  74  77
ENDBRANCH  72  73
ENDBRANCH  71  72
ENDBRANCH   1  71
TORSDOF 11
ENDMDL
MODEL 2
REMARK VINA RESULT:     -12.2      2.182      3.302
REMARK SMILES O=C(NCCCNC(=O)[C@H]1COc2c(O)cccc2C1)c1ccc(-c2c3nc(c(-c4c(F)c(F)c(F)c(F)c4F)c4ccc([nH]4)c(-c4c(F)c(F)c(F)c(F)c4F)c4nc(c(-c5c(F)c(F)c(F)c(F)c5F)c5ccc2[nH]5)C=C4)C=C3)cc1
REMARK SMILES IDX 4 1 3 2 1 3 2 4 21 6 22 7 83 8 23 9 82 10 24 11 25 12 26 13
REMARK SMILES IDX 76 14 27 15 81 16 75 17 77 18 28 19 80 20 74 21 73 22 29 24
REMARK SMILES IDX 61 25 41 26 60 27 42 28 45 29 59 30 78 31 43 32 44 33 58 35
REMARK SMILES IDX 79 36 46 37 30 38 31 39 39 40 32 41 33 42 37 43 40 44 34 45
REMARK SMILES IDX 35 46 38 47 36 48 62 49 63 50 71 51 64 52 65 53 69 54 72 55
REMARK SMILES IDX 66 56 67 57 70 58 68 59 47 60 48 61 56 62 49 63 50 64 54 65
REMARK SMILES IDX 57 66 51 67 52 68 55 69 53 70 5 71 6 72 7 73 8 74 9 76 10 77
REMARK SMILES IDX 11 78 20 79 12 80 19 81 13 82 18 83 14 84 17 85 16 86 15 87
REMARK H PARENT 3 5 77 23 45 34 7 75 15 88
REMARK Flexibility Score: inf
ROOT
ATOM      1  C   UNL A   1      32.555  32.684  27.174  1.00  0.00     0.118 C 
ENDROOT
BRANCH   1   2
ATOM      2  N   UNL A   1      32.433  34.063  27.626  1.00  0.00    -0.352 N 
ATOM      3  O   UNL A   1      32.629  35.788  29.058  1.00  0.00    -0.269 OA
ATOM      4  C   UNL A   1      33.060  34.710  28.662  1.00  0.00     0.251 C 
ATOM      5  H   UNL A   1      31.804  34.616  27.110  1.00  0.00     0.163 HD
BRANCH   4   6
ATOM      6  C   UNL A   1      34.253  34.121  29.308  1.00  0.00     0.039 A 
ATOM      7  C   UNL A   1      34.123  33.169  30.322  1.00  0.00     0.014 A 
ATOM      8  C   UNL A   1      35.524  34.461  28.829  1.00  0.00     0.014 A 
ATOM      9  C   UNL A   1      35.257  32.638  30.927  1.00  0.00     0.010 A 
ATOM     10  C   UNL A   1      36.663  33.883  29.396  1.00  0.00     0.010 A 
ATOM     11  C   UNL A   1      36.536  32.981  30.462  1.00  0.00    -0.014 A 
BRANCH  11  12
ATOM     12  C   UNL A   1      37.720  32.321  31.059  1.00  0.00     0.031 A 
ATOM     13  C   UNL A   1      38.175  32.657  32.446  1.00  0.00     0.074 A 
ATOM     14  C   UNL A   1      38.353  31.370  30.346  1.00  0.00     0.049 A 
ATOM     15  N   UNL A   1      39.121  32.099  33.160  1.00  0.00    -0.248 NA
ATOM     16  C   UNL A   1      37.483  33.763  33.125  1.00  0.00     0.031 C 
ATOM     17  C   UNL A   1      38.001  30.972  28.983  1.00  0.00     0.029 A 
ATOM     18  N   UNL A   1      39.402  30.550  30.675  1.00  0.00    -0.354 N 
ATOM     19  C   UNL A   1      39.130  32.775  34.371  1.00  0.00     0.074 A 
ATOM     20  C   UNL A   1      38.125  33.812  34.285  1.00  0.00     0.031 C 
ATOM     21  C   UNL A   1      38.790  29.955  28.607  1.00  0.00     0.029 A 
ATOM     22  C   UNL A   1      39.721  29.650  29.689  1.00  0.00     0.049 A 
ATOM     23  H   UNL A   1      39.880  30.602  31.534  1.00  0.00     0.167 HD
ATOM     24  C   UNL A   1      39.901  32.536  35.459  1.00  0.00     0.037 A 
ATOM     25  C   UNL A   1      40.655  28.681  29.664  1.00  0.00     0.037 A 
ATOM     26  C   UNL A   1      40.900  31.503  35.537  1.00  0.00     0.049 A 
ATOM     27  C   UNL A   1      41.521  28.464  30.869  1.00  0.00     0.074 A 
ATOM     28  C   UNL A   1      41.709  31.166  36.608  1.00  0.00     0.029 A 
ATOM     29  N   UNL A   1      41.233  30.646  34.499  1.00  0.00    -0.354 N 
ATOM     30  N   UNL A   1      41.488  29.077  32.027  1.00  0.00    -0.248 NA
ATOM     31  C   UNL A   1      42.553  27.424  30.767  1.00  0.00     0.031 C 
ATOM     32  C   UNL A   1      42.558  30.128  36.205  1.00  0.00     0.029 A 
ATOM     33  C   UNL A   1      42.251  29.795  34.896  1.00  0.00     0.049 A 
ATOM     34  H   UNL A   1      40.807  30.642  33.611  1.00  0.00     0.167 HD
ATOM     35  C   UNL A   1      42.481  28.490  32.797  1.00  0.00     0.074 A 
ATOM     36  C   UNL A   1      43.094  27.464  31.978  1.00  0.00     0.031 C 
ATOM     37  C   UNL A   1      42.850  28.779  34.068  1.00  0.00     0.037 A 
BRANCH  24  38
ATOM     38  C   UNL A   1      39.693  33.404  36.663  1.00  0.00     0.064 A 
ATOM     39  C   UNL A   1      40.352  34.635  36.796  1.00  0.00     0.173 A 
ATOM     40  C   UNL A   1      38.780  33.034  37.661  1.00  0.00     0.173 A 
ATOM     41  F   UNL A   1      41.242  35.027  35.873  1.00  0.00    -0.203 F 
ATOM     42  C   UNL A   1      40.111  35.460  37.891  1.00  0.00     0.198 A 
ATOM     43  C   UNL A   1      38.528  33.870  38.744  1.00  0.00     0.198 A 
ATOM     44  F   UNL A   1      38.121  31.868  37.577  1.00  0.00    -0.203 F 
ATOM     45  F   UNL A   1      40.772  36.620  38.012  1.00  0.00    -0.200 F 
ATOM     46  C   UNL A   1      39.194  35.081  38.861  1.00  0.00     0.200 A 
ATOM     47  F   UNL A   1      37.635  33.507  39.677  1.00  0.00    -0.200 F 
ATOM     48  F   UNL A   1      38.957  35.880  39.909  1.00  0.00    -0.200 F 
ENDBRANCH  24  38
BRANCH  25  49
ATOM     49  C   UNL A   1      40.777  27.824  28.459  1.00  0.00     0.064 A 
ATOM     50  C   UNL A   1      40.053  26.631  28.352  1.00  0.00     0.173 A 
ATOM     51  C   UNL A   1      41.574  28.209  27.371  1.00  0.00     0.173 A 
ATOM     52  F   UNL A   1      39.290  26.217  29.374  1.00  0.00    -0.203 F 
ATOM     53  C   UNL A   1      40.120  25.852  27.199  1.00  0.00     0.198 A 
ATOM     54  C   UNL A   1      41.624  27.440  26.211  1.00  0.00     0.198 A 
ATOM     55  F   UNL A   1      42.281  29.347  27.427  1.00  0.00    -0.203 F 
ATOM     56  F   UNL A   1      39.429  24.705  27.126  1.00  0.00    -0.200 F 
ATOM     57  C   UNL A   1      40.898  26.262  26.126  1.00  0.00     0.200 A 
ATOM     58  F   UNL A   1      42.366  27.846  25.172  1.00  0.00    -0.200 F 
ATOM     59  F   UNL A   1      40.947  25.521  25.011  1.00  0.00    -0.200 F 
ENDBRANCH  25  49
BRANCH  37  60
ATOM     60  C   UNL A   1      43.962  27.973  34.664  1.00  0.00     0.064 A 
ATOM     61  C   UNL A   1      45.286  28.431  34.642  1.00  0.00     0.173 A 
ATOM     62  C   UNL A   1      43.689  26.769  35.330  1.00  0.00     0.173 A 
ATOM     63  F   UNL A   1      45.594  29.571  34.004  1.00  0.00    -0.203 F 
ATOM     64  C   UNL A   1      46.301  27.710  35.263  1.00  0.00     0.198 A 
ATOM     65  C   UNL A   1      44.703  26.060  35.968  1.00  0.00     0.198 A 
ATOM     66  F   UNL A   1      42.436  26.293  35.382  1.00  0.00    -0.203 F 
ATOM     67  F   UNL A   1      47.564  28.155  35.213  1.00  0.00    -0.200 F 
ATOM     68  C   UNL A   1      46.007  26.531  35.934  1.00  0.00     0.200 A 
ATOM     69  F   UNL A   1      44.417  24.926  36.623  1.00  0.00    -0.200 F 
ATOM     70  F   UNL A   1      46.984  25.845  36.544  1.00  0.00    -0.200 F 
ENDBRANCH  37  60
ENDBRANCH  11  12
ENDBRANCH   4   6
ENDBRANCH   1   2
BRANCH   1  71
ATOM     71  C   UNL A   1      31.277  32.194  26.501  1.00  0.00     0.042 C 
BRANCH  71  72
ATOM     72  C   UNL A   1      31.406  30.801  25.895  1.00  0.00     0.117 C 
BRANCH  72  73
ATOM     73  N   UNL A   1      32.736  30.252  26.092  1.00  0.00    -0.356 N 
ATOM     74  C   UNL A   1      33.240  29.030  26.370  1.00  0.00     0.226 C 
ATOM     75  H   UNL A   1      33.439  30.935  26.003  1.00  0.00     0.163 HD
ATOM     76  O   UNL A   1      34.476  29.003  26.467  1.00  0.00    -0.275 OA
BRANCH  74  77
ATOM     77  C   UNL A   1      32.445  27.751  26.647  1.00  0.00     0.120 C 
ATOM     78  C   UNL A   1      31.028  27.595  26.131  1.00  0.00     0.243 C 
ATOM     79  C   UNL A   1      33.226  26.559  26.064  1.00  0.00     0.056 C 
ATOM     80  O   UNL A   1      30.929  27.784  24.716  1.00  0.00    -0.489 OA
ATOM     81  C   UNL A   1      32.986  26.470  24.579  1.00  0.00    -0.001 A 
ATOM     82  C   UNL A   1      31.875  27.093  23.998  1.00  0.00     0.164 A 
ATOM     83  C   UNL A   1      33.875  25.764  23.759  1.00  0.00     0.008 A 
ATOM     84  C   UNL A   1      31.704  27.063  22.613  1.00  0.00     0.157 A 
ATOM     85  C   UNL A   1      33.678  25.718  22.376  1.00  0.00     0.004 A 
ATOM     86  C   UNL A   1      32.595  26.380  21.797  1.00  0.00     0.050 A 
BRANCH  84  87
ATOM     87  O   UNL A   1      30.653  27.715  22.031  1.00  0.00    -0.504 OA
ATOM     88  H   UNL A   1      30.811  28.428  21.444  1.00  0.00     0.293 HD
ENDBRANCH  84  87
ENDBRANCH  74  77
ENDBRANCH  72  73
ENDBRANCH  71  72
ENDBRANCH   1  71
TORSDOF 11
ENDMDL
MODEL 3
REMARK VINA RESULT:     -12.2      4.791     10.111
REMARK SMILES O=C(NCCCNC(=O)[C@H]1COc2c(O)cccc2C1)c1ccc(-c2c3nc(c(-c4c(F)c(F)c(F)c(F)c4F)c4ccc([nH]4)c(-c4c(F)c(F)c(F)c(F)c4F)c4nc(c(-c5c(F)c(F)c(F)c(F)c5F)c5ccc2[nH]5)C=C4)C=C3)cc1
REMARK SMILES IDX 4 1 3 2 1 3 2 4 21 6 22 7 83 8 23 9 82 10 24 11 25 12 26 13
REMARK SMILES IDX 76 14 27 15 81 16 75 17 77 18 28 19 80 20 74 21 73 22 29 24
REMARK SMILES IDX 61 25 41 26 60 27 42 28 45 29 59 30 78 31 43 32 44 33 58 35
REMARK SMILES IDX 79 36 46 37 30 38 31 39 39 40 32 41 33 42 37 43 40 44 34 45
REMARK SMILES IDX 35 46 38 47 36 48 62 49 63 50 71 51 64 52 65 53 69 54 72 55
REMARK SMILES IDX 66 56 67 57 70 58 68 59 47 60 48 61 56 62 49 63 50 64 54 65
REMARK SMILES IDX 57 66 51 67 52 68 55 69 53 70 5 71 6 72 7 73 8 74 9 76 10 77
REMARK SMILES IDX 11 78 20 79 12 80 19 81 13 82 18 83 14 84 17 85 16 86 15 87
REMARK H PARENT 3 5 77 23 45 34 7 75 15 88
REMARK Flexibility Score: inf
ROOT
ATOM      1  C   UNL A   1      39.070  20.143  25.748  1.00  0.00     0.118 C 
ENDROOT
BRANCH   1   2
ATOM      2  N   UNL A   1      40.162  19.192  25.904  1.00  0.00    -0.352 N 
ATOM      3  O   UNL A   1      42.300  18.489  25.901  1.00  0.00    -0.269 OA
ATOM      4  C   UNL A   1      41.508  19.413  26.058  1.00  0.00     0.251 C 
ATOM      5  H   UNL A   1      39.894  18.245  25.896  1.00  0.00     0.163 HD
BRANCH   4   6
ATOM      6  C   UNL A   1      42.017  20.755  26.415  1.00  0.00     0.039 A 
ATOM      7  C   UNL A   1      42.217  21.730  25.434  1.00  0.00     0.014 A 
ATOM      8  C   UNL A   1      42.213  21.072  27.765  1.00  0.00     0.014 A 
ATOM      9  C   UNL A   1      42.710  22.981  25.788  1.00  0.00     0.010 A 
ATOM     10  C   UNL A   1      42.651  22.349  28.127  1.00  0.00     0.010 A 
ATOM     11  C   UNL A   1      42.920  23.306  27.138  1.00  0.00    -0.014 A 
BRANCH  11  12
ATOM     12  C   UNL A   1      43.348  24.680  27.490  1.00  0.00     0.031 A 
ATOM     13  C   UNL A   1      44.740  25.154  27.201  1.00  0.00     0.074 A 
ATOM     14  C   UNL A   1      42.442  25.516  28.031  1.00  0.00     0.049 A 
ATOM     15  N   UNL A   1      45.246  26.353  27.342  1.00  0.00    -0.248 NA
ATOM     16  C   UNL A   1      45.690  24.157  26.686  1.00  0.00     0.031 C 
ATOM     17  C   UNL A   1      41.064  25.155  28.365  1.00  0.00     0.029 A 
ATOM     18  N   UNL A   1      42.533  26.842  28.370  1.00  0.00    -0.354 N 
ATOM     19  C   UNL A   1      46.565  26.258  26.926  1.00  0.00     0.074 A 
ATOM     20  C   UNL A   1      46.798  24.877  26.564  1.00  0.00     0.031 C 
ATOM     21  C   UNL A   1      40.425  26.243  28.819  1.00  0.00     0.029 A 
ATOM     22  C   UNL A   1      41.355  27.367  28.837  1.00  0.00     0.049 A 
ATOM     23  H   UNL A   1      43.363  27.364  28.287  1.00  0.00     0.167 HD
ATOM     24  C   UNL A   1      47.491  27.244  26.842  1.00  0.00     0.037 A 
ATOM     25  C   UNL A   1      41.055  28.620  29.229  1.00  0.00     0.037 A 
ATOM     26  C   UNL A   1      47.254  28.616  27.205  1.00  0.00     0.049 A 
ATOM     27  C   UNL A   1      42.112  29.683  29.161  1.00  0.00     0.074 A 
ATOM     28  C   UNL A   1      48.122  29.691  27.125  1.00  0.00     0.029 A 
ATOM     29  N   UNL A   1      46.063  29.101  27.726  1.00  0.00    -0.354 N 
ATOM     30  N   UNL A   1      43.343  29.593  28.719  1.00  0.00    -0.248 NA
ATOM     31  C   UNL A   1      41.742  31.020  29.645  1.00  0.00     0.031 C 
ATOM     32  C   UNL A   1      47.468  30.820  27.632  1.00  0.00     0.029 A 
ATOM     33  C   UNL A   1      46.181  30.455  27.994  1.00  0.00     0.049 A 
ATOM     34  H   UNL A   1      45.254  28.562  27.882  1.00  0.00     0.167 HD
ATOM     35  C   UNL A   1      43.890  30.860  28.857  1.00  0.00     0.074 A 
ATOM     36  C   UNL A   1      42.854  31.705  29.414  1.00  0.00     0.031 C 
ATOM     37  C   UNL A   1      45.140  31.281  28.548  1.00  0.00     0.037 A 
BRANCH  24  38
ATOM     38  C   UNL A   1      48.852  26.878  26.329  1.00  0.00     0.064 A 
ATOM     39  C   UNL A   1      49.823  26.322  27.175  1.00  0.00     0.173 A 
ATOM     40  C   UNL A   1      49.166  27.024  24.970  1.00  0.00     0.173 A 
ATOM     41  F   UNL A   1      49.572  26.173  28.484  1.00  0.00    -0.203 F 
ATOM     42  C   UNL A   1      51.065  25.935  26.679  1.00  0.00     0.198 A 
ATOM     43  C   UNL A   1      50.402  26.618  24.475  1.00  0.00     0.198 A 
ATOM     44  F   UNL A   1      48.269  27.547  24.121  1.00  0.00    -0.203 F 
ATOM     45  F   UNL A   1      51.988  25.430  27.510  1.00  0.00    -0.200 F 
ATOM     46  C   UNL A   1      51.351  26.076  25.329  1.00  0.00     0.200 A 
ATOM     47  F   UNL A   1      50.675  26.746  23.169  1.00  0.00    -0.200 F 
ATOM     48  F   UNL A   1      52.543  25.693  24.853  1.00  0.00    -0.200 F 
ENDBRANCH  24  38
BRANCH  25  49
ATOM     49  C   UNL A   1      39.676  28.928  29.680  1.00  0.00     0.064 A 
ATOM     50  C   UNL A   1      38.722  29.421  28.782  1.00  0.00     0.173 A 
ATOM     51  C   UNL A   1      39.271  28.683  31.000  1.00  0.00     0.173 A 
ATOM     52  F   UNL A   1      39.070  29.684  27.513  1.00  0.00    -0.203 F 
ATOM     53  C   UNL A   1      37.410  29.657  29.186  1.00  0.00     0.198 A 
ATOM     54  C   UNL A   1      37.955  28.899  31.398  1.00  0.00     0.198 A 
ATOM     55  F   UNL A   1      40.150  28.205  31.893  1.00  0.00    -0.203 F 
ATOM     56  F   UNL A   1      36.518  30.143  28.312  1.00  0.00    -0.200 F 
ATOM     57  C   UNL A   1      37.025  29.387  30.491  1.00  0.00     0.200 A 
ATOM     58  F   UNL A   1      37.583  28.625  32.656  1.00  0.00    -0.200 F 
ATOM     59  F   UNL A   1      35.759  29.598  30.875  1.00  0.00    -0.200 F 
ENDBRANCH  25  49
BRANCH  37  60
ATOM     60  C   UNL A   1      45.463  32.722  28.795  1.00  0.00     0.064 A 
ATOM     61  C   UNL A   1      46.075  33.137  29.985  1.00  0.00     0.173 A 
ATOM     62  C   UNL A   1      45.228  33.683  27.801  1.00  0.00     0.173 A 
ATOM     63  F   UNL A   1      46.307  32.253  30.968  1.00  0.00    -0.203 F 
ATOM     64  C   UNL A   1      46.439  34.467  30.174  1.00  0.00     0.198 A 
ATOM     65  C   UNL A   1      45.611  35.009  27.985  1.00  0.00     0.198 A 
ATOM     66  F   UNL A   1      44.648  33.332  26.644  1.00  0.00    -0.203 F 
ATOM     67  F   UNL A   1      47.006  34.848  31.328  1.00  0.00    -0.200 F 
ATOM     68  C   UNL A   1      46.215  35.400  29.171  1.00  0.00     0.200 A 
ATOM     69  F   UNL A   1      45.403  35.907  27.012  1.00  0.00    -0.200 F 
ATOM     70  F   UNL A   1      46.580  36.677  29.349  1.00  0.00    -0.200 F 
ENDBRANCH  37  60
ENDBRANCH  11  12
ENDBRANCH   4   6
ENDBRANCH   1   2
BRANCH   1  71
ATOM     71  C   UNL A   1      37.897  19.538  24.986  1.00  0.00     0.042 C 
BRANCH  71  72
ATOM     72  C   UNL A   1      36.650  20.415  24.993  1.00  0.00     0.117 C 
BRANCH  72  73
ATOM     73  N   UNL A   1      36.875  21.660  25.707  1.00  0.00    -0.356 N 
ATOM     74  C   UNL A   1      36.533  22.952  25.518  1.00  0.00     0.226 C 
ATOM     75  H   UNL A   1      37.407  21.530  26.525  1.00  0.00     0.163 HD
ATOM     76  O   UNL A   1      36.954  23.720  26.395  1.00  0.00    -0.275 OA
BRANCH  74  77
ATOM     77  C   UNL A   1      35.774  23.535  24.323  1.00  0.00     0.120 C 
ATOM     78  C   UNL A   1      34.921  22.644  23.441  1.00  0.00     0.243 C 
ATOM     79  C   UNL A   1      34.824  24.631  24.838  1.00  0.00     0.056 C 
ATOM     80  O   UNL A   1      33.932  21.918  24.178  1.00  0.00    -0.489 OA
ATOM     81  C   UNL A   1      33.580  24.000  25.409  1.00  0.00    -0.001 A 
ATOM     82  C   UNL A   1      33.221  22.693  25.062  1.00  0.00     0.164 A 
ATOM     83  C   UNL A   1      32.767  24.715  26.297  1.00  0.00     0.008 A 
ATOM     84  C   UNL A   1      32.106  22.096  25.654  1.00  0.00     0.157 A 
ATOM     85  C   UNL A   1      31.638  24.116  26.862  1.00  0.00     0.004 A 
ATOM     86  C   UNL A   1      31.311  22.797  26.550  1.00  0.00     0.050 A 
BRANCH  84  87
ATOM     87  O   UNL A   1      31.778  20.801  25.364  1.00  0.00    -0.504 OA
ATOM     88  H   UNL A   1      30.952  20.603  24.968  1.00  0.00     0.293 HD
ENDBRANCH  84  87
ENDBRANCH  74  77
ENDBRANCH  72  73
ENDBRANCH  71  72
ENDBRANCH   1  71
TORSDOF 11
ENDMDL
