MODEL 1
REMARK VINA RESULT:     -12.5      0.000      0.000
REMARK SMILES COC(=O)[C@H]1CCN(C(=O)N2CCC[C@@H]2C(=O)NCCCNC(=O)c2ccc(-c3c4nc(c(-c5c(F)c(F)c(F)c(F)c5F)c5ccc([nH]5)c(-c5c(F)c(F)c(F)c(F)c5F)c5nc(c(-c6c(F)c(F)c(F)c(F)c6F)c6ccc3[nH]6)C=C5)C=C4)cc2)C1
REMARK SMILES IDX 19 1 18 2 16 3 17 4 15 6 11 7 12 8 13 9 14 10 9 11 10 12
REMARK SMILES IDX 8 13 5 14 6 15 88 16 7 17 3 18 4 19 2 20 1 21 20 22 21 23
REMARK SMILES IDX 22 24 23 25 24 27 25 28 26 29 87 30 27 31 86 32 28 33 29 34
REMARK SMILES IDX 30 35 80 36 31 37 85 38 79 39 81 40 32 41 84 42 78 43 77 44
REMARK SMILES IDX 33 46 65 47 45 48 64 49 46 50 49 51 63 52 82 53 47 54 48 55
REMARK SMILES IDX 62 57 83 58 50 59 34 60 35 61 43 62 36 63 37 64 41 65 44 66
REMARK SMILES IDX 38 67 39 68 42 69 40 70 66 71 67 72 75 73 68 74 69 75 73 76
REMARK SMILES IDX 76 77 70 78 71 79 74 80 72 81 51 82 52 83 60 84 53 85 54 86
REMARK SMILES IDX 58 87 61 88 55 89 56 90 59 91 57 92
REMARK H PARENT 18 5 22 26 81 45 49 56
REMARK Flexibility Score: inf
ROOT
ATOM      1  C   UNL A   1      36.618  21.198  24.946  1.00  0.00     0.117 C 
ENDROOT
BRANCH   1   2
ATOM      2  N   UNL A   1      35.953  21.360  26.214  1.00  0.00    -0.354 N 
ATOM      3  C   UNL A   1      34.749  21.939  26.493  1.00  0.00     0.242 C 
ATOM      4  O   UNL A   1      34.456  22.047  27.688  1.00  0.00    -0.273 OA
ATOM      5  H   UNL A   1      36.438  21.002  26.992  1.00  0.00     0.163 HD
BRANCH   3   6
ATOM      6  C   UNL A   1      33.906  22.641  25.407  1.00  0.00     0.176 C 
ATOM      7  N   UNL A   1      33.368  21.802  24.337  1.00  0.00    -0.313 N 
ATOM      8  C   UNL A   1      33.352  22.565  23.104  1.00  0.00     0.122 C 
ATOM      9  C   UNL A   1      34.635  23.365  23.180  1.00  0.00     0.024 C 
ATOM     10  C   UNL A   1      34.765  23.692  24.671  1.00  0.00     0.037 C 
BRANCH   7  11
ATOM     11  C   UNL A   1      32.451  20.812  24.607  1.00  0.00     0.320 C 
ATOM     12  O   UNL A   1      31.435  21.031  25.261  1.00  0.00    -0.248 OA
BRANCH  11  13
ATOM     13  N   UNL A   1      32.790  19.542  24.183  1.00  0.00    -0.324 N 
ATOM     14  C   UNL A   1      34.141  17.605  23.910  1.00  0.00     0.120 C 
ATOM     15  C   UNL A   1      32.885  17.512  23.041  1.00  0.00     0.039 C 
ATOM     16  C   UNL A   1      33.834  18.768  24.857  1.00  0.00     0.136 C 
ATOM     17  C   UNL A   1      32.496  18.956  22.889  1.00  0.00     0.122 C 
BRANCH  14  18
ATOM     18  C   UNL A   1      34.370  16.275  24.573  1.00  0.00     0.310 C 
ATOM     19  O   UNL A   1      35.369  15.940  25.192  1.00  0.00    -0.252 OA
BRANCH  18  20
ATOM     20  O   UNL A   1      33.244  15.518  24.414  1.00  0.00    -0.469 OA
ATOM     21  C   UNL A   1      32.631  15.086  25.628  1.00  0.00     0.282 C 
ENDBRANCH  18  20
ENDBRANCH  14  18
ENDBRANCH  11  13
ENDBRANCH   7  11
ENDBRANCH   3   6
ENDBRANCH   1   2
BRANCH   1  22
ATOM     22  C   UNL A   1      37.689  20.126  24.960  1.00  0.00     0.042 C 
BRANCH  22  23
ATOM     23  C   UNL A   1      38.924  20.546  25.736  1.00  0.00     0.118 C 
BRANCH  23  24
ATOM     24  N   UNL A   1      39.877  19.451  25.895  1.00  0.00    -0.352 N 
ATOM     25  C   UNL A   1      41.236  19.473  26.071  1.00  0.00     0.251 C 
ATOM     26  H   UNL A   1      39.478  18.551  25.872  1.00  0.00     0.163 HD
ATOM     27  O   UNL A   1      41.885  18.439  25.949  1.00  0.00    -0.269 OA
BRANCH  25  28
ATOM     28  C   UNL A   1      41.920  20.743  26.387  1.00  0.00     0.039 A 
ATOM     29  C   UNL A   1      42.207  21.636  25.352  1.00  0.00     0.014 A 
ATOM     30  C   UNL A   1      42.276  21.054  27.701  1.00  0.00     0.014 A 
ATOM     31  C   UNL A   1      42.769  22.878  25.650  1.00  0.00     0.010 A 
ATOM     32  C   UNL A   1      42.737  22.327  28.009  1.00  0.00     0.010 A 
ATOM     33  C   UNL A   1      42.989  23.253  26.987  1.00  0.00    -0.014 A 
BRANCH  33  34
ATOM     34  C   UNL A   1      43.459  24.615  27.339  1.00  0.00     0.031 A 
ATOM     35  C   UNL A   1      42.489  25.634  27.869  1.00  0.00     0.074 A 
ATOM     36  C   UNL A   1      44.742  24.951  27.098  1.00  0.00     0.049 A 
ATOM     37  N   UNL A   1      42.691  26.895  28.154  1.00  0.00    -0.248 NA
ATOM     38  C   UNL A   1      41.101  25.189  28.082  1.00  0.00     0.031 C 
ATOM     39  C   UNL A   1      45.758  24.063  26.528  1.00  0.00     0.029 A 
ATOM     40  N   UNL A   1      45.409  26.136  27.286  1.00  0.00    -0.354 N 
ATOM     41  C   UNL A   1      41.459  27.395  28.554  1.00  0.00     0.074 A 
ATOM     42  C   UNL A   1      40.503  26.317  28.438  1.00  0.00     0.031 C 
ATOM     43  C   UNL A   1      46.921  24.726  26.433  1.00  0.00     0.029 A 
ATOM     44  C   UNL A   1      46.723  26.099  26.885  1.00  0.00     0.049 A 
ATOM     45  H   UNL A   1      44.986  26.937  27.672  1.00  0.00     0.167 HD
ATOM     46  C   UNL A   1      41.162  28.639  28.997  1.00  0.00     0.037 A 
ATOM     47  C   UNL A   1      47.657  27.069  26.865  1.00  0.00     0.037 A 
ATOM     48  C   UNL A   1      42.129  29.693  29.149  1.00  0.00     0.049 A 
ATOM     49  C   UNL A   1      47.288  28.441  27.365  1.00  0.00     0.074 A 
ATOM     50  C   UNL A   1      41.946  30.956  29.685  1.00  0.00     0.029 A 
ATOM     51  N   UNL A   1      43.455  29.612  28.755  1.00  0.00    -0.354 N 
ATOM     52  N   UNL A   1      46.146  28.871  27.843  1.00  0.00    -0.248 NA
ATOM     53  C   UNL A   1      48.341  29.465  27.324  1.00  0.00     0.031 C 
ATOM     54  C   UNL A   1      43.144  31.663  29.551  1.00  0.00     0.029 A 
ATOM     55  C   UNL A   1      44.091  30.818  28.996  1.00  0.00     0.049 A 
ATOM     56  H   UNL A   1      43.881  28.815  28.362  1.00  0.00     0.167 HD
ATOM     57  C   UNL A   1      46.351  30.199  28.187  1.00  0.00     0.074 A 
ATOM     58  C   UNL A   1      47.734  30.500  27.885  1.00  0.00     0.031 C 
ATOM     59  C   UNL A   1      45.473  31.096  28.699  1.00  0.00     0.037 A 
BRANCH  46  60
ATOM     60  C   UNL A   1      39.736  28.943  29.357  1.00  0.00     0.064 A 
ATOM     61  C   UNL A   1      38.808  29.377  28.399  1.00  0.00     0.173 A 
ATOM     62  C   UNL A   1      39.273  28.703  30.659  1.00  0.00     0.173 A 
ATOM     63  F   UNL A   1      39.203  29.631  27.142  1.00  0.00    -0.203 F 
ATOM     64  C   UNL A   1      37.471  29.568  28.735  1.00  0.00     0.198 A 
ATOM     65  C   UNL A   1      37.929  28.867  30.984  1.00  0.00     0.198 A 
ATOM     66  F   UNL A   1      40.120  28.284  31.612  1.00  0.00    -0.203 F 
ATOM     67  F   UNL A   1      36.606  30.008  27.810  1.00  0.00    -0.200 F 
ATOM     68  C   UNL A   1      37.030  29.300  30.022  1.00  0.00     0.200 A 
ATOM     69  F   UNL A   1      37.503  28.592  32.224  1.00  0.00    -0.200 F 
ATOM     70  F   UNL A   1      35.736  29.458  30.336  1.00  0.00    -0.200 F 
ENDBRANCH  46  60
BRANCH  47  71
ATOM     71  C   UNL A   1      49.025  26.793  26.349  1.00  0.00     0.064 A 
ATOM     72  C   UNL A   1      49.351  27.019  25.004  1.00  0.00     0.173 A 
ATOM     73  C   UNL A   1      50.020  26.248  27.175  1.00  0.00     0.173 A 
ATOM     74  F   UNL A   1      48.430  27.522  24.168  1.00  0.00    -0.203 F 
ATOM     75  C   UNL A   1      50.601  26.669  24.495  1.00  0.00     0.198 A 
ATOM     76  C   UNL A   1      51.282  25.935  26.674  1.00  0.00     0.198 A 
ATOM     77  F   UNL A   1      49.767  26.019  28.472  1.00  0.00    -0.203 F 
ATOM     78  F   UNL A   1      50.857  26.827  23.190  1.00  0.00    -0.200 F 
ATOM     79  C   UNL A   1      51.566  26.130  25.332  1.00  0.00     0.200 A 
ATOM     80  F   UNL A   1      52.218  25.432  27.491  1.00  0.00    -0.200 F 
ATOM     81  F   UNL A   1      52.765  25.785  24.841  1.00  0.00    -0.200 F 
ENDBRANCH  47  71
BRANCH  59  82
ATOM     82  C   UNL A   1      45.989  32.473  28.998  1.00  0.00     0.064 A 
ATOM     83  C   UNL A   1      45.902  33.512  28.061  1.00  0.00     0.173 A 
ATOM     84  C   UNL A   1      46.539  32.767  30.255  1.00  0.00     0.173 A 
ATOM     85  F   UNL A   1      45.397  33.280  26.840  1.00  0.00    -0.203 F 
ATOM     86  C   UNL A   1      46.374  34.787  28.360  1.00  0.00     0.198 A 
ATOM     87  C   UNL A   1      46.977  34.051  30.564  1.00  0.00     0.198 A 
ATOM     88  F   UNL A   1      46.638  31.811  31.191  1.00  0.00    -0.203 F 
ATOM     89  F   UNL A   1      46.332  35.750  27.428  1.00  0.00    -0.200 F 
ATOM     90  C   UNL A   1      46.903  35.057  29.613  1.00  0.00     0.200 A 
ATOM     91  F   UNL A   1      47.470  34.316  31.782  1.00  0.00    -0.200 F 
ATOM     92  F   UNL A   1      47.347  36.289  29.903  1.00  0.00    -0.200 F 
ENDBRANCH  59  82
ENDBRANCH  33  34
ENDBRANCH  25  28
ENDBRANCH  23  24
ENDBRANCH  22  23
ENDBRANCH   1  22
TORSDOF 14
ENDMDL
MODEL 2
REMARK VINA RESULT:     -12.4      6.734     11.792
REMARK SMILES COC(=O)[C@H]1CCN(C(=O)N2CCC[C@@H]2C(=O)NCCCNC(=O)c2ccc(-c3c4nc(c(-c5c(F)c(F)c(F)c(F)c5F)c5ccc([nH]5)c(-c5c(F)c(F)c(F)c(F)c5F)c5nc(c(-c6c(F)c(F)c(F)c(F)c6F)c6ccc3[nH]6)C=C5)C=C4)cc2)C1
REMARK SMILES IDX 19 1 18 2 16 3 17 4 15 6 11 7 12 8 13 9 14 10 9 11 10 12
REMARK SMILES IDX 8 13 5 14 6 15 88 16 7 17 3 18 4 19 2 20 1 21 20 22 21 23
REMARK SMILES IDX 22 24 23 25 24 27 25 28 26 29 87 30 27 31 86 32 28 33 29 34
REMARK SMILES IDX 30 35 80 36 31 37 85 38 79 39 81 40 32 41 84 42 78 43 77 44
REMARK SMILES IDX 33 46 65 47 45 48 64 49 46 50 49 51 63 52 82 53 47 54 48 55
REMARK SMILES IDX 62 57 83 58 50 59 34 60 35 61 43 62 36 63 37 64 41 65 44 66
REMARK SMILES IDX 38 67 39 68 42 69 40 70 66 71 67 72 75 73 68 74 69 75 73 76
REMARK SMILES IDX 76 77 70 78 71 79 74 80 72 81 51 82 52 83 60 84 53 85 54 86
REMARK SMILES IDX 58 87 61 88 55 89 56 90 59 91 57 92
REMARK H PARENT 18 5 22 26 81 45 49 56
REMARK Flexibility Score: inf
ROOT
ATOM      1  C   UNL A   1      31.822  30.158  26.093  1.00  0.00     0.117 C 
ENDROOT
BRANCH   1   2
ATOM      2  N   UNL A   1      32.754  30.057  24.998  1.00  0.00    -0.354 N 
ATOM      3  C   UNL A   1      33.044  28.986  24.204  1.00  0.00     0.242 C 
ATOM      4  O   UNL A   1      33.969  29.134  23.399  1.00  0.00    -0.273 OA
ATOM      5  H   UNL A   1      33.253  30.880  24.794  1.00  0.00     0.163 HD
BRANCH   3   6
ATOM      6  C   UNL A   1      32.428  27.592  24.451  1.00  0.00     0.176 C 
ATOM      7  N   UNL A   1      30.986  27.456  24.248  1.00  0.00    -0.313 N 
ATOM      8  C   UNL A   1      30.464  26.502  25.208  1.00  0.00     0.122 C 
ATOM      9  C   UNL A   1      31.261  26.805  26.459  1.00  0.00     0.024 C 
ATOM     10  C   UNL A   1      32.647  27.173  25.921  1.00  0.00     0.037 C 
BRANCH   7  11
ATOM     11  C   UNL A   1      30.426  27.638  23.004  1.00  0.00     0.320 C 
ATOM     12  O   UNL A   1      30.872  27.079  22.006  1.00  0.00    -0.248 OA
BRANCH  11  13
ATOM     13  N   UNL A   1      29.398  28.557  22.932  1.00  0.00    -0.324 N 
ATOM     14  C   UNL A   1      28.297  30.646  23.205  1.00  0.00     0.120 C 
ATOM     15  C   UNL A   1      27.305  29.569  22.760  1.00  0.00     0.039 C 
ATOM     16  C   UNL A   1      29.662  29.997  22.961  1.00  0.00     0.136 C 
ATOM     17  C   UNL A   1      27.994  28.306  23.194  1.00  0.00     0.122 C 
BRANCH  14  18
ATOM     18  C   UNL A   1      28.030  31.902  22.421  1.00  0.00     0.310 C 
ATOM     19  O   UNL A   1      28.191  33.047  22.816  1.00  0.00    -0.252 OA
BRANCH  18  20
ATOM     20  O   UNL A   1      27.626  31.546  21.165  1.00  0.00    -0.469 OA
ATOM     21  C   UNL A   1      28.028  32.438  20.127  1.00  0.00     0.282 C 
ENDBRANCH  18  20
ENDBRANCH  14  18
ENDBRANCH  11  13
ENDBRANCH   7  11
ENDBRANCH   3   6
ENDBRANCH   1   2
BRANCH   1  22
ATOM     22  C   UNL A   1      31.526  31.587  26.502  1.00  0.00     0.042 C 
BRANCH  22  23
ATOM     23  C   UNL A   1      32.689  32.239  27.226  1.00  0.00     0.118 C 
BRANCH  23  24
ATOM     24  N   UNL A   1      32.469  33.664  27.459  1.00  0.00    -0.352 N 
ATOM     25  C   UNL A   1      33.022  34.510  28.385  1.00  0.00     0.251 C 
ATOM     26  H   UNL A   1      31.817  34.084  26.852  1.00  0.00     0.163 HD
ATOM     27  O   UNL A   1      32.530  35.620  28.569  1.00  0.00    -0.269 OA
BRANCH  25  28
ATOM     28  C   UNL A   1      34.194  34.080  29.172  1.00  0.00     0.039 A 
ATOM     29  C   UNL A   1      33.993  33.356  30.349  1.00  0.00     0.014 A 
ATOM     30  C   UNL A   1      35.489  34.387  28.750  1.00  0.00     0.014 A 
ATOM     31  C   UNL A   1      35.094  32.865  31.053  1.00  0.00     0.010 A 
ATOM     32  C   UNL A   1      36.579  33.813  29.390  1.00  0.00     0.010 A 
ATOM     33  C   UNL A   1      36.394  33.045  30.548  1.00  0.00    -0.014 A 
BRANCH  33  34
ATOM     34  C   UNL A   1      37.569  32.421  31.202  1.00  0.00     0.031 A 
ATOM     35  C   UNL A   1      38.269  31.262  30.549  1.00  0.00     0.074 A 
ATOM     36  C   UNL A   1      37.946  32.848  32.424  1.00  0.00     0.049 A 
ATOM     37  N   UNL A   1      39.257  30.533  31.002  1.00  0.00    -0.248 NA
ATOM     38  C   UNL A   1      37.778  30.845  29.224  1.00  0.00     0.031 C 
ATOM     39  C   UNL A   1      37.303  33.924  33.182  1.00  0.00     0.029 A 
ATOM     40  N   UNL A   1      38.952  32.418  33.253  1.00  0.00    -0.354 N 
ATOM     41  C   UNL A   1      39.488  29.565  30.034  1.00  0.00     0.074 A 
ATOM     42  C   UNL A   1      38.513  29.768  28.986  1.00  0.00     0.031 C 
ATOM     43  C   UNL A   1      37.941  34.083  34.351  1.00  0.00     0.029 A 
ATOM     44  C   UNL A   1      39.005  33.090  34.451  1.00  0.00     0.049 A 
ATOM     45  H   UNL A   1      39.578  31.697  33.013  1.00  0.00     0.167 HD
ATOM     46  C   UNL A   1      40.444  28.606  30.016  1.00  0.00     0.037 A 
ATOM     47  C   UNL A   1      39.808  32.911  35.517  1.00  0.00     0.037 A 
ATOM     48  C   UNL A   1      41.436  28.439  31.044  1.00  0.00     0.049 A 
ATOM     49  C   UNL A   1      40.859  31.833  35.461  1.00  0.00     0.074 A 
ATOM     50  C   UNL A   1      42.507  27.563  31.069  1.00  0.00     0.029 A 
ATOM     51  N   UNL A   1      41.473  29.153  32.232  1.00  0.00    -0.354 N 
ATOM     52  N   UNL A   1      41.136  30.995  34.493  1.00  0.00    -0.248 NA
ATOM     53  C   UNL A   1      41.710  31.677  36.649  1.00  0.00     0.031 C 
ATOM     54  C   UNL A   1      43.151  27.698  32.302  1.00  0.00     0.029 A 
ATOM     55  C   UNL A   1      42.523  28.706  33.016  1.00  0.00     0.049 A 
ATOM     56  H   UNL A   1      40.846  29.871  32.480  1.00  0.00     0.167 HD
ATOM     57  C   UNL A   1      42.209  30.236  34.940  1.00  0.00     0.074 A 
ATOM     58  C   UNL A   1      42.549  30.729  36.257  1.00  0.00     0.031 C 
ATOM     59  C   UNL A   1      42.853  29.217  34.321  1.00  0.00     0.037 A 
BRANCH  46  60
ATOM     60  C   UNL A   1      40.477  27.657  28.854  1.00  0.00     0.064 A 
ATOM     61  C   UNL A   1      39.678  26.505  28.816  1.00  0.00     0.173 A 
ATOM     62  C   UNL A   1      41.248  27.959  27.721  1.00  0.00     0.173 A 
ATOM     63  F   UNL A   1      38.930  26.167  29.877  1.00  0.00    -0.203 F 
ATOM     64  C   UNL A   1      39.656  25.686  27.691  1.00  0.00     0.198 A 
ATOM     65  C   UNL A   1      41.203  27.153  26.587  1.00  0.00     0.198 A 
ATOM     66  F   UNL A   1      42.028  29.051  27.705  1.00  0.00    -0.203 F 
ATOM     67  F   UNL A   1      38.906  24.575  27.687  1.00  0.00    -0.200 F 
ATOM     68  C   UNL A   1      40.408  26.017  26.573  1.00  0.00     0.200 A 
ATOM     69  F   UNL A   1      41.916  27.484  25.502  1.00  0.00    -0.200 F 
ATOM     70  F   UNL A   1      40.365  25.241  25.481  1.00  0.00    -0.200 F 
ENDBRANCH  46  60
BRANCH  47  71
ATOM     71  C   UNL A   1      39.653  33.756  36.732  1.00  0.00     0.064 A 
ATOM     72  C   UNL A   1      38.843  33.346  37.802  1.00  0.00     0.173 A 
ATOM     73  C   UNL A   1      40.268  35.014  36.830  1.00  0.00     0.173 A 
ATOM     74  F   UNL A   1      38.219  32.160  37.750  1.00  0.00    -0.203 F 
ATOM     75  C   UNL A   1      38.617  34.178  38.897  1.00  0.00     0.198 A 
ATOM     76  C   UNL A   1      40.072  35.828  37.944  1.00  0.00     0.198 A 
ATOM     77  F   UNL A   1      41.061  35.453  35.842  1.00  0.00    -0.203 F 
ATOM     78  F   UNL A   1      37.778  33.790  39.866  1.00  0.00    -0.200 F 
ATOM     79  C   UNL A   1      39.234  35.417  38.968  1.00  0.00     0.200 A 
ATOM     80  F   UNL A   1      40.687  37.017  38.016  1.00  0.00    -0.200 F 
ATOM     81  F   UNL A   1      39.010  36.221  40.017  1.00  0.00    -0.200 F 
ENDBRANCH  47  71
BRANCH  59  82
ATOM     82  C   UNL A   1      44.010  28.591  35.045  1.00  0.00     0.064 A 
ATOM     83  C   UNL A   1      45.317  29.075  34.903  1.00  0.00     0.173 A 
ATOM     84  C   UNL A   1      43.797  27.519  35.926  1.00  0.00     0.173 A 
ATOM     85  F   UNL A   1      45.575  30.089  34.063  1.00  0.00    -0.203 F 
ATOM     86  C   UNL A   1      46.376  28.491  35.593  1.00  0.00     0.198 A 
ATOM     87  C   UNL A   1      44.852  26.960  36.642  1.00  0.00     0.198 A 
ATOM     88  F   UNL A   1      42.564  27.023  36.105  1.00  0.00    -0.203 F 
ATOM     89  F   UNL A   1      47.626  28.934  35.398  1.00  0.00    -0.200 F 
ATOM     90  C   UNL A   1      46.141  27.440  36.467  1.00  0.00     0.200 A 
ATOM     91  F   UNL A   1      44.621  25.958  37.501  1.00  0.00    -0.200 F 
ATOM     92  F   UNL A   1      47.161  26.885  37.139  1.00  0.00    -0.200 F 
ENDBRANCH  59  82
ENDBRANCH  33  34
ENDBRANCH  25  28
ENDBRANCH  23  24
ENDBRANCH  22  23
ENDBRANCH   1  22
TORSDOF 14
ENDMDL
MODEL 3
REMARK VINA RESULT:     -12.3      0.514      7.452
REMARK SMILES COC(=O)[C@H]1CCN(C(=O)N2CCC[C@@H]2C(=O)NCCCNC(=O)c2ccc(-c3c4nc(c(-c5c(F)c(F)c(F)c(F)c5F)c5ccc([nH]5)c(-c5c(F)c(F)c(F)c(F)c5F)c5nc(c(-c6c(F)c(F)c(F)c(F)c6F)c6ccc3[nH]6)C=C5)C=C4)cc2)C1
REMARK SMILES IDX 19 1 18 2 16 3 17 4 15 6 11 7 12 8 13 9 14 10 9 11 10 12
REMARK SMILES IDX 8 13 5 14 6 15 88 16 7 17 3 18 4 19 2 20 1 21 20 22 21 23
REMARK SMILES IDX 22 24 23 25 24 27 25 28 26 29 87 30 27 31 86 32 28 33 29 34
REMARK SMILES IDX 30 35 80 36 31 37 85 38 79 39 81 40 32 41 84 42 78 43 77 44
REMARK SMILES IDX 33 46 65 47 45 48 64 49 46 50 49 51 63 52 82 53 47 54 48 55
REMARK SMILES IDX 62 57 83 58 50 59 34 60 35 61 43 62 36 63 37 64 41 65 44 66
REMARK SMILES IDX 38 67 39 68 42 69 40 70 66 71 67 72 75 73 68 74 69 75 73 76
REMARK SMILES IDX 76 77 70 78 71 79 74 80 72 81 51 82 52 83 60 84 53 85 54 86
REMARK SMILES IDX 58 87 61 88 55 89 56 90 59 91 57 92
REMARK H PARENT 18 5 22 26 81 45 49 56
REMARK Flexibility Score: inf
ROOT
ATOM      1  C   UNL A   1      36.538  20.932  24.913  1.00  0.00     0.117 C 
ENDROOT
BRANCH   1   2
ATOM      2  N   UNL A   1      35.935  21.183  26.198  1.00  0.00    -0.354 N 
ATOM      3  C   UNL A   1      34.775  21.836  26.497  1.00  0.00     0.242 C 
ATOM      4  O   UNL A   1      34.537  22.010  27.697  1.00  0.00    -0.273 OA
ATOM      5  H   UNL A   1      36.433  20.833  26.972  1.00  0.00     0.163 HD
BRANCH   3   6
ATOM      6  C   UNL A   1      33.925  22.535  25.415  1.00  0.00     0.176 C 
ATOM      7  N   UNL A   1      33.380  21.693  24.350  1.00  0.00    -0.313 N 
ATOM      8  C   UNL A   1      33.357  22.452  23.115  1.00  0.00     0.122 C 
ATOM      9  C   UNL A   1      34.640  23.253  23.181  1.00  0.00     0.024 C 
ATOM     10  C   UNL A   1      34.779  23.584  24.670  1.00  0.00     0.037 C 
BRANCH   7  11
ATOM     11  C   UNL A   1      32.465  20.703  24.629  1.00  0.00     0.320 C 
ATOM     12  O   UNL A   1      31.468  20.918  25.311  1.00  0.00    -0.248 OA
BRANCH  11  13
ATOM     13  N   UNL A   1      32.787  19.438  24.178  1.00  0.00    -0.324 N 
ATOM     14  C   UNL A   1      34.100  17.479  23.884  1.00  0.00     0.120 C 
ATOM     15  C   UNL A   1      32.866  17.439  22.981  1.00  0.00     0.039 C 
ATOM     16  C   UNL A   1      33.795  18.622  24.856  1.00  0.00     0.136 C 
ATOM     17  C   UNL A   1      32.514  18.895  22.861  1.00  0.00     0.122 C 
BRANCH  14  18
ATOM     18  C   UNL A   1      34.281  16.126  24.514  1.00  0.00     0.310 C 
ATOM     19  O   UNL A   1      35.290  15.718  25.071  1.00  0.00    -0.252 OA
BRANCH  18  20
ATOM     20  O   UNL A   1      33.103  15.442  24.410  1.00  0.00    -0.469 OA
ATOM     21  C   UNL A   1      32.483  15.116  25.652  1.00  0.00     0.282 C 
ENDBRANCH  18  20
ENDBRANCH  14  18
ENDBRANCH  11  13
ENDBRANCH   7  11
ENDBRANCH   3   6
ENDBRANCH   1   2
BRANCH   1  22
ATOM     22  C   UNL A   1      37.679  19.936  24.968  1.00  0.00     0.042 C 
BRANCH  22  23
ATOM     23  C   UNL A   1      38.882  20.469  25.724  1.00  0.00     0.118 C 
BRANCH  23  24
ATOM     24  N   UNL A   1      39.902  19.445  25.935  1.00  0.00    -0.352 N 
ATOM     25  C   UNL A   1      41.254  19.562  26.130  1.00  0.00     0.251 C 
ATOM     26  H   UNL A   1      39.563  18.520  25.936  1.00  0.00     0.163 HD
ATOM     27  O   UNL A   1      41.971  18.570  26.053  1.00  0.00    -0.269 OA
BRANCH  25  28
ATOM     28  C   UNL A   1      41.847  20.884  26.414  1.00  0.00     0.039 A 
ATOM     29  C   UNL A   1      42.202  21.713  25.347  1.00  0.00     0.014 A 
ATOM     30  C   UNL A   1      42.051  21.308  27.728  1.00  0.00     0.014 A 
ATOM     31  C   UNL A   1      42.678  22.999  25.602  1.00  0.00     0.010 A 
ATOM     32  C   UNL A   1      42.424  22.621  27.981  1.00  0.00     0.010 A 
ATOM     33  C   UNL A   1      42.742  23.481  26.921  1.00  0.00    -0.014 A 
BRANCH  33  34
ATOM     34  C   UNL A   1      43.115  24.887  27.212  1.00  0.00     0.031 A 
ATOM     35  C   UNL A   1      44.525  25.356  26.979  1.00  0.00     0.074 A 
ATOM     36  C   UNL A   1      42.202  25.709  27.766  1.00  0.00     0.049 A 
ATOM     37  N   UNL A   1      45.061  26.519  27.250  1.00  0.00    -0.248 NA
ATOM     38  C   UNL A   1      45.464  24.387  26.391  1.00  0.00     0.031 C 
ATOM     39  C   UNL A   1      40.822  25.344  28.094  1.00  0.00     0.029 A 
ATOM     40  N   UNL A   1      42.300  27.018  28.169  1.00  0.00    -0.354 N 
ATOM     41  C   UNL A   1      46.398  26.411  26.889  1.00  0.00     0.074 A 
ATOM     42  C   UNL A   1      46.605  25.061  26.418  1.00  0.00     0.031 C 
ATOM     43  C   UNL A   1      40.199  26.407  28.626  1.00  0.00     0.029 A 
ATOM     44  C   UNL A   1      41.146  27.512  28.726  1.00  0.00     0.049 A 
ATOM     45  H   UNL A   1      43.121  27.552  28.068  1.00  0.00     0.167 HD
ATOM     46  C   UNL A   1      47.358  27.364  26.930  1.00  0.00     0.037 A 
ATOM     47  C   UNL A   1      40.887  28.715  29.274  1.00  0.00     0.037 A 
ATOM     48  C   UNL A   1      47.132  28.718  27.361  1.00  0.00     0.049 A 
ATOM     49  C   UNL A   1      41.981  29.750  29.303  1.00  0.00     0.074 A 
ATOM     50  C   UNL A   1      48.014  29.784  27.344  1.00  0.00     0.029 A 
ATOM     51  N   UNL A   1      45.943  29.189  27.897  1.00  0.00    -0.354 N 
ATOM     52  N   UNL A   1      43.211  29.669  28.858  1.00  0.00    -0.248 NA
ATOM     53  C   UNL A   1      41.649  31.046  29.911  1.00  0.00     0.031 C 
ATOM     54  C   UNL A   1      47.382  30.882  27.933  1.00  0.00     0.029 A 
ATOM     55  C   UNL A   1      46.084  30.520  28.255  1.00  0.00     0.049 A 
ATOM     56  H   UNL A   1      45.122  28.657  28.006  1.00  0.00     0.167 HD
ATOM     57  C   UNL A   1      43.788  30.907  29.103  1.00  0.00     0.074 A 
ATOM     58  C   UNL A   1      42.766  31.730  29.713  1.00  0.00     0.031 C 
ATOM     59  C   UNL A   1      45.052  31.326  28.852  1.00  0.00     0.037 A 
BRANCH  46  60
ATOM     60  C   UNL A   1      48.747  26.993  26.498  1.00  0.00     0.064 A 
ATOM     61  C   UNL A   1      49.665  26.408  27.382  1.00  0.00     0.173 A 
ATOM     62  C   UNL A   1      49.128  27.138  25.155  1.00  0.00     0.173 A 
ATOM     63  F   UNL A   1      49.353  26.257  28.677  1.00  0.00    -0.203 F 
ATOM     64  C   UNL A   1      50.917  25.989  26.939  1.00  0.00     0.198 A 
ATOM     65  C   UNL A   1      50.369  26.692  24.709  1.00  0.00     0.198 A 
ATOM     66  F   UNL A   1      48.285  27.690  24.268  1.00  0.00    -0.203 F 
ATOM     67  F   UNL A   1      51.789  25.457  27.806  1.00  0.00    -0.200 F 
ATOM     68  C   UNL A   1      51.262  26.119  25.601  1.00  0.00     0.200 A 
ATOM     69  F   UNL A   1      50.694  26.803  23.414  1.00  0.00    -0.200 F 
ATOM     70  F   UNL A   1      52.458  25.691  25.172  1.00  0.00    -0.200 F 
ENDBRANCH  46  60
BRANCH  47  71
ATOM     71  C   UNL A   1      39.547  29.012  29.850  1.00  0.00     0.064 A 
ATOM     72  C   UNL A   1      38.554  29.643  29.087  1.00  0.00     0.173 A 
ATOM     73  C   UNL A   1      39.249  28.721  31.190  1.00  0.00     0.173 A 
ATOM     74  F   UNL A   1      38.795  29.958  27.805  1.00  0.00    -0.203 F 
ATOM     75  C   UNL A   1      37.334  30.012  29.651  1.00  0.00     0.198 A 
ATOM     76  C   UNL A   1      38.014  29.056  31.743  1.00  0.00     0.198 A 
ATOM     77  F   UNL A   1      40.157  28.111  31.965  1.00  0.00    -0.203 F 
ATOM     78  F   UNL A   1      36.435  30.680  28.917  1.00  0.00    -0.200 F 
ATOM     79  C   UNL A   1      37.065  29.716  30.979  1.00  0.00     0.200 A 
ATOM     80  F   UNL A   1      37.752  28.750  33.021  1.00  0.00    -0.200 F 
ATOM     81  F   UNL A   1      35.895  30.078  31.524  1.00  0.00    -0.200 F 
ENDBRANCH  47  71
BRANCH  59  82
ATOM     82  C   UNL A   1      45.391  32.746  29.205  1.00  0.00     0.064 A 
ATOM     83  C   UNL A   1      45.924  33.086  30.457  1.00  0.00     0.173 A 
ATOM     84  C   UNL A   1      45.219  33.771  28.263  1.00  0.00     0.173 A 
ATOM     85  F   UNL A   1      46.094  32.144  31.397  1.00  0.00    -0.203 F 
ATOM     86  C   UNL A   1      46.244  34.406  30.763  1.00  0.00     0.198 A 
ATOM     87  C   UNL A   1      45.574  35.084  28.560  1.00  0.00     0.198 A 
ATOM     88  F   UNL A   1      44.721  33.498  27.048  1.00  0.00    -0.203 F 
ATOM     89  F   UNL A   1      46.699  34.716  31.985  1.00  0.00    -0.200 F 
ATOM     90  C   UNL A   1      46.077  35.401  29.812  1.00  0.00     0.200 A 
ATOM     91  F   UNL A   1      45.431  36.041  27.633  1.00  0.00    -0.200 F 
ATOM     92  F   UNL A   1      46.397  36.670  30.105  1.00  0.00    -0.200 F 
ENDBRANCH  59  82
ENDBRANCH  33  34
ENDBRANCH  25  28
ENDBRANCH  23  24
ENDBRANCH  22  23
ENDBRANCH   1  22
TORSDOF 14
ENDMDL
