MODEL 1
REMARK VINA RESULT:     -11.8      0.000      0.000
REMARK SMILES C[NH+]1CC[NH+](CC[C@H]2CCC[C@@]2([NH3+])C(=O)NCCCNC(=O)c2ccc(-c3c4nc(c(-c5c(F)c(F)c(F)c(F)c5F)c5ccc([nH]5)c(-c5c(F)c(F)c(F)c(F)c5F)c5nc(c(-c6c(F)c(F)c(F)c(F)c6F)c6ccc3[nH]6)C=C5)C=C4)cc2)CC1
REMARK SMILES IDX 17 1 16 2 14 3 15 4 12 6 8 7 9 8 10 9 11 10 7 11 6 12 5 13
REMARK SMILES IDX 1 14 2 15 3 16 87 17 4 19 86 20 13 22 18 26 19 27 20 28
REMARK SMILES IDX 21 29 22 31 23 32 24 33 85 34 25 35 84 36 26 37 27 38 28 39
REMARK SMILES IDX 78 40 29 41 83 42 77 43 79 44 30 45 82 46 76 47 75 48 31 50
REMARK SMILES IDX 63 51 43 52 62 53 44 54 47 55 61 56 80 57 45 58 46 59 60 61
REMARK SMILES IDX 81 62 48 63 32 64 33 65 41 66 34 67 35 68 39 69 42 70 36 71
REMARK SMILES IDX 37 72 40 73 38 74 64 75 65 76 73 77 66 78 67 79 71 80 74 81
REMARK SMILES IDX 68 82 69 83 72 84 70 85 49 86 50 87 58 88 51 89 52 90 56 91
REMARK SMILES IDX 59 92 53 93 54 94 57 95 55 96
REMARK H PARENT 16 5 2 18 5 21 13 23 13 24 13 25 20 30 79 49 47 60
REMARK Flexibility Score: inf
ROOT
ATOM      1  C   UNL A   1      32.298  27.547  27.280  1.00  0.00     0.118 C 
ENDROOT
BRANCH   1   2
ATOM      2  N   UNL A   1      31.487  26.412  26.869  1.00  0.00    -0.351 N 
ATOM      3  C   UNL A   1      31.301  25.725  25.714  1.00  0.00     0.281 C 
ATOM      4  O   UNL A   1      30.486  24.791  25.810  1.00  0.00    -0.268 OA
ATOM      5  H   UNL A   1      30.940  26.057  27.607  1.00  0.00     0.163 HD
BRANCH   3   6
ATOM      6  C   UNL A   1      31.966  26.045  24.326  1.00  0.00     0.177 C 
ATOM      7  C   UNL A   1      31.244  27.033  23.347  1.00  0.00     0.066 C 
ATOM      8  C   UNL A   1      32.384  27.907  22.759  1.00  0.00     0.011 C 
ATOM      9  C   UNL A   1      33.687  27.194  23.089  1.00  0.00     0.008 C 
ATOM     10  C   UNL A   1      33.407  26.559  24.443  1.00  0.00     0.079 C 
BRANCH   7  11
ATOM     11  C   UNL A   1      30.128  27.905  23.933  1.00  0.00     0.072 C 
BRANCH  11  12
ATOM     12  C   UNL A   1      30.087  29.378  23.500  1.00  0.00     0.263 C 
BRANCH  12  13
ATOM     13  N   UNL A   1      28.798  30.056  23.396  1.00  0.00    -0.326 N 
ATOM     14  C   UNL A   1      28.029  32.704  20.054  1.00  0.00     0.333 C 
ATOM     15  N   UNL A   1      27.844  31.951  21.297  1.00  0.00    -0.328 N 
ATOM     16  C   UNL A   1      28.862  32.341  22.286  1.00  0.00     0.324 C 
ATOM     17  C   UNL A   1      27.913  30.503  21.039  1.00  0.00     0.324 C 
ATOM     18  H   UNL A   1      26.920  32.169  21.671  1.00  0.00     0.348 HD
ATOM     19  C   UNL A   1      28.793  31.507  23.581  1.00  0.00     0.324 C 
ATOM     20  C   UNL A   1      27.879  29.641  22.327  1.00  0.00     0.324 C 
ATOM     21  H   UNL A   1      28.390  29.663  24.243  1.00  0.00     0.348 HD
ENDBRANCH  12  13
ENDBRANCH  11  12
ENDBRANCH   7  11
BRANCH   6  22
ATOM     22  N   UNL A   1      32.107  24.735  23.608  1.00  0.00    -0.345 N 
ATOM     23  H   UNL A   1      31.708  24.814  22.673  1.00  0.00     0.345 HD
ATOM     24  H   UNL A   1      31.615  24.008  24.128  1.00  0.00     0.345 HD
ATOM     25  H   UNL A   1      33.095  24.491  23.537  1.00  0.00     0.345 HD
ENDBRANCH   6  22
ENDBRANCH   3   6
ENDBRANCH   1   2
BRANCH   1  26
ATOM     26  C   UNL A   1      31.779  28.919  26.818  1.00  0.00     0.042 C 
BRANCH  26  27
ATOM     27  C   UNL A   1      32.757  29.803  26.051  1.00  0.00     0.118 C 
BRANCH  27  28
ATOM     28  N   UNL A   1      32.612  31.205  26.385  1.00  0.00    -0.352 N 
ATOM     29  C   UNL A   1      33.317  31.989  27.261  1.00  0.00     0.251 C 
ATOM     30  H   UNL A   1      31.890  31.671  25.904  1.00  0.00     0.163 HD
ATOM     31  O   UNL A   1      32.858  33.095  27.560  1.00  0.00    -0.269 OA
BRANCH  29  32
ATOM     32  C   UNL A   1      34.596  31.556  27.876  1.00  0.00     0.039 A 
ATOM     33  C   UNL A   1      34.672  30.252  28.382  1.00  0.00     0.014 A 
ATOM     34  C   UNL A   1      35.672  32.425  28.079  1.00  0.00     0.014 A 
ATOM     35  C   UNL A   1      35.815  29.820  29.063  1.00  0.00     0.010 A 
ATOM     36  C   UNL A   1      36.843  31.972  28.702  1.00  0.00     0.010 A 
ATOM     37  C   UNL A   1      36.920  30.671  29.221  1.00  0.00    -0.014 A 
BRANCH  37  38
ATOM     38  C   UNL A   1      38.130  30.207  29.957  1.00  0.00     0.031 A 
ATOM     39  C   UNL A   1      38.380  30.637  31.380  1.00  0.00     0.074 A 
ATOM     40  C   UNL A   1      39.016  29.396  29.348  1.00  0.00     0.049 A 
ATOM     41  N   UNL A   1      39.361  30.306  32.186  1.00  0.00    -0.248 NA
ATOM     42  C   UNL A   1      37.414  31.575  31.970  1.00  0.00     0.031 C 
ATOM     43  C   UNL A   1      38.923  28.937  27.962  1.00  0.00     0.029 A 
ATOM     44  N   UNL A   1      40.167  28.811  29.816  1.00  0.00    -0.354 N 
ATOM     45  C   UNL A   1      39.135  31.001  33.367  1.00  0.00     0.074 A 
ATOM     46  C   UNL A   1      37.951  31.808  33.158  1.00  0.00     0.031 C 
ATOM     47  C   UNL A   1      39.954  28.119  27.701  1.00  0.00     0.029 A 
ATOM     48  C   UNL A   1      40.795  28.012  28.892  1.00  0.00     0.049 A 
ATOM     49  H   UNL A   1      40.510  28.951  30.728  1.00  0.00     0.167 HD
ATOM     50  C   UNL A   1      39.833  30.956  34.529  1.00  0.00     0.037 A 
ATOM     51  C   UNL A   1      41.914  27.271  28.991  1.00  0.00     0.037 A 
ATOM     52  C   UNL A   1      40.994  30.132  34.753  1.00  0.00     0.049 A 
ATOM     53  C   UNL A   1      42.663  27.222  30.296  1.00  0.00     0.074 A 
ATOM     54  C   UNL A   1      41.729  29.975  35.917  1.00  0.00     0.029 A 
ATOM     55  N   UNL A   1      41.589  29.328  33.796  1.00  0.00    -0.354 N 
ATOM     56  N   UNL A   1      42.395  27.827  31.426  1.00  0.00    -0.248 NA
ATOM     57  C   UNL A   1      43.864  26.375  30.339  1.00  0.00     0.031 C 
ATOM     58  C   UNL A   1      42.790  29.104  35.652  1.00  0.00     0.029 A 
ATOM     59  C   UNL A   1      42.693  28.686  34.335  1.00  0.00     0.049 A 
ATOM     60  H   UNL A   1      41.275  29.228  32.868  1.00  0.00     0.167 HD
ATOM     61  C   UNL A   1      43.374  27.416  32.320  1.00  0.00     0.074 A 
ATOM     62  C   UNL A   1      44.237  26.499  31.606  1.00  0.00     0.031 C 
ATOM     63  C   UNL A   1      43.540  27.768  33.618  1.00  0.00     0.037 A 
BRANCH  50  64
ATOM     64  C   UNL A   1      39.356  31.822  35.659  1.00  0.00     0.064 A 
ATOM     65  C   UNL A   1      39.797  33.146  35.804  1.00  0.00     0.173 A 
ATOM     66  C   UNL A   1      38.418  31.338  36.582  1.00  0.00     0.173 A 
ATOM     67  F   UNL A   1      40.699  33.655  34.952  1.00  0.00    -0.203 F 
ATOM     68  C   UNL A   1      39.337  33.944  36.849  1.00  0.00     0.198 A 
ATOM     69  C   UNL A   1      37.940  32.146  37.610  1.00  0.00     0.198 A 
ATOM     70  F   UNL A   1      37.956  30.082  36.482  1.00  0.00    -0.203 F 
ATOM     71  F   UNL A   1      39.806  35.190  36.996  1.00  0.00    -0.200 F 
ATOM     72  C   UNL A   1      38.405  33.445  37.747  1.00  0.00     0.200 A 
ATOM     73  F   UNL A   1      37.029  31.668  38.469  1.00  0.00    -0.200 F 
ATOM     74  F   UNL A   1      37.960  34.215  38.750  1.00  0.00    -0.200 F 
ENDBRANCH  50  64
BRANCH  51  75
ATOM     75  C   UNL A   1      42.373  26.472  27.827  1.00  0.00     0.064 A 
ATOM     76  C   UNL A   1      41.840  25.200  27.573  1.00  0.00     0.173 A 
ATOM     77  C   UNL A   1      43.343  26.964  26.941  1.00  0.00     0.173 A 
ATOM     78  F   UNL A   1      40.927  24.680  28.406  1.00  0.00    -0.203 F 
ATOM     79  C   UNL A   1      42.270  24.444  26.485  1.00  0.00     0.198 A 
ATOM     80  C   UNL A   1      43.754  26.217  25.840  1.00  0.00     0.198 A 
ATOM     81  F   UNL A   1      43.879  28.177  27.139  1.00  0.00    -0.203 F 
ATOM     82  F   UNL A   1      41.772  23.217  26.286  1.00  0.00    -0.200 F 
ATOM     83  C   UNL A   1      43.222  24.956  25.615  1.00  0.00     0.200 A 
ATOM     84  F   UNL A   1      44.663  26.720  24.995  1.00  0.00    -0.200 F 
ATOM     85  F   UNL A   1      43.630  24.231  24.564  1.00  0.00    -0.200 F 
ENDBRANCH  51  75
BRANCH  63  86
ATOM     86  C   UNL A   1      44.681  27.138  34.363  1.00  0.00     0.064 A 
ATOM     87  C   UNL A   1      45.941  27.750  34.433  1.00  0.00     0.173 A 
ATOM     88  C   UNL A   1      44.501  25.922  35.041  1.00  0.00     0.173 A 
ATOM     89  F   UNL A   1      46.167  28.905  33.790  1.00  0.00    -0.203 F 
ATOM     90  C   UNL A   1      46.986  27.156  35.137  1.00  0.00     0.198 A 
ATOM     91  C   UNL A   1      45.541  25.345  35.764  1.00  0.00     0.198 A 
ATOM     92  F   UNL A   1      43.314  25.299  35.007  1.00  0.00    -0.203 F 
ATOM     93  F   UNL A   1      48.194  27.738  35.156  1.00  0.00    -0.200 F 
ATOM     94  C   UNL A   1      46.783  25.959  35.806  1.00  0.00     0.200 A 
ATOM     95  F   UNL A   1      45.341  24.191  36.418  1.00  0.00    -0.200 F 
ATOM     96  F   UNL A   1      47.790  25.391  36.486  1.00  0.00    -0.200 F 
ENDBRANCH  63  86
ENDBRANCH  37  38
ENDBRANCH  29  32
ENDBRANCH  27  28
ENDBRANCH  26  27
ENDBRANCH   1  26
TORSDOF 14
ENDMDL
MODEL 2
REMARK VINA RESULT:     -11.8      0.091      1.975
REMARK SMILES C[NH+]1CC[NH+](CC[C@H]2CCC[C@@]2([NH3+])C(=O)NCCCNC(=O)c2ccc(-c3c4nc(c(-c5c(F)c(F)c(F)c(F)c5F)c5ccc([nH]5)c(-c5c(F)c(F)c(F)c(F)c5F)c5nc(c(-c6c(F)c(F)c(F)c(F)c6F)c6ccc3[nH]6)C=C5)C=C4)cc2)CC1
REMARK SMILES IDX 17 1 16 2 14 3 15 4 12 6 8 7 9 8 10 9 11 10 7 11 6 12 5 13
REMARK SMILES IDX 1 14 2 15 3 16 87 17 4 19 86 20 13 22 18 26 19 27 20 28
REMARK SMILES IDX 21 29 22 31 23 32 24 33 85 34 25 35 84 36 26 37 27 38 28 39
REMARK SMILES IDX 78 40 29 41 83 42 77 43 79 44 30 45 82 46 76 47 75 48 31 50
REMARK SMILES IDX 63 51 43 52 62 53 44 54 47 55 61 56 80 57 45 58 46 59 60 61
REMARK SMILES IDX 81 62 48 63 32 64 33 65 41 66 34 67 35 68 39 69 42 70 36 71
REMARK SMILES IDX 37 72 40 73 38 74 64 75 65 76 73 77 66 78 67 79 71 80 74 81
REMARK SMILES IDX 68 82 69 83 72 84 70 85 49 86 50 87 58 88 51 89 52 90 56 91
REMARK SMILES IDX 59 92 53 93 54 94 57 95 55 96
REMARK H PARENT 16 5 2 18 5 21 13 23 13 24 13 25 20 30 79 49 47 60
REMARK Flexibility Score: inf
ROOT
ATOM      1  C   UNL A   1      32.305  27.627  27.261  1.00  0.00     0.118 C 
ENDROOT
BRANCH   1   2
ATOM      2  N   UNL A   1      31.511  26.488  26.830  1.00  0.00    -0.351 N 
ATOM      3  C   UNL A   1      31.335  25.820  25.662  1.00  0.00     0.281 C 
ATOM      4  O   UNL A   1      30.535  24.872  25.740  1.00  0.00    -0.268 OA
ATOM      5  H   UNL A   1      30.970  26.112  27.560  1.00  0.00     0.163 HD
BRANCH   3   6
ATOM      6  C   UNL A   1      31.995  26.176  24.280  1.00  0.00     0.177 C 
ATOM      7  C   UNL A   1      31.257  27.170  23.319  1.00  0.00     0.066 C 
ATOM      8  C   UNL A   1      32.384  28.072  22.747  1.00  0.00     0.011 C 
ATOM      9  C   UNL A   1      33.698  27.374  23.065  1.00  0.00     0.008 C 
ATOM     10  C   UNL A   1      33.428  26.711  24.407  1.00  0.00     0.079 C 
BRANCH   7  11
ATOM     11  C   UNL A   1      30.128  28.013  23.920  1.00  0.00     0.072 C 
BRANCH  11  12
ATOM     12  C   UNL A   1      30.054  29.489  23.502  1.00  0.00     0.263 C 
BRANCH  12  13
ATOM     13  N   UNL A   1      28.747  30.119  23.336  1.00  0.00    -0.326 N 
ATOM     14  C   UNL A   1      28.028  32.703  19.934  1.00  0.00     0.333 C 
ATOM     15  N   UNL A   1      27.817  31.957  21.177  1.00  0.00    -0.328 N 
ATOM     16  C   UNL A   1      28.778  32.394  22.203  1.00  0.00     0.324 C 
ATOM     17  C   UNL A   1      27.947  30.511  20.939  1.00  0.00     0.324 C 
ATOM     18  H   UNL A   1      26.871  32.147  21.510  1.00  0.00     0.348 HD
ATOM     19  C   UNL A   1      28.685  31.571  23.503  1.00  0.00     0.324 C 
ATOM     20  C   UNL A   1      27.890  29.661  22.235  1.00  0.00     0.324 C 
ATOM     21  H   UNL A   1      28.318  29.721  24.170  1.00  0.00     0.348 HD
ENDBRANCH  12  13
ENDBRANCH  11  12
ENDBRANCH   7  11
BRANCH   6  22
ATOM     22  N   UNL A   1      32.157  24.881  23.539  1.00  0.00    -0.345 N 
ATOM     23  H   UNL A   1      32.808  24.279  24.044  1.00  0.00     0.345 HD
ATOM     24  H   UNL A   1      32.521  25.067  22.604  1.00  0.00     0.345 HD
ATOM     25  H   UNL A   1      31.251  24.417  23.465  1.00  0.00     0.345 HD
ENDBRANCH   6  22
ENDBRANCH   3   6
ENDBRANCH   1   2
BRANCH   1  26
ATOM     26  C   UNL A   1      31.777  28.998  26.806  1.00  0.00     0.042 C 
BRANCH  26  27
ATOM     27  C   UNL A   1      32.747  29.889  26.037  1.00  0.00     0.118 C 
BRANCH  27  28
ATOM     28  N   UNL A   1      32.606  31.288  26.385  1.00  0.00    -0.352 N 
ATOM     29  C   UNL A   1      33.311  32.061  27.271  1.00  0.00     0.251 C 
ATOM     30  H   UNL A   1      31.886  31.761  25.907  1.00  0.00     0.163 HD
ATOM     31  O   UNL A   1      32.855  33.166  27.580  1.00  0.00    -0.269 OA
BRANCH  29  32
ATOM     32  C   UNL A   1      34.588  31.618  27.883  1.00  0.00     0.039 A 
ATOM     33  C   UNL A   1      34.653  30.315  28.393  1.00  0.00     0.014 A 
ATOM     34  C   UNL A   1      35.673  32.478  28.081  1.00  0.00     0.014 A 
ATOM     35  C   UNL A   1      35.794  29.874  29.072  1.00  0.00     0.010 A 
ATOM     36  C   UNL A   1      36.841  32.015  28.702  1.00  0.00     0.010 A 
ATOM     37  C   UNL A   1      36.907  30.715  29.225  1.00  0.00    -0.014 A 
BRANCH  37  38
ATOM     38  C   UNL A   1      38.114  30.242  29.960  1.00  0.00     0.031 A 
ATOM     39  C   UNL A   1      38.371  30.672  31.381  1.00  0.00     0.074 A 
ATOM     40  C   UNL A   1      38.992  29.423  29.350  1.00  0.00     0.049 A 
ATOM     41  N   UNL A   1      39.350  30.334  32.186  1.00  0.00    -0.248 NA
ATOM     42  C   UNL A   1      37.415  31.619  31.971  1.00  0.00     0.031 C 
ATOM     43  C   UNL A   1      38.893  28.961  27.965  1.00  0.00     0.029 A 
ATOM     44  N   UNL A   1      40.139  28.828  29.817  1.00  0.00    -0.354 N 
ATOM     45  C   UNL A   1      39.133  31.034  33.366  1.00  0.00     0.074 A 
ATOM     46  C   UNL A   1      37.956  31.850  33.159  1.00  0.00     0.031 C 
ATOM     47  C   UNL A   1      39.916  28.134  27.704  1.00  0.00     0.029 A 
ATOM     48  C   UNL A   1      40.759  28.023  28.893  1.00  0.00     0.049 A 
ATOM     49  H   UNL A   1      40.485  28.967  30.728  1.00  0.00     0.167 HD
ATOM     50  C   UNL A   1      39.833  30.984  34.526  1.00  0.00     0.037 A 
ATOM     51  C   UNL A   1      41.871  27.272  28.991  1.00  0.00     0.037 A 
ATOM     52  C   UNL A   1      40.987  30.151  34.750  1.00  0.00     0.049 A 
ATOM     53  C   UNL A   1      42.623  27.218  30.295  1.00  0.00     0.074 A 
ATOM     54  C   UNL A   1      41.723  29.989  35.913  1.00  0.00     0.029 A 
ATOM     55  N   UNL A   1      41.574  29.340  33.793  1.00  0.00    -0.354 N 
ATOM     56  N   UNL A   1      42.362  27.828  31.424  1.00  0.00    -0.248 NA
ATOM     57  C   UNL A   1      43.816  26.362  30.336  1.00  0.00     0.031 C 
ATOM     58  C   UNL A   1      42.777  29.108  35.647  1.00  0.00     0.029 A 
ATOM     59  C   UNL A   1      42.673  28.689  34.331  1.00  0.00     0.049 A 
ATOM     60  H   UNL A   1      41.257  29.241  32.866  1.00  0.00     0.167 HD
ATOM     61  C   UNL A   1      43.339  27.410  32.317  1.00  0.00     0.074 A 
ATOM     62  C   UNL A   1      44.192  26.484  31.602  1.00  0.00     0.031 C 
ATOM     63  C   UNL A   1      43.511  27.763  33.614  1.00  0.00     0.037 A 
BRANCH  50  64
ATOM     64  C   UNL A   1      39.366  31.856  35.656  1.00  0.00     0.064 A 
ATOM     65  C   UNL A   1      38.427  31.401  36.594  1.00  0.00     0.173 A 
ATOM     66  C   UNL A   1      39.893  33.145  35.828  1.00  0.00     0.173 A 
ATOM     67  F   UNL A   1      37.887  30.179  36.471  1.00  0.00    -0.203 F 
ATOM     68  C   UNL A   1      38.011  32.215  37.645  1.00  0.00     0.198 A 
ATOM     69  C   UNL A   1      39.495  33.946  36.895  1.00  0.00     0.198 A 
ATOM     70  F   UNL A   1      40.802  33.625  34.965  1.00  0.00    -0.203 F 
ATOM     71  F   UNL A   1      37.080  31.776  38.502  1.00  0.00    -0.200 F 
ATOM     72  C   UNL A   1      38.550  33.484  37.798  1.00  0.00     0.200 A 
ATOM     73  F   UNL A   1      40.027  35.167  37.049  1.00  0.00    -0.200 F 
ATOM     74  F   UNL A   1      38.153  34.264  38.812  1.00  0.00    -0.200 F 
ENDBRANCH  50  64
BRANCH  51  75
ATOM     75  C   UNL A   1      42.321  26.467  27.827  1.00  0.00     0.064 A 
ATOM     76  C   UNL A   1      43.292  26.959  26.945  1.00  0.00     0.173 A 
ATOM     77  C   UNL A   1      41.797  25.190  27.577  1.00  0.00     0.173 A 
ATOM     78  F   UNL A   1      43.805  28.184  27.132  1.00  0.00    -0.203 F 
ATOM     79  C   UNL A   1      43.714  26.211  25.849  1.00  0.00     0.198 A 
ATOM     80  C   UNL A   1      42.237  24.433  26.495  1.00  0.00     0.198 A 
ATOM     81  F   UNL A   1      40.868  24.674  28.396  1.00  0.00    -0.203 F 
ATOM     82  F   UNL A   1      44.617  26.719  25.000  1.00  0.00    -0.200 F 
ATOM     83  C   UNL A   1      43.191  24.945  25.628  1.00  0.00     0.200 A 
ATOM     84  F   UNL A   1      41.739  23.205  26.292  1.00  0.00    -0.200 F 
ATOM     85  F   UNL A   1      43.602  24.222  24.577  1.00  0.00    -0.200 F 
ENDBRANCH  51  75
BRANCH  63  86
ATOM     86  C   UNL A   1      44.648  27.124  34.358  1.00  0.00     0.064 A 
ATOM     87  C   UNL A   1      44.495  25.897  35.020  1.00  0.00     0.173 A 
ATOM     88  C   UNL A   1      45.912  27.731  34.380  1.00  0.00     0.173 A 
ATOM     89  F   UNL A   1      43.301  25.285  35.040  1.00  0.00    -0.203 F 
ATOM     90  C   UNL A   1      45.562  25.312  35.697  1.00  0.00     0.198 A 
ATOM     91  C   UNL A   1      46.983  27.130  35.037  1.00  0.00     0.198 A 
ATOM     92  F   UNL A   1      46.111  28.902  33.758  1.00  0.00    -0.203 F 
ATOM     93  F   UNL A   1      45.382  24.160  36.360  1.00  0.00    -0.200 F 
ATOM     94  C   UNL A   1      46.805  25.926  35.700  1.00  0.00     0.200 A 
ATOM     95  F   UNL A   1      48.187  27.721  35.031  1.00  0.00    -0.200 F 
ATOM     96  F   UNL A   1      47.832  25.360  36.350  1.00  0.00    -0.200 F 
ENDBRANCH  63  86
ENDBRANCH  37  38
ENDBRANCH  29  32
ENDBRANCH  27  28
ENDBRANCH  26  27
ENDBRANCH   1  26
TORSDOF 14
ENDMDL
MODEL 3
REMARK VINA RESULT:     -11.7      2.106      3.880
REMARK SMILES C[NH+]1CC[NH+](CC[C@H]2CCC[C@@]2([NH3+])C(=O)NCCCNC(=O)c2ccc(-c3c4nc(c(-c5c(F)c(F)c(F)c(F)c5F)c5ccc([nH]5)c(-c5c(F)c(F)c(F)c(F)c5F)c5nc(c(-c6c(F)c(F)c(F)c(F)c6F)c6ccc3[nH]6)C=C5)C=C4)cc2)CC1
REMARK SMILES IDX 17 1 16 2 14 3 15 4 12 6 8 7 9 8 10 9 11 10 7 11 6 12 5 13
REMARK SMILES IDX 1 14 2 15 3 16 87 17 4 19 86 20 13 22 18 26 19 27 20 28
REMARK SMILES IDX 21 29 22 31 23 32 24 33 85 34 25 35 84 36 26 37 27 38 28 39
REMARK SMILES IDX 78 40 29 41 83 42 77 43 79 44 30 45 82 46 76 47 75 48 31 50
REMARK SMILES IDX 63 51 43 52 62 53 44 54 47 55 61 56 80 57 45 58 46 59 60 61
REMARK SMILES IDX 81 62 48 63 32 64 33 65 41 66 34 67 35 68 39 69 42 70 36 71
REMARK SMILES IDX 37 72 40 73 38 74 64 75 65 76 73 77 66 78 67 79 71 80 74 81
REMARK SMILES IDX 68 82 69 83 72 84 70 85 49 86 50 87 58 88 51 89 52 90 56 91
REMARK SMILES IDX 59 92 53 93 54 94 57 95 55 96
REMARK H PARENT 16 5 2 18 5 21 13 23 13 24 13 25 20 30 79 49 47 60
REMARK Flexibility Score: inf
ROOT
ATOM      1  C   UNL A   1      31.284  27.492  26.159  1.00  0.00     0.118 C 
ENDROOT
BRANCH   1   2
ATOM      2  N   UNL A   1      31.043  26.128  26.600  1.00  0.00    -0.351 N 
ATOM      3  C   UNL A   1      31.215  24.894  26.062  1.00  0.00     0.281 C 
ATOM      4  O   UNL A   1      30.865  23.966  26.810  1.00  0.00    -0.268 OA
ATOM      5  H   UNL A   1      30.663  26.090  27.507  1.00  0.00     0.163 HD
BRANCH   3   6
ATOM      6  C   UNL A   1      31.746  24.578  24.617  1.00  0.00     0.177 C 
ATOM      7  C   UNL A   1      33.269  24.781  24.305  1.00  0.00     0.066 C 
ATOM      8  C   UNL A   1      33.659  23.558  23.432  1.00  0.00     0.011 C 
ATOM      9  C   UNL A   1      32.354  22.928  22.967  1.00  0.00     0.008 C 
ATOM     10  C   UNL A   1      31.414  23.157  24.141  1.00  0.00     0.079 C 
BRANCH   7  11
ATOM     11  C   UNL A   1      34.214  24.926  25.503  1.00  0.00     0.072 C 
BRANCH  11  12
ATOM     12  C   UNL A   1      35.497  24.083  25.492  1.00  0.00     0.263 C 
BRANCH  12  13
ATOM     13  N   UNL A   1      35.569  22.882  26.321  1.00  0.00    -0.326 N 
ATOM     14  C   UNL A   1      33.071  19.471  25.377  1.00  0.00     0.333 C 
ATOM     15  N   UNL A   1      34.047  20.329  26.052  1.00  0.00    -0.328 N 
ATOM     16  C   UNL A   1      33.402  21.568  26.516  1.00  0.00     0.324 C 
ATOM     17  C   UNL A   1      35.168  20.644  25.152  1.00  0.00     0.324 C 
ATOM     18  H   UNL A   1      34.414  19.826  26.861  1.00  0.00     0.348 HD
ATOM     19  C   UNL A   1      34.397  22.568  27.138  1.00  0.00     0.324 C 
ATOM     20  C   UNL A   1      36.167  21.673  25.740  1.00  0.00     0.324 C 
ATOM     21  H   UNL A   1      36.278  23.228  26.966  1.00  0.00     0.348 HD
ENDBRANCH  12  13
ENDBRANCH  11  12
ENDBRANCH   7  11
BRANCH   6  22
ATOM     22  N   UNL A   1      30.980  25.462  23.678  1.00  0.00    -0.345 N 
ATOM     23  H   UNL A   1      30.916  26.401  24.071  1.00  0.00     0.345 HD
ATOM     24  H   UNL A   1      30.042  25.085  23.544  1.00  0.00     0.345 HD
ATOM     25  H   UNL A   1      31.462  25.502  22.779  1.00  0.00     0.345 HD
ENDBRANCH   6  22
ENDBRANCH   3   6
ENDBRANCH   1   2
BRANCH   1  26
ATOM     26  C   UNL A   1      32.493  28.184  26.813  1.00  0.00     0.042 C 
BRANCH  26  27
ATOM     27  C   UNL A   1      33.269  29.174  25.951  1.00  0.00     0.118 C 
BRANCH  27  28
ATOM     28  N   UNL A   1      33.024  30.549  26.334  1.00  0.00    -0.352 N 
ATOM     29  C   UNL A   1      33.660  31.345  27.252  1.00  0.00     0.251 C 
ATOM     30  H   UNL A   1      32.279  30.983  25.859  1.00  0.00     0.163 HD
ATOM     31  O   UNL A   1      33.122  32.406  27.583  1.00  0.00    -0.269 OA
BRANCH  29  32
ATOM     32  C   UNL A   1      34.956  30.977  27.873  1.00  0.00     0.039 A 
ATOM     33  C   UNL A   1      35.064  29.711  28.463  1.00  0.00     0.014 A 
ATOM     34  C   UNL A   1      36.019  31.877  28.000  1.00  0.00     0.014 A 
ATOM     35  C   UNL A   1      36.226  29.345  29.152  1.00  0.00     0.010 A 
ATOM     36  C   UNL A   1      37.207  31.486  28.633  1.00  0.00     0.010 A 
ATOM     37  C   UNL A   1      37.317  30.225  29.235  1.00  0.00    -0.014 A 
BRANCH  37  38
ATOM     38  C   UNL A   1      38.546  29.832  29.981  1.00  0.00     0.031 A 
ATOM     39  C   UNL A   1      38.790  30.328  31.382  1.00  0.00     0.074 A 
ATOM     40  C   UNL A   1      39.455  29.027  29.398  1.00  0.00     0.049 A 
ATOM     41  N   UNL A   1      39.787  30.064  32.194  1.00  0.00    -0.248 NA
ATOM     42  C   UNL A   1      37.797  31.257  31.941  1.00  0.00     0.031 C 
ATOM     43  C   UNL A   1      39.369  28.507  28.034  1.00  0.00     0.029 A 
ATOM     44  N   UNL A   1      40.628  28.500  29.882  1.00  0.00    -0.354 N 
ATOM     45  C   UNL A   1      39.545  30.800  33.347  1.00  0.00     0.074 A 
ATOM     46  C   UNL A   1      38.334  31.558  33.114  1.00  0.00     0.031 C 
ATOM     47  C   UNL A   1      40.425  27.714  27.799  1.00  0.00     0.029 A 
ATOM     48  C   UNL A   1      41.277  27.685  28.986  1.00  0.00     0.049 A 
ATOM     49  H   UNL A   1      40.972  28.689  30.785  1.00  0.00     0.167 HD
ATOM     50  C   UNL A   1      40.252  30.826  34.504  1.00  0.00     0.037 A 
ATOM     51  C   UNL A   1      42.421  26.986  29.108  1.00  0.00     0.037 A 
ATOM     52  C   UNL A   1      41.441  30.052  34.754  1.00  0.00     0.049 A 
ATOM     53  C   UNL A   1      43.179  27.016  30.408  1.00  0.00     0.074 A 
ATOM     54  C   UNL A   1      42.188  29.968  35.917  1.00  0.00     0.029 A 
ATOM     55  N   UNL A   1      42.057  29.228  33.826  1.00  0.00    -0.354 N 
ATOM     56  N   UNL A   1      42.897  27.659  31.513  1.00  0.00    -0.248 NA
ATOM     57  C   UNL A   1      44.408  26.213  30.476  1.00  0.00     0.031 C 
ATOM     58  C   UNL A   1      43.277  29.122  35.680  1.00  0.00     0.029 A 
ATOM     59  C   UNL A   1      43.185  28.647  34.383  1.00  0.00     0.049 A 
ATOM     60  H   UNL A   1      41.740  29.080  32.905  1.00  0.00     0.167 HD
ATOM     61  C   UNL A   1      43.896  27.318  32.416  1.00  0.00     0.074 A 
ATOM     62  C   UNL A   1      44.784  26.401  31.734  1.00  0.00     0.031 C 
ATOM     63  C   UNL A   1      44.058  27.729  33.698  1.00  0.00     0.037 A 
BRANCH  50  64
ATOM     64  C   UNL A   1      39.753  31.722  35.601  1.00  0.00     0.064 A 
ATOM     65  C   UNL A   1      40.299  32.997  35.811  1.00  0.00     0.173 A 
ATOM     66  C   UNL A   1      38.691  31.319  36.424  1.00  0.00     0.173 A 
ATOM     67  F   UNL A   1      41.321  33.428  35.056  1.00  0.00    -0.203 F 
ATOM     68  C   UNL A   1      39.819  33.824  36.824  1.00  0.00     0.198 A 
ATOM     69  C   UNL A   1      38.196  32.159  37.418  1.00  0.00     0.198 A 
ATOM     70  F   UNL A   1      38.126  30.113  36.258  1.00  0.00    -0.203 F 
ATOM     71  F   UNL A   1      40.386  35.020  37.037  1.00  0.00    -0.200 F 
ATOM     72  C   UNL A   1      38.764  33.407  37.622  1.00  0.00     0.200 A 
ATOM     73  F   UNL A   1      37.168  31.760  38.180  1.00  0.00    -0.200 F 
ATOM     74  F   UNL A   1      38.301  34.205  38.594  1.00  0.00    -0.200 F 
ENDBRANCH  50  64
BRANCH  51  75
ATOM     75  C   UNL A   1      42.898  26.155  27.974  1.00  0.00     0.064 A 
ATOM     76  C   UNL A   1      42.468  24.830  27.822  1.00  0.00     0.173 A 
ATOM     77  C   UNL A   1      43.785  26.668  27.016  1.00  0.00     0.173 A 
ATOM     78  F   UNL A   1      41.638  24.289  28.726  1.00  0.00    -0.203 F 
ATOM     79  C   UNL A   1      42.917  24.044  26.763  1.00  0.00     0.198 A 
ATOM     80  C   UNL A   1      44.214  25.890  25.944  1.00  0.00     0.198 A 
ATOM     81  F   UNL A   1      44.221  27.933  27.115  1.00  0.00    -0.203 F 
ATOM     82  F   UNL A   1      42.519  22.769  26.662  1.00  0.00    -0.200 F 
ATOM     83  C   UNL A   1      43.784  24.577  25.821  1.00  0.00     0.200 A 
ATOM     84  F   UNL A   1      45.041  26.412  25.028  1.00  0.00    -0.200 F 
ATOM     85  F   UNL A   1      44.209  23.823  24.798  1.00  0.00    -0.200 F 
ENDBRANCH  51  75
BRANCH  63  86
ATOM     86  C   UNL A   1      45.224  27.168  34.459  1.00  0.00     0.064 A 
ATOM     87  C   UNL A   1      46.445  27.853  34.543  1.00  0.00     0.173 A 
ATOM     88  C   UNL A   1      45.106  25.946  35.139  1.00  0.00     0.173 A 
ATOM     89  F   UNL A   1      46.612  29.017  33.898  1.00  0.00    -0.203 F 
ATOM     90  C   UNL A   1      47.514  27.323  35.262  1.00  0.00     0.198 A 
ATOM     91  C   UNL A   1      46.169  25.433  35.877  1.00  0.00     0.198 A 
ATOM     92  F   UNL A   1      43.958  25.255  35.093  1.00  0.00    -0.203 F 
ATOM     93  F   UNL A   1      48.686  27.974  35.294  1.00  0.00    -0.200 F 
ATOM     94  C   UNL A   1      47.373  26.118  35.933  1.00  0.00     0.200 A 
ATOM     95  F   UNL A   1      46.029  24.271  36.533  1.00  0.00    -0.200 F 
ATOM     96  F   UNL A   1      48.402  25.611  36.627  1.00  0.00    -0.200 F 
ENDBRANCH  63  86
ENDBRANCH  37  38
ENDBRANCH  29  32
ENDBRANCH  27  28
ENDBRANCH  26  27
ENDBRANCH   1  26
TORSDOF 14
ENDMDL
