MODEL 1
REMARK VINA RESULT:     -10.1      0.000      0.000
REMARK SMILES CCCCOc1ccccc1C[C@@H]([NH3+])C(=O)NCCCNC(=O)c1ccc(-c2c3nc(c(-c4c(F)c(F)c(F)c(F)c4F)c4ccc([nH]4)c(-c4c(F)c(F)c(F)c(F)c4F)c4nc(c(-c5c(F)c(F)c(F)c(F)c5F)c5ccc2[nH]5)C=C4)C=C3)cc1
REMARK SMILES IDX 15 1 16 2 17 3 13 5 12 6 11 7 6 8 7 9 8 10 10 11 9 12 5 13
REMARK SMILES IDX 4 14 3 15 2 16 1 17 14 18 18 22 19 23 20 24 21 25 22 26
REMARK SMILES IDX 23 28 24 29 25 30 86 31 26 32 85 33 27 34 28 35 29 36 79 37
REMARK SMILES IDX 30 38 84 39 78 40 80 41 31 42 83 43 77 44 76 45 32 47 64 48
REMARK SMILES IDX 44 49 63 50 45 51 48 52 62 53 81 54 46 55 47 56 61 58 82 59
REMARK SMILES IDX 49 60 33 61 34 62 42 63 35 64 36 65 40 66 43 67 37 68 38 69
REMARK SMILES IDX 41 70 39 71 65 72 66 73 74 74 67 75 68 76 72 77 75 78 69 79
REMARK SMILES IDX 70 80 73 81 71 82 50 83 51 84 59 85 52 86 53 87 57 88 60 89
REMARK SMILES IDX 54 90 55 91 58 92 56 93
REMARK H PARENT 17 4 14 19 14 20 14 21 21 27 80 46 48 57
REMARK Flexibility Score: inf
ROOT
ATOM      1  C   UNL A   1      33.141  36.335  30.806  1.00  0.00     0.278 C 
ATOM      2  O   UNL A   1      32.529  37.351  31.153  1.00  0.00    -0.268 OA
ATOM      3  N   UNL A   1      33.528  36.259  29.495  1.00  0.00    -0.351 N 
ATOM      4  H   UNL A   1      33.145  36.953  28.911  1.00  0.00     0.163 HD
ENDROOT
BRANCH   1   5
ATOM      5  C   UNL A   1      33.415  35.196  31.822  1.00  0.00     0.275 C 
BRANCH   5   6
ATOM      6  C   UNL A   1      34.721  35.536  32.558  1.00  0.00     0.115 C 
BRANCH   6   7
ATOM      7  C   UNL A   1      35.609  34.462  33.158  1.00  0.00     0.001 A 
ATOM      8  C   UNL A   1      36.550  33.780  32.359  1.00  0.00     0.122 A 
ATOM      9  C   UNL A   1      37.489  32.913  32.926  1.00  0.00     0.047 A 
ATOM     10  C   UNL A   1      37.549  32.762  34.309  1.00  0.00     0.004 A 
ATOM     11  C   UNL A   1      35.690  34.295  34.549  1.00  0.00     0.008 A 
ATOM     12  C   UNL A   1      36.651  33.453  35.118  1.00  0.00     0.001 A 
BRANCH   8  13
ATOM     13  O   UNL A   1      36.521  33.971  31.000  1.00  0.00    -0.493 OA
BRANCH  13  14
ATOM     14  C   UNL A   1      37.336  33.050  30.256  1.00  0.00     0.229 C 
BRANCH  14  15
ATOM     15  C   UNL A   1      38.129  33.788  29.175  1.00  0.00     0.041 C 
BRANCH  15  16
ATOM     16  C   UNL A   1      38.955  34.951  29.732  1.00  0.00     0.000 C 
ATOM     17  C   UNL A   1      40.445  34.833  29.476  1.00  0.00     0.004 C 
ENDBRANCH  15  16
ENDBRANCH  14  15
ENDBRANCH  13  14
ENDBRANCH   8  13
ENDBRANCH   6   7
ENDBRANCH   5   6
BRANCH   5  18
ATOM     18  N   UNL A   1      32.217  34.978  32.661  1.00  0.00    -0.347 N 
ATOM     19  H   UNL A   1      31.967  33.989  32.647  1.00  0.00     0.345 HD
ATOM     20  H   UNL A   1      31.441  35.530  32.296  1.00  0.00     0.345 HD
ATOM     21  H   UNL A   1      32.416  35.264  33.620  1.00  0.00     0.345 HD
ENDBRANCH   5  18
ENDBRANCH   1   5
BRANCH   3  22
ATOM     22  C   UNL A   1      34.416  35.318  28.821  1.00  0.00     0.118 C 
BRANCH  22  23
ATOM     23  C   UNL A   1      33.730  34.005  28.443  1.00  0.00     0.042 C 
BRANCH  23  24
ATOM     24  C   UNL A   1      34.657  32.871  28.012  1.00  0.00     0.118 C 
BRANCH  24  25
ATOM     25  N   UNL A   1      33.951  31.617  27.812  1.00  0.00    -0.352 N 
ATOM     26  C   UNL A   1      34.399  30.318  27.797  1.00  0.00     0.251 C 
ATOM     27  H   UNL A   1      32.983  31.715  27.660  1.00  0.00     0.163 HD
ATOM     28  O   UNL A   1      33.633  29.433  27.423  1.00  0.00    -0.269 OA
BRANCH  26  29
ATOM     29  C   UNL A   1      35.780  29.947  28.204  1.00  0.00     0.039 A 
ATOM     30  C   UNL A   1      36.804  30.078  27.257  1.00  0.00     0.014 A 
ATOM     31  C   UNL A   1      36.076  29.395  29.453  1.00  0.00     0.014 A 
ATOM     32  C   UNL A   1      38.115  29.703  27.573  1.00  0.00     0.010 A 
ATOM     33  C   UNL A   1      37.398  29.084  29.793  1.00  0.00     0.010 A 
ATOM     34  C   UNL A   1      38.432  29.225  28.853  1.00  0.00    -0.014 A 
BRANCH  34  35
ATOM     35  C   UNL A   1      39.830  28.861  29.214  1.00  0.00     0.031 A 
ATOM     36  C   UNL A   1      40.686  29.803  30.019  1.00  0.00     0.074 A 
ATOM     37  C   UNL A   1      40.355  27.699  28.778  1.00  0.00     0.049 A 
ATOM     38  N   UNL A   1      41.942  29.683  30.377  1.00  0.00    -0.248 NA
ATOM     39  C   UNL A   1      40.055  31.054  30.461  1.00  0.00     0.031 C 
ATOM     40  C   UNL A   1      39.653  26.712  27.957  1.00  0.00     0.029 A 
ATOM     41  N   UNL A   1      41.606  27.157  28.953  1.00  0.00    -0.354 N 
ATOM     42  C   UNL A   1      42.255  30.849  31.063  1.00  0.00     0.074 A 
ATOM     43  C   UNL A   1      41.071  31.681  31.039  1.00  0.00     0.031 C 
ATOM     44  C   UNL A   1      40.477  25.680  27.712  1.00  0.00     0.029 A 
ATOM     45  C   UNL A   1      41.774  25.946  28.328  1.00  0.00     0.049 A 
ATOM     46  H   UNL A   1      42.314  27.596  29.478  1.00  0.00     0.167 HD
ATOM     47  C   UNL A   1      43.417  31.190  31.674  1.00  0.00     0.037 A 
ATOM     48  C   UNL A   1      42.853  25.142  28.250  1.00  0.00     0.037 A 
ATOM     49  C   UNL A   1      44.585  30.350  31.732  1.00  0.00     0.049 A 
ATOM     50  C   UNL A   1      44.126  25.536  28.945  1.00  0.00     0.074 A 
ATOM     51  C   UNL A   1      45.779  30.579  32.396  1.00  0.00     0.029 A 
ATOM     52  N   UNL A   1      44.709  29.121  31.104  1.00  0.00    -0.354 N 
ATOM     53  N   UNL A   1      44.387  26.611  29.647  1.00  0.00    -0.248 NA
ATOM     54  C   UNL A   1      45.256  24.600  28.841  1.00  0.00     0.031 C 
ATOM     55  C   UNL A   1      46.641  29.508  32.132  1.00  0.00     0.029 A 
ATOM     56  C   UNL A   1      45.968  28.591  31.343  1.00  0.00     0.049 A 
ATOM     57  H   UNL A   1      44.006  28.688  30.567  1.00  0.00     0.167 HD
ATOM     58  C   UNL A   1      45.696  26.473  30.087  1.00  0.00     0.074 A 
ATOM     59  C   UNL A   1      46.174  25.202  29.584  1.00  0.00     0.031 C 
ATOM     60  C   UNL A   1      46.435  27.325  30.840  1.00  0.00     0.037 A 
BRANCH  47  61
ATOM     61  C   UNL A   1      43.485  32.538  32.331  1.00  0.00     0.064 A 
ATOM     62  C   UNL A   1      43.820  33.693  31.610  1.00  0.00     0.173 A 
ATOM     63  C   UNL A   1      43.172  32.682  33.691  1.00  0.00     0.173 A 
ATOM     64  F   UNL A   1      44.135  33.609  30.308  1.00  0.00    -0.203 F 
ATOM     65  C   UNL A   1      43.869  34.938  32.233  1.00  0.00     0.198 A 
ATOM     66  C   UNL A   1      43.195  33.932  34.305  1.00  0.00     0.198 A 
ATOM     67  F   UNL A   1      42.836  31.610  34.425  1.00  0.00    -0.203 F 
ATOM     68  F   UNL A   1      44.239  36.021  31.534  1.00  0.00    -0.200 F 
ATOM     69  C   UNL A   1      43.552  35.057  33.578  1.00  0.00     0.200 A 
ATOM     70  F   UNL A   1      42.874  34.047  35.601  1.00  0.00    -0.200 F 
ATOM     71  F   UNL A   1      43.595  36.256  34.174  1.00  0.00    -0.200 F 
ENDBRANCH  47  61
BRANCH  48  72
ATOM     72  C   UNL A   1      42.765  23.867  27.493  1.00  0.00     0.064 A 
ATOM     73  C   UNL A   1      43.150  23.799  26.149  1.00  0.00     0.173 A 
ATOM     74  C   UNL A   1      42.303  22.690  28.102  1.00  0.00     0.173 A 
ATOM     75  F   UNL A   1      43.576  24.904  25.519  1.00  0.00    -0.203 F 
ATOM     76  C   UNL A   1      43.065  22.607  25.434  1.00  0.00     0.198 A 
ATOM     77  C   UNL A   1      42.243  21.492  27.394  1.00  0.00     0.198 A 
ATOM     78  F   UNL A   1      41.926  22.703  29.388  1.00  0.00    -0.203 F 
ATOM     79  F   UNL A   1      43.403  22.578  24.139  1.00  0.00    -0.200 F 
ATOM     80  C   UNL A   1      42.618  21.452  26.059  1.00  0.00     0.200 A 
ATOM     81  F   UNL A   1      41.822  20.376  28.005  1.00  0.00    -0.200 F 
ATOM     82  F   UNL A   1      42.543  20.303  25.375  1.00  0.00    -0.200 F 
ENDBRANCH  48  72
BRANCH  60  83
ATOM     83  C   UNL A   1      47.832  26.902  31.190  1.00  0.00     0.064 A 
ATOM     84  C   UNL A   1      48.938  27.332  30.443  1.00  0.00     0.173 A 
ATOM     85  C   UNL A   1      48.070  26.090  32.309  1.00  0.00     0.173 A 
ATOM     86  F   UNL A   1      48.761  28.096  29.355  1.00  0.00    -0.203 F 
ATOM     87  C   UNL A   1      50.230  26.948  30.792  1.00  0.00     0.198 A 
ATOM     88  C   UNL A   1      49.365  25.730  32.671  1.00  0.00     0.198 A 
ATOM     89  F   UNL A   1      47.046  25.656  33.059  1.00  0.00    -0.203 F 
ATOM     90  F   UNL A   1      51.269  27.337  30.040  1.00  0.00    -0.200 F 
ATOM     91  C   UNL A   1      50.443  26.154  31.909  1.00  0.00     0.200 A 
ATOM     92  F   UNL A   1      49.569  24.971  33.756  1.00  0.00    -0.200 F 
ATOM     93  F   UNL A   1      51.688  25.791  32.247  1.00  0.00    -0.200 F 
ENDBRANCH  60  83
ENDBRANCH  34  35
ENDBRANCH  26  29
ENDBRANCH  24  25
ENDBRANCH  23  24
ENDBRANCH  22  23
ENDBRANCH   3  22
TORSDOF 17
ENDMDL
MODEL 2
REMARK VINA RESULT:     -10.0      0.605      2.068
REMARK SMILES CCCCOc1ccccc1C[C@@H]([NH3+])C(=O)NCCCNC(=O)c1ccc(-c2c3nc(c(-c4c(F)c(F)c(F)c(F)c4F)c4ccc([nH]4)c(-c4c(F)c(F)c(F)c(F)c4F)c4nc(c(-c5c(F)c(F)c(F)c(F)c5F)c5ccc2[nH]5)C=C4)C=C3)cc1
REMARK SMILES IDX 15 1 16 2 17 3 13 5 12 6 11 7 6 8 7 9 8 10 10 11 9 12 5 13
REMARK SMILES IDX 4 14 3 15 2 16 1 17 14 18 18 22 19 23 20 24 21 25 22 26
REMARK SMILES IDX 23 28 24 29 25 30 86 31 26 32 85 33 27 34 28 35 29 36 79 37
REMARK SMILES IDX 30 38 84 39 78 40 80 41 31 42 83 43 77 44 76 45 32 47 64 48
REMARK SMILES IDX 44 49 63 50 45 51 48 52 62 53 81 54 46 55 47 56 61 58 82 59
REMARK SMILES IDX 49 60 33 61 34 62 42 63 35 64 36 65 40 66 43 67 37 68 38 69
REMARK SMILES IDX 41 70 39 71 65 72 66 73 74 74 67 75 68 76 72 77 75 78 69 79
REMARK SMILES IDX 70 80 73 81 71 82 50 83 51 84 59 85 52 86 53 87 57 88 60 89
REMARK SMILES IDX 54 90 55 91 58 92 56 93
REMARK H PARENT 17 4 14 19 14 20 14 21 21 27 80 46 48 57
REMARK Flexibility Score: inf
ROOT
ATOM      1  C   UNL A   1      33.175  36.297  31.084  1.00  0.00     0.278 C 
ATOM      2  O   UNL A   1      32.540  37.266  31.512  1.00  0.00    -0.268 OA
ATOM      3  N   UNL A   1      33.448  36.274  29.744  1.00  0.00    -0.351 N 
ATOM      4  H   UNL A   1      32.977  36.958  29.215  1.00  0.00     0.163 HD
ENDROOT
BRANCH   1   5
ATOM      5  C   UNL A   1      33.602  35.152  32.040  1.00  0.00     0.275 C 
BRANCH   5   6
ATOM      6  C   UNL A   1      34.869  35.613  32.779  1.00  0.00     0.115 C 
BRANCH   6   7
ATOM      7  C   UNL A   1      35.816  34.631  33.442  1.00  0.00     0.001 A 
ATOM      8  C   UNL A   1      37.053  34.313  32.843  1.00  0.00     0.122 A 
ATOM      9  C   UNL A   1      38.007  33.544  33.517  1.00  0.00     0.047 A 
ATOM     10  C   UNL A   1      37.772  33.138  34.828  1.00  0.00     0.004 A 
ATOM     11  C   UNL A   1      35.603  34.211  34.763  1.00  0.00     0.008 A 
ATOM     12  C   UNL A   1      36.572  33.471  35.449  1.00  0.00     0.001 A 
BRANCH   8  13
ATOM     13  O   UNL A   1      37.302  34.759  31.569  1.00  0.00    -0.493 OA
BRANCH  13  14
ATOM     14  C   UNL A   1      37.351  33.720  30.578  1.00  0.00     0.229 C 
BRANCH  14  15
ATOM     15  C   UNL A   1      38.292  34.113  29.436  1.00  0.00     0.041 C 
BRANCH  15  16
ATOM     16  C   UNL A   1      39.649  34.622  29.930  1.00  0.00     0.000 C 
ATOM     17  C   UNL A   1      40.538  35.182  28.837  1.00  0.00     0.004 C 
ENDBRANCH  15  16
ENDBRANCH  14  15
ENDBRANCH  13  14
ENDBRANCH   8  13
ENDBRANCH   6   7
ENDBRANCH   5   6
BRANCH   5  18
ATOM     18  N   UNL A   1      32.453  34.749  32.879  1.00  0.00    -0.347 N 
ATOM     19  H   UNL A   1      32.315  33.741  32.806  1.00  0.00     0.345 HD
ATOM     20  H   UNL A   1      31.613  35.231  32.559  1.00  0.00     0.345 HD
ATOM     21  H   UNL A   1      32.637  34.997  33.851  1.00  0.00     0.345 HD
ENDBRANCH   5  18
ENDBRANCH   1   5
BRANCH   3  22
ATOM     22  C   UNL A   1      34.324  35.403  28.968  1.00  0.00     0.118 C 
BRANCH  22  23
ATOM     23  C   UNL A   1      33.675  34.071  28.594  1.00  0.00     0.042 C 
BRANCH  23  24
ATOM     24  C   UNL A   1      34.628  32.973  28.131  1.00  0.00     0.118 C 
BRANCH  24  25
ATOM     25  N   UNL A   1      33.942  31.730  27.821  1.00  0.00    -0.352 N 
ATOM     26  C   UNL A   1      34.396  30.433  27.772  1.00  0.00     0.251 C 
ATOM     27  H   UNL A   1      32.986  31.834  27.610  1.00  0.00     0.163 HD
ATOM     28  O   UNL A   1      33.661  29.567  27.304  1.00  0.00    -0.269 OA
BRANCH  26  29
ATOM     29  C   UNL A   1      35.748  30.044  28.252  1.00  0.00     0.039 A 
ATOM     30  C   UNL A   1      36.805  30.062  27.332  1.00  0.00     0.014 A 
ATOM     31  C   UNL A   1      35.984  29.580  29.549  1.00  0.00     0.014 A 
ATOM     32  C   UNL A   1      38.090  29.664  27.719  1.00  0.00     0.010 A 
ATOM     33  C   UNL A   1      37.281  29.247  29.955  1.00  0.00     0.010 A 
ATOM     34  C   UNL A   1      38.348  29.276  29.042  1.00  0.00    -0.014 A 
BRANCH  34  35
ATOM     35  C   UNL A   1      39.719  28.888  29.476  1.00  0.00     0.031 A 
ATOM     36  C   UNL A   1      40.511  29.774  30.400  1.00  0.00     0.074 A 
ATOM     37  C   UNL A   1      40.279  27.758  29.003  1.00  0.00     0.049 A 
ATOM     38  N   UNL A   1      41.739  29.632  30.838  1.00  0.00    -0.248 NA
ATOM     39  C   UNL A   1      39.845  30.994  30.879  1.00  0.00     0.031 C 
ATOM     40  C   UNL A   1      39.642  26.828  28.070  1.00  0.00     0.029 A 
ATOM     41  N   UNL A   1      41.517  27.206  29.229  1.00  0.00    -0.354 N 
ATOM     42  C   UNL A   1      41.998  30.749  31.620  1.00  0.00     0.074 A 
ATOM     43  C   UNL A   1      40.813  31.581  31.568  1.00  0.00     0.031 C 
ATOM     44  C   UNL A   1      40.486  25.815  27.816  1.00  0.00     0.029 A 
ATOM     45  C   UNL A   1      41.735  26.039  28.539  1.00  0.00     0.049 A 
ATOM     46  H   UNL A   1      42.184  27.609  29.831  1.00  0.00     0.167 HD
ATOM     47  C   UNL A   1      43.111  31.049  32.333  1.00  0.00     0.037 A 
ATOM     48  C   UNL A   1      42.821  25.243  28.484  1.00  0.00     0.037 A 
ATOM     49  C   UNL A   1      44.277  30.207  32.419  1.00  0.00     0.049 A 
ATOM     50  C   UNL A   1      44.040  25.590  29.293  1.00  0.00     0.074 A 
ATOM     51  C   UNL A   1      45.420  30.392  33.179  1.00  0.00     0.029 A 
ATOM     52  N   UNL A   1      44.450  29.022  31.721  1.00  0.00    -0.354 N 
ATOM     53  N   UNL A   1      44.245  26.615  30.081  1.00  0.00    -0.248 NA
ATOM     54  C   UNL A   1      45.178  24.663  29.207  1.00  0.00     0.031 C 
ATOM     55  C   UNL A   1      46.303  29.341  32.906  1.00  0.00     0.029 A 
ATOM     56  C   UNL A   1      45.692  28.479  32.012  1.00  0.00     0.049 A 
ATOM     57  H   UNL A   1      43.790  28.626  31.108  1.00  0.00     0.167 HD
ATOM     58  C   UNL A   1      45.520  26.449  30.603  1.00  0.00     0.074 A 
ATOM     59  C   UNL A   1      46.039  25.214  30.052  1.00  0.00     0.031 C 
ATOM     60  C   UNL A   1      46.200  27.248  31.461  1.00  0.00     0.037 A 
BRANCH  47  61
ATOM     61  C   UNL A   1      43.126  32.350  33.082  1.00  0.00     0.064 A 
ATOM     62  C   UNL A   1      42.603  32.460  34.379  1.00  0.00     0.173 A 
ATOM     63  C   UNL A   1      43.709  33.492  32.512  1.00  0.00     0.173 A 
ATOM     64  F   UNL A   1      42.028  31.399  34.967  1.00  0.00    -0.203 F 
ATOM     65  C   UNL A   1      42.633  33.672  35.064  1.00  0.00     0.198 A 
ATOM     66  C   UNL A   1      43.763  34.695  33.210  1.00  0.00     0.198 A 
ATOM     67  F   UNL A   1      44.233  33.438  31.277  1.00  0.00    -0.203 F 
ATOM     68  F   UNL A   1      42.084  33.765  36.283  1.00  0.00    -0.200 F 
ATOM     69  C   UNL A   1      43.218  34.787  34.481  1.00  0.00     0.200 A 
ATOM     70  F   UNL A   1      44.342  35.767  32.651  1.00  0.00    -0.200 F 
ATOM     71  F   UNL A   1      43.252  35.951  35.145  1.00  0.00    -0.200 F 
ENDBRANCH  47  61
BRANCH  48  72
ATOM     72  C   UNL A   1      42.793  24.020  27.640  1.00  0.00     0.064 A 
ATOM     73  C   UNL A   1      42.442  22.778  28.184  1.00  0.00     0.173 A 
ATOM     74  C   UNL A   1      43.107  24.072  26.274  1.00  0.00     0.173 A 
ATOM     75  F   UNL A   1      42.156  22.677  29.491  1.00  0.00    -0.203 F 
ATOM     76  C   UNL A   1      42.418  21.629  27.398  1.00  0.00     0.198 A 
ATOM     77  C   UNL A   1      43.058  22.926  25.482  1.00  0.00     0.198 A 
ATOM     78  F   UNL A   1      43.446  25.238  25.706  1.00  0.00    -0.203 F 
ATOM     79  F   UNL A   1      42.116  20.447  27.950  1.00  0.00    -0.200 F 
ATOM     80  C   UNL A   1      42.720  21.705  26.046  1.00  0.00     0.200 A 
ATOM     81  F   UNL A   1      43.338  23.006  24.175  1.00  0.00    -0.200 F 
ATOM     82  F   UNL A   1      42.690  20.601  25.287  1.00  0.00    -0.200 F 
ENDBRANCH  48  72
BRANCH  60  83
ATOM     83  C   UNL A   1      47.570  26.804  31.880  1.00  0.00     0.064 A 
ATOM     84  C   UNL A   1      47.759  25.924  32.956  1.00  0.00     0.173 A 
ATOM     85  C   UNL A   1      48.704  27.232  31.174  1.00  0.00     0.173 A 
ATOM     86  F   UNL A   1      46.708  25.499  33.673  1.00  0.00    -0.203 F 
ATOM     87  C   UNL A   1      49.036  25.504  33.321  1.00  0.00     0.198 A 
ATOM     88  C   UNL A   1      49.977  26.789  31.525  1.00  0.00     0.198 A 
ATOM     89  F   UNL A   1      48.577  28.070  30.135  1.00  0.00    -0.203 F 
ATOM     90  F   UNL A   1      49.197  24.696  34.377  1.00  0.00    -0.200 F 
ATOM     91  C   UNL A   1      50.142  25.931  32.601  1.00  0.00     0.200 A 
ATOM     92  F   UNL A   1      51.043  27.195  30.822  1.00  0.00    -0.200 F 
ATOM     93  F   UNL A   1      51.369  25.520  32.951  1.00  0.00    -0.200 F 
ENDBRANCH  60  83
ENDBRANCH  34  35
ENDBRANCH  26  29
ENDBRANCH  24  25
ENDBRANCH  23  24
ENDBRANCH  22  23
ENDBRANCH   3  22
TORSDOF 17
ENDMDL
MODEL 3
REMARK VINA RESULT:      -9.8      4.300     10.241
REMARK SMILES CCCCOc1ccccc1C[C@@H]([NH3+])C(=O)NCCCNC(=O)c1ccc(-c2c3nc(c(-c4c(F)c(F)c(F)c(F)c4F)c4ccc([nH]4)c(-c4c(F)c(F)c(F)c(F)c4F)c4nc(c(-c5c(F)c(F)c(F)c(F)c5F)c5ccc2[nH]5)C=C4)C=C3)cc1
REMARK SMILES IDX 15 1 16 2 17 3 13 5 12 6 11 7 6 8 7 9 8 10 10 11 9 12 5 13
REMARK SMILES IDX 4 14 3 15 2 16 1 17 14 18 18 22 19 23 20 24 21 25 22 26
REMARK SMILES IDX 23 28 24 29 25 30 86 31 26 32 85 33 27 34 28 35 29 36 79 37
REMARK SMILES IDX 30 38 84 39 78 40 80 41 31 42 83 43 77 44 76 45 32 47 64 48
REMARK SMILES IDX 44 49 63 50 45 51 48 52 62 53 81 54 46 55 47 56 61 58 82 59
REMARK SMILES IDX 49 60 33 61 34 62 42 63 35 64 36 65 40 66 43 67 37 68 38 69
REMARK SMILES IDX 41 70 39 71 65 72 66 73 74 74 67 75 68 76 72 77 75 78 69 79
REMARK SMILES IDX 70 80 73 81 71 82 50 83 51 84 59 85 52 86 53 87 57 88 60 89
REMARK SMILES IDX 54 90 55 91 58 92 56 93
REMARK H PARENT 17 4 14 19 14 20 14 21 21 27 80 46 48 57
REMARK Flexibility Score: inf
ROOT
ATOM      1  C   UNL A   1      33.032  25.814  21.841  1.00  0.00     0.278 C 
ATOM      2  O   UNL A   1      33.276  25.358  20.719  1.00  0.00    -0.268 OA
ATOM      3  N   UNL A   1      32.637  27.122  21.910  1.00  0.00    -0.351 N 
ATOM      4  H   UNL A   1      32.733  27.627  21.070  1.00  0.00     0.163 HD
ENDROOT
BRANCH   1   5
ATOM      5  C   UNL A   1      33.209  24.931  23.105  1.00  0.00     0.275 C 
BRANCH   5   6
ATOM      6  C   UNL A   1      33.813  23.591  22.652  1.00  0.00     0.115 C 
BRANCH   6   7
ATOM      7  C   UNL A   1      34.630  22.721  23.587  1.00  0.00     0.001 A 
ATOM      8  C   UNL A   1      34.043  21.612  24.231  1.00  0.00     0.122 A 
ATOM      9  C   UNL A   1      34.819  20.704  24.960  1.00  0.00     0.047 A 
ATOM     10  C   UNL A   1      36.203  20.849  25.002  1.00  0.00     0.004 A 
ATOM     11  C   UNL A   1      36.027  22.845  23.643  1.00  0.00     0.008 A 
ATOM     12  C   UNL A   1      36.805  21.918  24.344  1.00  0.00     0.001 A 
BRANCH   8  13
ATOM     13  O   UNL A   1      32.684  21.443  24.145  1.00  0.00    -0.493 OA
BRANCH  13  14
ATOM     14  C   UNL A   1      32.017  21.358  25.414  1.00  0.00     0.229 C 
BRANCH  14  15
ATOM     15  C   UNL A   1      31.385  22.704  25.780  1.00  0.00     0.041 C 
BRANCH  15  16
ATOM     16  C   UNL A   1      32.160  23.449  26.870  1.00  0.00     0.000 C 
ATOM     17  C   UNL A   1      33.112  22.576  27.662  1.00  0.00     0.004 C 
ENDBRANCH  15  16
ENDBRANCH  14  15
ENDBRANCH  13  14
ENDBRANCH   8  13
ENDBRANCH   6   7
ENDBRANCH   5   6
BRANCH   5  18
ATOM     18  N   UNL A   1      33.956  25.682  24.136  1.00  0.00    -0.347 N 
ATOM     19  H   UNL A   1      34.007  26.666  23.870  1.00  0.00     0.345 HD
ATOM     20  H   UNL A   1      34.899  25.303  24.217  1.00  0.00     0.345 HD
ATOM     21  H   UNL A   1      33.478  25.597  25.033  1.00  0.00     0.345 HD
ENDBRANCH   5  18
ENDBRANCH   1   5
BRANCH   3  22
ATOM     22  C   UNL A   1      32.095  27.893  23.023  1.00  0.00     0.118 C 
BRANCH  22  23
ATOM     23  C   UNL A   1      32.980  29.071  23.432  1.00  0.00     0.042 C 
BRANCH  23  24
ATOM     24  C   UNL A   1      33.288  29.186  24.922  1.00  0.00     0.118 C 
BRANCH  24  25
ATOM     25  N   UNL A   1      32.687  30.363  25.527  1.00  0.00    -0.352 N 
ATOM     26  C   UNL A   1      33.012  31.061  26.666  1.00  0.00     0.251 C 
ATOM     27  H   UNL A   1      31.913  30.722  25.037  1.00  0.00     0.163 HD
ATOM     28  O   UNL A   1      32.235  31.921  27.073  1.00  0.00    -0.269 OA
BRANCH  26  29
ATOM     29  C   UNL A   1      34.261  30.802  27.430  1.00  0.00     0.039 A 
ATOM     30  C   UNL A   1      34.407  29.555  28.052  1.00  0.00     0.014 A 
ATOM     31  C   UNL A   1      35.244  31.777  27.623  1.00  0.00     0.014 A 
ATOM     32  C   UNL A   1      35.543  29.273  28.819  1.00  0.00     0.010 A 
ATOM     33  C   UNL A   1      36.410  31.473  28.333  1.00  0.00     0.010 A 
ATOM     34  C   UNL A   1      36.570  30.220  28.948  1.00  0.00    -0.014 A 
BRANCH  34  35
ATOM     35  C   UNL A   1      37.802  29.918  29.729  1.00  0.00     0.031 A 
ATOM     36  C   UNL A   1      38.842  28.973  29.187  1.00  0.00     0.074 A 
ATOM     37  C   UNL A   1      37.970  30.456  30.953  1.00  0.00     0.049 A 
ATOM     38  N   UNL A   1      39.947  28.545  29.748  1.00  0.00    -0.248 NA
ATOM     39  C   UNL A   1      38.598  28.419  27.848  1.00  0.00     0.031 C 
ATOM     40  C   UNL A   1      37.025  31.354  31.616  1.00  0.00     0.029 A 
ATOM     41  N   UNL A   1      38.989  30.314  31.863  1.00  0.00    -0.354 N 
ATOM     42  C   UNL A   1      40.514  27.657  28.843  1.00  0.00     0.074 A 
ATOM     43  C   UNL A   1      39.614  27.578  27.712  1.00  0.00     0.031 C 
ATOM     44  C   UNL A   1      37.514  31.694  32.820  1.00  0.00     0.029 A 
ATOM     45  C   UNL A   1      38.789  31.013  33.028  1.00  0.00     0.049 A 
ATOM     46  H   UNL A   1      39.789  29.763  31.696  1.00  0.00     0.167 HD
ATOM     47  C   UNL A   1      41.687  26.983  28.936  1.00  0.00     0.037 A 
ATOM     48  C   UNL A   1      39.541  31.091  34.144  1.00  0.00     0.037 A 
ATOM     49  C   UNL A   1      42.604  27.087  30.041  1.00  0.00     0.049 A 
ATOM     50  C   UNL A   1      40.843  30.344  34.218  1.00  0.00     0.074 A 
ATOM     51  C   UNL A   1      43.851  26.502  30.185  1.00  0.00     0.029 A 
ATOM     52  N   UNL A   1      42.374  27.823  31.193  1.00  0.00    -0.354 N 
ATOM     53  N   UNL A   1      41.400  29.561  33.327  1.00  0.00    -0.248 NA
ATOM     54  C   UNL A   1      41.625  30.495  35.454  1.00  0.00     0.031 C 
ATOM     55  C   UNL A   1      44.356  26.849  31.443  1.00  0.00     0.029 A 
ATOM     56  C   UNL A   1      43.445  27.686  32.063  1.00  0.00     0.049 A 
ATOM     57  H   UNL A   1      41.569  28.362  31.368  1.00  0.00     0.167 HD
ATOM     58  C   UNL A   1      42.603  29.146  33.880  1.00  0.00     0.074 A 
ATOM     59  C   UNL A   1      42.704  29.774  35.181  1.00  0.00     0.031 C 
ATOM     60  C   UNL A   1      43.538  28.317  33.355  1.00  0.00     0.037 A 
BRANCH  47  61
ATOM     61  C   UNL A   1      42.049  26.064  27.805  1.00  0.00     0.064 A 
ATOM     62  C   UNL A   1      41.567  24.749  27.742  1.00  0.00     0.173 A 
ATOM     63  C   UNL A   1      42.856  26.518  26.750  1.00  0.00     0.173 A 
ATOM     64  F   UNL A   1      40.798  24.263  28.729  1.00  0.00    -0.203 F 
ATOM     65  C   UNL A   1      41.905  23.911  26.681  1.00  0.00     0.198 A 
ATOM     66  C   UNL A   1      43.168  25.687  25.677  1.00  0.00     0.198 A 
ATOM     67  F   UNL A   1      43.335  27.771  26.757  1.00  0.00    -0.203 F 
ATOM     68  F   UNL A   1      41.471  22.642  26.667  1.00  0.00    -0.200 F 
ATOM     69  C   UNL A   1      42.700  24.383  25.648  1.00  0.00     0.200 A 
ATOM     70  F   UNL A   1      43.925  26.149  24.673  1.00  0.00    -0.200 F 
ATOM     71  F   UNL A   1      43.019  23.577  24.625  1.00  0.00    -0.200 F 
ENDBRANCH  47  61
BRANCH  48  72
ATOM     72  C   UNL A   1      39.083  31.932  35.280  1.00  0.00     0.064 A 
ATOM     73  C   UNL A   1      39.372  33.301  35.324  1.00  0.00     0.173 A 
ATOM     74  C   UNL A   1      38.341  31.385  36.337  1.00  0.00     0.173 A 
ATOM     75  F   UNL A   1      40.099  33.863  34.347  1.00  0.00    -0.203 F 
ATOM     76  C   UNL A   1      38.949  34.093  36.390  1.00  0.00     0.198 A 
ATOM     77  C   UNL A   1      37.896  32.181  37.390  1.00  0.00     0.198 A 
ATOM     78  F   UNL A   1      38.036  30.079  36.339  1.00  0.00    -0.203 F 
ATOM     79  F   UNL A   1      39.271  35.392  36.427  1.00  0.00    -0.200 F 
ATOM     80  C   UNL A   1      38.204  33.534  37.419  1.00  0.00     0.200 A 
ATOM     81  F   UNL A   1      37.167  31.640  38.375  1.00  0.00    -0.200 F 
ATOM     82  F   UNL A   1      37.790  34.296  38.440  1.00  0.00    -0.200 F 
ENDBRANCH  48  72
BRANCH  60  83
ATOM     83  C   UNL A   1      44.769  28.059  34.175  1.00  0.00     0.064 A 
ATOM     84  C   UNL A   1      44.849  26.970  35.056  1.00  0.00     0.173 A 
ATOM     85  C   UNL A   1      45.894  28.887  34.049  1.00  0.00     0.173 A 
ATOM     86  F   UNL A   1      43.794  26.159  35.224  1.00  0.00    -0.203 F 
ATOM     87  C   UNL A   1      46.006  26.732  35.795  1.00  0.00     0.198 A 
ATOM     88  C   UNL A   1      47.058  28.630  34.770  1.00  0.00     0.198 A 
ATOM     89  F   UNL A   1      45.870  29.938  33.217  1.00  0.00    -0.203 F 
ATOM     90  F   UNL A   1      46.046  25.710  36.661  1.00  0.00    -0.200 F 
ATOM     91  C   UNL A   1      47.110  27.557  35.646  1.00  0.00     0.200 A 
ATOM     92  F   UNL A   1      48.127  29.423  34.617  1.00  0.00    -0.200 F 
ATOM     93  F   UNL A   1      48.223  27.321  36.354  1.00  0.00    -0.200 F 
ENDBRANCH  60  83
ENDBRANCH  34  35
ENDBRANCH  26  29
ENDBRANCH  24  25
ENDBRANCH  23  24
ENDBRANCH  22  23
ENDBRANCH   3  22
TORSDOF 17
ENDMDL
