MODEL 1
REMARK VINA RESULT:     -12.2      0.000      0.000
REMARK SMILES O=C(NCCCNC(=O)[C@@]1(c2ccccc2)CCCC[NH2+]1)c1ccc(-c2c3nc(c(-c4c(F)c(F)c(F)c(F)c4F)c4ccc([nH]4)c(-c4c(F)c(F)c(F)c(F)c4F)c4nc(c(-c5c(F)c(F)c(F)c(F)c5F)c5ccc2[nH]5)C=C4)C=C3)cc1
REMARK SMILES IDX 4 1 3 2 1 3 2 4 22 6 23 7 84 8 24 9 83 10 25 11 26 12 27 13
REMARK SMILES IDX 77 14 28 15 82 16 76 17 78 18 29 19 81 20 75 21 74 22 30 24
REMARK SMILES IDX 62 25 42 26 61 27 43 28 46 29 60 30 79 31 44 32 45 33 59 35
REMARK SMILES IDX 80 36 47 37 31 38 32 39 40 40 33 41 34 42 38 43 41 44 35 45
REMARK SMILES IDX 36 46 39 47 37 48 63 49 64 50 72 51 65 52 66 53 70 54 73 55
REMARK SMILES IDX 67 56 68 57 71 58 69 59 48 60 49 61 57 62 50 63 51 64 55 65
REMARK SMILES IDX 58 66 52 67 53 68 56 69 54 70 5 71 6 72 7 73 8 74 9 76 10 77
REMARK SMILES IDX 17 78 21 79 18 80 20 81 19 84 11 85 12 86 16 87 13 88 15 89
REMARK SMILES IDX 14 90
REMARK H PARENT 3 5 78 23 46 34 7 75 21 82 21 83
REMARK Flexibility Score: inf
ROOT
ATOM      1  C   UNL A   1      32.715  32.410  27.010  1.00  0.00     0.118 C 
ENDROOT
BRANCH   1   2
ATOM      2  N   UNL A   1      32.497  33.781  27.454  1.00  0.00    -0.352 N 
ATOM      3  O   UNL A   1      32.666  35.610  28.761  1.00  0.00    -0.269 OA
ATOM      4  C   UNL A   1      33.100  34.507  28.456  1.00  0.00     0.251 C 
ATOM      5  H   UNL A   1      31.803  34.268  26.954  1.00  0.00     0.163 HD
BRANCH   4   6
ATOM      6  C   UNL A   1      34.250  33.940  29.193  1.00  0.00     0.039 A 
ATOM      7  C   UNL A   1      35.549  34.356  28.915  1.00  0.00     0.014 A 
ATOM      8  C   UNL A   1      34.023  32.977  30.180  1.00  0.00     0.014 A 
ATOM      9  C   UNL A   1      36.625  33.667  29.454  1.00  0.00     0.010 A 
ATOM     10  C   UNL A   1      35.108  32.375  30.825  1.00  0.00     0.010 A 
ATOM     11  C   UNL A   1      36.419  32.685  30.435  1.00  0.00    -0.014 A 
BRANCH  11  12
ATOM     12  C   UNL A   1      37.597  32.056  31.083  1.00  0.00     0.031 A 
ATOM     13  C   UNL A   1      38.033  32.451  32.464  1.00  0.00     0.074 A 
ATOM     14  C   UNL A   1      38.263  31.099  30.408  1.00  0.00     0.049 A 
ATOM     15  N   UNL A   1      39.052  32.017  33.162  1.00  0.00    -0.248 NA
ATOM     16  C   UNL A   1      37.230  33.475  33.150  1.00  0.00     0.031 C 
ATOM     17  C   UNL A   1      37.936  30.645  29.054  1.00  0.00     0.029 A 
ATOM     18  N   UNL A   1      39.339  30.327  30.764  1.00  0.00    -0.354 N 
ATOM     19  C   UNL A   1      39.034  32.735  34.351  1.00  0.00     0.074 A 
ATOM     20  C   UNL A   1      37.912  33.646  34.274  1.00  0.00     0.031 C 
ATOM     21  C   UNL A   1      38.763  29.650  28.711  1.00  0.00     0.029 A 
ATOM     22  C   UNL A   1      39.729  29.451  29.783  1.00  0.00     0.049 A 
ATOM     23  H   UNL A   1      39.788  30.397  31.638  1.00  0.00     0.167 HD
ATOM     24  C   UNL A   1      39.879  32.636  35.406  1.00  0.00     0.037 A 
ATOM     25  C   UNL A   1      40.772  28.604  29.732  1.00  0.00     0.037 A 
ATOM     26  C   UNL A   1      40.978  31.707  35.478  1.00  0.00     0.049 A 
ATOM     27  C   UNL A   1      41.697  28.521  30.908  1.00  0.00     0.074 A 
ATOM     28  C   UNL A   1      41.858  31.488  36.524  1.00  0.00     0.029 A 
ATOM     29  N   UNL A   1      41.352  30.845  34.455  1.00  0.00    -0.354 N 
ATOM     30  N   UNL A   1      41.649  29.180  32.041  1.00  0.00    -0.248 NA
ATOM     31  C   UNL A   1      42.820  27.583  30.802  1.00  0.00     0.031 C 
ATOM     32  C   UNL A   1      42.794  30.532  36.116  1.00  0.00     0.029 A 
ATOM     33  C   UNL A   1      42.469  30.115  34.835  1.00  0.00     0.049 A 
ATOM     34  H   UNL A   1      40.893  30.764  33.588  1.00  0.00     0.167 HD
ATOM     35  C   UNL A   1      42.730  28.736  32.785  1.00  0.00     0.074 A 
ATOM     36  C   UNL A   1      43.404  27.734  31.983  1.00  0.00     0.031 C 
ATOM     37  C   UNL A   1      43.130  29.128  34.019  1.00  0.00     0.037 A 
BRANCH  24  38
ATOM     38  C   UNL A   1      39.669  33.577  36.557  1.00  0.00     0.064 A 
ATOM     39  C   UNL A   1      40.261  34.848  36.599  1.00  0.00     0.173 A 
ATOM     40  C   UNL A   1      38.835  33.211  37.626  1.00  0.00     0.173 A 
ATOM     41  F   UNL A   1      41.076  35.245  35.608  1.00  0.00    -0.203 F 
ATOM     42  C   UNL A   1      40.052  35.703  37.678  1.00  0.00     0.198 A 
ATOM     43  C   UNL A   1      38.605  34.080  38.690  1.00  0.00     0.198 A 
ATOM     44  F   UNL A   1      38.236  32.011  37.636  1.00  0.00    -0.203 F 
ATOM     45  F   UNL A   1      40.670  36.892  37.718  1.00  0.00    -0.200 F 
ATOM     46  C   UNL A   1      39.220  35.321  38.720  1.00  0.00     0.200 A 
ATOM     47  F   UNL A   1      37.790  33.714  39.689  1.00  0.00    -0.200 F 
ATOM     48  F   UNL A   1      39.019  36.147  39.756  1.00  0.00    -0.200 F 
ENDBRANCH  24  38
BRANCH  25  49
ATOM     49  C   UNL A   1      40.989  27.800  28.503  1.00  0.00     0.064 A 
ATOM     50  C   UNL A   1      40.350  26.568  28.319  1.00  0.00     0.173 A 
ATOM     51  C   UNL A   1      41.791  28.284  27.457  1.00  0.00     0.173 A 
ATOM     52  F   UNL A   1      39.585  26.058  29.295  1.00  0.00    -0.203 F 
ATOM     53  C   UNL A   1      40.506  25.850  27.135  1.00  0.00     0.198 A 
ATOM     54  C   UNL A   1      41.922  27.580  26.264  1.00  0.00     0.198 A 
ATOM     55  F   UNL A   1      42.414  29.467  27.582  1.00  0.00    -0.203 F 
ATOM     56  F   UNL A   1      39.902  24.662  26.992  1.00  0.00    -0.200 F 
ATOM     57  C   UNL A   1      41.282  26.362  26.105  1.00  0.00     0.200 A 
ATOM     58  F   UNL A   1      42.652  28.091  25.264  1.00  0.00    -0.200 F 
ATOM     59  F   UNL A   1      41.411  25.680  24.959  1.00  0.00    -0.200 F 
ENDBRANCH  25  49
BRANCH  37  60
ATOM     60  C   UNL A   1      44.346  28.458  34.583  1.00  0.00     0.064 A 
ATOM     61  C   UNL A   1      44.256  27.252  35.294  1.00  0.00     0.173 A 
ATOM     62  C   UNL A   1      45.621  29.007  34.376  1.00  0.00     0.173 A 
ATOM     63  F   UNL A   1      43.057  26.698  35.533  1.00  0.00    -0.203 F 
ATOM     64  C   UNL A   1      45.397  26.629  35.791  1.00  0.00     0.198 A 
ATOM     65  C   UNL A   1      46.761  28.367  34.853  1.00  0.00     0.198 A 
ATOM     66  F   UNL A   1      45.759  30.158  33.701  1.00  0.00    -0.203 F 
ATOM     67  F   UNL A   1      45.283  25.499  36.503  1.00  0.00    -0.200 F 
ATOM     68  C   UNL A   1      46.648  27.182  35.564  1.00  0.00     0.200 A 
ATOM     69  F   UNL A   1      47.970  28.898  34.622  1.00  0.00    -0.200 F 
ATOM     70  F   UNL A   1      47.746  26.577  36.037  1.00  0.00    -0.200 F 
ENDBRANCH  37  60
ENDBRANCH  11  12
ENDBRANCH   4   6
ENDBRANCH   1   2
BRANCH   1  71
ATOM     71  C   UNL A   1      31.451  31.719  26.525  1.00  0.00     0.042 C 
BRANCH  71  72
ATOM     72  C   UNL A   1      31.637  30.255  26.180  1.00  0.00     0.118 C 
BRANCH  72  73
ATOM     73  N   UNL A   1      32.659  30.030  25.170  1.00  0.00    -0.350 N 
ATOM     74  C   UNL A   1      32.742  29.055  24.211  1.00  0.00     0.286 C 
ATOM     75  H   UNL A   1      33.403  30.676  25.176  1.00  0.00     0.163 HD
ATOM     76  O   UNL A   1      33.531  29.281  23.288  1.00  0.00    -0.267 OA
BRANCH  74  77
ATOM     77  C   UNL A   1      31.939  27.699  24.342  1.00  0.00     0.201 C 
ATOM     78  C   UNL A   1      32.587  26.587  23.475  1.00  0.00     0.085 C 
ATOM     79  N   UNL A   1      31.963  27.305  25.787  1.00  0.00    -0.330 N 
ATOM     80  C   UNL A   1      33.934  26.083  23.997  1.00  0.00     0.013 C 
ATOM     81  C   UNL A   1      33.291  26.927  26.268  1.00  0.00     0.261 C 
ATOM     82  H   UNL A   1      31.336  26.511  25.915  1.00  0.00     0.347 HD
ATOM     83  H   UNL A   1      31.672  28.121  26.325  1.00  0.00     0.347 HD
ATOM     84  C   UNL A   1      33.858  25.756  25.480  1.00  0.00     0.062 C 
BRANCH  77  85
ATOM     85  C   UNL A   1      30.482  27.855  23.842  1.00  0.00     0.022 A 
ATOM     86  C   UNL A   1      29.520  26.859  24.098  1.00  0.00     0.011 A 
ATOM     87  C   UNL A   1      30.069  29.000  23.134  1.00  0.00     0.011 A 
ATOM     88  C   UNL A   1      28.181  27.046  23.751  1.00  0.00     0.001 A 
ATOM     89  C   UNL A   1      28.724  29.196  22.808  1.00  0.00     0.001 A 
ATOM     90  C   UNL A   1      27.780  28.224  23.127  1.00  0.00     0.000 A 
ENDBRANCH  77  85
ENDBRANCH  74  77
ENDBRANCH  72  73
ENDBRANCH  71  72
ENDBRANCH   1  71
TORSDOF 11
ENDMDL
MODEL 2
REMARK VINA RESULT:     -12.1      0.095      1.642
REMARK SMILES O=C(NCCCNC(=O)[C@@]1(c2ccccc2)CCCC[NH2+]1)c1ccc(-c2c3nc(c(-c4c(F)c(F)c(F)c(F)c4F)c4ccc([nH]4)c(-c4c(F)c(F)c(F)c(F)c4F)c4nc(c(-c5c(F)c(F)c(F)c(F)c5F)c5ccc2[nH]5)C=C4)C=C3)cc1
REMARK SMILES IDX 4 1 3 2 1 3 2 4 22 6 23 7 84 8 24 9 83 10 25 11 26 12 27 13
REMARK SMILES IDX 77 14 28 15 82 16 76 17 78 18 29 19 81 20 75 21 74 22 30 24
REMARK SMILES IDX 62 25 42 26 61 27 43 28 46 29 60 30 79 31 44 32 45 33 59 35
REMARK SMILES IDX 80 36 47 37 31 38 32 39 40 40 33 41 34 42 38 43 41 44 35 45
REMARK SMILES IDX 36 46 39 47 37 48 63 49 64 50 72 51 65 52 66 53 70 54 73 55
REMARK SMILES IDX 67 56 68 57 71 58 69 59 48 60 49 61 57 62 50 63 51 64 55 65
REMARK SMILES IDX 58 66 52 67 53 68 56 69 54 70 5 71 6 72 7 73 8 74 9 76 10 77
REMARK SMILES IDX 17 78 21 79 18 80 20 81 19 84 11 85 12 86 16 87 13 88 15 89
REMARK SMILES IDX 14 90
REMARK H PARENT 3 5 78 23 46 34 7 75 21 82 21 83
REMARK Flexibility Score: inf
ROOT
ATOM      1  C   UNL A   1      32.680  32.391  27.068  1.00  0.00     0.118 C 
ENDROOT
BRANCH   1   2
ATOM      2  N   UNL A   1      32.482  33.773  27.485  1.00  0.00    -0.352 N 
ATOM      3  O   UNL A   1      32.682  35.627  28.753  1.00  0.00    -0.269 OA
ATOM      4  C   UNL A   1      33.100  34.512  28.468  1.00  0.00     0.251 C 
ATOM      5  H   UNL A   1      31.791  34.259  26.980  1.00  0.00     0.163 HD
BRANCH   4   6
ATOM      6  C   UNL A   1      34.247  33.945  29.210  1.00  0.00     0.039 A 
ATOM      7  C   UNL A   1      35.552  34.319  28.899  1.00  0.00     0.014 A 
ATOM      8  C   UNL A   1      34.012  33.025  30.236  1.00  0.00     0.014 A 
ATOM      9  C   UNL A   1      36.619  33.625  29.448  1.00  0.00     0.010 A 
ATOM     10  C   UNL A   1      35.093  32.422  30.887  1.00  0.00     0.010 A 
ATOM     11  C   UNL A   1      36.404  32.686  30.467  1.00  0.00    -0.014 A 
BRANCH  11  12
ATOM     12  C   UNL A   1      37.577  32.054  31.122  1.00  0.00     0.031 A 
ATOM     13  C   UNL A   1      38.004  32.445  32.507  1.00  0.00     0.074 A 
ATOM     14  C   UNL A   1      38.246  31.097  30.450  1.00  0.00     0.049 A 
ATOM     15  N   UNL A   1      39.018  32.008  33.210  1.00  0.00    -0.248 NA
ATOM     16  C   UNL A   1      37.199  33.469  33.190  1.00  0.00     0.031 C 
ATOM     17  C   UNL A   1      37.927  30.646  29.093  1.00  0.00     0.029 A 
ATOM     18  N   UNL A   1      39.318  30.323  30.812  1.00  0.00    -0.354 N 
ATOM     19  C   UNL A   1      38.994  32.723  34.401  1.00  0.00     0.074 A 
ATOM     20  C   UNL A   1      37.873  33.637  34.319  1.00  0.00     0.031 C 
ATOM     21  C   UNL A   1      38.755  29.650  28.753  1.00  0.00     0.029 A 
ATOM     22  C   UNL A   1      39.713  29.448  29.831  1.00  0.00     0.049 A 
ATOM     23  H   UNL A   1      39.761  30.389  31.689  1.00  0.00     0.167 HD
ATOM     24  C   UNL A   1      39.831  32.620  35.461  1.00  0.00     0.037 A 
ATOM     25  C   UNL A   1      40.755  28.598  29.785  1.00  0.00     0.037 A 
ATOM     26  C   UNL A   1      40.928  31.690  35.539  1.00  0.00     0.049 A 
ATOM     27  C   UNL A   1      41.671  28.511  30.968  1.00  0.00     0.074 A 
ATOM     28  C   UNL A   1      41.800  31.467  36.590  1.00  0.00     0.029 A 
ATOM     29  N   UNL A   1      41.307  30.829  34.517  1.00  0.00    -0.354 N 
ATOM     30  N   UNL A   1      41.617  29.168  32.101  1.00  0.00    -0.248 NA
ATOM     31  C   UNL A   1      42.794  27.572  30.867  1.00  0.00     0.031 C 
ATOM     32  C   UNL A   1      42.738  30.510  36.187  1.00  0.00     0.029 A 
ATOM     33  C   UNL A   1      42.420  30.097  34.903  1.00  0.00     0.049 A 
ATOM     34  H   UNL A   1      40.854  30.750  33.647  1.00  0.00     0.167 HD
ATOM     35  C   UNL A   1      42.693  28.721  32.852  1.00  0.00     0.074 A 
ATOM     36  C   UNL A   1      43.370  27.719  32.052  1.00  0.00     0.031 C 
ATOM     37  C   UNL A   1      43.085  29.110  34.089  1.00  0.00     0.037 A 
BRANCH  24  38
ATOM     38  C   UNL A   1      39.615  33.560  36.613  1.00  0.00     0.064 A 
ATOM     39  C   UNL A   1      38.815  33.218  37.713  1.00  0.00     0.173 A 
ATOM     40  C   UNL A   1      40.243  34.816  36.628  1.00  0.00     0.173 A 
ATOM     41  F   UNL A   1      38.182  32.035  37.746  1.00  0.00    -0.203 F 
ATOM     42  C   UNL A   1      38.628  34.108  38.770  1.00  0.00     0.198 A 
ATOM     43  C   UNL A   1      40.078  35.691  37.699  1.00  0.00     0.198 A 
ATOM     44  F   UNL A   1      41.026  35.192  35.606  1.00  0.00    -0.203 F 
ATOM     45  F   UNL A   1      37.819  33.777  39.786  1.00  0.00    -0.200 F 
ATOM     46  C   UNL A   1      39.263  35.340  38.764  1.00  0.00     0.200 A 
ATOM     47  F   UNL A   1      40.703  36.876  37.698  1.00  0.00    -0.200 F 
ATOM     48  F   UNL A   1      39.084  36.193  39.783  1.00  0.00    -0.200 F 
ENDBRANCH  24  38
BRANCH  25  49
ATOM     49  C   UNL A   1      40.978  27.797  28.556  1.00  0.00     0.064 A 
ATOM     50  C   UNL A   1      40.331  26.571  28.362  1.00  0.00     0.173 A 
ATOM     51  C   UNL A   1      41.796  28.277  27.521  1.00  0.00     0.173 A 
ATOM     52  F   UNL A   1      39.552  26.064  29.327  1.00  0.00    -0.203 F 
ATOM     53  C   UNL A   1      40.494  25.855  27.177  1.00  0.00     0.198 A 
ATOM     54  C   UNL A   1      41.934  27.576  26.327  1.00  0.00     0.198 A 
ATOM     55  F   UNL A   1      42.427  29.454  27.656  1.00  0.00    -0.203 F 
ATOM     56  F   UNL A   1      39.882  24.673  27.023  1.00  0.00    -0.200 F 
ATOM     57  C   UNL A   1      41.286  26.363  26.157  1.00  0.00     0.200 A 
ATOM     58  F   UNL A   1      42.680  28.084  25.337  1.00  0.00    -0.200 F 
ATOM     59  F   UNL A   1      41.421  25.684  25.010  1.00  0.00    -0.200 F 
ENDBRANCH  25  49
BRANCH  37  60
ATOM     60  C   UNL A   1      44.296  28.436  34.660  1.00  0.00     0.064 A 
ATOM     61  C   UNL A   1      45.578  28.986  34.514  1.00  0.00     0.173 A 
ATOM     62  C   UNL A   1      44.169  27.248  35.396  1.00  0.00     0.173 A 
ATOM     63  F   UNL A   1      45.753  30.111  33.803  1.00  0.00    -0.203 F 
ATOM     64  C   UNL A   1      46.691  28.362  35.070  1.00  0.00     0.198 A 
ATOM     65  C   UNL A   1      45.280  26.641  35.971  1.00  0.00     0.198 A 
ATOM     66  F   UNL A   1      42.963  26.684  35.564  1.00  0.00    -0.203 F 
ATOM     67  F   UNL A   1      47.912  28.882  34.883  1.00  0.00    -0.200 F 
ATOM     68  C   UNL A   1      46.540  27.195  35.804  1.00  0.00     0.200 A 
ATOM     69  F   UNL A   1      45.131  25.519  36.691  1.00  0.00    -0.200 F 
ATOM     70  F   UNL A   1      47.612  26.599  36.345  1.00  0.00    -0.200 F 
ENDBRANCH  37  60
ENDBRANCH  11  12
ENDBRANCH   4   6
ENDBRANCH   1   2
BRANCH   1  71
ATOM     71  C   UNL A   1      31.429  31.743  26.496  1.00  0.00     0.042 C 
BRANCH  71  72
ATOM     72  C   UNL A   1      31.595  30.279  26.141  1.00  0.00     0.118 C 
BRANCH  72  73
ATOM     73  N   UNL A   1      32.646  30.043  25.164  1.00  0.00    -0.350 N 
ATOM     74  C   UNL A   1      32.758  29.055  24.220  1.00  0.00     0.286 C 
ATOM     75  H   UNL A   1      33.388  30.690  25.183  1.00  0.00     0.163 HD
ATOM     76  O   UNL A   1      33.573  29.270  23.318  1.00  0.00    -0.267 OA
BRANCH  74  77
ATOM     77  C   UNL A   1      31.954  27.699  24.347  1.00  0.00     0.201 C 
ATOM     78  C   UNL A   1      32.612  26.585  23.490  1.00  0.00     0.085 C 
ATOM     79  N   UNL A   1      31.962  27.310  25.793  1.00  0.00    -0.330 N 
ATOM     80  C   UNL A   1      33.953  26.082  24.029  1.00  0.00     0.013 C 
ATOM     81  C   UNL A   1      33.284  26.934  26.290  1.00  0.00     0.261 C 
ATOM     82  H   UNL A   1      31.333  26.516  25.916  1.00  0.00     0.347 HD
ATOM     83  H   UNL A   1      31.664  28.127  26.325  1.00  0.00     0.347 HD
ATOM     84  C   UNL A   1      33.860  25.760  25.512  1.00  0.00     0.062 C 
BRANCH  77  85
ATOM     85  C   UNL A   1      30.503  27.854  23.829  1.00  0.00     0.022 A 
ATOM     86  C   UNL A   1      29.525  26.884  24.122  1.00  0.00     0.011 A 
ATOM     87  C   UNL A   1      30.110  28.973  23.070  1.00  0.00     0.011 A 
ATOM     88  C   UNL A   1      28.191  27.074  23.757  1.00  0.00     0.001 A 
ATOM     89  C   UNL A   1      28.771  29.172  22.726  1.00  0.00     0.001 A 
ATOM     90  C   UNL A   1      27.811  28.229  23.080  1.00  0.00     0.000 A 
ENDBRANCH  77  85
ENDBRANCH  74  77
ENDBRANCH  72  73
ENDBRANCH  71  72
ENDBRANCH   1  71
TORSDOF 11
ENDMDL
MODEL 3
REMARK VINA RESULT:     -12.1      0.429      7.715
REMARK SMILES O=C(NCCCNC(=O)[C@@]1(c2ccccc2)CCCC[NH2+]1)c1ccc(-c2c3nc(c(-c4c(F)c(F)c(F)c(F)c4F)c4ccc([nH]4)c(-c4c(F)c(F)c(F)c(F)c4F)c4nc(c(-c5c(F)c(F)c(F)c(F)c5F)c5ccc2[nH]5)C=C4)C=C3)cc1
REMARK SMILES IDX 4 1 3 2 1 3 2 4 22 6 23 7 84 8 24 9 83 10 25 11 26 12 27 13
REMARK SMILES IDX 77 14 28 15 82 16 76 17 78 18 29 19 81 20 75 21 74 22 30 24
REMARK SMILES IDX 62 25 42 26 61 27 43 28 46 29 60 30 79 31 44 32 45 33 59 35
REMARK SMILES IDX 80 36 47 37 31 38 32 39 40 40 33 41 34 42 38 43 41 44 35 45
REMARK SMILES IDX 36 46 39 47 37 48 63 49 64 50 72 51 65 52 66 53 70 54 73 55
REMARK SMILES IDX 67 56 68 57 71 58 69 59 48 60 49 61 57 62 50 63 51 64 55 65
REMARK SMILES IDX 58 66 52 67 53 68 56 69 54 70 5 71 6 72 7 73 8 74 9 76 10 77
REMARK SMILES IDX 17 78 21 79 18 80 20 81 19 84 11 85 12 86 16 87 13 88 15 89
REMARK SMILES IDX 14 90
REMARK H PARENT 3 5 78 23 46 34 7 75 21 82 21 83
REMARK Flexibility Score: inf
ROOT
ATOM      1  C   UNL A   1      32.673  32.402  27.119  1.00  0.00     0.118 C 
ENDROOT
BRANCH   1   2
ATOM      2  N   UNL A   1      32.521  33.792  27.529  1.00  0.00    -0.352 N 
ATOM      3  O   UNL A   1      32.795  35.649  28.777  1.00  0.00    -0.269 OA
ATOM      4  C   UNL A   1      33.177  34.521  28.494  1.00  0.00     0.251 C 
ATOM      5  H   UNL A   1      31.834  34.293  27.032  1.00  0.00     0.163 HD
BRANCH   4   6
ATOM      6  C   UNL A   1      34.322  33.929  29.220  1.00  0.00     0.039 A 
ATOM      7  C   UNL A   1      35.631  34.233  28.854  1.00  0.00     0.014 A 
ATOM      8  C   UNL A   1      34.081  33.056  30.284  1.00  0.00     0.014 A 
ATOM      9  C   UNL A   1      36.684  33.510  29.394  1.00  0.00     0.010 A 
ATOM     10  C   UNL A   1      35.154  32.427  30.922  1.00  0.00     0.010 A 
ATOM     11  C   UNL A   1      36.462  32.617  30.453  1.00  0.00    -0.014 A 
BRANCH  11  12
ATOM     12  C   UNL A   1      37.626  31.955  31.092  1.00  0.00     0.031 A 
ATOM     13  C   UNL A   1      38.430  30.915  30.366  1.00  0.00     0.074 A 
ATOM     14  C   UNL A   1      37.964  32.322  32.343  1.00  0.00     0.049 A 
ATOM     15  N   UNL A   1      39.459  30.226  30.790  1.00  0.00    -0.248 NA
ATOM     16  C   UNL A   1      38.023  30.598  28.989  1.00  0.00     0.031 C 
ATOM     17  C   UNL A   1      37.245  33.312  33.150  1.00  0.00     0.029 A 
ATOM     18  N   UNL A   1      38.996  31.923  33.153  1.00  0.00    -0.354 N 
ATOM     19  C   UNL A   1      39.801  29.371  29.749  1.00  0.00     0.074 A 
ATOM     20  C   UNL A   1      38.859  29.617  28.677  1.00  0.00     0.031 C 
ATOM     21  C   UNL A   1      37.878  33.474  34.318  1.00  0.00     0.029 A 
ATOM     22  C   UNL A   1      38.997  32.542  34.378  1.00  0.00     0.049 A 
ATOM     23  H   UNL A   1      39.668  31.257  32.882  1.00  0.00     0.167 HD
ATOM     24  C   UNL A   1      40.811  28.469  29.698  1.00  0.00     0.037 A 
ATOM     25  C   UNL A   1      39.788  32.358  35.450  1.00  0.00     0.037 A 
ATOM     26  C   UNL A   1      41.756  28.252  30.764  1.00  0.00     0.049 A 
ATOM     27  C   UNL A   1      40.891  31.346  35.371  1.00  0.00     0.074 A 
ATOM     28  C   UNL A   1      42.849  27.403  30.790  1.00  0.00     0.029 A 
ATOM     29  N   UNL A   1      41.715  28.888  31.997  1.00  0.00    -0.354 N 
ATOM     30  N   UNL A   1      41.225  30.569  34.369  1.00  0.00    -0.248 NA
ATOM     31  C   UNL A   1      41.724  31.181  36.568  1.00  0.00     0.031 C 
ATOM     32  C   UNL A   1      43.438  27.486  32.056  1.00  0.00     0.029 A 
ATOM     33  C   UNL A   1      42.745  28.426  32.803  1.00  0.00     0.049 A 
ATOM     34  H   UNL A   1      41.052  29.566  32.262  1.00  0.00     0.167 HD
ATOM     35  C   UNL A   1      42.308  29.825  34.809  1.00  0.00     0.074 A 
ATOM     36  C   UNL A   1      42.589  30.261  36.163  1.00  0.00     0.031 C 
ATOM     37  C   UNL A   1      43.003  28.865  34.152  1.00  0.00     0.037 A 
BRANCH  24  38
ATOM     38  C   UNL A   1      40.928  27.623  28.462  1.00  0.00     0.064 A 
ATOM     39  C   UNL A   1      40.235  26.413  28.319  1.00  0.00     0.173 A 
ATOM     40  C   UNL A   1      41.728  28.048  27.389  1.00  0.00     0.173 A 
ATOM     41  F   UNL A   1      39.464  25.954  29.318  1.00  0.00    -0.203 F 
ATOM     42  C   UNL A   1      40.361  25.645  27.163  1.00  0.00     0.198 A 
ATOM     43  C   UNL A   1      41.829  27.293  26.223  1.00  0.00     0.198 A 
ATOM     44  F   UNL A   1      42.408  29.202  27.468  1.00  0.00    -0.203 F 
ATOM     45  F   UNL A   1      39.727  24.467  27.071  1.00  0.00    -0.200 F 
ATOM     46  C   UNL A   1      41.153  26.088  26.115  1.00  0.00     0.200 A 
ATOM     47  F   UNL A   1      42.585  27.729  25.206  1.00  0.00    -0.200 F 
ATOM     48  F   UNL A   1      41.270  25.349  25.002  1.00  0.00    -0.200 F 
ENDBRANCH  24  38
BRANCH  25  49
ATOM     49  C   UNL A   1      39.525  33.140  36.684  1.00  0.00     0.064 A 
ATOM     50  C   UNL A   1      40.164  34.363  36.917  1.00  0.00     0.173 A 
ATOM     51  C   UNL A   1      38.576  32.707  37.623  1.00  0.00     0.173 A 
ATOM     52  F   UNL A   1      41.088  34.811  36.055  1.00  0.00    -0.203 F 
ATOM     53  C   UNL A   1      39.864  35.125  38.045  1.00  0.00     0.198 A 
ATOM     54  C   UNL A   1      38.256  33.483  38.733  1.00  0.00     0.198 A 
ATOM     55  F   UNL A   1      37.928  31.547  37.436  1.00  0.00    -0.203 F 
ATOM     56  F   UNL A   1      40.506  36.282  38.257  1.00  0.00    -0.200 F 
ATOM     57  C   UNL A   1      38.903  34.689  38.945  1.00  0.00     0.200 A 
ATOM     58  F   UNL A   1      37.309  33.069  39.586  1.00  0.00    -0.200 F 
ATOM     59  F   UNL A   1      38.599  35.435  40.016  1.00  0.00    -0.200 F 
ENDBRANCH  25  49
BRANCH  37  60
ATOM     60  C   UNL A   1      44.146  28.232  34.885  1.00  0.00     0.064 A 
ATOM     61  C   UNL A   1      45.424  28.810  34.891  1.00  0.00     0.173 A 
ATOM     62  C   UNL A   1      43.951  27.055  35.625  1.00  0.00     0.173 A 
ATOM     63  F   UNL A   1      45.664  29.924  34.183  1.00  0.00    -0.203 F 
ATOM     64  C   UNL A   1      46.471  28.222  35.596  1.00  0.00     0.198 A 
ATOM     65  C   UNL A   1      44.993  26.486  36.350  1.00  0.00     0.198 A 
ATOM     66  F   UNL A   1      42.746  26.466  35.652  1.00  0.00    -0.203 F 
ATOM     67  F   UNL A   1      47.694  28.768  35.554  1.00  0.00    -0.200 F 
ATOM     68  C   UNL A   1      46.252  27.067  36.331  1.00  0.00     0.200 A 
ATOM     69  F   UNL A   1      44.778  25.375  37.069  1.00  0.00    -0.200 F 
ATOM     70  F   UNL A   1      47.259  26.507  37.016  1.00  0.00    -0.200 F 
ENDBRANCH  37  60
ENDBRANCH  11  12
ENDBRANCH   4   6
ENDBRANCH   1   2
BRANCH   1  71
ATOM     71  C   UNL A   1      31.417  31.809  26.502  1.00  0.00     0.042 C 
BRANCH  71  72
ATOM     72  C   UNL A   1      31.538  30.343  26.136  1.00  0.00     0.118 C 
BRANCH  72  73
ATOM     73  N   UNL A   1      32.600  30.078  25.178  1.00  0.00    -0.350 N 
ATOM     74  C   UNL A   1      32.672  29.130  24.191  1.00  0.00     0.286 C 
ATOM     75  H   UNL A   1      33.385  30.668  25.249  1.00  0.00     0.163 HD
ATOM     76  O   UNL A   1      33.528  29.328  23.323  1.00  0.00    -0.267 OA
BRANCH  74  77
ATOM     77  C   UNL A   1      31.771  27.831  24.229  1.00  0.00     0.201 C 
ATOM     78  C   UNL A   1      32.363  26.721  23.318  1.00  0.00     0.085 C 
ATOM     79  N   UNL A   1      31.724  27.361  25.649  1.00  0.00    -0.330 N 
ATOM     80  C   UNL A   1      33.654  26.094  23.846  1.00  0.00     0.013 C 
ATOM     81  C   UNL A   1      33.007  26.863  26.143  1.00  0.00     0.261 C 
ATOM     82  H   UNL A   1      31.039  26.610  25.718  1.00  0.00     0.347 HD
ATOM     83  H   UNL A   1      31.476  28.167  26.223  1.00  0.00     0.347 HD
ATOM     84  C   UNL A   1      33.512  25.697  25.307  1.00  0.00     0.062 C 
BRANCH  77  85
ATOM     85  C   UNL A   1      30.344  28.118  23.700  1.00  0.00     0.022 A 
ATOM     86  C   UNL A   1      29.308  27.180  23.871  1.00  0.00     0.011 A 
ATOM     87  C   UNL A   1      30.032  29.330  23.053  1.00  0.00     0.011 A 
ATOM     88  C   UNL A   1      27.996  27.482  23.501  1.00  0.00     0.001 A 
ATOM     89  C   UNL A   1      28.715  29.638  22.704  1.00  0.00     0.001 A 
ATOM     90  C   UNL A   1      27.696  28.719  22.939  1.00  0.00     0.000 A 
ENDBRANCH  77  85
ENDBRANCH  74  77
ENDBRANCH  72  73
ENDBRANCH  71  72
ENDBRANCH   1  71
TORSDOF 11
ENDMDL
