MODEL 1
REMARK VINA RESULT:     -12.4      0.000      0.000
REMARK SMILES COc1ccccc1C[C@H](C[C@@H]1CCCCO1)C(=O)NCCCNC(=O)c1ccc(-c2c3nc(c(-c4c(F)c(F)c(F)c(F)c4F)c4ccc([nH]4)c(-c4c(F)c(F)c(F)c(F)c4F)c4nc(c(-c5c(F)c(F)c(F)c(F)c5F)c5ccc2[nH]5)C=C4)C=C3)cc1
REMARK SMILES IDX 21 1 20 2 18 3 19 4 10 6 9 7 8 8 3 9 4 10 5 11 7 12 6 13
REMARK SMILES IDX 2 14 1 15 11 16 12 17 13 18 17 19 14 20 16 21 15 22 22 23
REMARK SMILES IDX 23 24 24 25 25 26 26 28 27 29 28 30 89 31 29 32 88 33 30 34
REMARK SMILES IDX 31 35 32 36 82 37 33 38 87 39 81 40 83 41 34 42 86 43 80 44
REMARK SMILES IDX 79 45 35 47 67 48 47 49 66 50 48 51 51 52 65 53 84 54 49 55
REMARK SMILES IDX 50 56 64 58 85 59 52 60 36 61 37 62 45 63 38 64 39 65 43 66
REMARK SMILES IDX 46 67 40 68 41 69 44 70 42 71 68 72 69 73 77 74 70 75 71 76
REMARK SMILES IDX 75 77 78 78 72 79 73 80 76 81 74 82 53 83 54 84 62 85 55 86
REMARK SMILES IDX 56 87 60 88 63 89 57 90 58 91 61 92 59 93
REMARK H PARENT 20 5 24 27 83 46 51 57
REMARK Flexibility Score: inf
ROOT
ATOM      1  C   UNL A   1      31.993  30.423  26.512  1.00  0.00     0.117 C 
ENDROOT
BRANCH   1   2
ATOM      2  N   UNL A   1      32.766  30.093  25.343  1.00  0.00    -0.356 N 
ATOM      3  C   UNL A   1      32.353  29.407  24.246  1.00  0.00     0.223 C 
ATOM      4  O   UNL A   1      33.135  29.346  23.292  1.00  0.00    -0.275 OA
ATOM      5  H   UNL A   1      33.702  30.401  25.338  1.00  0.00     0.163 HD
BRANCH   3   6
ATOM      6  C   UNL A   1      31.008  28.669  24.195  1.00  0.00     0.085 C 
BRANCH   6   7
ATOM      7  C   UNL A   1      31.083  27.175  24.618  1.00  0.00     0.053 C 
BRANCH   7   8
ATOM      8  C   UNL A   1      32.315  26.300  24.499  1.00  0.00    -0.005 A 
ATOM      9  C   UNL A   1      32.573  25.583  23.317  1.00  0.00     0.122 A 
ATOM     10  C   UNL A   1      33.583  24.618  23.259  1.00  0.00     0.047 A 
ATOM     11  C   UNL A   1      34.415  24.417  24.356  1.00  0.00     0.004 A 
ATOM     12  C   UNL A   1      33.252  26.182  25.538  1.00  0.00     0.007 A 
ATOM     13  C   UNL A   1      34.270  25.222  25.482  1.00  0.00     0.001 A 
BRANCH   9  14
ATOM     14  O   UNL A   1      31.820  25.745  22.181  1.00  0.00    -0.496 OA
ATOM     15  C   UNL A   1      32.659  25.764  21.020  1.00  0.00     0.278 C 
ENDBRANCH   9  14
ENDBRANCH   7   8
ENDBRANCH   6   7
BRANCH   6  16
ATOM     16  C   UNL A   1      30.196  29.097  22.968  1.00  0.00     0.046 C 
BRANCH  16  17
ATOM     17  C   UNL A   1      28.827  29.785  23.177  1.00  0.00     0.119 C 
ATOM     18  C   UNL A   1      27.984  29.873  21.902  1.00  0.00     0.032 C 
ATOM     19  O   UNL A   1      28.855  31.014  23.898  1.00  0.00    -0.378 OA
ATOM     20  C   UNL A   1      28.391  31.056  21.043  1.00  0.00     0.005 C 
ATOM     21  C   UNL A   1      29.055  32.220  23.162  1.00  0.00     0.160 C 
ATOM     22  C   UNL A   1      28.270  32.325  21.867  1.00  0.00     0.029 C 
ENDBRANCH  16  17
ENDBRANCH   6  16
ENDBRANCH   3   6
ENDBRANCH   1   2
BRANCH   1  23
ATOM     23  C   UNL A   1      31.691  31.890  26.679  1.00  0.00     0.042 C 
BRANCH  23  24
ATOM     24  C   UNL A   1      32.822  32.647  27.340  1.00  0.00     0.118 C 
BRANCH  24  25
ATOM     25  N   UNL A   1      32.494  34.043  27.622  1.00  0.00    -0.352 N 
ATOM     26  C   UNL A   1      33.002  34.912  28.559  1.00  0.00     0.251 C 
ATOM     27  H   UNL A   1      31.793  34.424  27.046  1.00  0.00     0.163 HD
ATOM     28  O   UNL A   1      32.476  36.008  28.738  1.00  0.00    -0.269 OA
BRANCH  26  29
ATOM     29  C   UNL A   1      34.157  34.509  29.386  1.00  0.00     0.039 A 
ATOM     30  C   UNL A   1      33.940  33.970  30.656  1.00  0.00     0.014 A 
ATOM     31  C   UNL A   1      35.454  34.617  28.887  1.00  0.00     0.014 A 
ATOM     32  C   UNL A   1      35.016  33.443  31.372  1.00  0.00     0.010 A 
ATOM     33  C   UNL A   1      36.489  33.954  29.523  1.00  0.00     0.010 A 
ATOM     34  C   UNL A   1      36.290  33.377  30.784  1.00  0.00    -0.014 A 
BRANCH  34  35
ATOM     35  C   UNL A   1      37.443  32.738  31.468  1.00  0.00     0.031 A 
ATOM     36  C   UNL A   1      38.159  31.592  30.802  1.00  0.00     0.074 A 
ATOM     37  C   UNL A   1      37.779  33.117  32.717  1.00  0.00     0.049 A 
ATOM     38  N   UNL A   1      39.105  30.820  31.273  1.00  0.00    -0.248 NA
ATOM     39  C   UNL A   1      37.718  31.233  29.444  1.00  0.00     0.031 C 
ATOM     40  C   UNL A   1      37.111  34.159  33.497  1.00  0.00     0.029 A 
ATOM     41  N   UNL A   1      38.764  32.657  33.554  1.00  0.00    -0.354 N 
ATOM     42  C   UNL A   1      39.338  29.869  30.287  1.00  0.00     0.074 A 
ATOM     43  C   UNL A   1      38.387  30.113  29.227  1.00  0.00     0.031 C 
ATOM     44  C   UNL A   1      37.728  34.286  34.683  1.00  0.00     0.029 A 
ATOM     45  C   UNL A   1      38.804  33.306  34.765  1.00  0.00     0.049 A 
ATOM     46  H   UNL A   1      39.383  31.932  33.311  1.00  0.00     0.167 HD
ATOM     47  C   UNL A   1      40.284  28.903  30.250  1.00  0.00     0.037 A 
ATOM     48  C   UNL A   1      39.620  33.126  35.821  1.00  0.00     0.037 A 
ATOM     49  C   UNL A   1      41.265  28.705  31.283  1.00  0.00     0.049 A 
ATOM     50  C   UNL A   1      40.692  32.073  35.741  1.00  0.00     0.074 A 
ATOM     51  C   UNL A   1      42.324  27.817  31.309  1.00  0.00     0.029 A 
ATOM     52  N   UNL A   1      41.306  29.417  32.473  1.00  0.00    -0.354 N 
ATOM     53  N   UNL A   1      40.957  31.234  34.770  1.00  0.00    -0.248 NA
ATOM     54  C   UNL A   1      41.584  31.948  36.902  1.00  0.00     0.031 C 
ATOM     55  C   UNL A   1      42.981  27.960  32.535  1.00  0.00     0.029 A 
ATOM     56  C   UNL A   1      42.362  28.973  33.251  1.00  0.00     0.049 A 
ATOM     57  H   UNL A   1      40.677  30.131  32.728  1.00  0.00     0.167 HD
ATOM     58  C   UNL A   1      42.058  30.500  35.187  1.00  0.00     0.074 A 
ATOM     59  C   UNL A   1      42.423  31.005  36.495  1.00  0.00     0.031 C 
ATOM     60  C   UNL A   1      42.710  29.498  34.547  1.00  0.00     0.037 A 
BRANCH  47  61
ATOM     61  C   UNL A   1      40.309  28.002  29.049  1.00  0.00     0.064 A 
ATOM     62  C   UNL A   1      41.050  28.322  27.900  1.00  0.00     0.173 A 
ATOM     63  C   UNL A   1      39.592  26.796  29.048  1.00  0.00     0.173 A 
ATOM     64  F   UNL A   1      41.741  29.471  27.840  1.00  0.00    -0.203 F 
ATOM     65  C   UNL A   1      41.037  27.491  26.782  1.00  0.00     0.198 A 
ATOM     66  C   UNL A   1      39.612  25.949  27.943  1.00  0.00     0.198 A 
ATOM     67  F   UNL A   1      38.871  26.437  30.121  1.00  0.00    -0.203 F 
ATOM     68  F   UNL A   1      41.699  27.852  25.674  1.00  0.00    -0.200 F 
ATOM     69  C   UNL A   1      40.324  26.302  26.808  1.00  0.00     0.200 A 
ATOM     70  F   UNL A   1      38.933  24.794  27.973  1.00  0.00    -0.200 F 
ATOM     71  F   UNL A   1      40.317  25.502  25.733  1.00  0.00    -0.200 F 
ENDBRANCH  47  61
BRANCH  48  72
ATOM     72  C   UNL A   1      39.480  33.991  37.023  1.00  0.00     0.064 A 
ATOM     73  C   UNL A   1      38.752  33.556  38.138  1.00  0.00     0.173 A 
ATOM     74  C   UNL A   1      40.079  35.257  37.088  1.00  0.00     0.173 A 
ATOM     75  F   UNL A   1      38.147  32.359  38.117  1.00  0.00    -0.203 F 
ATOM     76  C   UNL A   1      38.609  34.362  39.266  1.00  0.00     0.198 A 
ATOM     77  C   UNL A   1      39.960  36.051  38.227  1.00  0.00     0.198 A 
ATOM     78  F   UNL A   1      40.795  35.716  36.051  1.00  0.00    -0.203 F 
ATOM     79  F   UNL A   1      37.872  33.938  40.302  1.00  0.00    -0.200 F 
ATOM     80  C   UNL A   1      39.219  35.606  39.311  1.00  0.00     0.200 A 
ATOM     81  F   UNL A   1      40.564  37.246  38.274  1.00  0.00    -0.200 F 
ATOM     82  F   UNL A   1      39.089  36.379  40.399  1.00  0.00    -0.200 F 
ENDBRANCH  48  72
BRANCH  60  83
ATOM     83  C   UNL A   1      43.903  28.905  35.235  1.00  0.00     0.064 A 
ATOM     84  C   UNL A   1      43.780  27.830  36.127  1.00  0.00     0.173 A 
ATOM     85  C   UNL A   1      45.192  29.388  34.958  1.00  0.00     0.173 A 
ATOM     86  F   UNL A   1      42.568  27.343  36.434  1.00  0.00    -0.203 F 
ATOM     87  C   UNL A   1      44.902  27.275  36.735  1.00  0.00     0.198 A 
ATOM     88  C   UNL A   1      46.314  28.810  35.545  1.00  0.00     0.198 A 
ATOM     89  F   UNL A   1      45.363  30.409  34.106  1.00  0.00    -0.203 F 
ATOM     90  F   UNL A   1      44.758  26.277  37.619  1.00  0.00    -0.200 F 
ATOM     91  C   UNL A   1      46.167  27.759  36.438  1.00  0.00     0.200 A 
ATOM     92  F   UNL A   1      47.536  29.268  35.244  1.00  0.00    -0.200 F 
ATOM     93  F   UNL A   1      47.247  27.217  37.016  1.00  0.00    -0.200 F 
ENDBRANCH  60  83
ENDBRANCH  34  35
ENDBRANCH  26  29
ENDBRANCH  24  25
ENDBRANCH  23  24
ENDBRANCH   1  23
TORSDOF 15
ENDMDL
MODEL 2
REMARK VINA RESULT:     -12.4      2.247      4.541
REMARK SMILES COc1ccccc1C[C@H](C[C@@H]1CCCCO1)C(=O)NCCCNC(=O)c1ccc(-c2c3nc(c(-c4c(F)c(F)c(F)c(F)c4F)c4ccc([nH]4)c(-c4c(F)c(F)c(F)c(F)c4F)c4nc(c(-c5c(F)c(F)c(F)c(F)c5F)c5ccc2[nH]5)C=C4)C=C3)cc1
REMARK SMILES IDX 21 1 20 2 18 3 19 4 10 6 9 7 8 8 3 9 4 10 5 11 7 12 6 13
REMARK SMILES IDX 2 14 1 15 11 16 12 17 13 18 17 19 14 20 16 21 15 22 22 23
REMARK SMILES IDX 23 24 24 25 25 26 26 28 27 29 28 30 89 31 29 32 88 33 30 34
REMARK SMILES IDX 31 35 32 36 82 37 33 38 87 39 81 40 83 41 34 42 86 43 80 44
REMARK SMILES IDX 79 45 35 47 67 48 47 49 66 50 48 51 51 52 65 53 84 54 49 55
REMARK SMILES IDX 50 56 64 58 85 59 52 60 36 61 37 62 45 63 38 64 39 65 43 66
REMARK SMILES IDX 46 67 40 68 41 69 44 70 42 71 68 72 69 73 77 74 70 75 71 76
REMARK SMILES IDX 75 77 78 78 72 79 73 80 76 81 74 82 53 83 54 84 62 85 55 86
REMARK SMILES IDX 56 87 60 88 63 89 57 90 58 91 61 92 59 93
REMARK H PARENT 20 5 24 27 83 46 51 57
REMARK Flexibility Score: inf
ROOT
ATOM      1  C   UNL A   1      32.412  26.536  26.275  1.00  0.00     0.117 C 
ENDROOT
BRANCH   1   2
ATOM      2  N   UNL A   1      31.549  25.571  26.902  1.00  0.00    -0.356 N 
ATOM      3  C   UNL A   1      31.269  24.312  26.475  1.00  0.00     0.223 C 
ATOM      4  O   UNL A   1      30.607  23.594  27.230  1.00  0.00    -0.275 OA
ATOM      5  H   UNL A   1      31.112  25.854  27.738  1.00  0.00     0.163 HD
BRANCH   3   6
ATOM      6  C   UNL A   1      31.683  23.803  25.086  1.00  0.00     0.085 C 
BRANCH   6   7
ATOM      7  C   UNL A   1      30.676  24.148  23.954  1.00  0.00     0.053 C 
BRANCH   7   8
ATOM      8  C   UNL A   1      30.350  25.550  23.479  1.00  0.00    -0.005 A 
ATOM      9  C   UNL A   1      31.246  26.253  22.653  1.00  0.00     0.122 A 
ATOM     10  C   UNL A   1      31.064  27.611  22.375  1.00  0.00     0.047 A 
ATOM     11  C   UNL A   1      29.931  28.270  22.843  1.00  0.00     0.004 A 
ATOM     12  C   UNL A   1      29.151  26.196  23.818  1.00  0.00     0.007 A 
ATOM     13  C   UNL A   1      28.960  27.554  23.536  1.00  0.00     0.001 A 
BRANCH   9  14
ATOM     14  O   UNL A   1      32.369  25.668  22.124  1.00  0.00    -0.496 OA
ATOM     15  C   UNL A   1      33.551  26.216  22.720  1.00  0.00     0.278 C 
ENDBRANCH   9  14
ENDBRANCH   7   8
ENDBRANCH   6   7
BRANCH   6  16
ATOM     16  C   UNL A   1      32.310  22.409  25.180  1.00  0.00     0.046 C 
BRANCH  16  17
ATOM     17  C   UNL A   1      33.620  22.228  25.980  1.00  0.00     0.119 C 
ATOM     18  C   UNL A   1      34.691  23.271  25.646  1.00  0.00     0.032 C 
ATOM     19  O   UNL A   1      34.144  20.904  26.022  1.00  0.00    -0.378 OA
ATOM     20  C   UNL A   1      35.463  22.899  24.394  1.00  0.00     0.005 C 
ATOM     21  C   UNL A   1      35.031  20.499  24.980  1.00  0.00     0.160 C 
ATOM     22  C   UNL A   1      36.080  21.525  24.588  1.00  0.00     0.029 C 
ENDBRANCH  16  17
ENDBRANCH   6  16
ENDBRANCH   3   6
ENDBRANCH   1   2
BRANCH   1  23
ATOM     23  C   UNL A   1      31.815  27.911  26.114  1.00  0.00     0.042 C 
BRANCH  23  24
ATOM     24  C   UNL A   1      32.843  28.952  25.730  1.00  0.00     0.118 C 
BRANCH  24  25
ATOM     25  N   UNL A   1      32.466  30.308  26.125  1.00  0.00    -0.352 N 
ATOM     26  C   UNL A   1      33.083  31.201  26.969  1.00  0.00     0.251 C 
ATOM     27  H   UNL A   1      31.631  30.636  25.719  1.00  0.00     0.163 HD
ATOM     28  O   UNL A   1      32.517  32.243  27.293  1.00  0.00    -0.269 OA
BRANCH  26  29
ATOM     29  C   UNL A   1      34.414  30.887  27.525  1.00  0.00     0.039 A 
ATOM     30  C   UNL A   1      35.344  31.913  27.708  1.00  0.00     0.014 A 
ATOM     31  C   UNL A   1      34.728  29.585  27.912  1.00  0.00     0.014 A 
ATOM     32  C   UNL A   1      36.539  31.647  28.379  1.00  0.00     0.010 A 
ATOM     33  C   UNL A   1      35.834  29.358  28.713  1.00  0.00     0.010 A 
ATOM     34  C   UNL A   1      36.766  30.380  28.940  1.00  0.00    -0.014 A 
BRANCH  34  35
ATOM     35  C   UNL A   1      37.977  30.078  29.743  1.00  0.00     0.031 A 
ATOM     36  C   UNL A   1      39.015  29.134  29.196  1.00  0.00     0.074 A 
ATOM     37  C   UNL A   1      38.095  30.567  30.993  1.00  0.00     0.049 A 
ATOM     38  N   UNL A   1      40.080  28.643  29.778  1.00  0.00    -0.248 NA
ATOM     39  C   UNL A   1      38.801  28.633  27.828  1.00  0.00     0.031 C 
ATOM     40  C   UNL A   1      37.119  31.427  31.664  1.00  0.00     0.029 A 
ATOM     41  N   UNL A   1      39.085  30.400  31.928  1.00  0.00    -0.354 N 
ATOM     42  C   UNL A   1      40.631  27.754  28.863  1.00  0.00     0.074 A 
ATOM     43  C   UNL A   1      39.747  27.715  27.721  1.00  0.00     0.031 C 
ATOM     44  C   UNL A   1      37.576  31.743  32.886  1.00  0.00     0.029 A 
ATOM     45  C   UNL A   1      38.853  31.074  33.103  1.00  0.00     0.049 A 
ATOM     46  H   UNL A   1      39.886  29.849  31.772  1.00  0.00     0.167 HD
ATOM     47  C   UNL A   1      41.790  27.061  28.951  1.00  0.00     0.037 A 
ATOM     48  C   UNL A   1      39.591  31.140  34.228  1.00  0.00     0.037 A 
ATOM     49  C   UNL A   1      42.693  27.151  30.066  1.00  0.00     0.049 A 
ATOM     50  C   UNL A   1      40.897  30.394  34.286  1.00  0.00     0.074 A 
ATOM     51  C   UNL A   1      43.935  26.565  30.221  1.00  0.00     0.029 A 
ATOM     52  N   UNL A   1      42.448  27.886  31.218  1.00  0.00    -0.354 N 
ATOM     53  N   UNL A   1      41.449  29.621  33.383  1.00  0.00    -0.248 NA
ATOM     54  C   UNL A   1      41.684  30.536  35.518  1.00  0.00     0.031 C 
ATOM     55  C   UNL A   1      44.423  26.908  31.486  1.00  0.00     0.029 A 
ATOM     56  C   UNL A   1      43.508  27.750  32.098  1.00  0.00     0.049 A 
ATOM     57  H   UNL A   1      41.639  28.423  31.385  1.00  0.00     0.167 HD
ATOM     58  C   UNL A   1      42.658  29.207  33.922  1.00  0.00     0.074 A 
ATOM     59  C   UNL A   1      42.766  29.827  35.227  1.00  0.00     0.031 C 
ATOM     60  C   UNL A   1      43.596  28.385  33.388  1.00  0.00     0.037 A 
BRANCH  47  61
ATOM     61  C   UNL A   1      42.148  26.160  27.803  1.00  0.00     0.064 A 
ATOM     62  C   UNL A   1      43.001  26.582  26.771  1.00  0.00     0.173 A 
ATOM     63  C   UNL A   1      41.640  24.854  27.739  1.00  0.00     0.173 A 
ATOM     64  F   UNL A   1      43.502  27.827  26.775  1.00  0.00    -0.203 F 
ATOM     65  C   UNL A   1      43.298  25.746  25.698  1.00  0.00     0.198 A 
ATOM     66  C   UNL A   1      41.969  24.008  26.683  1.00  0.00     0.198 A 
ATOM     67  F   UNL A   1      40.824  24.397  28.700  1.00  0.00    -0.203 F 
ATOM     68  F   UNL A   1      44.062  26.195  24.692  1.00  0.00    -0.200 F 
ATOM     69  C   UNL A   1      42.788  24.457  25.659  1.00  0.00     0.200 A 
ATOM     70  F   UNL A   1      41.485  22.759  26.652  1.00  0.00    -0.200 F 
ATOM     71  F   UNL A   1      43.078  23.653  24.627  1.00  0.00    -0.200 F 
ENDBRANCH  47  61
BRANCH  48  72
ATOM     72  C   UNL A   1      39.131  31.976  35.368  1.00  0.00     0.064 A 
ATOM     73  C   UNL A   1      39.452  33.339  35.433  1.00  0.00     0.173 A 
ATOM     74  C   UNL A   1      38.355  31.438  36.404  1.00  0.00     0.173 A 
ATOM     75  F   UNL A   1      40.206  33.895  34.475  1.00  0.00    -0.203 F 
ATOM     76  C   UNL A   1      39.031  34.128  36.502  1.00  0.00     0.198 A 
ATOM     77  C   UNL A   1      37.910  32.234  37.458  1.00  0.00     0.198 A 
ATOM     78  F   UNL A   1      38.013  30.141  36.384  1.00  0.00    -0.203 F 
ATOM     79  F   UNL A   1      39.387  35.419  36.560  1.00  0.00    -0.200 F 
ATOM     80  C   UNL A   1      38.255  33.576  37.510  1.00  0.00     0.200 A 
ATOM     81  F   UNL A   1      37.147  31.701  38.422  1.00  0.00    -0.200 F 
ATOM     82  F   UNL A   1      37.843  34.337  38.534  1.00  0.00    -0.200 F 
ENDBRANCH  48  72
BRANCH  60  83
ATOM     83  C   UNL A   1      44.835  28.138  34.197  1.00  0.00     0.064 A 
ATOM     84  C   UNL A   1      44.930  27.056  35.083  1.00  0.00     0.173 A 
ATOM     85  C   UNL A   1      45.957  28.967  34.044  1.00  0.00     0.173 A 
ATOM     86  F   UNL A   1      43.880  26.243  35.274  1.00  0.00    -0.203 F 
ATOM     87  C   UNL A   1      46.098  26.826  35.806  1.00  0.00     0.198 A 
ATOM     88  C   UNL A   1      47.132  28.716  34.745  1.00  0.00     0.198 A 
ATOM     89  F   UNL A   1      45.917  30.011  33.202  1.00  0.00    -0.203 F 
ATOM     90  F   UNL A   1      46.154  25.813  36.681  1.00  0.00    -0.200 F 
ATOM     91  C   UNL A   1      47.199  27.651  35.630  1.00  0.00     0.200 A 
ATOM     92  F   UNL A   1      48.200  29.504  34.562  1.00  0.00    -0.200 F 
ATOM     93  F   UNL A   1      48.326  27.422  36.318  1.00  0.00    -0.200 F 
ENDBRANCH  60  83
ENDBRANCH  34  35
ENDBRANCH  26  29
ENDBRANCH  24  25
ENDBRANCH  23  24
ENDBRANCH   1  23
TORSDOF 15
ENDMDL
MODEL 3
REMARK VINA RESULT:     -12.3      0.635      7.345
REMARK SMILES COc1ccccc1C[C@H](C[C@@H]1CCCCO1)C(=O)NCCCNC(=O)c1ccc(-c2c3nc(c(-c4c(F)c(F)c(F)c(F)c4F)c4ccc([nH]4)c(-c4c(F)c(F)c(F)c(F)c4F)c4nc(c(-c5c(F)c(F)c(F)c(F)c5F)c5ccc2[nH]5)C=C4)C=C3)cc1
REMARK SMILES IDX 21 1 20 2 18 3 19 4 10 6 9 7 8 8 3 9 4 10 5 11 7 12 6 13
REMARK SMILES IDX 2 14 1 15 11 16 12 17 13 18 17 19 14 20 16 21 15 22 22 23
REMARK SMILES IDX 23 24 24 25 25 26 26 28 27 29 28 30 89 31 29 32 88 33 30 34
REMARK SMILES IDX 31 35 32 36 82 37 33 38 87 39 81 40 83 41 34 42 86 43 80 44
REMARK SMILES IDX 79 45 35 47 67 48 47 49 66 50 48 51 51 52 65 53 84 54 49 55
REMARK SMILES IDX 50 56 64 58 85 59 52 60 36 61 37 62 45 63 38 64 39 65 43 66
REMARK SMILES IDX 46 67 40 68 41 69 44 70 42 71 68 72 69 73 77 74 70 75 71 76
REMARK SMILES IDX 75 77 78 78 72 79 73 80 76 81 74 82 53 83 54 84 62 85 55 86
REMARK SMILES IDX 56 87 60 88 63 89 57 90 58 91 61 92 59 93
REMARK H PARENT 20 5 24 27 83 46 51 57
REMARK Flexibility Score: inf
ROOT
ATOM      1  C   UNL A   1      31.646  30.658  26.449  1.00  0.00     0.117 C 
ENDROOT
BRANCH   1   2
ATOM      2  N   UNL A   1      32.567  30.239  25.426  1.00  0.00    -0.356 N 
ATOM      3  C   UNL A   1      32.294  29.493  24.324  1.00  0.00     0.223 C 
ATOM      4  O   UNL A   1      33.200  29.355  23.496  1.00  0.00    -0.275 OA
ATOM      5  H   UNL A   1      33.502  30.526  25.535  1.00  0.00     0.163 HD
BRANCH   3   6
ATOM      6  C   UNL A   1      30.948  28.780  24.125  1.00  0.00     0.085 C 
BRANCH   6   7
ATOM      7  C   UNL A   1      30.995  27.246  24.372  1.00  0.00     0.053 C 
BRANCH   7   8
ATOM      8  C   UNL A   1      32.261  26.414  24.418  1.00  0.00    -0.005 A 
ATOM      9  C   UNL A   1      32.849  25.938  23.232  1.00  0.00     0.122 A 
ATOM     10  C   UNL A   1      33.889  25.004  23.262  1.00  0.00     0.047 A 
ATOM     11  C   UNL A   1      34.422  24.597  24.481  1.00  0.00     0.004 A 
ATOM     12  C   UNL A   1      32.906  26.099  25.625  1.00  0.00     0.007 A 
ATOM     13  C   UNL A   1      33.953  25.170  25.660  1.00  0.00     0.001 A 
BRANCH   9  14
ATOM     14  O   UNL A   1      32.405  26.315  21.990  1.00  0.00    -0.496 OA
ATOM     15  C   UNL A   1      32.778  25.343  21.005  1.00  0.00     0.278 C 
ENDBRANCH   9  14
ENDBRANCH   7   8
ENDBRANCH   6   7
BRANCH   6  16
ATOM     16  C   UNL A   1      30.196  29.359  22.922  1.00  0.00     0.046 C 
BRANCH  16  17
ATOM     17  C   UNL A   1      28.812  30.010  23.145  1.00  0.00     0.119 C 
ATOM     18  C   UNL A   1      27.926  30.010  21.896  1.00  0.00     0.032 C 
ATOM     19  O   UNL A   1      28.819  31.271  23.807  1.00  0.00    -0.378 OA
ATOM     20  C   UNL A   1      28.264  31.164  20.970  1.00  0.00     0.005 C 
ATOM     21  C   UNL A   1      28.954  32.448  23.011  1.00  0.00     0.160 C 
ATOM     22  C   UNL A   1      28.125  32.466  21.739  1.00  0.00     0.029 C 
ENDBRANCH  16  17
ENDBRANCH   6  16
ENDBRANCH   3   6
ENDBRANCH   1   2
BRANCH   1  23
ATOM     23  C   UNL A   1      31.504  32.150  26.602  1.00  0.00     0.042 C 
BRANCH  23  24
ATOM     24  C   UNL A   1      32.702  32.786  27.271  1.00  0.00     0.118 C 
BRANCH  24  25
ATOM     25  N   UNL A   1      32.476  34.176  27.660  1.00  0.00    -0.352 N 
ATOM     26  C   UNL A   1      33.060  34.939  28.643  1.00  0.00     0.251 C 
ATOM     27  H   UNL A   1      31.791  34.644  27.130  1.00  0.00     0.163 HD
ATOM     28  O   UNL A   1      32.614  36.053  28.913  1.00  0.00    -0.269 OA
BRANCH  26  29
ATOM     29  C   UNL A   1      34.201  34.401  29.410  1.00  0.00     0.039 A 
ATOM     30  C   UNL A   1      33.964  33.652  30.565  1.00  0.00     0.014 A 
ATOM     31  C   UNL A   1      35.507  34.595  28.962  1.00  0.00     0.014 A 
ATOM     32  C   UNL A   1      35.029  33.011  31.200  1.00  0.00     0.010 A 
ATOM     33  C   UNL A   1      36.533  33.834  29.495  1.00  0.00     0.010 A 
ATOM     34  C   UNL A   1      36.313  33.048  30.634  1.00  0.00    -0.014 A 
BRANCH  34  35
ATOM     35  C   UNL A   1      37.456  32.303  31.219  1.00  0.00     0.031 A 
ATOM     36  C   UNL A   1      37.954  32.666  32.594  1.00  0.00     0.074 A 
ATOM     37  C   UNL A   1      38.103  31.376  30.485  1.00  0.00     0.049 A 
ATOM     38  N   UNL A   1      39.006  32.228  33.238  1.00  0.00    -0.248 NA
ATOM     39  C   UNL A   1      37.198  33.700  33.321  1.00  0.00     0.031 C 
ATOM     40  C   UNL A   1      37.765  30.992  29.113  1.00  0.00     0.029 A 
ATOM     41  N   UNL A   1      39.190  30.597  30.788  1.00  0.00    -0.354 N 
ATOM     42  C   UNL A   1      39.053  32.959  34.419  1.00  0.00     0.074 A 
ATOM     43  C   UNL A   1      37.973  33.918  34.370  1.00  0.00     0.031 C 
ATOM     44  C   UNL A   1      38.602  30.024  28.708  1.00  0.00     0.029 A 
ATOM     45  C   UNL A   1      39.562  29.751  29.771  1.00  0.00     0.049 A 
ATOM     46  H   UNL A   1      39.660  30.639  31.652  1.00  0.00     0.167 HD
ATOM     47  C   UNL A   1      39.897  32.818  35.466  1.00  0.00     0.037 A 
ATOM     48  C   UNL A   1      40.568  28.857  29.707  1.00  0.00     0.037 A 
ATOM     49  C   UNL A   1      40.931  31.822  35.532  1.00  0.00     0.049 A 
ATOM     50  C   UNL A   1      41.468  28.689  30.901  1.00  0.00     0.074 A 
ATOM     51  C   UNL A   1      41.785  31.530  36.579  1.00  0.00     0.029 A 
ATOM     52  N   UNL A   1      41.245  30.948  34.501  1.00  0.00    -0.354 N 
ATOM     53  N   UNL A   1      41.454  29.327  32.045  1.00  0.00    -0.248 NA
ATOM     54  C   UNL A   1      42.520  27.669  30.797  1.00  0.00     0.031 C 
ATOM     55  C   UNL A   1      42.646  30.508  36.167  1.00  0.00     0.029 A 
ATOM     56  C   UNL A   1      42.295  30.128  34.881  1.00  0.00     0.049 A 
ATOM     57  H   UNL A   1      40.790  30.915  33.628  1.00  0.00     0.167 HD
ATOM     58  C   UNL A   1      42.471  28.773  32.807  1.00  0.00     0.074 A 
ATOM     59  C   UNL A   1      43.075  27.732  31.999  1.00  0.00     0.031 C 
ATOM     60  C   UNL A   1      42.873  29.094  34.062  1.00  0.00     0.037 A 
BRANCH  47  61
ATOM     61  C   UNL A   1      39.723  33.754  36.629  1.00  0.00     0.064 A 
ATOM     62  C   UNL A   1      38.916  33.424  37.729  1.00  0.00     0.173 A 
ATOM     63  C   UNL A   1      40.378  34.995  36.648  1.00  0.00     0.173 A 
ATOM     64  F   UNL A   1      38.253  32.257  37.756  1.00  0.00    -0.203 F 
ATOM     65  C   UNL A   1      38.739  34.316  38.784  1.00  0.00     0.198 A 
ATOM     66  C   UNL A   1      40.229  35.868  37.721  1.00  0.00     0.198 A 
ATOM     67  F   UNL A   1      41.165  35.360  35.625  1.00  0.00    -0.203 F 
ATOM     68  F   UNL A   1      37.912  34.004  39.791  1.00  0.00    -0.200 F 
ATOM     69  C   UNL A   1      39.401  35.534  38.782  1.00  0.00     0.200 A 
ATOM     70  F   UNL A   1      40.879  37.040  37.725  1.00  0.00    -0.200 F 
ATOM     71  F   UNL A   1      39.234  36.389  39.800  1.00  0.00    -0.200 F 
ENDBRANCH  47  61
BRANCH  48  72
ATOM     72  C   UNL A   1      40.746  28.026  28.487  1.00  0.00     0.064 A 
ATOM     73  C   UNL A   1      40.125  26.775  28.374  1.00  0.00     0.173 A 
ATOM     74  C   UNL A   1      41.523  28.469  27.407  1.00  0.00     0.173 A 
ATOM     75  F   UNL A   1      39.386  26.301  29.388  1.00  0.00    -0.203 F 
ATOM     76  C   UNL A   1      40.293  25.987  27.237  1.00  0.00     0.198 A 
ATOM     77  C   UNL A   1      41.666  27.692  26.258  1.00  0.00     0.198 A 
ATOM     78  F   UNL A   1      42.130  29.663  27.460  1.00  0.00    -0.203 F 
ATOM     79  F   UNL A   1      39.722  24.776  27.174  1.00  0.00    -0.200 F 
ATOM     80  C   UNL A   1      41.057  26.450  26.177  1.00  0.00     0.200 A 
ATOM     81  F   UNL A   1      42.393  28.150  25.230  1.00  0.00    -0.200 F 
ATOM     82  F   UNL A   1      41.211  25.695  25.080  1.00  0.00    -0.200 F 
ENDBRANCH  48  72
BRANCH  60  83
ATOM     83  C   UNL A   1      43.995  28.291  34.651  1.00  0.00     0.064 A 
ATOM     84  C   UNL A   1      43.759  27.089  35.333  1.00  0.00     0.173 A 
ATOM     85  C   UNL A   1      45.325  28.705  34.485  1.00  0.00     0.173 A 
ATOM     86  F   UNL A   1      42.504  26.658  35.529  1.00  0.00    -0.203 F 
ATOM     87  C   UNL A   1      44.815  26.342  35.849  1.00  0.00     0.198 A 
ATOM     88  C   UNL A   1      46.379  27.941  34.975  1.00  0.00     0.198 A 
ATOM     89  F   UNL A   1      45.603  29.844  33.832  1.00  0.00    -0.203 F 
ATOM     90  F   UNL A   1      44.565  25.220  36.537  1.00  0.00    -0.200 F 
ATOM     91  C   UNL A   1      46.123  26.764  35.663  1.00  0.00     0.200 A 
ATOM     92  F   UNL A   1      47.643  28.342  34.780  1.00  0.00    -0.200 F 
ATOM     93  F   UNL A   1      47.139  26.039  36.151  1.00  0.00    -0.200 F 
ENDBRANCH  60  83
ENDBRANCH  34  35
ENDBRANCH  26  29
ENDBRANCH  24  25
ENDBRANCH  23  24
ENDBRANCH   1  23
TORSDOF 15
ENDMDL
