MODEL 1
REMARK VINA RESULT:     -12.3      0.000      0.000
REMARK SMILES CC(C)(CC(=O)NCCCNC(=O)c1ccc(-c2c3nc(c(-c4c(F)c(F)c(F)c(F)c4F)c4ccc([nH]4)c(-c4c(F)c(F)c(F)c(F)c4F)c4nc(c(-c5c(F)c(F)c(F)c(F)c5F)c5ccc2[nH]5)C=C4)C=C3)cc1)CC(=O)Nc1cccc(S(N)(=O)=O)c1
REMARK SMILES IDX 5 1 6 2 7 3 4 5 2 6 1 7 3 8 77 9 78 10 79 11 80 12 81 14
REMARK SMILES IDX 82 15 90 16 83 17 85 18 84 19 86 20 88 21 89 22 87 23 8 26
REMARK SMILES IDX 9 27 10 28 11 29 12 30 13 32 14 33 15 34 76 35 16 36 75 37
REMARK SMILES IDX 17 38 18 39 19 40 69 41 20 42 74 43 68 44 70 45 21 46 73 47
REMARK SMILES IDX 67 48 66 49 22 51 54 52 34 53 53 54 35 55 38 56 52 57 71 58
REMARK SMILES IDX 36 59 37 60 51 62 72 63 39 64 23 65 24 66 32 67 25 68 26 69
REMARK SMILES IDX 30 70 33 71 27 72 28 73 31 74 29 75 55 76 56 77 64 78 57 79
REMARK SMILES IDX 58 80 62 81 65 82 59 83 60 84 63 85 61 86 40 87 41 88 49 89
REMARK SMILES IDX 42 90 43 91 47 92 50 93 44 94 45 95 48 96 46 97
REMARK H PARENT 7 4 80 13 87 24 87 25 11 31 70 50 38 61
REMARK Flexibility Score: inf
ROOT
ATOM      1  C   UNL A   1      33.681  29.264  26.270  1.00  0.00     0.220 C 
ATOM      2  O   UNL A   1      34.777  29.157  26.817  1.00  0.00    -0.275 OA
ATOM      3  N   UNL A   1      32.865  30.205  26.784  1.00  0.00    -0.356 N 
ATOM      4  H   UNL A   1      33.197  30.608  27.619  1.00  0.00     0.163 HD
ENDROOT
BRANCH   1   5
ATOM      5  C   UNL A   1      33.328  28.474  25.025  1.00  0.00     0.107 C 
BRANCH   5   6
ATOM      6  C   UNL A   1      33.000  26.955  25.081  1.00  0.00    -0.018 C 
ATOM      7  C   UNL A   1      34.084  26.201  25.869  1.00  0.00     0.012 C 
ATOM      8  C   UNL A   1      31.693  26.844  25.918  1.00  0.00     0.012 C 
BRANCH   6   9
ATOM      9  C   UNL A   1      32.713  26.193  23.753  1.00  0.00     0.107 C 
BRANCH   9  10
ATOM     10  C   UNL A   1      32.704  26.960  22.451  1.00  0.00     0.224 C 
ATOM     11  O   UNL A   1      33.725  26.984  21.752  1.00  0.00    -0.275 OA
ATOM     12  N   UNL A   1      31.588  27.577  21.965  1.00  0.00    -0.326 N 
ATOM     13  H   UNL A   1      31.600  27.684  20.987  1.00  0.00     0.169 HD
BRANCH  12  14
ATOM     14  C   UNL A   1      30.420  28.095  22.567  1.00  0.00     0.042 A 
ATOM     15  C   UNL A   1      29.533  27.148  23.106  1.00  0.00     0.026 A 
ATOM     16  C   UNL A   1      29.991  29.415  22.478  1.00  0.00     0.047 A 
ATOM     17  C   UNL A   1      28.219  27.495  23.446  1.00  0.00     0.004 A 
ATOM     18  C   UNL A   1      28.653  29.739  22.728  1.00  0.00     0.084 A 
ATOM     19  C   UNL A   1      27.763  28.791  23.227  1.00  0.00     0.022 A 
BRANCH  18  20
ATOM     20  S   UNL A   1      28.048  31.324  22.225  1.00  0.00     0.238 S 
ATOM     21  O   UNL A   1      27.627  31.254  20.846  1.00  0.00    -0.207 OA
ATOM     22  O   UNL A   1      27.210  31.877  23.264  1.00  0.00    -0.207 OA
BRANCH  20  23
ATOM     23  N   UNL A   1      29.456  32.240  22.250  1.00  0.00    -0.225 NA
ATOM     24  H   UNL A   1      29.898  32.158  23.166  1.00  0.00     0.137 HD
ATOM     25  H   UNL A   1      29.229  33.216  22.067  1.00  0.00     0.137 HD
ENDBRANCH  20  23
ENDBRANCH  18  20
ENDBRANCH  12  14
ENDBRANCH   9  10
ENDBRANCH   6   9
ENDBRANCH   5   6
ENDBRANCH   1   5
BRANCH   3  26
ATOM     26  C   UNL A   1      31.596  30.732  26.343  1.00  0.00     0.117 C 
BRANCH  26  27
ATOM     27  C   UNL A   1      31.433  32.199  26.715  1.00  0.00     0.042 C 
BRANCH  27  28
ATOM     28  C   UNL A   1      32.747  32.879  27.081  1.00  0.00     0.118 C 
BRANCH  28  29
ATOM     29  N   UNL A   1      32.534  34.228  27.583  1.00  0.00    -0.352 N 
ATOM     30  C   UNL A   1      33.066  34.826  28.699  1.00  0.00     0.251 C 
ATOM     31  H   UNL A   1      31.926  34.789  27.050  1.00  0.00     0.163 HD
ATOM     32  O   UNL A   1      32.559  35.844  29.156  1.00  0.00    -0.269 OA
BRANCH  30  33
ATOM     33  C   UNL A   1      34.241  34.222  29.362  1.00  0.00     0.039 A 
ATOM     34  C   UNL A   1      35.525  34.558  28.926  1.00  0.00     0.014 A 
ATOM     35  C   UNL A   1      34.071  33.302  30.398  1.00  0.00     0.014 A 
ATOM     36  C   UNL A   1      36.637  34.005  29.567  1.00  0.00     0.010 A 
ATOM     37  C   UNL A   1      35.173  32.838  31.102  1.00  0.00     0.010 A 
ATOM     38  C   UNL A   1      36.471  33.160  30.676  1.00  0.00    -0.014 A 
BRANCH  38  39
ATOM     39  C   UNL A   1      37.629  32.551  31.377  1.00  0.00     0.031 A 
ATOM     40  C   UNL A   1      38.362  31.400  30.740  1.00  0.00     0.074 A 
ATOM     41  C   UNL A   1      37.966  32.971  32.611  1.00  0.00     0.049 A 
ATOM     42  N   UNL A   1      39.323  30.656  31.226  1.00  0.00    -0.248 NA
ATOM     43  C   UNL A   1      37.927  31.001  29.389  1.00  0.00     0.031 C 
ATOM     44  C   UNL A   1      37.286  34.029  33.362  1.00  0.00     0.029 A 
ATOM     45  N   UNL A   1      38.955  32.545  33.461  1.00  0.00    -0.354 N 
ATOM     46  C   UNL A   1      39.573  29.685  30.264  1.00  0.00     0.074 A 
ATOM     47  C   UNL A   1      38.636  29.901  29.187  1.00  0.00     0.031 C 
ATOM     48  C   UNL A   1      37.887  34.179  34.554  1.00  0.00     0.029 A 
ATOM     49  C   UNL A   1      38.973  33.208  34.665  1.00  0.00     0.049 A 
ATOM     50  H   UNL A   1      39.593  31.831  33.231  1.00  0.00     0.167 HD
ATOM     51  C   UNL A   1      40.518  28.718  30.269  1.00  0.00     0.037 A 
ATOM     52  C   UNL A   1      39.769  33.042  35.738  1.00  0.00     0.037 A 
ATOM     53  C   UNL A   1      41.496  28.555  31.311  1.00  0.00     0.049 A 
ATOM     54  C   UNL A   1      40.854  32.000  35.688  1.00  0.00     0.074 A 
ATOM     55  C   UNL A   1      42.568  27.681  31.359  1.00  0.00     0.029 A 
ATOM     56  N   UNL A   1      41.524  29.291  32.485  1.00  0.00    -0.354 N 
ATOM     57  N   UNL A   1      41.141  31.150  34.732  1.00  0.00    -0.248 NA
ATOM     58  C   UNL A   1      41.735  31.903  36.861  1.00  0.00     0.031 C 
ATOM     59  C   UNL A   1      43.221  27.861  32.582  1.00  0.00     0.029 A 
ATOM     60  C   UNL A   1      42.583  28.877  33.275  1.00  0.00     0.049 A 
ATOM     61  H   UNL A   1      40.886  30.002  32.723  1.00  0.00     0.167 HD
ATOM     62  C   UNL A   1      42.245  30.435  35.176  1.00  0.00     0.074 A 
ATOM     63  C   UNL A   1      42.589  30.965  36.479  1.00  0.00     0.031 C 
ATOM     64  C   UNL A   1      42.913  29.428  34.564  1.00  0.00     0.037 A 
BRANCH  51  65
ATOM     65  C   UNL A   1      40.559  27.768  29.108  1.00  0.00     0.064 A 
ATOM     66  C   UNL A   1      39.731  26.637  29.049  1.00  0.00     0.173 A 
ATOM     67  C   UNL A   1      41.400  28.024  28.014  1.00  0.00     0.173 A 
ATOM     68  F   UNL A   1      38.918  26.342  30.073  1.00  0.00    -0.203 F 
ATOM     69  C   UNL A   1      39.759  25.785  27.947  1.00  0.00     0.198 A 
ATOM     70  C   UNL A   1      41.404  27.185  26.901  1.00  0.00     0.198 A 
ATOM     71  F   UNL A   1      42.209  29.093  28.016  1.00  0.00    -0.203 F 
ATOM     72  F   UNL A   1      38.989  24.687  27.933  1.00  0.00    -0.200 F 
ATOM     73  C   UNL A   1      40.589  26.064  26.872  1.00  0.00     0.200 A 
ATOM     74  F   UNL A   1      42.196  27.463  25.857  1.00  0.00    -0.200 F 
ATOM     75  F   UNL A   1      40.604  25.250  25.808  1.00  0.00    -0.200 F 
ENDBRANCH  51  65
BRANCH  52  76
ATOM     76  C   UNL A   1      39.587  33.895  36.941  1.00  0.00     0.064 A 
ATOM     77  C   UNL A   1      38.827  33.450  38.032  1.00  0.00     0.173 A 
ATOM     78  C   UNL A   1      40.155  35.174  37.023  1.00  0.00     0.173 A 
ATOM     79  F   UNL A   1      38.248  32.240  37.994  1.00  0.00    -0.203 F 
ATOM     80  C   UNL A   1      38.617  34.261  39.144  1.00  0.00     0.198 A 
ATOM     81  C   UNL A   1      39.969  35.974  38.148  1.00  0.00     0.198 A 
ATOM     82  F   UNL A   1      40.898  35.645  36.011  1.00  0.00    -0.203 F 
ATOM     83  F   UNL A   1      37.843  33.831  40.150  1.00  0.00    -0.200 F 
ATOM     84  C   UNL A   1      39.192  35.522  39.204  1.00  0.00     0.200 A 
ATOM     85  F   UNL A   1      40.540  37.186  38.208  1.00  0.00    -0.200 F 
ATOM     86  F   UNL A   1      38.991  36.303  40.274  1.00  0.00    -0.200 F 
ENDBRANCH  52  76
BRANCH  64  87
ATOM     87  C   UNL A   1      44.099  28.854  35.278  1.00  0.00     0.064 A 
ATOM     88  C   UNL A   1      45.391  29.363  35.081  1.00  0.00     0.173 A 
ATOM     89  C   UNL A   1      43.933  27.815  36.207  1.00  0.00     0.173 A 
ATOM     90  F   UNL A   1      45.600  30.346  34.193  1.00  0.00    -0.203 F 
ATOM     91  C   UNL A   1      46.478  28.837  35.772  1.00  0.00     0.198 A 
ATOM     92  C   UNL A   1      45.019  27.312  36.917  1.00  0.00     0.198 A 
ATOM     93  F   UNL A   1      42.717  27.301  36.437  1.00  0.00    -0.203 F 
ATOM     94  F   UNL A   1      47.711  29.309  35.536  1.00  0.00    -0.200 F 
ATOM     95  C   UNL A   1      46.290  27.818  36.695  1.00  0.00     0.200 A 
ATOM     96  F   UNL A   1      44.834  26.338  37.819  1.00  0.00    -0.200 F 
ATOM     97  F   UNL A   1      47.338  27.320  37.366  1.00  0.00    -0.200 F 
ENDBRANCH  64  87
ENDBRANCH  38  39
ENDBRANCH  30  33
ENDBRANCH  28  29
ENDBRANCH  27  28
ENDBRANCH  26  27
ENDBRANCH   3  26
TORSDOF 16
ENDMDL
MODEL 2
REMARK VINA RESULT:     -12.3      0.616      2.145
REMARK SMILES CC(C)(CC(=O)NCCCNC(=O)c1ccc(-c2c3nc(c(-c4c(F)c(F)c(F)c(F)c4F)c4ccc([nH]4)c(-c4c(F)c(F)c(F)c(F)c4F)c4nc(c(-c5c(F)c(F)c(F)c(F)c5F)c5ccc2[nH]5)C=C4)C=C3)cc1)CC(=O)Nc1cccc(S(N)(=O)=O)c1
REMARK SMILES IDX 5 1 6 2 7 3 4 5 2 6 1 7 3 8 77 9 78 10 79 11 80 12 81 14
REMARK SMILES IDX 82 15 90 16 83 17 85 18 84 19 86 20 88 21 89 22 87 23 8 26
REMARK SMILES IDX 9 27 10 28 11 29 12 30 13 32 14 33 15 34 76 35 16 36 75 37
REMARK SMILES IDX 17 38 18 39 19 40 69 41 20 42 74 43 68 44 70 45 21 46 73 47
REMARK SMILES IDX 67 48 66 49 22 51 54 52 34 53 53 54 35 55 38 56 52 57 71 58
REMARK SMILES IDX 36 59 37 60 51 62 72 63 39 64 23 65 24 66 32 67 25 68 26 69
REMARK SMILES IDX 30 70 33 71 27 72 28 73 31 74 29 75 55 76 56 77 64 78 57 79
REMARK SMILES IDX 58 80 62 81 65 82 59 83 60 84 63 85 61 86 40 87 41 88 49 89
REMARK SMILES IDX 42 90 43 91 47 92 50 93 44 94 45 95 48 96 46 97
REMARK H PARENT 7 4 80 13 87 24 87 25 11 31 70 50 38 61
REMARK Flexibility Score: inf
ROOT
ATOM      1  C   UNL A   1      31.642  28.500  27.090  1.00  0.00     0.220 C 
ATOM      2  O   UNL A   1      31.573  27.925  28.175  1.00  0.00    -0.275 OA
ATOM      3  N   UNL A   1      31.462  29.835  27.128  1.00  0.00    -0.356 N 
ATOM      4  H   UNL A   1      31.169  30.174  28.004  1.00  0.00     0.163 HD
ENDROOT
BRANCH   1   5
ATOM      5  C   UNL A   1      32.028  27.766  25.821  1.00  0.00     0.107 C 
BRANCH   5   6
ATOM      6  C   UNL A   1      33.449  27.893  25.200  1.00  0.00    -0.018 C 
ATOM      7  C   UNL A   1      34.469  28.303  26.274  1.00  0.00     0.012 C 
ATOM      8  C   UNL A   1      33.837  26.453  24.754  1.00  0.00     0.012 C 
BRANCH   6   9
ATOM      9  C   UNL A   1      33.647  28.789  23.940  1.00  0.00     0.107 C 
BRANCH   9  10
ATOM     10  C   UNL A   1      33.224  28.262  22.588  1.00  0.00     0.224 C 
ATOM     11  O   UNL A   1      34.082  28.051  21.722  1.00  0.00    -0.275 OA
ATOM     12  N   UNL A   1      31.932  27.934  22.294  1.00  0.00    -0.326 N 
ATOM     13  H   UNL A   1      31.856  27.266  21.576  1.00  0.00     0.169 HD
BRANCH  12  14
ATOM     14  C   UNL A   1      30.681  28.350  22.803  1.00  0.00     0.042 A 
ATOM     15  C   UNL A   1      29.755  27.328  23.073  1.00  0.00     0.026 A 
ATOM     16  C   UNL A   1      30.235  29.666  22.851  1.00  0.00     0.047 A 
ATOM     17  C   UNL A   1      28.399  27.613  23.280  1.00  0.00     0.004 A 
ATOM     18  C   UNL A   1      28.867  29.941  22.964  1.00  0.00     0.084 A 
ATOM     19  C   UNL A   1      27.944  28.924  23.193  1.00  0.00     0.022 A 
BRANCH  18  20
ATOM     20  S   UNL A   1      28.294  31.580  22.622  1.00  0.00     0.238 S 
ATOM     21  O   UNL A   1      28.406  31.835  21.206  1.00  0.00    -0.207 OA
ATOM     22  O   UNL A   1      27.078  31.835  23.361  1.00  0.00    -0.207 OA
BRANCH  20  23
ATOM     23  N   UNL A   1      29.476  32.508  23.370  1.00  0.00    -0.225 NA
ATOM     24  H   UNL A   1      29.223  32.658  24.347  1.00  0.00     0.137 HD
ATOM     25  H   UNL A   1      29.552  33.408  22.897  1.00  0.00     0.137 HD
ENDBRANCH  20  23
ENDBRANCH  18  20
ENDBRANCH  12  14
ENDBRANCH   9  10
ENDBRANCH   6   9
ENDBRANCH   5   6
ENDBRANCH   1   5
BRANCH   3  26
ATOM     26  C   UNL A   1      31.615  30.861  26.124  1.00  0.00     0.117 C 
BRANCH  26  27
ATOM     27  C   UNL A   1      31.429  32.254  26.707  1.00  0.00     0.042 C 
BRANCH  27  28
ATOM     28  C   UNL A   1      32.724  32.869  27.224  1.00  0.00     0.118 C 
BRANCH  28  29
ATOM     29  N   UNL A   1      32.541  34.258  27.618  1.00  0.00    -0.352 N 
ATOM     30  C   UNL A   1      33.070  34.925  28.697  1.00  0.00     0.251 C 
ATOM     31  H   UNL A   1      31.959  34.793  27.032  1.00  0.00     0.163 HD
ATOM     32  O   UNL A   1      32.584  35.989  29.065  1.00  0.00    -0.269 OA
BRANCH  30  33
ATOM     33  C   UNL A   1      34.215  34.342  29.426  1.00  0.00     0.039 A 
ATOM     34  C   UNL A   1      33.985  33.601  30.589  1.00  0.00     0.014 A 
ATOM     35  C   UNL A   1      35.519  34.549  28.975  1.00  0.00     0.014 A 
ATOM     36  C   UNL A   1      35.065  33.030  31.268  1.00  0.00     0.010 A 
ATOM     37  C   UNL A   1      36.578  33.892  29.586  1.00  0.00     0.010 A 
ATOM     38  C   UNL A   1      36.368  33.150  30.757  1.00  0.00    -0.014 A 
BRANCH  38  39
ATOM     39  C   UNL A   1      37.538  32.560  31.454  1.00  0.00     0.031 A 
ATOM     40  C   UNL A   1      38.281  31.412  30.820  1.00  0.00     0.074 A 
ATOM     41  C   UNL A   1      37.879  32.993  32.683  1.00  0.00     0.049 A 
ATOM     42  N   UNL A   1      39.253  30.684  31.306  1.00  0.00    -0.248 NA
ATOM     43  C   UNL A   1      37.841  30.999  29.476  1.00  0.00     0.031 C 
ATOM     44  C   UNL A   1      37.192  34.048  33.431  1.00  0.00     0.029 A 
ATOM     45  N   UNL A   1      38.879  32.585  33.529  1.00  0.00    -0.354 N 
ATOM     46  C   UNL A   1      39.509  29.709  30.349  1.00  0.00     0.074 A 
ATOM     47  C   UNL A   1      38.562  29.905  29.276  1.00  0.00     0.031 C 
ATOM     48  C   UNL A   1      37.800  34.214  34.617  1.00  0.00     0.029 A 
ATOM     49  C   UNL A   1      38.897  33.257  34.727  1.00  0.00     0.049 A 
ATOM     50  H   UNL A   1      39.524  31.877  33.299  1.00  0.00     0.167 HD
ATOM     51  C   UNL A   1      40.466  28.753  30.354  1.00  0.00     0.037 A 
ATOM     52  C   UNL A   1      39.703  33.109  35.796  1.00  0.00     0.037 A 
ATOM     53  C   UNL A   1      41.452  28.609  31.390  1.00  0.00     0.049 A 
ATOM     54  C   UNL A   1      40.800  32.079  35.746  1.00  0.00     0.074 A 
ATOM     55  C   UNL A   1      42.535  27.749  31.437  1.00  0.00     0.029 A 
ATOM     56  N   UNL A   1      41.479  29.355  32.559  1.00  0.00    -0.354 N 
ATOM     57  N   UNL A   1      41.091  31.225  34.795  1.00  0.00    -0.248 NA
ATOM     58  C   UNL A   1      41.690  32.001  36.914  1.00  0.00     0.031 C 
ATOM     59  C   UNL A   1      43.194  27.945  32.654  1.00  0.00     0.029 A 
ATOM     60  C   UNL A   1      42.549  28.959  33.344  1.00  0.00     0.049 A 
ATOM     61  H   UNL A   1      40.835  30.060  32.796  1.00  0.00     0.167 HD
ATOM     62  C   UNL A   1      42.206  30.527  35.236  1.00  0.00     0.074 A 
ATOM     63  C   UNL A   1      42.553  31.070  36.533  1.00  0.00     0.031 C 
ATOM     64  C   UNL A   1      42.882  29.523  34.626  1.00  0.00     0.037 A 
BRANCH  51  65
ATOM     65  C   UNL A   1      40.510  27.795  29.200  1.00  0.00     0.064 A 
ATOM     66  C   UNL A   1      41.409  27.960  28.136  1.00  0.00     0.173 A 
ATOM     67  C   UNL A   1      39.677  26.665  29.186  1.00  0.00     0.173 A 
ATOM     68  F   UNL A   1      42.219  29.029  28.097  1.00  0.00    -0.203 F 
ATOM     69  C   UNL A   1      41.459  27.042  27.090  1.00  0.00     0.198 A 
ATOM     70  C   UNL A   1      39.749  25.734  28.152  1.00  0.00     0.198 A 
ATOM     71  F   UNL A   1      38.802  26.457  30.180  1.00  0.00    -0.203 F 
ATOM     72  F   UNL A   1      42.297  27.244  26.063  1.00  0.00    -0.200 F 
ATOM     73  C   UNL A   1      40.635  25.927  27.103  1.00  0.00     0.200 A 
ATOM     74  F   UNL A   1      38.963  24.650  28.173  1.00  0.00    -0.200 F 
ATOM     75  F   UNL A   1      40.694  25.038  26.101  1.00  0.00    -0.200 F 
ENDBRANCH  51  65
BRANCH  52  76
ATOM     76  C   UNL A   1      39.519  33.968  36.995  1.00  0.00     0.064 A 
ATOM     77  C   UNL A   1      40.102  35.240  37.066  1.00  0.00     0.173 A 
ATOM     78  C   UNL A   1      38.770  33.532  38.097  1.00  0.00     0.173 A 
ATOM     79  F   UNL A   1      40.843  35.695  36.044  1.00  0.00    -0.203 F 
ATOM     80  C   UNL A   1      39.968  36.033  38.204  1.00  0.00     0.198 A 
ATOM     81  C   UNL A   1      38.612  34.337  39.224  1.00  0.00     0.198 A 
ATOM     82  F   UNL A   1      38.184  32.326  38.077  1.00  0.00    -0.203 F 
ATOM     83  F   UNL A   1      40.580  37.223  38.267  1.00  0.00    -0.200 F 
ATOM     84  C   UNL A   1      39.219  35.582  39.281  1.00  0.00     0.200 A 
ATOM     85  F   UNL A   1      37.875  33.903  40.256  1.00  0.00    -0.200 F 
ATOM     86  F   UNL A   1      39.090  36.343  40.376  1.00  0.00    -0.200 F 
ENDBRANCH  52  76
BRANCH  64  87
ATOM     87  C   UNL A   1      44.079  28.969  35.337  1.00  0.00     0.064 A 
ATOM     88  C   UNL A   1      43.971  27.890  36.225  1.00  0.00     0.173 A 
ATOM     89  C   UNL A   1      45.357  29.494  35.089  1.00  0.00     0.173 A 
ATOM     90  F   UNL A   1      42.768  27.364  36.505  1.00  0.00    -0.203 F 
ATOM     91  C   UNL A   1      45.096  27.369  36.857  1.00  0.00     0.198 A 
ATOM     92  C   UNL A   1      46.483  28.951  35.700  1.00  0.00     0.198 A 
ATOM     93  F   UNL A   1      45.514  30.520  34.241  1.00  0.00    -0.203 F 
ATOM     94  F   UNL A   1      44.964  26.365  37.736  1.00  0.00    -0.200 F 
ATOM     95  C   UNL A   1      46.352  27.895  36.588  1.00  0.00     0.200 A 
ATOM     96  F   UNL A   1      47.697  29.450  35.428  1.00  0.00    -0.200 F 
ATOM     97  F   UNL A   1      47.434  27.385  37.191  1.00  0.00    -0.200 F 
ENDBRANCH  64  87
ENDBRANCH  38  39
ENDBRANCH  30  33
ENDBRANCH  28  29
ENDBRANCH  27  28
ENDBRANCH  26  27
ENDBRANCH   3  26
TORSDOF 16
ENDMDL
MODEL 3
REMARK VINA RESULT:     -12.2      6.648     11.660
REMARK SMILES CC(C)(CC(=O)NCCCNC(=O)c1ccc(-c2c3nc(c(-c4c(F)c(F)c(F)c(F)c4F)c4ccc([nH]4)c(-c4c(F)c(F)c(F)c(F)c4F)c4nc(c(-c5c(F)c(F)c(F)c(F)c5F)c5ccc2[nH]5)C=C4)C=C3)cc1)CC(=O)Nc1cccc(S(N)(=O)=O)c1
REMARK SMILES IDX 5 1 6 2 7 3 4 5 2 6 1 7 3 8 77 9 78 10 79 11 80 12 81 14
REMARK SMILES IDX 82 15 90 16 83 17 85 18 84 19 86 20 88 21 89 22 87 23 8 26
REMARK SMILES IDX 9 27 10 28 11 29 12 30 13 32 14 33 15 34 76 35 16 36 75 37
REMARK SMILES IDX 17 38 18 39 19 40 69 41 20 42 74 43 68 44 70 45 21 46 73 47
REMARK SMILES IDX 67 48 66 49 22 51 54 52 34 53 53 54 35 55 38 56 52 57 71 58
REMARK SMILES IDX 36 59 37 60 51 62 72 63 39 64 23 65 24 66 32 67 25 68 26 69
REMARK SMILES IDX 30 70 33 71 27 72 28 73 31 74 29 75 55 76 56 77 64 78 57 79
REMARK SMILES IDX 58 80 62 81 65 82 59 83 60 84 63 85 61 86 40 87 41 88 49 89
REMARK SMILES IDX 42 90 43 91 47 92 50 93 44 94 45 95 48 96 46 97
REMARK H PARENT 7 4 80 13 87 24 87 25 11 31 70 50 38 61
REMARK Flexibility Score: inf
ROOT
ATOM      1  C   UNL A   1      36.978  23.066  25.627  1.00  0.00     0.220 C 
ATOM      2  O   UNL A   1      37.735  24.011  25.844  1.00  0.00    -0.275 OA
ATOM      3  N   UNL A   1      37.539  21.998  25.028  1.00  0.00    -0.356 N 
ATOM      4  H   UNL A   1      38.461  22.152  24.719  1.00  0.00     0.163 HD
ENDROOT
BRANCH   1   5
ATOM      5  C   UNL A   1      35.543  23.063  26.119  1.00  0.00     0.107 C 
BRANCH   5   6
ATOM      6  C   UNL A   1      34.422  23.852  25.384  1.00  0.00    -0.018 C 
ATOM      7  C   UNL A   1      34.649  25.365  25.529  1.00  0.00     0.012 C 
ATOM      8  C   UNL A   1      34.605  23.525  23.874  1.00  0.00     0.012 C 
BRANCH   6   9
ATOM      9  C   UNL A   1      32.933  23.527  25.706  1.00  0.00     0.107 C 
BRANCH   9  10
ATOM     10  C   UNL A   1      32.615  22.411  26.674  1.00  0.00     0.224 C 
ATOM     11  O   UNL A   1      32.531  22.659  27.883  1.00  0.00    -0.275 OA
ATOM     12  N   UNL A   1      32.340  21.137  26.268  1.00  0.00    -0.326 N 
ATOM     13  H   UNL A   1      31.787  20.637  26.910  1.00  0.00     0.169 HD
BRANCH  12  14
ATOM     14  C   UNL A   1      32.682  20.384  25.122  1.00  0.00     0.042 A 
ATOM     15  C   UNL A   1      32.120  20.818  23.910  1.00  0.00     0.026 A 
ATOM     16  C   UNL A   1      33.336  19.157  25.137  1.00  0.00     0.047 A 
ATOM     17  C   UNL A   1      32.122  19.999  22.774  1.00  0.00     0.004 A 
ATOM     18  C   UNL A   1      33.254  18.303  24.031  1.00  0.00     0.084 A 
ATOM     19  C   UNL A   1      32.664  18.719  22.841  1.00  0.00     0.022 A 
BRANCH  18  20
ATOM     20  S   UNL A   1      33.741  16.612  24.219  1.00  0.00     0.238 S 
ATOM     21  O   UNL A   1      32.760  15.922  25.022  1.00  0.00    -0.207 OA
ATOM     22  O   UNL A   1      34.206  16.096  22.952  1.00  0.00    -0.207 OA
BRANCH  20  23
ATOM     23  N   UNL A   1      35.116  16.766  25.172  1.00  0.00    -0.225 NA
ATOM     24  H   UNL A   1      35.841  17.253  24.645  1.00  0.00     0.137 HD
ATOM     25  H   UNL A   1      35.451  15.841  25.437  1.00  0.00     0.137 HD
ENDBRANCH  20  23
ENDBRANCH  18  20
ENDBRANCH  12  14
ENDBRANCH   9  10
ENDBRANCH   6   9
ENDBRANCH   5   6
ENDBRANCH   1   5
BRANCH   3  26
ATOM     26  C   UNL A   1      37.043  20.671  24.752  1.00  0.00     0.117 C 
BRANCH  26  27
ATOM     27  C   UNL A   1      38.111  19.610  24.975  1.00  0.00     0.042 C 
BRANCH  27  28
ATOM     28  C   UNL A   1      39.192  20.040  25.961  1.00  0.00     0.118 C 
BRANCH  28  29
ATOM     29  N   UNL A   1      40.276  19.072  26.027  1.00  0.00    -0.352 N 
ATOM     30  C   UNL A   1      41.631  19.296  26.053  1.00  0.00     0.251 C 
ATOM     31  H   UNL A   1      40.001  18.127  26.059  1.00  0.00     0.163 HD
ATOM     32  O   UNL A   1      42.413  18.386  25.798  1.00  0.00    -0.269 OA
BRANCH  30  33
ATOM     33  C   UNL A   1      42.142  20.646  26.366  1.00  0.00     0.039 A 
ATOM     34  C   UNL A   1      42.426  21.534  25.325  1.00  0.00     0.014 A 
ATOM     35  C   UNL A   1      42.366  21.026  27.690  1.00  0.00     0.014 A 
ATOM     36  C   UNL A   1      42.888  22.819  25.620  1.00  0.00     0.010 A 
ATOM     37  C   UNL A   1      42.721  22.335  27.987  1.00  0.00     0.010 A 
ATOM     38  C   UNL A   1      43.015  23.238  26.955  1.00  0.00    -0.014 A 
BRANCH  38  39
ATOM     39  C   UNL A   1      43.507  24.594  27.305  1.00  0.00     0.031 A 
ATOM     40  C   UNL A   1      42.549  25.610  27.870  1.00  0.00     0.074 A 
ATOM     41  C   UNL A   1      44.782  24.937  27.040  1.00  0.00     0.049 A 
ATOM     42  N   UNL A   1      42.744  26.876  28.138  1.00  0.00    -0.248 NA
ATOM     43  C   UNL A   1      41.172  25.153  28.127  1.00  0.00     0.031 C 
ATOM     44  C   UNL A   1      45.785  24.064  26.427  1.00  0.00     0.029 A 
ATOM     45  N   UNL A   1      45.448  26.121  27.232  1.00  0.00    -0.354 N 
ATOM     46  C   UNL A   1      41.513  27.369  28.551  1.00  0.00     0.074 A 
ATOM     47  C   UNL A   1      40.565  26.283  28.456  1.00  0.00     0.031 C 
ATOM     48  C   UNL A   1      46.942  24.737  26.309  1.00  0.00     0.029 A 
ATOM     49  C   UNL A   1      46.754  26.096  26.807  1.00  0.00     0.049 A 
ATOM     50  H   UNL A   1      45.029  26.915  27.639  1.00  0.00     0.167 HD
ATOM     51  C   UNL A   1      41.208  28.609  28.997  1.00  0.00     0.037 A 
ATOM     52  C   UNL A   1      47.688  27.066  26.809  1.00  0.00     0.037 A 
ATOM     53  C   UNL A   1      42.170  29.664  29.159  1.00  0.00     0.049 A 
ATOM     54  C   UNL A   1      47.337  28.418  27.370  1.00  0.00     0.074 A 
ATOM     55  C   UNL A   1      41.989  30.921  29.710  1.00  0.00     0.029 A 
ATOM     56  N   UNL A   1      43.501  29.579  28.779  1.00  0.00    -0.354 N 
ATOM     57  N   UNL A   1      46.192  28.844  27.846  1.00  0.00    -0.248 NA
ATOM     58  C   UNL A   1      48.411  29.421  27.406  1.00  0.00     0.031 C 
ATOM     59  C   UNL A   1      43.202  31.612  29.624  1.00  0.00     0.029 A 
ATOM     60  C   UNL A   1      44.148  30.770  29.063  1.00  0.00     0.049 A 
ATOM     61  H   UNL A   1      43.923  28.791  28.368  1.00  0.00     0.167 HD
ATOM     62  C   UNL A   1      46.412  30.150  28.259  1.00  0.00     0.074 A 
ATOM     63  C   UNL A   1      47.806  30.442  27.995  1.00  0.00     0.031 C 
ATOM     64  C   UNL A   1      45.540  31.033  28.803  1.00  0.00     0.037 A 
BRANCH  51  65
ATOM     65  C   UNL A   1      39.779  28.896  29.358  1.00  0.00     0.064 A 
ATOM     66  C   UNL A   1      38.853  29.350  28.408  1.00  0.00     0.173 A 
ATOM     67  C   UNL A   1      39.319  28.659  30.663  1.00  0.00     0.173 A 
ATOM     68  F   UNL A   1      39.245  29.603  27.150  1.00  0.00    -0.203 F 
ATOM     69  C   UNL A   1      37.524  29.579  28.754  1.00  0.00     0.198 A 
ATOM     70  C   UNL A   1      37.982  28.861  30.999  1.00  0.00     0.198 A 
ATOM     71  F   UNL A   1      40.161  28.219  31.609  1.00  0.00    -0.203 F 
ATOM     72  F   UNL A   1      36.667  30.054  27.839  1.00  0.00    -0.200 F 
ATOM     73  C   UNL A   1      37.088  29.326  30.046  1.00  0.00     0.200 A 
ATOM     74  F   UNL A   1      37.559  28.603  32.244  1.00  0.00    -0.200 F 
ATOM     75  F   UNL A   1      35.805  29.534  30.373  1.00  0.00    -0.200 F 
ENDBRANCH  51  65
BRANCH  52  76
ATOM     76  C   UNL A   1      49.051  26.791  26.283  1.00  0.00     0.064 A 
ATOM     77  C   UNL A   1      49.381  27.077  24.952  1.00  0.00     0.173 A 
ATOM     78  C   UNL A   1      50.045  26.225  27.094  1.00  0.00     0.173 A 
ATOM     79  F   UNL A   1      48.458  27.602  24.131  1.00  0.00    -0.203 F 
ATOM     80  C   UNL A   1      50.644  26.782  24.442  1.00  0.00     0.198 A 
ATOM     81  C   UNL A   1      51.317  25.957  26.591  1.00  0.00     0.198 A 
ATOM     82  F   UNL A   1      49.785  25.940  28.377  1.00  0.00    -0.203 F 
ATOM     83  F   UNL A   1      50.916  27.016  23.151  1.00  0.00    -0.200 F 
ATOM     84  C   UNL A   1      51.613  26.225  25.263  1.00  0.00     0.200 A 
ATOM     85  F   UNL A   1      52.255  25.434  27.393  1.00  0.00    -0.200 F 
ATOM     86  F   UNL A   1      52.827  25.941  24.774  1.00  0.00    -0.200 F 
ENDBRANCH  52  76
BRANCH  64  87
ATOM     87  C   UNL A   1      46.071  32.383  29.179  1.00  0.00     0.064 A 
ATOM     88  C   UNL A   1      46.643  32.622  30.436  1.00  0.00     0.173 A 
ATOM     89  C   UNL A   1      46.052  33.436  28.251  1.00  0.00     0.173 A 
ATOM     90  F   UNL A   1      46.671  31.650  31.361  1.00  0.00    -0.203 F 
ATOM     91  C   UNL A   1      47.156  33.875  30.761  1.00  0.00     0.198 A 
ATOM     92  C   UNL A   1      46.592  34.678  28.569  1.00  0.00     0.198 A 
ATOM     93  F   UNL A   1      45.524  33.255  27.033  1.00  0.00    -0.203 F 
ATOM     94  F   UNL A   1      47.658  34.094  31.984  1.00  0.00    -0.200 F 
ATOM     95  C   UNL A   1      47.138  34.899  29.825  1.00  0.00     0.200 A 
ATOM     96  F   UNL A   1      46.587  35.662  27.660  1.00  0.00    -0.200 F 
ATOM     97  F   UNL A   1      47.641  36.101  30.137  1.00  0.00    -0.200 F 
ENDBRANCH  64  87
ENDBRANCH  38  39
ENDBRANCH  30  33
ENDBRANCH  28  29
ENDBRANCH  27  28
ENDBRANCH  26  27
ENDBRANCH   3  26
TORSDOF 16
ENDMDL
