MODEL 1
REMARK VINA RESULT:     -12.5      0.000      0.000
REMARK SMILES CC1(C)CCN(c2ncccc2C(=O)NCCCNC(=O)c2ccc(-c3c4nc(c(-c5c(F)c(F)c(F)c(F)c5F)c5ccc([nH]5)c(-c5c(F)c(F)c(F)c(F)c5F)c5nc(c(-c6c(F)c(F)c(F)c(F)c6F)c6ccc3[nH]6)C=C5)C=C4)cc2)C1
REMARK SMILES IDX 17 1 16 2 15 3 13 4 14 5 12 7 7 8 8 9 9 10 11 11 10 12 6 13
REMARK SMILES IDX 1 14 2 15 3 16 4 17 85 18 5 19 18 20 19 21 20 22 21 24 22 25
REMARK SMILES IDX 23 26 84 27 24 28 83 29 25 30 26 31 27 32 77 33 28 34 82 35
REMARK SMILES IDX 76 36 78 37 29 38 81 39 75 40 74 41 30 43 62 44 42 45 61 46
REMARK SMILES IDX 43 47 46 48 60 49 79 50 44 51 45 52 59 54 80 55 47 56 31 57
REMARK SMILES IDX 32 58 40 59 33 60 34 61 38 62 41 63 35 64 36 65 39 66 37 67
REMARK SMILES IDX 63 68 64 69 72 70 65 71 66 72 70 73 73 74 67 75 68 76 71 77
REMARK SMILES IDX 69 78 48 79 49 80 57 81 50 82 51 83 55 84 58 85 52 86 53 87
REMARK SMILES IDX 56 88 54 89
REMARK H PARENT 15 6 19 23 78 42 46 53
REMARK Flexibility Score: inf
ROOT
ATOM      1  C   UNL A   1      31.403  31.863  26.623  1.00  0.00     0.042 C 
ENDROOT
BRANCH   1   2
ATOM      2  C   UNL A   1      31.669  30.767  25.590  1.00  0.00     0.118 C 
BRANCH   2   3
ATOM      3  N   UNL A   1      31.524  29.458  26.192  1.00  0.00    -0.352 N 
ATOM      4  C   UNL A   1      31.458  28.163  25.744  1.00  0.00     0.255 C 
ATOM      5  O   UNL A   1      31.216  27.362  26.646  1.00  0.00    -0.269 OA
ATOM      6  H   UNL A   1      31.454  29.511  27.173  1.00  0.00     0.163 HD
BRANCH   4   7
ATOM      7  C   UNL A   1      31.694  27.738  24.321  1.00  0.00     0.082 A 
ATOM      8  C   UNL A   1      30.660  27.806  23.359  1.00  0.00     0.141 A 
ATOM      9  N   UNL A   1      30.800  27.233  22.129  1.00  0.00    -0.238 NA
ATOM     10  C   UNL A   1      31.975  26.667  21.797  1.00  0.00     0.113 A 
ATOM     11  C   UNL A   1      32.924  27.214  23.899  1.00  0.00     0.019 A 
ATOM     12  C   UNL A   1      33.069  26.660  22.630  1.00  0.00     0.021 A 
BRANCH   8  13
ATOM     13  N   UNL A   1      29.492  28.515  23.541  1.00  0.00    -0.355 N 
ATOM     14  C   UNL A   1      28.186  30.421  21.225  1.00  0.00     0.013 C 
ATOM     15  C   UNL A   1      28.150  30.335  22.759  1.00  0.00    -0.016 C 
ATOM     16  C   UNL A   1      27.653  31.667  23.327  1.00  0.00     0.013 C 
ATOM     17  C   UNL A   1      27.278  29.161  23.232  1.00  0.00     0.030 C 
ATOM     18  C   UNL A   1      29.542  29.966  23.320  1.00  0.00     0.124 C 
ATOM     19  C   UNL A   1      28.215  27.960  23.126  1.00  0.00     0.119 C 
ENDBRANCH   8  13
ENDBRANCH   4   7
ENDBRANCH   2   3
ENDBRANCH   1   2
BRANCH   1  20
ATOM     20  C   UNL A   1      32.677  32.438  27.249  1.00  0.00     0.118 C 
BRANCH  20  21
ATOM     21  N   UNL A   1      32.529  33.838  27.616  1.00  0.00    -0.352 N 
ATOM     22  C   UNL A   1      33.125  34.561  28.616  1.00  0.00     0.251 C 
ATOM     23  H   UNL A   1      31.898  34.348  27.056  1.00  0.00     0.163 HD
ATOM     24  O   UNL A   1      32.689  35.670  28.908  1.00  0.00    -0.269 OA
BRANCH  22  25
ATOM     25  C   UNL A   1      34.287  34.017  29.350  1.00  0.00     0.039 A 
ATOM     26  C   UNL A   1      34.058  33.157  30.428  1.00  0.00     0.014 A 
ATOM     27  C   UNL A   1      35.592  34.397  29.022  1.00  0.00     0.014 A 
ATOM     28  C   UNL A   1      35.139  32.637  31.143  1.00  0.00     0.010 A 
ATOM     29  C   UNL A   1      36.671  33.828  29.695  1.00  0.00     0.010 A 
ATOM     30  C   UNL A   1      36.455  32.946  30.765  1.00  0.00    -0.014 A 
BRANCH  30  31
ATOM     31  C   UNL A   1      37.617  32.357  31.475  1.00  0.00     0.031 A 
ATOM     32  C   UNL A   1      38.373  31.208  30.869  1.00  0.00     0.074 A 
ATOM     33  C   UNL A   1      37.947  32.813  32.699  1.00  0.00     0.049 A 
ATOM     34  N   UNL A   1      39.358  30.506  31.372  1.00  0.00    -0.248 NA
ATOM     35  C   UNL A   1      37.947  30.771  29.530  1.00  0.00     0.031 C 
ATOM     36  C   UNL A   1      37.261  33.893  33.410  1.00  0.00     0.029 A 
ATOM     37  N   UNL A   1      38.932  32.415  33.567  1.00  0.00    -0.354 N 
ATOM     38  C   UNL A   1      39.654  29.537  30.423  1.00  0.00     0.074 A 
ATOM     39  C   UNL A   1      38.718  29.712  29.334  1.00  0.00     0.031 C 
ATOM     40  C   UNL A   1      37.855  34.082  34.599  1.00  0.00     0.029 A 
ATOM     41  C   UNL A   1      38.939  33.116  34.748  1.00  0.00     0.049 A 
ATOM     42  H   UNL A   1      39.573  31.697  33.363  1.00  0.00     0.167 HD
ATOM     43  C   UNL A   1      40.633  28.600  30.450  1.00  0.00     0.037 A 
ATOM     44  C   UNL A   1      39.726  32.988  35.833  1.00  0.00     0.037 A 
ATOM     45  C   UNL A   1      41.580  28.450  31.523  1.00  0.00     0.049 A 
ATOM     46  C   UNL A   1      40.809  31.945  35.835  1.00  0.00     0.074 A 
ATOM     47  C   UNL A   1      42.648  27.574  31.617  1.00  0.00     0.029 A 
ATOM     48  N   UNL A   1      41.573  29.197  32.692  1.00  0.00    -0.354 N 
ATOM     49  N   UNL A   1      41.121  31.075  34.905  1.00  0.00    -0.248 NA
ATOM     50  C   UNL A   1      41.654  31.869  37.035  1.00  0.00     0.031 C 
ATOM     51  C   UNL A   1      43.262  27.764  32.859  1.00  0.00     0.029 A 
ATOM     52  C   UNL A   1      42.606  28.789  33.521  1.00  0.00     0.049 A 
ATOM     53  H   UNL A   1      40.930  29.911  32.902  1.00  0.00     0.167 HD
ATOM     54  C   UNL A   1      42.211  30.369  35.394  1.00  0.00     0.074 A 
ATOM     55  C   UNL A   1      42.516  30.921  36.698  1.00  0.00     0.031 C 
ATOM     56  C   UNL A   1      42.899  29.355  34.813  1.00  0.00     0.037 A 
BRANCH  43  57
ATOM     57  C   UNL A   1      40.728  27.663  29.281  1.00  0.00     0.064 A 
ATOM     58  C   UNL A   1      39.840  26.587  29.127  1.00  0.00     0.173 A 
ATOM     59  C   UNL A   1      41.695  27.863  28.285  1.00  0.00     0.173 A 
ATOM     60  F   UNL A   1      38.903  26.346  30.056  1.00  0.00    -0.203 F 
ATOM     61  C   UNL A   1      39.938  25.729  28.034  1.00  0.00     0.198 A 
ATOM     62  C   UNL A   1      41.770  27.019  27.179  1.00  0.00     0.198 A 
ATOM     63  F   UNL A   1      42.564  28.881  28.379  1.00  0.00    -0.203 F 
ATOM     64  F   UNL A   1      39.111  24.678  27.934  1.00  0.00    -0.200 F 
ATOM     65  C   UNL A   1      40.898  25.949  27.059  1.00  0.00     0.200 A 
ATOM     66  F   UNL A   1      42.691  27.242  26.230  1.00  0.00    -0.200 F 
ATOM     67  F   UNL A   1      40.987  25.125  26.006  1.00  0.00    -0.200 F 
ENDBRANCH  43  57
BRANCH  44  68
ATOM     68  C   UNL A   1      39.533  33.891  36.997  1.00  0.00     0.064 A 
ATOM     69  C   UNL A   1      38.767  33.487  38.099  1.00  0.00     0.173 A 
ATOM     70  C   UNL A   1      40.115  35.166  37.036  1.00  0.00     0.173 A 
ATOM     71  F   UNL A   1      38.176  32.283  38.097  1.00  0.00    -0.203 F 
ATOM     72  C   UNL A   1      38.577  34.330  39.190  1.00  0.00     0.198 A 
ATOM     73  C   UNL A   1      39.945  35.999  38.140  1.00  0.00     0.198 A 
ATOM     74  F   UNL A   1      40.861  35.597  36.010  1.00  0.00    -0.203 F 
ATOM     75  F   UNL A   1      37.809  33.934  40.215  1.00  0.00    -0.200 F 
ATOM     76  C   UNL A   1      39.171  35.583  39.213  1.00  0.00     0.200 A 
ATOM     77  F   UNL A   1      40.533  37.203  38.165  1.00  0.00    -0.200 F 
ATOM     78  F   UNL A   1      38.993  36.392  40.267  1.00  0.00    -0.200 F 
ENDBRANCH  44  68
BRANCH  56  79
ATOM     79  C   UNL A   1      44.068  28.798  35.570  1.00  0.00     0.064 A 
ATOM     80  C   UNL A   1      45.363  29.313  35.405  1.00  0.00     0.173 A 
ATOM     81  C   UNL A   1      43.885  27.764  36.500  1.00  0.00     0.173 A 
ATOM     82  F   UNL A   1      45.591  30.292  34.516  1.00  0.00    -0.203 F 
ATOM     83  C   UNL A   1      46.435  28.797  36.128  1.00  0.00     0.198 A 
ATOM     84  C   UNL A   1      44.954  27.269  37.240  1.00  0.00     0.198 A 
ATOM     85  F   UNL A   1      42.666  27.240  36.697  1.00  0.00    -0.203 F 
ATOM     86  F   UNL A   1      47.670  29.274  35.922  1.00  0.00    -0.200 F 
ATOM     87  C   UNL A   1      46.228  27.781  37.050  1.00  0.00     0.200 A 
ATOM     88  F   UNL A   1      44.752  26.295  38.139  1.00  0.00    -0.200 F 
ATOM     89  F   UNL A   1      47.261  27.290  37.749  1.00  0.00    -0.200 F 
ENDBRANCH  56  79
ENDBRANCH  30  31
ENDBRANCH  22  25
ENDBRANCH  20  21
ENDBRANCH   1  20
TORSDOF 11
ENDMDL
MODEL 2
REMARK VINA RESULT:     -12.5      2.398      4.244
REMARK SMILES CC1(C)CCN(c2ncccc2C(=O)NCCCNC(=O)c2ccc(-c3c4nc(c(-c5c(F)c(F)c(F)c(F)c5F)c5ccc([nH]5)c(-c5c(F)c(F)c(F)c(F)c5F)c5nc(c(-c6c(F)c(F)c(F)c(F)c6F)c6ccc3[nH]6)C=C5)C=C4)cc2)C1
REMARK SMILES IDX 17 1 16 2 15 3 13 4 14 5 12 7 7 8 8 9 9 10 11 11 10 12 6 13
REMARK SMILES IDX 1 14 2 15 3 16 4 17 85 18 5 19 18 20 19 21 20 22 21 24 22 25
REMARK SMILES IDX 23 26 84 27 24 28 83 29 25 30 26 31 27 32 77 33 28 34 82 35
REMARK SMILES IDX 76 36 78 37 29 38 81 39 75 40 74 41 30 43 62 44 42 45 61 46
REMARK SMILES IDX 43 47 46 48 60 49 79 50 44 51 45 52 59 54 80 55 47 56 31 57
REMARK SMILES IDX 32 58 40 59 33 60 34 61 38 62 41 63 35 64 36 65 39 66 37 67
REMARK SMILES IDX 63 68 64 69 72 70 65 71 66 72 70 73 73 74 67 75 68 76 71 77
REMARK SMILES IDX 69 78 48 79 49 80 57 81 50 82 51 83 55 84 58 85 52 86 53 87
REMARK SMILES IDX 56 88 54 89
REMARK H PARENT 15 6 19 23 78 42 46 53
REMARK Flexibility Score: inf
ROOT
ATOM      1  C   UNL A   1      34.076  28.605  24.251  1.00  0.00     0.042 C 
ENDROOT
BRANCH   1   2
ATOM      2  C   UNL A   1      33.334  28.920  22.951  1.00  0.00     0.118 C 
BRANCH   2   3
ATOM      3  N   UNL A   1      33.412  27.797  22.039  1.00  0.00    -0.352 N 
ATOM      4  C   UNL A   1      33.079  26.466  22.076  1.00  0.00     0.255 C 
ATOM      5  O   UNL A   1      33.442  25.861  21.068  1.00  0.00    -0.269 OA
ATOM      6  H   UNL A   1      33.805  28.054  21.174  1.00  0.00     0.163 HD
BRANCH   4   7
ATOM      7  C   UNL A   1      32.319  25.806  23.192  1.00  0.00     0.082 A 
ATOM      8  C   UNL A   1      32.878  24.730  23.919  1.00  0.00     0.141 A 
ATOM      9  N   UNL A   1      32.124  23.994  24.785  1.00  0.00    -0.238 NA
ATOM     10  C   UNL A   1      30.847  24.352  25.014  1.00  0.00     0.113 A 
ATOM     11  C   UNL A   1      31.013  26.191  23.526  1.00  0.00     0.019 A 
ATOM     12  C   UNL A   1      30.259  25.453  24.436  1.00  0.00     0.021 A 
BRANCH   8  13
ATOM     13  N   UNL A   1      34.216  24.400  23.888  1.00  0.00    -0.355 N 
ATOM     14  C   UNL A   1      35.548  22.168  25.873  1.00  0.00     0.013 C 
ATOM     15  C   UNL A   1      36.028  23.398  25.088  1.00  0.00    -0.016 C 
ATOM     16  C   UNL A   1      37.373  23.864  25.651  1.00  0.00     0.013 C 
ATOM     17  C   UNL A   1      36.121  23.099  23.583  1.00  0.00     0.030 C 
ATOM     18  C   UNL A   1      34.973  24.527  25.140  1.00  0.00     0.124 C 
ATOM     19  C   UNL A   1      34.684  23.274  23.098  1.00  0.00     0.119 C 
ENDBRANCH   8  13
ENDBRANCH   4   7
ENDBRANCH   2   3
ENDBRANCH   1   2
BRANCH   1  20
ATOM     20  C   UNL A   1      33.185  28.669  25.496  1.00  0.00     0.118 C 
BRANCH  20  21
ATOM     21  N   UNL A   1      32.762  30.028  25.802  1.00  0.00    -0.352 N 
ATOM     22  C   UNL A   1      33.206  30.899  26.762  1.00  0.00     0.251 C 
ATOM     23  H   UNL A   1      32.042  30.376  25.228  1.00  0.00     0.163 HD
ATOM     24  O   UNL A   1      32.560  31.912  27.009  1.00  0.00    -0.269 OA
BRANCH  22  25
ATOM     25  C   UNL A   1      34.455  30.631  27.506  1.00  0.00     0.039 A 
ATOM     26  C   UNL A   1      35.387  31.663  27.649  1.00  0.00     0.014 A 
ATOM     27  C   UNL A   1      34.740  29.357  28.006  1.00  0.00     0.014 A 
ATOM     28  C   UNL A   1      36.579  31.433  28.339  1.00  0.00     0.010 A 
ATOM     29  C   UNL A   1      35.899  29.145  28.749  1.00  0.00     0.010 A 
ATOM     30  C   UNL A   1      36.832  30.179  28.919  1.00  0.00    -0.014 A 
BRANCH  30  31
ATOM     31  C   UNL A   1      38.065  29.932  29.706  1.00  0.00     0.031 A 
ATOM     32  C   UNL A   1      39.131  29.015  29.176  1.00  0.00     0.074 A 
ATOM     33  C   UNL A   1      38.191  30.478  30.930  1.00  0.00     0.049 A 
ATOM     34  N   UNL A   1      40.236  28.607  29.751  1.00  0.00    -0.248 NA
ATOM     35  C   UNL A   1      38.914  28.458  27.831  1.00  0.00     0.031 C 
ATOM     36  C   UNL A   1      37.205  31.350  31.571  1.00  0.00     0.029 A 
ATOM     37  N   UNL A   1      39.194  30.371  31.860  1.00  0.00    -0.354 N 
ATOM     38  C   UNL A   1      40.832  27.736  28.849  1.00  0.00     0.074 A 
ATOM     39  C   UNL A   1      39.947  27.638  27.708  1.00  0.00     0.031 C 
ATOM     40  C   UNL A   1      37.659  31.710  32.782  1.00  0.00     0.029 A 
ATOM     41  C   UNL A   1      38.948  31.068  33.017  1.00  0.00     0.049 A 
ATOM     42  H   UNL A   1      40.013  29.845  31.712  1.00  0.00     0.167 HD
ATOM     43  C   UNL A   1      42.020  27.092  28.956  1.00  0.00     0.037 A 
ATOM     44  C   UNL A   1      39.676  31.171  34.144  1.00  0.00     0.037 A 
ATOM     45  C   UNL A   1      42.909  27.217  30.080  1.00  0.00     0.049 A 
ATOM     46  C   UNL A   1      40.995  30.453  34.235  1.00  0.00     0.074 A 
ATOM     47  C   UNL A   1      44.163  26.657  30.257  1.00  0.00     0.029 A 
ATOM     48  N   UNL A   1      42.638  27.954  31.223  1.00  0.00    -0.354 N 
ATOM     49  N   UNL A   1      41.579  29.682  33.350  1.00  0.00    -0.248 NA
ATOM     50  C   UNL A   1      41.759  30.624  35.478  1.00  0.00     0.031 C 
ATOM     51  C   UNL A   1      44.632  27.023  31.522  1.00  0.00     0.029 A 
ATOM     52  C   UNL A   1      43.692  27.849  32.116  1.00  0.00     0.049 A 
ATOM     53  H   UNL A   1      41.817  28.476  31.377  1.00  0.00     0.167 HD
ATOM     54  C   UNL A   1      42.786  29.298  33.916  1.00  0.00     0.074 A 
ATOM     55  C   UNL A   1      42.859  29.932  35.216  1.00  0.00     0.031 C 
ATOM     56  C   UNL A   1      43.749  28.493  33.404  1.00  0.00     0.037 A 
BRANCH  43  57
ATOM     57  C   UNL A   1      42.426  26.194  27.823  1.00  0.00     0.064 A 
ATOM     58  C   UNL A   1      41.910  24.896  27.691  1.00  0.00     0.173 A 
ATOM     59  C   UNL A   1      43.315  26.650  26.838  1.00  0.00     0.173 A 
ATOM     60  F   UNL A   1      41.064  24.409  28.612  1.00  0.00    -0.203 F 
ATOM     61  C   UNL A   1      42.293  24.077  26.633  1.00  0.00     0.198 A 
ATOM     62  C   UNL A   1      43.672  25.837  25.764  1.00  0.00     0.198 A 
ATOM     63  F   UNL A   1      43.832  27.885  26.911  1.00  0.00    -0.203 F 
ATOM     64  F   UNL A   1      41.825  22.823  26.555  1.00  0.00    -0.200 F 
ATOM     65  C   UNL A   1      43.168  24.549  25.667  1.00  0.00     0.200 A 
ATOM     66  F   UNL A   1      44.509  26.301  24.824  1.00  0.00    -0.200 F 
ATOM     67  F   UNL A   1      43.532  23.761  24.646  1.00  0.00    -0.200 F 
ENDBRANCH  43  57
BRANCH  44  68
ATOM     68  C   UNL A   1      39.185  32.010  35.268  1.00  0.00     0.064 A 
ATOM     69  C   UNL A   1      39.466  33.382  35.314  1.00  0.00     0.173 A 
ATOM     70  C   UNL A   1      38.421  31.463  36.308  1.00  0.00     0.173 A 
ATOM     71  F   UNL A   1      40.210  33.945  34.350  1.00  0.00    -0.203 F 
ATOM     72  C   UNL A   1      39.015  34.174  36.367  1.00  0.00     0.198 A 
ATOM     73  C   UNL A   1      37.948  32.260  37.348  1.00  0.00     0.198 A 
ATOM     74  F   UNL A   1      38.120  30.156  36.308  1.00  0.00    -0.203 F 
ATOM     75  F   UNL A   1      39.329  35.475  36.407  1.00  0.00    -0.200 F 
ATOM     76  C   UNL A   1      38.251  33.614  37.380  1.00  0.00     0.200 A 
ATOM     77  F   UNL A   1      37.198  31.719  38.317  1.00  0.00    -0.200 F 
ATOM     78  F   UNL A   1      37.810  34.377  38.390  1.00  0.00    -0.200 F 
ENDBRANCH  44  68
BRANCH  56  79
ATOM     79  C   UNL A   1      44.979  28.279  34.236  1.00  0.00     0.064 A 
ATOM     80  C   UNL A   1      46.080  29.144  34.158  1.00  0.00     0.173 A 
ATOM     81  C   UNL A   1      45.039  27.219  35.154  1.00  0.00     0.173 A 
ATOM     82  F   UNL A   1      46.076  30.163  33.284  1.00  0.00    -0.203 F 
ATOM     83  C   UNL A   1      47.207  28.942  34.950  1.00  0.00     0.198 A 
ATOM     84  C   UNL A   1      46.156  27.036  35.964  1.00  0.00     0.198 A 
ATOM     85  F   UNL A   1      44.010  26.366  35.270  1.00  0.00    -0.203 F 
ATOM     86  F   UNL A   1      48.265  29.754  34.826  1.00  0.00    -0.200 F 
ATOM     87  C   UNL A   1      47.240  27.893  35.857  1.00  0.00     0.200 A 
ATOM     88  F   UNL A   1      46.182  26.029  36.848  1.00  0.00    -0.200 F 
ATOM     89  F   UNL A   1      48.323  27.704  36.624  1.00  0.00    -0.200 F 
ENDBRANCH  56  79
ENDBRANCH  30  31
ENDBRANCH  22  25
ENDBRANCH  20  21
ENDBRANCH   1  20
TORSDOF 11
ENDMDL
MODEL 3
REMARK VINA RESULT:     -12.5      2.877      8.543
REMARK SMILES CC1(C)CCN(c2ncccc2C(=O)NCCCNC(=O)c2ccc(-c3c4nc(c(-c5c(F)c(F)c(F)c(F)c5F)c5ccc([nH]5)c(-c5c(F)c(F)c(F)c(F)c5F)c5nc(c(-c6c(F)c(F)c(F)c(F)c6F)c6ccc3[nH]6)C=C5)C=C4)cc2)C1
REMARK SMILES IDX 17 1 16 2 15 3 13 4 14 5 12 7 7 8 8 9 9 10 11 11 10 12 6 13
REMARK SMILES IDX 1 14 2 15 3 16 4 17 85 18 5 19 18 20 19 21 20 22 21 24 22 25
REMARK SMILES IDX 23 26 84 27 24 28 83 29 25 30 26 31 27 32 77 33 28 34 82 35
REMARK SMILES IDX 76 36 78 37 29 38 81 39 75 40 74 41 30 43 62 44 42 45 61 46
REMARK SMILES IDX 43 47 46 48 60 49 79 50 44 51 45 52 59 54 80 55 47 56 31 57
REMARK SMILES IDX 32 58 40 59 33 60 34 61 38 62 41 63 35 64 36 65 39 66 37 67
REMARK SMILES IDX 63 68 64 69 72 70 65 71 66 72 70 73 73 74 67 75 68 76 71 77
REMARK SMILES IDX 69 78 48 79 49 80 57 81 50 82 51 83 55 84 58 85 52 86 53 87
REMARK SMILES IDX 56 88 54 89
REMARK H PARENT 15 6 19 23 78 42 46 53
REMARK Flexibility Score: inf
ROOT
ATOM      1  C   UNL A   1      33.296  27.830  26.824  1.00  0.00     0.042 C 
ENDROOT
BRANCH   1   2
ATOM      2  C   UNL A   1      31.831  28.229  27.001  1.00  0.00     0.118 C 
BRANCH   2   3
ATOM      3  N   UNL A   1      30.967  27.082  26.809  1.00  0.00    -0.352 N 
ATOM      4  C   UNL A   1      30.590  26.292  25.752  1.00  0.00     0.255 C 
ATOM      5  O   UNL A   1      29.723  25.475  26.060  1.00  0.00    -0.269 OA
ATOM      6  H   UNL A   1      30.541  26.799  27.650  1.00  0.00     0.163 HD
BRANCH   4   7
ATOM      7  C   UNL A   1      31.185  26.367  24.374  1.00  0.00     0.082 A 
ATOM      8  C   UNL A   1      30.579  27.141  23.358  1.00  0.00     0.141 A 
ATOM      9  N   UNL A   1      30.988  27.051  22.061  1.00  0.00    -0.238 NA
ATOM     10  C   UNL A   1      32.044  26.274  21.756  1.00  0.00     0.113 A 
ATOM     11  C   UNL A   1      32.332  25.640  24.022  1.00  0.00     0.019 A 
ATOM     12  C   UNL A   1      32.763  25.579  22.700  1.00  0.00     0.021 A 
BRANCH   8  13
ATOM     13  N   UNL A   1      29.612  28.095  23.599  1.00  0.00    -0.355 N 
ATOM     14  C   UNL A   1      28.875  30.462  21.466  1.00  0.00     0.013 C 
ATOM     15  C   UNL A   1      28.774  30.250  22.984  1.00  0.00    -0.016 C 
ATOM     16  C   UNL A   1      28.597  31.605  23.673  1.00  0.00     0.013 C 
ATOM     17  C   UNL A   1      27.630  29.286  23.338  1.00  0.00     0.030 C 
ATOM     18  C   UNL A   1      30.018  29.503  23.517  1.00  0.00     0.124 C 
ATOM     19  C   UNL A   1      28.251  27.907  23.125  1.00  0.00     0.119 C 
ENDBRANCH   8  13
ENDBRANCH   4   7
ENDBRANCH   2   3
ENDBRANCH   1   2
BRANCH   1  20
ATOM     20  C   UNL A   1      34.123  28.862  26.049  1.00  0.00     0.118 C 
BRANCH  20  21
ATOM     21  N   UNL A   1      33.945  30.211  26.566  1.00  0.00    -0.352 N 
ATOM     22  C   UNL A   1      34.600  30.868  27.575  1.00  0.00     0.251 C 
ATOM     23  H   UNL A   1      33.241  30.735  26.119  1.00  0.00     0.163 HD
ATOM     24  O   UNL A   1      34.144  31.918  28.014  1.00  0.00    -0.269 OA
BRANCH  22  25
ATOM     25  C   UNL A   1      35.852  30.322  28.143  1.00  0.00     0.039 A 
ATOM     26  C   UNL A   1      37.035  30.455  27.410  1.00  0.00     0.014 A 
ATOM     27  C   UNL A   1      35.854  29.630  29.357  1.00  0.00     0.014 A 
ATOM     28  C   UNL A   1      38.229  29.941  27.920  1.00  0.00     0.010 A 
ATOM     29  C   UNL A   1      37.055  29.173  29.894  1.00  0.00     0.010 A 
ATOM     30  C   UNL A   1      38.254  29.320  29.179  1.00  0.00    -0.014 A 
BRANCH  30  31
ATOM     31  C   UNL A   1      39.522  28.819  29.764  1.00  0.00     0.031 A 
ATOM     32  C   UNL A   1      40.175  29.554  30.901  1.00  0.00     0.074 A 
ATOM     33  C   UNL A   1      40.121  27.741  29.224  1.00  0.00     0.049 A 
ATOM     34  N   UNL A   1      41.323  29.323  31.488  1.00  0.00    -0.248 NA
ATOM     35  C   UNL A   1      39.454  30.722  31.432  1.00  0.00     0.031 C 
ATOM     36  C   UNL A   1      39.608  26.970  28.090  1.00  0.00     0.029 A 
ATOM     37  N   UNL A   1      41.300  27.116  29.545  1.00  0.00    -0.354 N 
ATOM     38  C   UNL A   1      41.469  30.324  32.439  1.00  0.00     0.074 A 
ATOM     39  C   UNL A   1      40.316  31.190  32.322  1.00  0.00     0.031 C 
ATOM     40  C   UNL A   1      40.459  25.967  27.820  1.00  0.00     0.029 A 
ATOM     41  C   UNL A   1      41.592  26.044  28.737  1.00  0.00     0.049 A 
ATOM     42  H   UNL A   1      41.880  27.407  30.284  1.00  0.00     0.167 HD
ATOM     43  C   UNL A   1      42.468  30.492  33.341  1.00  0.00     0.037 A 
ATOM     44  C   UNL A   1      42.658  25.223  28.731  1.00  0.00     0.037 A 
ATOM     45  C   UNL A   1      43.597  29.610  33.471  1.00  0.00     0.049 A 
ATOM     46  C   UNL A   1      43.748  25.426  29.747  1.00  0.00     0.074 A 
ATOM     47  C   UNL A   1      44.628  29.657  34.394  1.00  0.00     0.029 A 
ATOM     48  N   UNL A   1      43.845  28.518  32.652  1.00  0.00    -0.354 N 
ATOM     49  N   UNL A   1      43.845  26.338  30.683  1.00  0.00    -0.248 NA
ATOM     50  C   UNL A   1      44.873  24.482  29.710  1.00  0.00     0.031 C 
ATOM     51  C   UNL A   1      45.520  28.619  34.108  1.00  0.00     0.029 A 
ATOM     52  C   UNL A   1      45.021  27.896  33.036  1.00  0.00     0.049 A 
ATOM     53  H   UNL A   1      43.270  28.229  31.908  1.00  0.00     0.167 HD
ATOM     54  C   UNL A   1      45.024  26.064  31.362  1.00  0.00     0.074 A 
ATOM     55  C   UNL A   1      45.602  24.891  30.738  1.00  0.00     0.031 C 
ATOM     56  C   UNL A   1      45.578  26.725  32.408  1.00  0.00     0.037 A 
BRANCH  43  57
ATOM     57  C   UNL A   1      42.379  31.677  34.259  1.00  0.00     0.064 A 
ATOM     58  C   UNL A   1      42.937  32.917  33.915  1.00  0.00     0.173 A 
ATOM     59  C   UNL A   1      41.699  31.580  35.482  1.00  0.00     0.173 A 
ATOM     60  F   UNL A   1      43.607  33.060  32.761  1.00  0.00    -0.203 F 
ATOM     61  C   UNL A   1      42.843  34.008  34.775  1.00  0.00     0.198 A 
ATOM     62  C   UNL A   1      41.581  32.682  36.326  1.00  0.00     0.198 A 
ATOM     63  F   UNL A   1      41.140  30.419  35.856  1.00  0.00    -0.203 F 
ATOM     64  F   UNL A   1      43.427  35.170  34.447  1.00  0.00    -0.200 F 
ATOM     65  C   UNL A   1      42.161  33.892  35.976  1.00  0.00     0.200 A 
ATOM     66  F   UNL A   1      40.910  32.571  37.481  1.00  0.00    -0.200 F 
ATOM     67  F   UNL A   1      42.067  34.944  36.801  1.00  0.00    -0.200 F 
ENDBRANCH  43  57
BRANCH  44  68
ATOM     68  C   UNL A   1      42.731  24.115  27.744  1.00  0.00     0.064 A 
ATOM     69  C   UNL A   1      42.325  22.819  28.090  1.00  0.00     0.173 A 
ATOM     70  C   UNL A   1      43.196  24.328  26.439  1.00  0.00     0.173 A 
ATOM     71  F   UNL A   1      41.891  22.563  29.333  1.00  0.00    -0.203 F 
ATOM     72  C   UNL A   1      42.397  21.773  27.173  1.00  0.00     0.198 A 
ATOM     73  C   UNL A   1      43.243  23.287  25.514  1.00  0.00     0.198 A 
ATOM     74  F   UNL A   1      43.590  25.551  26.056  1.00  0.00    -0.203 F 
ATOM     75  F   UNL A   1      42.039  20.536  27.541  1.00  0.00    -0.200 F 
ATOM     76  C   UNL A   1      42.850  22.009  25.883  1.00  0.00     0.200 A 
ATOM     77  F   UNL A   1      43.667  23.522  24.264  1.00  0.00    -0.200 F 
ATOM     78  F   UNL A   1      42.912  21.005  24.999  1.00  0.00    -0.200 F 
ENDBRANCH  44  68
BRANCH  56  79
ATOM     79  C   UNL A   1      46.857  26.174  32.966  1.00  0.00     0.064 A 
ATOM     80  C   UNL A   1      46.860  25.170  33.945  1.00  0.00     0.173 A 
ATOM     81  C   UNL A   1      48.095  26.630  32.487  1.00  0.00     0.173 A 
ATOM     82  F   UNL A   1      45.702  24.713  34.446  1.00  0.00    -0.203 F 
ATOM     83  C   UNL A   1      48.056  24.657  34.441  1.00  0.00     0.198 A 
ATOM     84  C   UNL A   1      49.288  26.096  32.965  1.00  0.00     0.198 A 
ATOM     85  F   UNL A   1      48.145  27.586  31.548  1.00  0.00    -0.203 F 
ATOM     86  F   UNL A   1      48.036  23.730  35.407  1.00  0.00    -0.200 F 
ATOM     87  C   UNL A   1      49.268  25.116  33.945  1.00  0.00     0.200 A 
ATOM     88  F   UNL A   1      50.458  26.532  32.477  1.00  0.00    -0.200 F 
ATOM     89  F   UNL A   1      50.418  24.616  34.418  1.00  0.00    -0.200 F 
ENDBRANCH  56  79
ENDBRANCH  30  31
ENDBRANCH  22  25
ENDBRANCH  20  21
ENDBRANCH   1  20
TORSDOF 11
ENDMDL
