MODEL 1
REMARK VINA RESULT:     -12.5      0.000      0.000
REMARK SMILES CO[C@@H]1C[C@@H](C(=O)NCCCNC(=O)c2ccc(-c3c4nc(c(-c5c(F)c(F)c(F)c(F)c5F)c5ccc([nH]5)c(-c5c(F)c(F)c(F)c(F)c5F)c5nc(c(-c6c(F)c(F)c(F)c(F)c6F)c6ccc3[nH]6)C=C5)C=C4)cc2)N(S(=O)(=O)c2ccc(Cl)cc2F)C1
REMARK SMILES IDX 10 1 9 2 8 3 6 4 7 5 5 7 3 8 4 9 90 10 78 11 2 12 1 13 79 14
REMARK SMILES IDX 80 15 81 16 82 17 83 18 88 19 84 20 87 21 89 22 85 23 86 24
REMARK SMILES IDX 11 25 12 26 13 27 14 29 15 30 16 31 77 32 17 33 76 34 18 35
REMARK SMILES IDX 19 36 20 37 70 38 21 39 75 40 69 41 71 42 22 43 74 44 68 45
REMARK SMILES IDX 67 46 23 48 55 49 35 50 54 51 36 52 39 53 53 54 72 55 37 56
REMARK SMILES IDX 38 57 52 59 73 60 40 61 24 62 25 63 33 64 26 65 27 66 31 67
REMARK SMILES IDX 34 68 28 69 29 70 32 71 30 72 56 73 57 74 65 75 58 76 59 77
REMARK SMILES IDX 63 78 66 79 60 80 61 81 64 82 62 83 41 84 42 85 50 86 43 87
REMARK SMILES IDX 44 88 48 89 51 90 45 91 46 92 49 93 47 94
REMARK H PARENT 8 6 12 28 71 47 39 58
REMARK Flexibility Score: inf
ROOT
ATOM      1  C   UNL A   1      31.332  32.094  26.903  1.00  0.00     0.042 C 
ENDROOT
BRANCH   1   2
ATOM      2  C   UNL A   1      31.496  31.014  25.830  1.00  0.00     0.117 C 
BRANCH   2   3
ATOM      3  N   UNL A   1      32.131  29.836  26.400  1.00  0.00    -0.355 N 
ATOM      4  C   UNL A   1      31.777  28.521  26.241  1.00  0.00     0.238 C 
ATOM      5  O   UNL A   1      32.043  27.738  27.150  1.00  0.00    -0.273 OA
ATOM      6  H   UNL A   1      32.915  30.003  26.972  1.00  0.00     0.163 HD
BRANCH   4   7
ATOM      7  C   UNL A   1      31.071  28.108  24.973  1.00  0.00     0.165 C 
ATOM      8  C   UNL A   1      29.999  26.536  23.589  1.00  0.00     0.135 C 
ATOM      9  C   UNL A   1      30.610  26.652  24.977  1.00  0.00     0.064 C 
ATOM     10  C   UNL A   1      30.958  27.368  22.709  1.00  0.00     0.135 C 
ATOM     11  N   UNL A   1      31.756  28.276  23.641  1.00  0.00    -0.183 NA
BRANCH   8  12
ATOM     12  O   UNL A   1      28.630  26.932  23.725  1.00  0.00    -0.380 OA
ATOM     13  C   UNL A   1      28.196  28.106  23.067  1.00  0.00     0.195 C 
ENDBRANCH   8  12
BRANCH  11  14
ATOM     14  S   UNL A   1      33.448  27.922  23.528  1.00  0.00     0.246 S 
ATOM     15  O   UNL A   1      33.891  28.236  22.193  1.00  0.00    -0.207 OA
ATOM     16  O   UNL A   1      34.064  28.603  24.655  1.00  0.00    -0.207 OA
BRANCH  14  17
ATOM     17  C   UNL A   1      33.675  26.199  23.862  1.00  0.00     0.118 A 
ATOM     18  C   UNL A   1      34.120  25.808  25.136  1.00  0.00     0.026 A 
ATOM     19  C   UNL A   1      33.660  25.259  22.839  1.00  0.00     0.144 A 
ATOM     20  C   UNL A   1      34.485  24.480  25.378  1.00  0.00     0.022 A 
ATOM     21  C   UNL A   1      33.976  23.923  23.086  1.00  0.00     0.061 A 
ATOM     22  F   UNL A   1      33.361  25.590  21.581  1.00  0.00    -0.205 F 
ATOM     23  C   UNL A   1      34.393  23.538  24.355  1.00  0.00     0.044 A 
ATOM     24  Cl  UNL A   1      34.832  21.902  24.651  1.00  0.00    -0.084 Cl
ENDBRANCH  14  17
ENDBRANCH  11  14
ENDBRANCH   4   7
ENDBRANCH   2   3
ENDBRANCH   1   2
BRANCH   1  25
ATOM     25  C   UNL A   1      32.631  32.835  27.216  1.00  0.00     0.118 C 
BRANCH  25  26
ATOM     26  N   UNL A   1      32.395  34.216  27.611  1.00  0.00    -0.352 N 
ATOM     27  C   UNL A   1      33.001  34.953  28.599  1.00  0.00     0.251 C 
ATOM     28  H   UNL A   1      31.703  34.690  27.097  1.00  0.00     0.163 HD
ATOM     29  O   UNL A   1      32.551  36.052  28.905  1.00  0.00    -0.269 OA
BRANCH  27  30
ATOM     30  C   UNL A   1      34.179  34.415  29.314  1.00  0.00     0.039 A 
ATOM     31  C   UNL A   1      33.981  33.742  30.523  1.00  0.00     0.014 A 
ATOM     32  C   UNL A   1      35.472  34.587  28.810  1.00  0.00     0.014 A 
ATOM     33  C   UNL A   1      35.071  33.190  31.197  1.00  0.00     0.010 A 
ATOM     34  C   UNL A   1      36.553  33.987  29.454  1.00  0.00     0.010 A 
ATOM     35  C   UNL A   1      36.362  33.281  30.652  1.00  0.00    -0.014 A 
BRANCH  35  36
ATOM     36  C   UNL A   1      37.523  32.635  31.316  1.00  0.00     0.031 A 
ATOM     37  C   UNL A   1      38.246  31.501  30.647  1.00  0.00     0.074 A 
ATOM     38  C   UNL A   1      37.882  33.030  32.553  1.00  0.00     0.049 A 
ATOM     39  N   UNL A   1      39.230  30.765  31.100  1.00  0.00    -0.248 NA
ATOM     40  C   UNL A   1      37.789  31.129  29.300  1.00  0.00     0.031 C 
ATOM     41  C   UNL A   1      37.231  34.089  33.325  1.00  0.00     0.029 A 
ATOM     42  N   UNL A   1      38.877  32.576  33.384  1.00  0.00    -0.354 N 
ATOM     43  C   UNL A   1      39.495  29.835  30.105  1.00  0.00     0.074 A 
ATOM     44  C   UNL A   1      38.543  30.071  29.040  1.00  0.00     0.031 C 
ATOM     45  C   UNL A   1      37.851  34.213  34.510  1.00  0.00     0.029 A 
ATOM     46  C   UNL A   1      38.920  33.222  34.595  1.00  0.00     0.049 A 
ATOM     47  H   UNL A   1      39.500  31.856  33.135  1.00  0.00     0.167 HD
ATOM     48  C   UNL A   1      40.459  28.883  30.073  1.00  0.00     0.037 A 
ATOM     49  C   UNL A   1      39.724  33.032  35.657  1.00  0.00     0.037 A 
ATOM     50  C   UNL A   1      41.424  28.669  31.119  1.00  0.00     0.049 A 
ATOM     51  C   UNL A   1      40.790  31.971  35.593  1.00  0.00     0.074 A 
ATOM     52  C   UNL A   1      42.478  27.773  31.150  1.00  0.00     0.029 A 
ATOM     53  N   UNL A   1      41.452  29.361  32.320  1.00  0.00    -0.354 N 
ATOM     54  N   UNL A   1      41.074  31.142  34.618  1.00  0.00    -0.248 NA
ATOM     55  C   UNL A   1      41.651  31.825  36.774  1.00  0.00     0.031 C 
ATOM     56  C   UNL A   1      43.123  27.897  32.387  1.00  0.00     0.029 A 
ATOM     57  C   UNL A   1      42.494  28.899  33.108  1.00  0.00     0.049 A 
ATOM     58  H   UNL A   1      40.824  30.076  32.577  1.00  0.00     0.167 HD
ATOM     59  C   UNL A   1      42.159  30.395  35.056  1.00  0.00     0.074 A 
ATOM     60  C   UNL A   1      42.492  30.879  36.380  1.00  0.00     0.031 C 
ATOM     61  C   UNL A   1      42.819  29.398  34.419  1.00  0.00     0.037 A 
BRANCH  48  62
ATOM     62  C   UNL A   1      40.524  28.001  28.862  1.00  0.00     0.064 A 
ATOM     63  C   UNL A   1      39.800  26.802  28.787  1.00  0.00     0.173 A 
ATOM     64  C   UNL A   1      41.282  28.380  27.744  1.00  0.00     0.173 A 
ATOM     65  F   UNL A   1      39.068  26.390  29.833  1.00  0.00    -0.203 F 
ATOM     66  C   UNL A   1      39.851  26.003  27.648  1.00  0.00     0.198 A 
ATOM     67  C   UNL A   1      41.310  27.593  26.596  1.00  0.00     0.198 A 
ATOM     68  F   UNL A   1      41.989  29.521  27.760  1.00  0.00    -0.203 F 
ATOM     69  F   UNL A   1      39.185  24.841  27.616  1.00  0.00    -0.200 F 
ATOM     70  C   UNL A   1      40.601  26.402  26.551  1.00  0.00     0.200 A 
ATOM     71  F   UNL A   1      42.026  27.985  25.532  1.00  0.00    -0.200 F 
ATOM     72  F   UNL A   1      40.643  25.637  25.453  1.00  0.00    -0.200 F 
ENDBRANCH  48  62
BRANCH  49  73
ATOM     73  C   UNL A   1      39.569  33.879  36.866  1.00  0.00     0.064 A 
ATOM     74  C   UNL A   1      38.794  33.446  37.951  1.00  0.00     0.173 A 
ATOM     75  C   UNL A   1      40.184  35.135  36.962  1.00  0.00     0.173 A 
ATOM     76  F   UNL A   1      38.170  32.261  37.896  1.00  0.00    -0.203 F 
ATOM     77  C   UNL A   1      38.624  34.248  39.078  1.00  0.00     0.198 A 
ATOM     78  C   UNL A   1      40.034  35.924  38.100  1.00  0.00     0.198 A 
ATOM     79  F   UNL A   1      40.939  35.592  35.952  1.00  0.00    -0.203 F 
ATOM     80  F   UNL A   1      37.842  33.828  40.083  1.00  0.00    -0.200 F 
ATOM     81  C   UNL A   1      39.248  35.483  39.153  1.00  0.00     0.200 A 
ATOM     82  F   UNL A   1      40.649  37.112  38.176  1.00  0.00    -0.200 F 
ATOM     83  F   UNL A   1      39.086  36.252  40.239  1.00  0.00    -0.200 F 
ENDBRANCH  49  73
BRANCH  61  84
ATOM     84  C   UNL A   1      43.990  28.787  35.130  1.00  0.00     0.064 A 
ATOM     85  C   UNL A   1      43.836  27.687  35.987  1.00  0.00     0.173 A 
ATOM     86  C   UNL A   1      45.285  29.284  34.922  1.00  0.00     0.173 A 
ATOM     87  F   UNL A   1      42.615  27.187  36.230  1.00  0.00    -0.203 F 
ATOM     88  C   UNL A   1      44.935  27.121  36.626  1.00  0.00     0.198 A 
ATOM     89  C   UNL A   1      46.385  28.699  35.541  1.00  0.00     0.198 A 
ATOM     90  F   UNL A   1      45.485  30.331  34.107  1.00  0.00    -0.203 F 
ATOM     91  F   UNL A   1      44.761  26.098  37.474  1.00  0.00    -0.200 F 
ATOM     92  C   UNL A   1      46.209  27.622  36.398  1.00  0.00     0.200 A 
ATOM     93  F   UNL A   1      47.616  29.177  35.312  1.00  0.00    -0.200 F 
ATOM     94  F   UNL A   1      47.266  27.071  37.009  1.00  0.00    -0.200 F 
ENDBRANCH  61  84
ENDBRANCH  35  36
ENDBRANCH  27  30
ENDBRANCH  25  26
ENDBRANCH   1  25
TORSDOF 13
ENDMDL
MODEL 2
REMARK VINA RESULT:     -12.5      0.066      1.585
REMARK SMILES CO[C@@H]1C[C@@H](C(=O)NCCCNC(=O)c2ccc(-c3c4nc(c(-c5c(F)c(F)c(F)c(F)c5F)c5ccc([nH]5)c(-c5c(F)c(F)c(F)c(F)c5F)c5nc(c(-c6c(F)c(F)c(F)c(F)c6F)c6ccc3[nH]6)C=C5)C=C4)cc2)N(S(=O)(=O)c2ccc(Cl)cc2F)C1
REMARK SMILES IDX 10 1 9 2 8 3 6 4 7 5 5 7 3 8 4 9 90 10 78 11 2 12 1 13 79 14
REMARK SMILES IDX 80 15 81 16 82 17 83 18 88 19 84 20 87 21 89 22 85 23 86 24
REMARK SMILES IDX 11 25 12 26 13 27 14 29 15 30 16 31 77 32 17 33 76 34 18 35
REMARK SMILES IDX 19 36 20 37 70 38 21 39 75 40 69 41 71 42 22 43 74 44 68 45
REMARK SMILES IDX 67 46 23 48 55 49 35 50 54 51 36 52 39 53 53 54 72 55 37 56
REMARK SMILES IDX 38 57 52 59 73 60 40 61 24 62 25 63 33 64 26 65 27 66 31 67
REMARK SMILES IDX 34 68 28 69 29 70 32 71 30 72 56 73 57 74 65 75 58 76 59 77
REMARK SMILES IDX 63 78 66 79 60 80 61 81 64 82 62 83 41 84 42 85 50 86 43 87
REMARK SMILES IDX 44 88 48 89 51 90 45 91 46 92 49 93 47 94
REMARK H PARENT 8 6 12 28 71 47 39 58
REMARK Flexibility Score: inf
ROOT
ATOM      1  C   UNL A   1      31.310  32.109  26.946  1.00  0.00     0.042 C 
ENDROOT
BRANCH   1   2
ATOM      2  C   UNL A   1      31.439  31.034  25.863  1.00  0.00     0.117 C 
BRANCH   2   3
ATOM      3  N   UNL A   1      32.101  29.856  26.402  1.00  0.00    -0.355 N 
ATOM      4  C   UNL A   1      31.776  28.538  26.208  1.00  0.00     0.238 C 
ATOM      5  O   UNL A   1      32.060  27.738  27.096  1.00  0.00    -0.273 OA
ATOM      6  H   UNL A   1      32.880  30.026  26.979  1.00  0.00     0.163 HD
BRANCH   4   7
ATOM      7  C   UNL A   1      31.081  28.143  24.928  1.00  0.00     0.165 C 
ATOM      8  C   UNL A   1      30.004  26.595  23.521  1.00  0.00     0.135 C 
ATOM      9  C   UNL A   1      30.598  26.695  24.918  1.00  0.00     0.064 C 
ATOM     10  C   UNL A   1      30.987  27.417  22.659  1.00  0.00     0.135 C 
ATOM     11  N   UNL A   1      31.787  28.307  23.606  1.00  0.00    -0.183 NA
BRANCH   8  12
ATOM     12  O   UNL A   1      28.639  27.012  23.641  1.00  0.00    -0.380 OA
ATOM     13  C   UNL A   1      28.240  28.211  23.006  1.00  0.00     0.195 C 
ENDBRANCH   8  12
BRANCH  11  14
ATOM     14  S   UNL A   1      33.475  27.926  23.515  1.00  0.00     0.246 S 
ATOM     15  O   UNL A   1      33.940  28.238  22.186  1.00  0.00    -0.207 OA
ATOM     16  O   UNL A   1      34.086  28.595  24.652  1.00  0.00    -0.207 OA
BRANCH  14  17
ATOM     17  C   UNL A   1      33.670  26.199  23.846  1.00  0.00     0.118 A 
ATOM     18  C   UNL A   1      34.091  25.798  25.125  1.00  0.00     0.026 A 
ATOM     19  C   UNL A   1      33.655  25.262  22.821  1.00  0.00     0.144 A 
ATOM     20  C   UNL A   1      34.433  24.464  25.368  1.00  0.00     0.022 A 
ATOM     21  C   UNL A   1      33.947  23.921  23.068  1.00  0.00     0.061 A 
ATOM     22  F   UNL A   1      33.380  25.602  21.560  1.00  0.00    -0.205 F 
ATOM     23  C   UNL A   1      34.340  23.527  24.341  1.00  0.00     0.044 A 
ATOM     24  Cl  UNL A   1      34.750  21.883  24.638  1.00  0.00    -0.084 Cl
ENDBRANCH  14  17
ENDBRANCH  11  14
ENDBRANCH   4   7
ENDBRANCH   2   3
ENDBRANCH   1   2
BRANCH   1  25
ATOM     25  C   UNL A   1      32.614  32.863  27.205  1.00  0.00     0.118 C 
BRANCH  25  26
ATOM     26  N   UNL A   1      32.381  34.243  27.606  1.00  0.00    -0.352 N 
ATOM     27  C   UNL A   1      32.991  34.975  28.594  1.00  0.00     0.251 C 
ATOM     28  H   UNL A   1      31.687  34.719  27.097  1.00  0.00     0.163 HD
ATOM     29  O   UNL A   1      32.543  36.074  28.907  1.00  0.00    -0.269 OA
BRANCH  27  30
ATOM     30  C   UNL A   1      34.171  34.434  29.302  1.00  0.00     0.039 A 
ATOM     31  C   UNL A   1      33.979  33.770  30.517  1.00  0.00     0.014 A 
ATOM     32  C   UNL A   1      35.461  34.594  28.787  1.00  0.00     0.014 A 
ATOM     33  C   UNL A   1      35.071  33.214  31.186  1.00  0.00     0.010 A 
ATOM     34  C   UNL A   1      36.543  33.991  29.425  1.00  0.00     0.010 A 
ATOM     35  C   UNL A   1      36.359  33.293  30.629  1.00  0.00    -0.014 A 
BRANCH  35  36
ATOM     36  C   UNL A   1      37.520  32.644  31.287  1.00  0.00     0.031 A 
ATOM     37  C   UNL A   1      38.235  31.506  30.615  1.00  0.00     0.074 A 
ATOM     38  C   UNL A   1      37.889  33.039  32.521  1.00  0.00     0.049 A 
ATOM     39  N   UNL A   1      39.219  30.767  31.064  1.00  0.00    -0.248 NA
ATOM     40  C   UNL A   1      37.768  31.134  29.271  1.00  0.00     0.031 C 
ATOM     41  C   UNL A   1      37.246  34.101  33.295  1.00  0.00     0.029 A 
ATOM     42  N   UNL A   1      38.887  32.582  33.346  1.00  0.00    -0.354 N 
ATOM     43  C   UNL A   1      39.475  29.835  30.068  1.00  0.00     0.074 A 
ATOM     44  C   UNL A   1      38.517  30.073  29.008  1.00  0.00     0.031 C 
ATOM     45  C   UNL A   1      37.873  34.225  34.477  1.00  0.00     0.029 A 
ATOM     46  C   UNL A   1      38.939  33.230  34.556  1.00  0.00     0.049 A 
ATOM     47  H   UNL A   1      39.505  31.859  33.095  1.00  0.00     0.167 HD
ATOM     48  C   UNL A   1      40.434  28.879  30.032  1.00  0.00     0.037 A 
ATOM     49  C   UNL A   1      39.749  33.038  35.614  1.00  0.00     0.037 A 
ATOM     50  C   UNL A   1      41.405  28.662  31.072  1.00  0.00     0.049 A 
ATOM     51  C   UNL A   1      40.811  31.973  35.545  1.00  0.00     0.074 A 
ATOM     52  C   UNL A   1      42.456  27.763  31.098  1.00  0.00     0.029 A 
ATOM     53  N   UNL A   1      41.443  29.356  32.272  1.00  0.00    -0.354 N 
ATOM     54  N   UNL A   1      41.085  31.142  34.570  1.00  0.00    -0.248 NA
ATOM     55  C   UNL A   1      41.678  31.825  36.721  1.00  0.00     0.031 C 
ATOM     56  C   UNL A   1      43.108  27.885  32.331  1.00  0.00     0.029 A 
ATOM     57  C   UNL A   1      42.488  28.891  33.055  1.00  0.00     0.049 A 
ATOM     58  H   UNL A   1      40.819  30.073  32.531  1.00  0.00     0.167 HD
ATOM     59  C   UNL A   1      42.169  30.391  35.003  1.00  0.00     0.074 A 
ATOM     60  C   UNL A   1      42.513  30.875  36.324  1.00  0.00     0.031 C 
ATOM     61  C   UNL A   1      42.823  29.391  34.363  1.00  0.00     0.037 A 
BRANCH  48  62
ATOM     62  C   UNL A   1      40.488  27.995  28.821  1.00  0.00     0.064 A 
ATOM     63  C   UNL A   1      41.264  28.329  27.702  1.00  0.00     0.173 A 
ATOM     64  C   UNL A   1      39.793  26.776  28.797  1.00  0.00     0.173 A 
ATOM     65  F   UNL A   1      41.940  29.487  27.671  1.00  0.00    -0.203 F 
ATOM     66  C   UNL A   1      41.324  27.489  26.593  1.00  0.00     0.198 A 
ATOM     67  C   UNL A   1      39.876  25.925  27.698  1.00  0.00     0.198 A 
ATOM     68  F   UNL A   1      39.040  26.405  29.844  1.00  0.00    -0.203 F 
ATOM     69  F   UNL A   1      42.039  27.849  25.519  1.00  0.00    -0.200 F 
ATOM     70  C   UNL A   1      40.635  26.285  26.595  1.00  0.00     0.200 A 
ATOM     71  F   UNL A   1      39.218  24.757  27.706  1.00  0.00    -0.200 F 
ATOM     72  F   UNL A   1      40.700  25.473  25.531  1.00  0.00    -0.200 F 
ENDBRANCH  48  62
BRANCH  49  73
ATOM     73  C   UNL A   1      39.604  33.887  36.823  1.00  0.00     0.064 A 
ATOM     74  C   UNL A   1      38.835  33.458  37.914  1.00  0.00     0.173 A 
ATOM     75  C   UNL A   1      40.223  35.142  36.912  1.00  0.00     0.173 A 
ATOM     76  F   UNL A   1      38.208  32.275  37.865  1.00  0.00    -0.203 F 
ATOM     77  C   UNL A   1      38.675  34.262  39.041  1.00  0.00     0.198 A 
ATOM     78  C   UNL A   1      40.083  35.933  38.050  1.00  0.00     0.198 A 
ATOM     79  F   UNL A   1      40.973  35.596  35.897  1.00  0.00    -0.203 F 
ATOM     80  F   UNL A   1      37.900  33.846  40.052  1.00  0.00    -0.200 F 
ATOM     81  C   UNL A   1      39.303  35.496  39.110  1.00  0.00     0.200 A 
ATOM     82  F   UNL A   1      40.702  37.120  38.120  1.00  0.00    -0.200 F 
ATOM     83  F   UNL A   1      39.151  36.267  40.196  1.00  0.00    -0.200 F 
ENDBRANCH  49  73
BRANCH  61  84
ATOM     84  C   UNL A   1      43.995  28.775  35.067  1.00  0.00     0.064 A 
ATOM     85  C   UNL A   1      45.294  29.276  34.905  1.00  0.00     0.173 A 
ATOM     86  C   UNL A   1      43.810  27.694  35.942  1.00  0.00     0.173 A 
ATOM     87  F   UNL A   1      45.524  30.298  34.067  1.00  0.00    -0.203 F 
ATOM     88  C   UNL A   1      46.370  28.704  35.579  1.00  0.00     0.198 A 
ATOM     89  C   UNL A   1      44.882  27.141  36.635  1.00  0.00     0.198 A 
ATOM     90  F   UNL A   1      42.584  27.182  36.135  1.00  0.00    -0.203 F 
ATOM     91  F   UNL A   1      47.609  29.170  35.377  1.00  0.00    -0.200 F 
ATOM     92  C   UNL A   1      46.163  27.642  36.448  1.00  0.00     0.200 A 
ATOM     93  F   UNL A   1      44.679  26.123  37.482  1.00  0.00    -0.200 F 
ATOM     94  F   UNL A   1      47.198  27.096  37.100  1.00  0.00    -0.200 F 
ENDBRANCH  61  84
ENDBRANCH  35  36
ENDBRANCH  27  30
ENDBRANCH  25  26
ENDBRANCH   1  25
TORSDOF 13
ENDMDL
MODEL 3
REMARK VINA RESULT:     -12.4      6.030     11.192
REMARK SMILES CO[C@@H]1C[C@@H](C(=O)NCCCNC(=O)c2ccc(-c3c4nc(c(-c5c(F)c(F)c(F)c(F)c5F)c5ccc([nH]5)c(-c5c(F)c(F)c(F)c(F)c5F)c5nc(c(-c6c(F)c(F)c(F)c(F)c6F)c6ccc3[nH]6)C=C5)C=C4)cc2)N(S(=O)(=O)c2ccc(Cl)cc2F)C1
REMARK SMILES IDX 10 1 9 2 8 3 6 4 7 5 5 7 3 8 4 9 90 10 78 11 2 12 1 13 79 14
REMARK SMILES IDX 80 15 81 16 82 17 83 18 88 19 84 20 87 21 89 22 85 23 86 24
REMARK SMILES IDX 11 25 12 26 13 27 14 29 15 30 16 31 77 32 17 33 76 34 18 35
REMARK SMILES IDX 19 36 20 37 70 38 21 39 75 40 69 41 71 42 22 43 74 44 68 45
REMARK SMILES IDX 67 46 23 48 55 49 35 50 54 51 36 52 39 53 53 54 72 55 37 56
REMARK SMILES IDX 38 57 52 59 73 60 40 61 24 62 25 63 33 64 26 65 27 66 31 67
REMARK SMILES IDX 34 68 28 69 29 70 32 71 30 72 56 73 57 74 65 75 58 76 59 77
REMARK SMILES IDX 63 78 66 79 60 80 61 81 64 82 62 83 41 84 42 85 50 86 43 87
REMARK SMILES IDX 44 88 48 89 51 90 45 91 46 92 49 93 47 94
REMARK H PARENT 8 6 12 28 71 47 39 58
REMARK Flexibility Score: inf
ROOT
ATOM      1  C   UNL A   1      38.314  19.724  24.706  1.00  0.00     0.042 C 
ENDROOT
BRANCH   1   2
ATOM      2  C   UNL A   1      36.886  20.191  25.001  1.00  0.00     0.117 C 
BRANCH   2   3
ATOM      3  N   UNL A   1      36.792  21.636  24.857  1.00  0.00    -0.355 N 
ATOM      4  C   UNL A   1      35.791  22.365  24.268  1.00  0.00     0.238 C 
ATOM      5  O   UNL A   1      36.086  23.449  23.769  1.00  0.00    -0.273 OA
ATOM      6  H   UNL A   1      37.540  22.155  25.230  1.00  0.00     0.163 HD
BRANCH   4   7
ATOM      7  C   UNL A   1      34.394  21.799  24.251  1.00  0.00     0.165 C 
ATOM      8  C   UNL A   1      32.136  21.812  23.590  1.00  0.00     0.135 C 
ATOM      9  C   UNL A   1      33.430  22.579  23.361  1.00  0.00     0.064 C 
ATOM     10  C   UNL A   1      32.187  21.472  25.095  1.00  0.00     0.135 C 
ATOM     11  N   UNL A   1      33.639  21.617  25.544  1.00  0.00    -0.183 NA
BRANCH   8  12
ATOM     12  O   UNL A   1      32.123  20.759  22.620  1.00  0.00    -0.380 OA
ATOM     13  C   UNL A   1      32.153  19.421  23.074  1.00  0.00     0.195 C 
ENDBRANCH   8  12
BRANCH  11  14
ATOM     14  S   UNL A   1      33.776  22.841  26.763  1.00  0.00     0.246 S 
ATOM     15  O   UNL A   1      33.050  22.404  27.929  1.00  0.00    -0.207 OA
ATOM     16  O   UNL A   1      35.199  23.116  26.879  1.00  0.00    -0.207 OA
BRANCH  14  17
ATOM     17  C   UNL A   1      33.077  24.336  26.126  1.00  0.00     0.118 A 
ATOM     18  C   UNL A   1      33.939  25.336  25.645  1.00  0.00     0.026 A 
ATOM     19  C   UNL A   1      31.735  24.641  26.313  1.00  0.00     0.144 A 
ATOM     20  C   UNL A   1      33.437  26.597  25.307  1.00  0.00     0.022 A 
ATOM     21  C   UNL A   1      31.219  25.880  25.933  1.00  0.00     0.061 A 
ATOM     22  F   UNL A   1      30.888  23.777  26.876  1.00  0.00    -0.205 F 
ATOM     23  C   UNL A   1      32.074  26.856  25.435  1.00  0.00     0.044 A 
ATOM     24  Cl  UNL A   1      31.450  28.402  25.012  1.00  0.00    -0.084 Cl
ENDBRANCH  14  17
ENDBRANCH  11  14
ENDBRANCH   4   7
ENDBRANCH   2   3
ENDBRANCH   1   2
BRANCH   1  25
ATOM     25  C   UNL A   1      39.297  20.043  25.831  1.00  0.00     0.118 C 
BRANCH  25  26
ATOM     26  N   UNL A   1      40.347  19.040  25.945  1.00  0.00    -0.352 N 
ATOM     27  C   UNL A   1      41.697  19.212  26.126  1.00  0.00     0.251 C 
ATOM     28  H   UNL A   1      40.046  18.106  25.884  1.00  0.00     0.163 HD
ATOM     29  O   UNL A   1      42.455  18.253  26.024  1.00  0.00    -0.269 OA
BRANCH  27  30
ATOM     30  C   UNL A   1      42.244  20.555  26.417  1.00  0.00     0.039 A 
ATOM     31  C   UNL A   1      42.712  21.334  25.355  1.00  0.00     0.014 A 
ATOM     32  C   UNL A   1      42.318  21.038  27.726  1.00  0.00     0.014 A 
ATOM     33  C   UNL A   1      43.196  22.621  25.597  1.00  0.00     0.010 A 
ATOM     34  C   UNL A   1      42.748  22.343  27.962  1.00  0.00     0.010 A 
ATOM     35  C   UNL A   1      43.189  23.148  26.899  1.00  0.00    -0.014 A 
BRANCH  35  36
ATOM     36  C   UNL A   1      43.630  24.540  27.166  1.00  0.00     0.031 A 
ATOM     37  C   UNL A   1      42.652  25.562  27.671  1.00  0.00     0.074 A 
ATOM     38  C   UNL A   1      44.899  24.897  26.889  1.00  0.00     0.049 A 
ATOM     39  N   UNL A   1      42.831  26.842  27.890  1.00  0.00    -0.248 NA
ATOM     40  C   UNL A   1      41.285  25.092  27.943  1.00  0.00     0.031 C 
ATOM     41  C   UNL A   1      45.930  24.008  26.353  1.00  0.00     0.029 A 
ATOM     42  N   UNL A   1      45.533  26.110  27.008  1.00  0.00    -0.354 N 
ATOM     43  C   UNL A   1      41.600  27.328  28.308  1.00  0.00     0.074 A 
ATOM     44  C   UNL A   1      40.671  26.219  28.272  1.00  0.00     0.031 C 
ATOM     45  C   UNL A   1      47.072  24.700  26.203  1.00  0.00     0.029 A 
ATOM     46  C   UNL A   1      46.844  26.086  26.600  1.00  0.00     0.049 A 
ATOM     47  H   UNL A   1      45.091  26.918  27.354  1.00  0.00     0.167 HD
ATOM     48  C   UNL A   1      41.279  28.583  28.703  1.00  0.00     0.037 A 
ATOM     49  C   UNL A   1      47.758  27.074  26.542  1.00  0.00     0.037 A 
ATOM     50  C   UNL A   1      42.210  29.679  28.767  1.00  0.00     0.049 A 
ATOM     51  C   UNL A   1      47.375  28.458  26.994  1.00  0.00     0.074 A 
ATOM     52  C   UNL A   1      41.994  30.970  29.216  1.00  0.00     0.029 A 
ATOM     53  N   UNL A   1      43.536  29.611  28.369  1.00  0.00    -0.354 N 
ATOM     54  N   UNL A   1      46.225  28.890  27.449  1.00  0.00    -0.248 NA
ATOM     55  C   UNL A   1      48.420  29.488  26.928  1.00  0.00     0.031 C 
ATOM     56  C   UNL A   1      43.181  31.694  29.055  1.00  0.00     0.029 A 
ATOM     57  C   UNL A   1      44.147  30.842  28.545  1.00  0.00     0.049 A 
ATOM     58  H   UNL A   1      43.980  28.806  28.014  1.00  0.00     0.167 HD
ATOM     59  C   UNL A   1      46.414  30.233  27.749  1.00  0.00     0.074 A 
ATOM     60  C   UNL A   1      47.795  30.540  27.436  1.00  0.00     0.031 C 
ATOM     61  C   UNL A   1      45.525  31.129  28.239  1.00  0.00     0.037 A 
BRANCH  48  62
ATOM     62  C   UNL A   1      39.857  28.841  29.108  1.00  0.00     0.064 A 
ATOM     63  C   UNL A   1      38.895  29.265  28.180  1.00  0.00     0.173 A 
ATOM     64  C   UNL A   1      39.441  28.619  30.429  1.00  0.00     0.173 A 
ATOM     65  F   UNL A   1      39.244  29.501  26.906  1.00  0.00    -0.203 F 
ATOM     66  C   UNL A   1      37.574  29.480  28.563  1.00  0.00     0.198 A 
ATOM     67  C   UNL A   1      38.113  28.808  30.804  1.00  0.00     0.198 A 
ATOM     68  F   UNL A   1      40.320  28.207  31.356  1.00  0.00    -0.203 F 
ATOM     69  F   UNL A   1      36.682  29.924  27.668  1.00  0.00    -0.200 F 
ATOM     70  C   UNL A   1      37.183  29.245  29.873  1.00  0.00     0.200 A 
ATOM     71  F   UNL A   1      37.734  28.570  32.068  1.00  0.00    -0.200 F 
ATOM     72  F   UNL A   1      35.909  29.443  30.239  1.00  0.00    -0.200 F 
ENDBRANCH  48  62
BRANCH  49  73
ATOM     73  C   UNL A   1      49.132  26.786  26.058  1.00  0.00     0.064 A 
ATOM     74  C   UNL A   1      49.478  26.995  24.717  1.00  0.00     0.173 A 
ATOM     75  C   UNL A   1      50.121  26.293  26.921  1.00  0.00     0.173 A 
ATOM     76  F   UNL A   1      48.559  27.445  23.851  1.00  0.00    -0.203 F 
ATOM     77  C   UNL A   1      50.759  26.703  24.251  1.00  0.00     0.198 A 
ATOM     78  C   UNL A   1      51.408  26.027  26.460  1.00  0.00     0.198 A 
ATOM     79  F   UNL A   1      49.840  26.081  28.215  1.00  0.00    -0.203 F 
ATOM     80  F   UNL A   1      51.052  26.871  22.954  1.00  0.00    -0.200 F 
ATOM     81  C   UNL A   1      51.723  26.224  25.124  1.00  0.00     0.200 A 
ATOM     82  F   UNL A   1      52.342  25.576  27.309  1.00  0.00    -0.200 F 
ATOM     83  F   UNL A   1      52.956  25.946  24.676  1.00  0.00    -0.200 F 
ENDBRANCH  49  73
BRANCH  61  84
ATOM     84  C   UNL A   1      46.023  32.520  28.499  1.00  0.00     0.064 A 
ATOM     85  C   UNL A   1      46.597  32.875  29.729  1.00  0.00     0.173 A 
ATOM     86  C   UNL A   1      45.959  33.497  27.495  1.00  0.00     0.173 A 
ATOM     87  F   UNL A   1      46.665  31.981  30.725  1.00  0.00    -0.203 F 
ATOM     88  C   UNL A   1      47.069  34.166  29.949  1.00  0.00     0.198 A 
ATOM     89  C   UNL A   1      46.457  34.778  27.709  1.00  0.00     0.198 A 
ATOM     90  F   UNL A   1      45.423  33.204  26.299  1.00  0.00    -0.203 F 
ATOM     91  F   UNL A   1      47.575  34.497  31.145  1.00  0.00    -0.200 F 
ATOM     92  C   UNL A   1      47.006  35.114  28.938  1.00  0.00     0.200 A 
ATOM     93  F   UNL A   1      46.404  35.690  26.728  1.00  0.00    -0.200 F 
ATOM     94  F   UNL A   1      47.467  36.354  29.150  1.00  0.00    -0.200 F 
ENDBRANCH  61  84
ENDBRANCH  35  36
ENDBRANCH  27  30
ENDBRANCH  25  26
ENDBRANCH   1  25
TORSDOF 13
ENDMDL
