MODEL 1
REMARK VINA RESULT:     -11.3      0.000      0.000
REMARK SMILES CC(C)(C)C(=O)N1CCCC[C@@H]1C(=O)NCCCNC(=O)c1ccc(-c2c3nc(c(-c4c(F)c(F)c(F)c(F)c4F)c4ccc([nH]4)c(-c4c(F)c(F)c(F)c(F)c4F)c4nc(c(-c5c(F)c(F)c(F)c(F)c5F)c5ccc2[nH]5)C=C4)C=C3)cc1
REMARK SMILES IDX 17 1 16 2 15 3 13 4 14 5 12 7 7 8 8 9 9 10 11 11 10 12 5 13
REMARK SMILES IDX 6 14 2 15 1 16 3 17 4 18 18 19 19 20 20 21 21 23 22 24 23 25
REMARK SMILES IDX 84 26 24 27 83 28 25 29 26 30 27 31 77 32 28 33 82 34 76 35
REMARK SMILES IDX 78 36 29 37 81 38 75 39 74 40 30 42 62 43 42 44 61 45 43 46
REMARK SMILES IDX 46 47 60 48 79 49 44 50 45 51 59 53 80 54 47 55 31 56 32 57
REMARK SMILES IDX 40 58 33 59 34 60 38 61 41 62 35 63 36 64 39 65 37 66 63 67
REMARK SMILES IDX 64 68 72 69 65 70 66 71 70 72 73 73 67 74 68 75 71 76 69 77
REMARK SMILES IDX 48 78 49 79 57 80 50 81 51 82 55 83 58 84 52 85 53 86 56 87
REMARK SMILES IDX 54 88
REMARK H PARENT 15 6 19 22 78 41 46 52
REMARK Flexibility Score: inf
ROOT
ATOM      1  C   UNL A   1      35.708  23.581  25.874  1.00  0.00     0.042 C 
ENDROOT
BRANCH   1   2
ATOM      2  C   UNL A   1      34.620  24.502  25.364  1.00  0.00     0.117 C 
BRANCH   2   3
ATOM      3  N   UNL A   1      33.463  24.509  26.245  1.00  0.00    -0.354 N 
ATOM      4  C   UNL A   1      32.198  24.952  26.010  1.00  0.00     0.242 C 
ATOM      5  O   UNL A   1      31.401  24.911  26.954  1.00  0.00    -0.273 OA
ATOM      6  H   UNL A   1      33.619  24.138  27.144  1.00  0.00     0.163 HD
BRANCH   4   7
ATOM      7  C   UNL A   1      31.824  25.666  24.700  1.00  0.00     0.174 C 
ATOM      8  N   UNL A   1      32.017  27.135  24.610  1.00  0.00    -0.330 N 
ATOM      9  C   UNL A   1      31.252  27.800  23.551  1.00  0.00     0.120 C 
ATOM     10  C   UNL A   1      29.763  27.542  23.669  1.00  0.00     0.022 C 
ATOM     11  C   UNL A   1      30.312  25.277  24.566  1.00  0.00     0.035 C 
ATOM     12  C   UNL A   1      29.504  26.053  23.539  1.00  0.00     0.004 C 
BRANCH   8  13
ATOM     13  C   UNL A   1      32.953  27.947  25.233  1.00  0.00     0.228 C 
ATOM     14  O   UNL A   1      34.101  27.934  24.759  1.00  0.00    -0.274 OA
BRANCH  13  15
ATOM     15  C   UNL A   1      32.703  28.748  26.545  1.00  0.00     0.041 C 
ATOM     16  C   UNL A   1      32.154  30.140  26.123  1.00  0.00     0.021 C 
ATOM     17  C   UNL A   1      34.048  28.955  27.251  1.00  0.00     0.021 C 
ATOM     18  C   UNL A   1      31.693  28.203  27.552  1.00  0.00     0.021 C 
ENDBRANCH  13  15
ENDBRANCH   8  13
ENDBRANCH   4   7
ENDBRANCH   2   3
ENDBRANCH   1   2
BRANCH   1  19
ATOM     19  C   UNL A   1      36.945  23.581  24.996  1.00  0.00     0.118 C 
BRANCH  19  20
ATOM     20  N   UNL A   1      37.940  22.601  25.405  1.00  0.00    -0.352 N 
ATOM     21  C   UNL A   1      39.093  22.807  26.131  1.00  0.00     0.251 C 
ATOM     22  H   UNL A   1      37.768  21.672  25.127  1.00  0.00     0.163 HD
ATOM     23  O   UNL A   1      39.904  21.913  26.294  1.00  0.00    -0.269 OA
BRANCH  21  24
ATOM     24  C   UNL A   1      39.345  24.157  26.678  1.00  0.00     0.039 A 
ATOM     25  C   UNL A   1      38.966  24.433  27.993  1.00  0.00     0.014 A 
ATOM     26  C   UNL A   1      40.020  25.114  25.916  1.00  0.00     0.014 A 
ATOM     27  C   UNL A   1      39.323  25.655  28.565  1.00  0.00     0.010 A 
ATOM     28  C   UNL A   1      40.460  26.283  26.518  1.00  0.00     0.010 A 
ATOM     29  C   UNL A   1      40.106  26.573  27.844  1.00  0.00    -0.014 A 
BRANCH  29  30
ATOM     30  C   UNL A   1      40.532  27.862  28.442  1.00  0.00     0.031 A 
ATOM     31  C   UNL A   1      41.975  28.062  28.818  1.00  0.00     0.074 A 
ATOM     32  C   UNL A   1      39.621  28.819  28.703  1.00  0.00     0.049 A 
ATOM     33  N   UNL A   1      42.540  29.072  29.429  1.00  0.00    -0.248 NA
ATOM     34  C   UNL A   1      42.900  26.963  28.496  1.00  0.00     0.031 C 
ATOM     35  C   UNL A   1      38.186  28.722  28.432  1.00  0.00     0.029 A 
ATOM     36  N   UNL A   1      39.768  30.063  29.267  1.00  0.00    -0.354 N 
ATOM     37  C   UNL A   1      43.875  28.721  29.579  1.00  0.00     0.074 A 
ATOM     38  C   UNL A   1      44.024  27.381  29.056  1.00  0.00     0.031 C 
ATOM     39  C   UNL A   1      37.589  29.868  28.803  1.00  0.00     0.029 A 
ATOM     40  C   UNL A   1      38.592  30.763  29.372  1.00  0.00     0.049 A 
ATOM     41  H   UNL A   1      40.636  30.418  29.567  1.00  0.00     0.167 HD
ATOM     42  C   UNL A   1      44.892  29.460  30.078  1.00  0.00     0.037 A 
ATOM     43  C   UNL A   1      38.352  31.989  29.876  1.00  0.00     0.037 A 
ATOM     44  C   UNL A   1      44.747  30.806  30.560  1.00  0.00     0.049 A 
ATOM     45  C   UNL A   1      39.504  32.794  30.418  1.00  0.00     0.074 A 
ATOM     46  C   UNL A   1      45.723  31.663  31.036  1.00  0.00     0.029 A 
ATOM     47  N   UNL A   1      43.545  31.496  30.619  1.00  0.00    -0.354 N 
ATOM     48  N   UNL A   1      40.773  32.476  30.496  1.00  0.00    -0.248 NA
ATOM     49  C   UNL A   1      39.191  34.135  30.932  1.00  0.00     0.031 C 
ATOM     50  C   UNL A   1      45.106  32.858  31.420  1.00  0.00     0.029 A 
ATOM     51  C   UNL A   1      43.752  32.763  31.136  1.00  0.00     0.049 A 
ATOM     52  H   UNL A   1      42.672  31.137  30.335  1.00  0.00     0.167 HD
ATOM     53  C   UNL A   1      41.412  33.585  31.033  1.00  0.00     0.074 A 
ATOM     54  C   UNL A   1      40.394  34.590  31.251  1.00  0.00     0.031 C 
ATOM     55  C   UNL A   1      42.726  33.756  31.322  1.00  0.00     0.037 A 
BRANCH  42  56
ATOM     56  C   UNL A   1      46.255  28.832  30.111  1.00  0.00     0.064 A 
ATOM     57  C   UNL A   1      46.705  28.114  31.231  1.00  0.00     0.173 A 
ATOM     58  C   UNL A   1      47.107  28.918  29.001  1.00  0.00     0.173 A 
ATOM     59  F   UNL A   1      45.934  28.016  32.324  1.00  0.00    -0.203 F 
ATOM     60  C   UNL A   1      47.969  27.531  31.246  1.00  0.00     0.198 A 
ATOM     61  C   UNL A   1      48.358  28.306  29.009  1.00  0.00     0.198 A 
ATOM     62  F   UNL A   1      46.725  29.590  27.904  1.00  0.00    -0.203 F 
ATOM     63  F   UNL A   1      48.396  26.893  32.345  1.00  0.00    -0.200 F 
ATOM     64  C   UNL A   1      48.790  27.619  30.133  1.00  0.00     0.200 A 
ATOM     65  F   UNL A   1      49.146  28.381  27.927  1.00  0.00    -0.200 F 
ATOM     66  F   UNL A   1      50.003  27.048  30.146  1.00  0.00    -0.200 F 
ENDBRANCH  42  56
BRANCH  43  67
ATOM     67  C   UNL A   1      36.974  32.548  29.866  1.00  0.00     0.064 A 
ATOM     68  C   UNL A   1      36.498  33.266  28.761  1.00  0.00     0.173 A 
ATOM     69  C   UNL A   1      36.117  32.399  30.965  1.00  0.00     0.173 A 
ATOM     70  F   UNL A   1      37.288  33.453  27.693  1.00  0.00    -0.203 F 
ATOM     71  C   UNL A   1      35.227  33.839  28.765  1.00  0.00     0.198 A 
ATOM     72  C   UNL A   1      34.834  32.946  30.957  1.00  0.00     0.198 A 
ATOM     73  F   UNL A   1      36.521  31.716  32.046  1.00  0.00    -0.203 F 
ATOM     74  F   UNL A   1      34.819  34.566  27.717  1.00  0.00    -0.200 F 
ATOM     75  C   UNL A   1      34.395  33.675  29.861  1.00  0.00     0.200 A 
ATOM     76  F   UNL A   1      34.029  32.774  32.013  1.00  0.00    -0.200 F 
ATOM     77  F   UNL A   1      33.175  34.227  29.868  1.00  0.00    -0.200 F 
ENDBRANCH  43  67
BRANCH  55  78
ATOM     78  C   UNL A   1      43.145  35.095  31.855  1.00  0.00     0.064 A 
ATOM     79  C   UNL A   1      43.619  36.110  31.012  1.00  0.00     0.173 A 
ATOM     80  C   UNL A   1      43.031  35.376  33.225  1.00  0.00     0.173 A 
ATOM     81  F   UNL A   1      43.760  35.883  29.697  1.00  0.00    -0.203 F 
ATOM     82  C   UNL A   1      43.986  37.351  31.524  1.00  0.00     0.198 A 
ATOM     83  C   UNL A   1      43.369  36.629  33.729  1.00  0.00     0.198 A 
ATOM     84  F   UNL A   1      42.575  34.441  34.073  1.00  0.00    -0.203 F 
ATOM     85  F   UNL A   1      44.480  38.291  30.707  1.00  0.00    -0.200 F 
ATOM     86  C   UNL A   1      43.854  37.611  32.880  1.00  0.00     0.200 A 
ATOM     87  F   UNL A   1      43.226  36.884  35.037  1.00  0.00    -0.200 F 
ATOM     88  F   UNL A   1      44.199  38.810  33.370  1.00  0.00    -0.200 F 
ENDBRANCH  55  78
ENDBRANCH  29  30
ENDBRANCH  21  24
ENDBRANCH  19  20
ENDBRANCH   1  19
TORSDOF 12
ENDMDL
MODEL 2
REMARK VINA RESULT:     -11.2      4.174      7.961
REMARK SMILES CC(C)(C)C(=O)N1CCCC[C@@H]1C(=O)NCCCNC(=O)c1ccc(-c2c3nc(c(-c4c(F)c(F)c(F)c(F)c4F)c4ccc([nH]4)c(-c4c(F)c(F)c(F)c(F)c4F)c4nc(c(-c5c(F)c(F)c(F)c(F)c5F)c5ccc2[nH]5)C=C4)C=C3)cc1
REMARK SMILES IDX 17 1 16 2 15 3 13 4 14 5 12 7 7 8 8 9 9 10 11 11 10 12 5 13
REMARK SMILES IDX 6 14 2 15 1 16 3 17 4 18 18 19 19 20 20 21 21 23 22 24 23 25
REMARK SMILES IDX 84 26 24 27 83 28 25 29 26 30 27 31 77 32 28 33 82 34 76 35
REMARK SMILES IDX 78 36 29 37 81 38 75 39 74 40 30 42 62 43 42 44 61 45 43 46
REMARK SMILES IDX 46 47 60 48 79 49 44 50 45 51 59 53 80 54 47 55 31 56 32 57
REMARK SMILES IDX 40 58 33 59 34 60 38 61 41 62 35 63 36 64 39 65 37 66 63 67
REMARK SMILES IDX 64 68 72 69 65 70 66 71 70 72 73 73 67 74 68 75 71 76 69 77
REMARK SMILES IDX 48 78 49 79 57 80 50 81 51 82 55 83 58 84 52 85 53 86 56 87
REMARK SMILES IDX 54 88
REMARK H PARENT 15 6 19 22 78 41 46 52
REMARK Flexibility Score: inf
ROOT
ATOM      1  C   UNL A   1      31.794  31.967  26.861  1.00  0.00     0.042 C 
ENDROOT
BRANCH   1   2
ATOM      2  C   UNL A   1      32.135  30.492  26.855  1.00  0.00     0.117 C 
BRANCH   2   3
ATOM      3  N   UNL A   1      32.717  30.079  25.589  1.00  0.00    -0.354 N 
ATOM      4  C   UNL A   1      32.210  29.258  24.629  1.00  0.00     0.242 C 
ATOM      5  O   UNL A   1      32.935  29.005  23.661  1.00  0.00    -0.273 OA
ATOM      6  H   UNL A   1      33.611  30.447  25.398  1.00  0.00     0.163 HD
BRANCH   4   7
ATOM      7  C   UNL A   1      30.880  28.510  24.828  1.00  0.00     0.174 C 
ATOM      8  N   UNL A   1      30.921  27.081  25.224  1.00  0.00    -0.330 N 
ATOM      9  C   UNL A   1      29.690  26.327  24.966  1.00  0.00     0.120 C 
ATOM     10  C   UNL A   1      29.276  26.385  23.509  1.00  0.00     0.022 C 
ATOM     11  C   UNL A   1      30.216  28.697  23.421  1.00  0.00     0.035 C 
ATOM     12  C   UNL A   1      29.004  27.828  23.126  1.00  0.00     0.004 C 
BRANCH   8  13
ATOM     13  C   UNL A   1      31.861  26.396  25.979  1.00  0.00     0.228 C 
ATOM     14  O   UNL A   1      31.753  26.485  27.214  1.00  0.00    -0.274 OA
BRANCH  13  15
ATOM     15  C   UNL A   1      33.100  25.654  25.397  1.00  0.00     0.041 C 
ATOM     16  C   UNL A   1      33.180  24.279  26.118  1.00  0.00     0.021 C 
ATOM     17  C   UNL A   1      34.358  26.457  25.751  1.00  0.00     0.021 C 
ATOM     18  C   UNL A   1      33.123  25.329  23.905  1.00  0.00     0.021 C 
ENDBRANCH  13  15
ENDBRANCH   8  13
ENDBRANCH   4   7
ENDBRANCH   2   3
ENDBRANCH   1   2
BRANCH   1  19
ATOM     19  C   UNL A   1      32.957  32.844  27.285  1.00  0.00     0.118 C 
BRANCH  19  20
ATOM     20  N   UNL A   1      32.558  34.200  27.630  1.00  0.00    -0.352 N 
ATOM     21  C   UNL A   1      33.042  35.000  28.642  1.00  0.00     0.251 C 
ATOM     22  H   UNL A   1      31.852  34.597  27.070  1.00  0.00     0.163 HD
ATOM     23  O   UNL A   1      32.527  36.074  28.900  1.00  0.00    -0.269 OA
BRANCH  21  24
ATOM     24  C   UNL A   1      34.185  34.508  29.441  1.00  0.00     0.039 A 
ATOM     25  C   UNL A   1      33.933  33.872  30.658  1.00  0.00     0.014 A 
ATOM     26  C   UNL A   1      35.488  34.612  28.948  1.00  0.00     0.014 A 
ATOM     27  C   UNL A   1      34.990  33.281  31.352  1.00  0.00     0.010 A 
ATOM     28  C   UNL A   1      36.518  33.938  29.589  1.00  0.00     0.010 A 
ATOM     29  C   UNL A   1      36.284  33.278  30.803  1.00  0.00    -0.014 A 
BRANCH  29  30
ATOM     30  C   UNL A   1      37.418  32.624  31.502  1.00  0.00     0.031 A 
ATOM     31  C   UNL A   1      38.132  31.476  30.840  1.00  0.00     0.074 A 
ATOM     32  C   UNL A   1      37.761  33.014  32.744  1.00  0.00     0.049 A 
ATOM     33  N   UNL A   1      39.085  30.712  31.309  1.00  0.00    -0.248 NA
ATOM     34  C   UNL A   1      37.689  31.117  29.483  1.00  0.00     0.031 C 
ATOM     35  C   UNL A   1      37.111  34.079  33.510  1.00  0.00     0.029 A 
ATOM     36  N   UNL A   1      38.741  32.551  33.588  1.00  0.00    -0.354 N 
ATOM     37  C   UNL A   1      39.339  29.776  30.315  1.00  0.00     0.074 A 
ATOM     38  C   UNL A   1      38.398  30.025  29.246  1.00  0.00     0.031 C 
ATOM     39  C   UNL A   1      37.727  34.207  34.697  1.00  0.00     0.029 A 
ATOM     40  C   UNL A   1      38.788  33.208  34.792  1.00  0.00     0.049 A 
ATOM     41  H   UNL A   1      39.351  31.816  33.350  1.00  0.00     0.167 HD
ATOM     42  C   UNL A   1      40.292  28.817  30.282  1.00  0.00     0.037 A 
ATOM     43  C   UNL A   1      39.596  33.022  35.853  1.00  0.00     0.037 A 
ATOM     44  C   UNL A   1      41.250  28.599  31.331  1.00  0.00     0.049 A 
ATOM     45  C   UNL A   1      40.654  31.952  35.787  1.00  0.00     0.074 A 
ATOM     46  C   UNL A   1      42.292  27.688  31.373  1.00  0.00     0.029 A 
ATOM     47  N   UNL A   1      41.289  29.309  32.522  1.00  0.00    -0.354 N 
ATOM     48  N   UNL A   1      40.926  31.115  34.815  1.00  0.00    -0.248 NA
ATOM     49  C   UNL A   1      41.524  31.807  36.962  1.00  0.00     0.031 C 
ATOM     50  C   UNL A   1      42.937  27.821  32.607  1.00  0.00     0.029 A 
ATOM     51  C   UNL A   1      42.328  28.848  33.312  1.00  0.00     0.049 A 
ATOM     52  H   UNL A   1      40.669  30.033  32.769  1.00  0.00     0.167 HD
ATOM     53  C   UNL A   1      42.016  30.371  35.246  1.00  0.00     0.074 A 
ATOM     54  C   UNL A   1      42.365  30.864  36.561  1.00  0.00     0.031 C 
ATOM     55  C   UNL A   1      42.671  29.369  34.610  1.00  0.00     0.037 A 
BRANCH  42  56
ATOM     56  C   UNL A   1      40.353  27.941  29.065  1.00  0.00     0.064 A 
ATOM     57  C   UNL A   1      39.632  26.739  28.988  1.00  0.00     0.173 A 
ATOM     58  C   UNL A   1      41.112  28.323  27.949  1.00  0.00     0.173 A 
ATOM     59  F   UNL A   1      38.903  26.321  30.034  1.00  0.00    -0.203 F 
ATOM     60  C   UNL A   1      39.691  25.939  27.850  1.00  0.00     0.198 A 
ATOM     61  C   UNL A   1      41.143  27.536  26.801  1.00  0.00     0.198 A 
ATOM     62  F   UNL A   1      41.817  29.463  27.968  1.00  0.00    -0.203 F 
ATOM     63  F   UNL A   1      39.034  24.772  27.820  1.00  0.00    -0.200 F 
ATOM     64  C   UNL A   1      40.439  26.342  26.755  1.00  0.00     0.200 A 
ATOM     65  F   UNL A   1      41.856  27.932  25.737  1.00  0.00    -0.200 F 
ATOM     66  F   UNL A   1      40.487  25.576  25.656  1.00  0.00    -0.200 F 
ENDBRANCH  42  56
BRANCH  43  67
ATOM     67  C   UNL A   1      39.463  33.883  37.058  1.00  0.00     0.064 A 
ATOM     68  C   UNL A   1      38.717  33.460  38.166  1.00  0.00     0.173 A 
ATOM     69  C   UNL A   1      40.056  35.152  37.119  1.00  0.00     0.173 A 
ATOM     70  F   UNL A   1      38.113  32.262  38.148  1.00  0.00    -0.203 F 
ATOM     71  C   UNL A   1      38.543  34.283  39.277  1.00  0.00     0.198 A 
ATOM     72  C   UNL A   1      39.908  35.963  38.243  1.00  0.00     0.198 A 
ATOM     73  F   UNL A   1      40.787  35.603  36.088  1.00  0.00    -0.203 F 
ATOM     74  F   UNL A   1      37.779  33.875  40.299  1.00  0.00    -0.200 F 
ATOM     75  C   UNL A   1      39.143  35.532  39.316  1.00  0.00     0.200 A 
ATOM     76  F   UNL A   1      40.500  37.165  38.282  1.00  0.00    -0.200 F 
ATOM     77  F   UNL A   1      38.975  36.326  40.382  1.00  0.00    -0.200 F 
ENDBRANCH  43  67
BRANCH  55  78
ATOM     78  C   UNL A   1      43.861  28.774  35.304  1.00  0.00     0.064 A 
ATOM     79  C   UNL A   1      45.160  29.255  35.085  1.00  0.00     0.173 A 
ATOM     80  C   UNL A   1      43.691  27.736  36.232  1.00  0.00     0.173 A 
ATOM     81  F   UNL A   1      45.375  30.236  34.196  1.00  0.00    -0.203 F 
ATOM     82  C   UNL A   1      46.249  28.701  35.752  1.00  0.00     0.198 A 
ATOM     83  C   UNL A   1      44.778  27.205  36.920  1.00  0.00     0.198 A 
ATOM     84  F   UNL A   1      42.467  27.246  36.483  1.00  0.00    -0.203 F 
ATOM     85  F   UNL A   1      47.486  29.144  35.493  1.00  0.00    -0.200 F 
ATOM     86  C   UNL A   1      46.056  27.683  36.674  1.00  0.00     0.200 A 
ATOM     87  F   UNL A   1      44.589  26.233  37.822  1.00  0.00    -0.200 F 
ATOM     88  F   UNL A   1      47.104  27.157  37.322  1.00  0.00    -0.200 F 
ENDBRANCH  55  78
ENDBRANCH  29  30
ENDBRANCH  21  24
ENDBRANCH  19  20
ENDBRANCH   1  19
TORSDOF 12
ENDMDL
MODEL 3
REMARK VINA RESULT:     -11.2      0.577      2.123
REMARK SMILES CC(C)(C)C(=O)N1CCCC[C@@H]1C(=O)NCCCNC(=O)c1ccc(-c2c3nc(c(-c4c(F)c(F)c(F)c(F)c4F)c4ccc([nH]4)c(-c4c(F)c(F)c(F)c(F)c4F)c4nc(c(-c5c(F)c(F)c(F)c(F)c5F)c5ccc2[nH]5)C=C4)C=C3)cc1
REMARK SMILES IDX 17 1 16 2 15 3 13 4 14 5 12 7 7 8 8 9 9 10 11 11 10 12 5 13
REMARK SMILES IDX 6 14 2 15 1 16 3 17 4 18 18 19 19 20 20 21 21 23 22 24 23 25
REMARK SMILES IDX 84 26 24 27 83 28 25 29 26 30 27 31 77 32 28 33 82 34 76 35
REMARK SMILES IDX 78 36 29 37 81 38 75 39 74 40 30 42 62 43 42 44 61 45 43 46
REMARK SMILES IDX 46 47 60 48 79 49 44 50 45 51 59 53 80 54 47 55 31 56 32 57
REMARK SMILES IDX 40 58 33 59 34 60 38 61 41 62 35 63 36 64 39 65 37 66 63 67
REMARK SMILES IDX 64 68 72 69 65 70 66 71 70 72 73 73 67 74 68 75 71 76 69 77
REMARK SMILES IDX 48 78 49 79 57 80 50 81 51 82 55 83 58 84 52 85 53 86 56 87
REMARK SMILES IDX 54 88
REMARK H PARENT 15 6 19 22 78 41 46 52
REMARK Flexibility Score: inf
ROOT
ATOM      1  C   UNL A   1      35.727  23.689  26.152  1.00  0.00     0.042 C 
ENDROOT
BRANCH   1   2
ATOM      2  C   UNL A   1      34.335  23.755  25.562  1.00  0.00     0.117 C 
BRANCH   2   3
ATOM      3  N   UNL A   1      34.218  24.814  24.573  1.00  0.00    -0.354 N 
ATOM      4  C   UNL A   1      33.820  26.107  24.731  1.00  0.00     0.242 C 
ATOM      5  O   UNL A   1      33.740  26.801  23.713  1.00  0.00    -0.273 OA
ATOM      6  H   UNL A   1      34.462  24.559  23.654  1.00  0.00     0.163 HD
BRANCH   4   7
ATOM      7  C   UNL A   1      33.294  26.629  26.079  1.00  0.00     0.174 C 
ATOM      8  N   UNL A   1      31.828  26.780  26.260  1.00  0.00    -0.330 N 
ATOM      9  C   UNL A   1      31.424  27.673  27.350  1.00  0.00     0.120 C 
ATOM     10  C   UNL A   1      32.010  29.063  27.202  1.00  0.00     0.022 C 
ATOM     11  C   UNL A   1      34.029  28.010  26.175  1.00  0.00     0.035 C 
ATOM     12  C   UNL A   1      33.525  28.971  27.239  1.00  0.00     0.004 C 
BRANCH   8  13
ATOM     13  C   UNL A   1      30.786  26.059  25.697  1.00  0.00     0.228 C 
ATOM     14  O   UNL A   1      30.462  25.008  26.274  1.00  0.00    -0.274 OA
BRANCH  13  15
ATOM     15  C   UNL A   1      30.102  26.398  24.339  1.00  0.00     0.041 C 
ATOM     16  C   UNL A   1      30.623  25.363  23.303  1.00  0.00     0.021 C 
ATOM     17  C   UNL A   1      30.563  27.793  23.899  1.00  0.00     0.021 C 
ATOM     18  C   UNL A   1      28.580  26.328  24.251  1.00  0.00     0.021 C 
ENDBRANCH  13  15
ENDBRANCH   8  13
ENDBRANCH   4   7
ENDBRANCH   2   3
ENDBRANCH   1   2
BRANCH   1  19
ATOM     19  C   UNL A   1      36.812  23.553  25.100  1.00  0.00     0.118 C 
BRANCH  19  20
ATOM     20  N   UNL A   1      37.837  22.583  25.453  1.00  0.00    -0.352 N 
ATOM     21  C   UNL A   1      39.020  22.798  26.126  1.00  0.00     0.251 C 
ATOM     22  H   UNL A   1      37.664  21.654  25.176  1.00  0.00     0.163 HD
ATOM     23  O   UNL A   1      39.849  21.913  26.243  1.00  0.00    -0.269 OA
BRANCH  21  24
ATOM     24  C   UNL A   1      39.281  24.146  26.673  1.00  0.00     0.039 A 
ATOM     25  C   UNL A   1      38.915  24.422  27.992  1.00  0.00     0.014 A 
ATOM     26  C   UNL A   1      39.950  25.103  25.905  1.00  0.00     0.014 A 
ATOM     27  C   UNL A   1      39.281  25.642  28.562  1.00  0.00     0.010 A 
ATOM     28  C   UNL A   1      40.399  26.271  26.505  1.00  0.00     0.010 A 
ATOM     29  C   UNL A   1      40.059  26.559  27.835  1.00  0.00    -0.014 A 
BRANCH  29  30
ATOM     30  C   UNL A   1      40.494  27.847  28.430  1.00  0.00     0.031 A 
ATOM     31  C   UNL A   1      41.939  28.039  28.803  1.00  0.00     0.074 A 
ATOM     32  C   UNL A   1      39.589  28.809  28.693  1.00  0.00     0.049 A 
ATOM     33  N   UNL A   1      42.511  29.045  29.411  1.00  0.00    -0.248 NA
ATOM     34  C   UNL A   1      42.857  26.933  28.480  1.00  0.00     0.031 C 
ATOM     35  C   UNL A   1      38.153  28.720  28.424  1.00  0.00     0.029 A 
ATOM     36  N   UNL A   1      39.745  30.053  29.254  1.00  0.00    -0.354 N 
ATOM     37  C   UNL A   1      43.844  28.687  29.559  1.00  0.00     0.074 A 
ATOM     38  C   UNL A   1      43.985  27.345  29.038  1.00  0.00     0.031 C 
ATOM     39  C   UNL A   1      37.563  29.870  28.795  1.00  0.00     0.029 A 
ATOM     40  C   UNL A   1      38.573  30.760  29.361  1.00  0.00     0.049 A 
ATOM     41  H   UNL A   1      40.615  30.403  29.552  1.00  0.00     0.167 HD
ATOM     42  C   UNL A   1      44.866  29.421  30.055  1.00  0.00     0.037 A 
ATOM     43  C   UNL A   1      38.341  31.988  29.864  1.00  0.00     0.037 A 
ATOM     44  C   UNL A   1      44.730  30.768  30.536  1.00  0.00     0.049 A 
ATOM     45  C   UNL A   1      39.499  32.787  30.402  1.00  0.00     0.074 A 
ATOM     46  C   UNL A   1      45.713  31.620  31.009  1.00  0.00     0.029 A 
ATOM     47  N   UNL A   1      43.532  31.465  30.596  1.00  0.00    -0.354 N 
ATOM     48  N   UNL A   1      40.767  32.461  30.478  1.00  0.00    -0.248 NA
ATOM     49  C   UNL A   1      39.195  34.130  30.916  1.00  0.00     0.031 C 
ATOM     50  C   UNL A   1      45.103  32.819  31.393  1.00  0.00     0.029 A 
ATOM     51  C   UNL A   1      43.748  32.731  31.112  1.00  0.00     0.049 A 
ATOM     52  H   UNL A   1      42.657  31.110  30.315  1.00  0.00     0.167 HD
ATOM     53  C   UNL A   1      41.413  33.567  31.013  1.00  0.00     0.074 A 
ATOM     54  C   UNL A   1      40.402  34.578  31.232  1.00  0.00     0.031 C 
ATOM     55  C   UNL A   1      42.728  33.731  31.299  1.00  0.00     0.037 A 
BRANCH  42  56
ATOM     56  C   UNL A   1      46.226  28.785  30.086  1.00  0.00     0.064 A 
ATOM     57  C   UNL A   1      47.111  28.890  29.002  1.00  0.00     0.173 A 
ATOM     58  C   UNL A   1      46.664  28.094  31.226  1.00  0.00     0.173 A 
ATOM     59  F   UNL A   1      46.735  29.528  27.883  1.00  0.00    -0.203 F 
ATOM     60  C   UNL A   1      48.372  28.302  29.046  1.00  0.00     0.198 A 
ATOM     61  C   UNL A   1      47.938  27.535  31.278  1.00  0.00     0.198 A 
ATOM     62  F   UNL A   1      45.860  27.966  32.291  1.00  0.00    -0.203 F 
ATOM     63  F   UNL A   1      49.179  28.374  27.979  1.00  0.00    -0.200 F 
ATOM     64  C   UNL A   1      48.788  27.633  30.187  1.00  0.00     0.200 A 
ATOM     65  F   UNL A   1      48.344  26.898  32.386  1.00  0.00    -0.200 F 
ATOM     66  F   UNL A   1      50.006  27.076  30.232  1.00  0.00    -0.200 F 
ENDBRANCH  42  56
BRANCH  43  67
ATOM     67  C   UNL A   1      36.967  32.555  29.856  1.00  0.00     0.064 A 
ATOM     68  C   UNL A   1      36.491  33.274  28.751  1.00  0.00     0.173 A 
ATOM     69  C   UNL A   1      36.111  32.414  30.958  1.00  0.00     0.173 A 
ATOM     70  F   UNL A   1      37.281  33.453  27.681  1.00  0.00    -0.203 F 
ATOM     71  C   UNL A   1      35.225  33.854  28.757  1.00  0.00     0.198 A 
ATOM     72  C   UNL A   1      34.832  32.968  30.952  1.00  0.00     0.198 A 
ATOM     73  F   UNL A   1      36.514  31.730  32.040  1.00  0.00    -0.203 F 
ATOM     74  F   UNL A   1      34.817  34.581  27.708  1.00  0.00    -0.200 F 
ATOM     75  C   UNL A   1      34.394  33.697  29.856  1.00  0.00     0.200 A 
ATOM     76  F   UNL A   1      34.028  32.804  32.011  1.00  0.00    -0.200 F 
ATOM     77  F   UNL A   1      33.177  34.256  29.864  1.00  0.00    -0.200 F 
ENDBRANCH  43  67
BRANCH  55  78
ATOM     78  C   UNL A   1      43.157  35.067  31.830  1.00  0.00     0.064 A 
ATOM     79  C   UNL A   1      43.617  36.085  30.982  1.00  0.00     0.173 A 
ATOM     80  C   UNL A   1      43.064  35.345  33.202  1.00  0.00     0.173 A 
ATOM     81  F   UNL A   1      43.737  35.863  29.665  1.00  0.00    -0.203 F 
ATOM     82  C   UNL A   1      43.993  37.324  31.492  1.00  0.00     0.198 A 
ATOM     83  C   UNL A   1      43.411  36.595  33.705  1.00  0.00     0.198 A 
ATOM     84  F   UNL A   1      42.622  34.407  34.054  1.00  0.00    -0.203 F 
ATOM     85  F   UNL A   1      44.474  38.266  30.670  1.00  0.00    -0.200 F 
ATOM     86  C   UNL A   1      43.883  37.581  32.851  1.00  0.00     0.200 A 
ATOM     87  F   UNL A   1      43.289  36.847  35.015  1.00  0.00    -0.200 F 
ATOM     88  F   UNL A   1      44.236  38.777  33.339  1.00  0.00    -0.200 F 
ENDBRANCH  55  78
ENDBRANCH  29  30
ENDBRANCH  21  24
ENDBRANCH  19  20
ENDBRANCH   1  19
TORSDOF 12
ENDMDL
