MODEL 1
REMARK VINA RESULT:     -13.8      0.000      0.000
REMARK SMILES CN1C(=O)/C(=C\c2ccc(C(=O)Nc3ccc(O)cc3C(=O)NCCCNC(=O)c3ccc(-c4c5nc(c(-c6c(F)c(F)c(F)c(F)c6F)c6ccc([nH]6)c(-c6c(F)c(F)c(F)c(F)c6F)c6nc(c(-c7c(F)c(F)c(F)c(F)c7F)c7ccc4[nH]7)C=C6)C=C5)cc3)cc2)SC1=S
REMARK SMILES IDX 24 1 23 2 21 3 22 4 20 6 14 7 15 8 16 9 19 10 17 11 13 12
REMARK SMILES IDX 11 13 12 14 10 16 7 17 8 18 94 19 9 20 93 21 6 22 1 23 2 24
REMARK SMILES IDX 3 25 96 26 4 27 5 28 95 29 97 30 18 31 25 33 26 34 27 35
REMARK SMILES IDX 28 36 29 38 30 39 31 40 92 41 32 42 91 43 33 44 34 45 35 46
REMARK SMILES IDX 85 47 36 48 90 49 84 50 86 51 37 52 89 53 83 54 82 55 38 57
REMARK SMILES IDX 70 58 50 59 69 60 51 61 54 62 68 63 87 64 52 65 53 66 67 68
REMARK SMILES IDX 88 69 55 70 39 71 40 72 48 73 41 74 42 75 46 76 49 77 43 78
REMARK SMILES IDX 44 79 47 80 45 81 71 82 72 83 80 84 73 85 74 86 78 87 81 88
REMARK SMILES IDX 75 89 76 90 79 91 77 92 56 93 57 94 65 95 58 96 59 97 63 98
REMARK SMILES IDX 66 99 60 100 61 101 64 102 62 103
REMARK H PARENT 23 5 13 15 18 32 27 37 86 56 54 67
REMARK Flexibility Score: inf
ROOT
ATOM      1  C   UNL A   1      32.192  27.522  26.748  1.00  0.00     0.118 C 
ENDROOT
BRANCH   1   2
ATOM      2  N   UNL A   1      31.061  26.634  26.885  1.00  0.00    -0.352 N 
ATOM      3  C   UNL A   1      30.447  25.840  25.949  1.00  0.00     0.253 C 
ATOM      4  O   UNL A   1      29.535  25.112  26.350  1.00  0.00    -0.269 OA
ATOM      5  H   UNL A   1      30.671  26.592  27.787  1.00  0.00     0.163 HD
BRANCH   3   6
ATOM      6  C   UNL A   1      30.760  25.877  24.483  1.00  0.00     0.067 A 
ATOM      7  C   UNL A   1      31.280  24.850  23.662  1.00  0.00     0.054 A 
ATOM      8  C   UNL A   1      31.705  25.167  22.359  1.00  0.00     0.031 A 
ATOM      9  C   UNL A   1      31.409  26.404  21.791  1.00  0.00     0.048 A 
ATOM     10  C   UNL A   1      30.438  27.111  23.875  1.00  0.00     0.062 A 
ATOM     11  C   UNL A   1      30.718  27.342  22.534  1.00  0.00     0.116 A 
BRANCH   7  12
ATOM     12  N   UNL A   1      31.300  23.458  23.913  1.00  0.00    -0.321 N 
ATOM     13  C   UNL A   1      32.315  22.608  24.305  1.00  0.00     0.255 C 
ATOM     14  O   UNL A   1      32.098  21.397  24.309  1.00  0.00    -0.269 OA
ATOM     15  H   UNL A   1      30.430  23.015  23.785  1.00  0.00     0.170 HD
BRANCH  13  16
ATOM     16  C   UNL A   1      33.638  23.109  24.740  1.00  0.00     0.040 A 
ATOM     17  C   UNL A   1      36.173  23.924  25.550  1.00  0.00    -0.024 A 
ATOM     18  C   UNL A   1      35.886  23.812  24.184  1.00  0.00     0.009 A 
ATOM     19  C   UNL A   1      35.171  23.720  26.500  1.00  0.00     0.009 A 
ATOM     20  C   UNL A   1      34.606  23.424  23.778  1.00  0.00     0.014 A 
ATOM     21  C   UNL A   1      33.952  23.204  26.096  1.00  0.00     0.014 A 
BRANCH  17  22
ATOM     22  C   UNL A   1      37.549  23.963  26.037  1.00  0.00     0.029 C 
ATOM     23  C   UNL A   1      38.722  19.201  25.376  1.00  0.00     0.155 C 
ATOM     24  N   UNL A   1      38.905  20.568  25.841  1.00  0.00    -0.296 N 
ATOM     25  C   UNL A   1      37.857  21.452  25.698  1.00  0.00     0.265 C 
ATOM     26  C   UNL A   1      40.066  21.063  26.385  1.00  0.00     0.148 C 
ATOM     27  O   UNL A   1      36.759  21.131  25.283  1.00  0.00    -0.268 OA
ATOM     28  C   UNL A   1      38.276  22.834  26.120  1.00  0.00     0.081 C 
ATOM     29  S   UNL A   1      39.884  22.781  26.734  1.00  0.00    -0.054 SA
ATOM     30  S   UNL A   1      41.478  20.231  26.689  1.00  0.00    -0.052 S 
ENDBRANCH  17  22
ENDBRANCH  13  16
ENDBRANCH   7  12
BRANCH  11  31
ATOM     31  O   UNL A   1      30.311  28.480  21.907  1.00  0.00    -0.508 OA
ATOM     32  H   UNL A   1      30.883  28.915  21.307  1.00  0.00     0.293 HD
ENDBRANCH  11  31
ENDBRANCH   3   6
ENDBRANCH   1   2
BRANCH   1  33
ATOM     33  C   UNL A   1      31.943  28.948  27.177  1.00  0.00     0.042 C 
BRANCH  33  34
ATOM     34  C   UNL A   1      32.787  29.965  26.427  1.00  0.00     0.118 C 
BRANCH  34  35
ATOM     35  N   UNL A   1      32.703  31.337  26.934  1.00  0.00    -0.352 N 
ATOM     36  C   UNL A   1      33.609  32.114  27.626  1.00  0.00     0.251 C 
ATOM     37  H   UNL A   1      31.846  31.785  26.749  1.00  0.00     0.163 HD
ATOM     38  O   UNL A   1      33.312  33.251  27.980  1.00  0.00    -0.269 OA
BRANCH  36  39
ATOM     39  C   UNL A   1      34.922  31.554  28.000  1.00  0.00     0.039 A 
ATOM     40  C   UNL A   1      36.013  32.411  28.159  1.00  0.00     0.014 A 
ATOM     41  C   UNL A   1      35.052  30.199  28.283  1.00  0.00     0.014 A 
ATOM     42  C   UNL A   1      37.188  31.928  28.742  1.00  0.00     0.010 A 
ATOM     43  C   UNL A   1      36.148  29.763  29.010  1.00  0.00     0.010 A 
ATOM     44  C   UNL A   1      37.233  30.619  29.247  1.00  0.00    -0.014 A 
BRANCH  44  45
ATOM     45  C   UNL A   1      38.396  30.104  30.014  1.00  0.00     0.031 A 
ATOM     46  C   UNL A   1      38.591  30.533  31.444  1.00  0.00     0.074 A 
ATOM     47  C   UNL A   1      39.328  29.344  29.403  1.00  0.00     0.049 A 
ATOM     48  N   UNL A   1      39.604  30.320  32.246  1.00  0.00    -0.248 NA
ATOM     49  C   UNL A   1      37.526  31.359  32.039  1.00  0.00     0.031 C 
ATOM     50  C   UNL A   1      39.293  28.918  28.002  1.00  0.00     0.029 A 
ATOM     51  N   UNL A   1      40.497  28.805  29.879  1.00  0.00    -0.354 N 
ATOM     52  C   UNL A   1      39.309  31.009  33.414  1.00  0.00     0.074 A 
ATOM     53  C   UNL A   1      38.068  31.713  33.193  1.00  0.00     0.031 C 
ATOM     54  C   UNL A   1      40.364  28.151  27.745  1.00  0.00     0.029 A 
ATOM     55  C   UNL A   1      41.190  28.073  28.945  1.00  0.00     0.049 A 
ATOM     56  H   UNL A   1      40.809  28.929  30.805  1.00  0.00     0.167 HD
ATOM     57  C   UNL A   1      39.990  31.022  34.583  1.00  0.00     0.037 A 
ATOM     58  C   UNL A   1      42.364  27.419  29.046  1.00  0.00     0.037 A 
ATOM     59  C   UNL A   1      41.198  30.279  34.815  1.00  0.00     0.049 A 
ATOM     60  C   UNL A   1      43.098  27.440  30.360  1.00  0.00     0.074 A 
ATOM     61  C   UNL A   1      41.929  30.161  35.983  1.00  0.00     0.029 A 
ATOM     62  N   UNL A   1      41.850  29.520  33.853  1.00  0.00    -0.354 N 
ATOM     63  N   UNL A   1      42.771  28.034  31.483  1.00  0.00    -0.248 NA
ATOM     64  C   UNL A   1      44.363  26.696  30.423  1.00  0.00     0.031 C 
ATOM     65  C   UNL A   1      43.051  29.371  35.715  1.00  0.00     0.029 A 
ATOM     66  C   UNL A   1      42.988  28.948  34.397  1.00  0.00     0.049 A 
ATOM     67  H   UNL A   1      41.548  29.404  32.924  1.00  0.00     0.167 HD
ATOM     68  C   UNL A   1      43.769  27.710  32.392  1.00  0.00     0.074 A 
ATOM     69  C   UNL A   1      44.706  26.855  31.694  1.00  0.00     0.031 C 
ATOM     70  C   UNL A   1      43.900  28.088  33.687  1.00  0.00     0.037 A 
BRANCH  57  71
ATOM     71  C   UNL A   1      39.432  31.855  35.703  1.00  0.00     0.064 A 
ATOM     72  C   UNL A   1      38.495  31.336  36.611  1.00  0.00     0.173 A 
ATOM     73  C   UNL A   1      39.850  33.181  35.882  1.00  0.00     0.173 A 
ATOM     74  F   UNL A   1      38.049  30.078  36.477  1.00  0.00    -0.203 F 
ATOM     75  C   UNL A   1      37.970  32.126  37.631  1.00  0.00     0.198 A 
ATOM     76  C   UNL A   1      39.352  33.956  36.926  1.00  0.00     0.198 A 
ATOM     77  F   UNL A   1      40.747  33.727  35.045  1.00  0.00    -0.203 F 
ATOM     78  F   UNL A   1      37.030  31.626  38.445  1.00  0.00    -0.200 F 
ATOM     79  C   UNL A   1      38.405  33.432  37.792  1.00  0.00     0.200 A 
ATOM     80  F   UNL A   1      39.784  35.215  37.089  1.00  0.00    -0.200 F 
ATOM     81  F   UNL A   1      37.904  34.188  38.779  1.00  0.00    -0.200 F 
ENDBRANCH  57  71
BRANCH  58  82
ATOM     82  C   UNL A   1      42.903  26.664  27.882  1.00  0.00     0.064 A 
ATOM     83  C   UNL A   1      42.717  25.278  27.777  1.00  0.00     0.173 A 
ATOM     84  C   UNL A   1      43.623  27.302  26.862  1.00  0.00     0.173 A 
ATOM     85  F   UNL A   1      42.053  24.618  28.736  1.00  0.00    -0.203 F 
ATOM     86  C   UNL A   1      43.250  24.558  26.709  1.00  0.00     0.198 A 
ATOM     87  C   UNL A   1      44.129  26.585  25.779  1.00  0.00     0.198 A 
ATOM     88  F   UNL A   1      43.826  28.627  26.909  1.00  0.00    -0.203 F 
ATOM     89  F   UNL A   1      43.100  23.227  26.662  1.00  0.00    -0.200 F 
ATOM     90  C   UNL A   1      43.950  25.212  25.708  1.00  0.00     0.200 A 
ATOM     91  F   UNL A   1      44.792  27.224  24.805  1.00  0.00    -0.200 F 
ATOM     92  F   UNL A   1      44.461  24.518  24.682  1.00  0.00    -0.200 F 
ENDBRANCH  58  82
BRANCH  70  93
ATOM     93  C   UNL A   1      45.074  27.546  34.448  1.00  0.00     0.064 A 
ATOM     94  C   UNL A   1      46.287  28.246  34.531  1.00  0.00     0.173 A 
ATOM     95  C   UNL A   1      44.964  26.335  35.150  1.00  0.00     0.173 A 
ATOM     96  F   UNL A   1      46.446  29.401  33.868  1.00  0.00    -0.203 F 
ATOM     97  C   UNL A   1      47.354  27.742  35.268  1.00  0.00     0.198 A 
ATOM     98  C   UNL A   1      46.022  25.850  35.913  1.00  0.00     0.198 A 
ATOM     99  F   UNL A   1      43.823  25.632  35.110  1.00  0.00    -0.203 F 
ATOM    100  F   UNL A   1      48.519  28.404  35.296  1.00  0.00    -0.200 F 
ATOM    101  C   UNL A   1      47.218  26.550  35.966  1.00  0.00     0.200 A 
ATOM    102  F   UNL A   1      45.882  24.709  36.601  1.00  0.00    -0.200 F 
ATOM    103  F   UNL A   1      48.242  26.073  36.686  1.00  0.00    -0.200 F 
ENDBRANCH  70  93
ENDBRANCH  44  45
ENDBRANCH  36  39
ENDBRANCH  34  35
ENDBRANCH  33  34
ENDBRANCH   1  33
TORSDOF 14
ENDMDL
MODEL 2
REMARK VINA RESULT:     -13.2      4.501      8.179
REMARK SMILES CN1C(=O)/C(=C\c2ccc(C(=O)Nc3ccc(O)cc3C(=O)NCCCNC(=O)c3ccc(-c4c5nc(c(-c6c(F)c(F)c(F)c(F)c6F)c6ccc([nH]6)c(-c6c(F)c(F)c(F)c(F)c6F)c6nc(c(-c7c(F)c(F)c(F)c(F)c7F)c7ccc4[nH]7)C=C6)C=C5)cc3)cc2)SC1=S
REMARK SMILES IDX 24 1 23 2 21 3 22 4 20 6 14 7 15 8 16 9 19 10 17 11 13 12
REMARK SMILES IDX 11 13 12 14 10 16 7 17 8 18 94 19 9 20 93 21 6 22 1 23 2 24
REMARK SMILES IDX 3 25 96 26 4 27 5 28 95 29 97 30 18 31 25 33 26 34 27 35
REMARK SMILES IDX 28 36 29 38 30 39 31 40 92 41 32 42 91 43 33 44 34 45 35 46
REMARK SMILES IDX 85 47 36 48 90 49 84 50 86 51 37 52 89 53 83 54 82 55 38 57
REMARK SMILES IDX 70 58 50 59 69 60 51 61 54 62 68 63 87 64 52 65 53 66 67 68
REMARK SMILES IDX 88 69 55 70 39 71 40 72 48 73 41 74 42 75 46 76 49 77 43 78
REMARK SMILES IDX 44 79 47 80 45 81 71 82 72 83 80 84 73 85 74 86 78 87 81 88
REMARK SMILES IDX 75 89 76 90 79 91 77 92 56 93 57 94 65 95 58 96 59 97 63 98
REMARK SMILES IDX 66 99 60 100 61 101 64 102 62 103
REMARK H PARENT 23 5 13 15 18 32 27 37 86 56 54 67
REMARK Flexibility Score: inf
ROOT
ATOM      1  C   UNL A   1      35.181  32.390  30.636  1.00  0.00     0.118 C 
ENDROOT
BRANCH   1   2
ATOM      2  N   UNL A   1      34.727  32.580  31.994  1.00  0.00    -0.352 N 
ATOM      3  C   UNL A   1      35.409  33.031  33.095  1.00  0.00     0.253 C 
ATOM      4  O   UNL A   1      34.757  33.171  34.133  1.00  0.00    -0.269 OA
ATOM      5  H   UNL A   1      33.784  32.349  32.154  1.00  0.00     0.163 HD
BRANCH   3   6
ATOM      6  C   UNL A   1      36.889  33.273  33.125  1.00  0.00     0.067 A 
ATOM      7  C   UNL A   1      37.805  33.029  34.173  1.00  0.00     0.054 A 
ATOM      8  C   UNL A   1      39.114  33.537  34.068  1.00  0.00     0.031 A 
ATOM      9  C   UNL A   1      39.582  34.063  32.866  1.00  0.00     0.048 A 
ATOM     10  C   UNL A   1      37.395  33.778  31.906  1.00  0.00     0.062 A 
ATOM     11  C   UNL A   1      38.736  34.117  31.775  1.00  0.00     0.116 A 
BRANCH   7  12
ATOM     12  N   UNL A   1      37.642  32.184  35.295  1.00  0.00    -0.321 N 
ATOM     13  C   UNL A   1      38.259  31.002  35.656  1.00  0.00     0.255 C 
ATOM     14  O   UNL A   1      37.821  30.383  36.624  1.00  0.00    -0.269 OA
ATOM     15  H   UNL A   1      36.964  32.497  35.938  1.00  0.00     0.170 HD
BRANCH  13  16
ATOM     16  C   UNL A   1      39.436  30.476  34.931  1.00  0.00     0.040 A 
ATOM     17  C   UNL A   1      41.634  29.367  33.632  1.00  0.00    -0.024 A 
ATOM     18  C   UNL A   1      40.351  29.177  33.104  1.00  0.00     0.009 A 
ATOM     19  C   UNL A   1      41.824  30.183  34.748  1.00  0.00     0.009 A 
ATOM     20  C   UNL A   1      39.250  29.753  33.745  1.00  0.00     0.014 A 
ATOM     21  C   UNL A   1      40.720  30.632  35.452  1.00  0.00     0.014 A 
BRANCH  17  22
ATOM     22  C   UNL A   1      42.752  28.514  33.237  1.00  0.00     0.029 C 
ATOM     23  C   UNL A   1      41.608  24.492  35.884  1.00  0.00     0.155 C 
ATOM     24  N   UNL A   1      42.430  25.339  35.032  1.00  0.00    -0.296 N 
ATOM     25  C   UNL A   1      41.996  26.623  34.776  1.00  0.00     0.265 C 
ATOM     26  C   UNL A   1      43.599  24.945  34.426  1.00  0.00     0.148 C 
ATOM     27  O   UNL A   1      41.010  27.115  35.290  1.00  0.00    -0.268 OA
ATOM     28  C   UNL A   1      42.908  27.296  33.786  1.00  0.00     0.081 C 
ATOM     29  S   UNL A   1      44.226  26.249  33.420  1.00  0.00    -0.054 SA
ATOM     30  S   UNL A   1      44.364  23.472  34.564  1.00  0.00    -0.052 S 
ENDBRANCH  17  22
ENDBRANCH  13  16
ENDBRANCH   7  12
BRANCH  11  31
ATOM     31  O   UNL A   1      39.261  34.494  30.577  1.00  0.00    -0.508 OA
ATOM     32  H   UNL A   1      39.932  35.146  30.544  1.00  0.00     0.293 HD
ENDBRANCH  11  31
ENDBRANCH   3   6
ENDBRANCH   1   2
BRANCH   1  33
ATOM     33  C   UNL A   1      34.245  32.903  29.569  1.00  0.00     0.042 C 
BRANCH  33  34
ATOM     34  C   UNL A   1      34.589  32.411  28.171  1.00  0.00     0.118 C 
BRANCH  34  35
ATOM     35  N   UNL A   1      34.178  31.035  27.879  1.00  0.00    -0.352 N 
ATOM     36  C   UNL A   1      34.865  29.842  27.948  1.00  0.00     0.251 C 
ATOM     37  H   UNL A   1      33.245  30.947  27.579  1.00  0.00     0.163 HD
ATOM     38  O   UNL A   1      34.320  28.790  27.626  1.00  0.00    -0.269 OA
BRANCH  36  39
ATOM     39  C   UNL A   1      36.284  29.833  28.351  1.00  0.00     0.039 A 
ATOM     40  C   UNL A   1      36.633  29.393  29.629  1.00  0.00     0.014 A 
ATOM     41  C   UNL A   1      37.276  30.170  27.435  1.00  0.00     0.014 A 
ATOM     42  C   UNL A   1      37.976  29.154  29.933  1.00  0.00     0.010 A 
ATOM     43  C   UNL A   1      38.582  29.776  27.677  1.00  0.00     0.010 A 
ATOM     44  C   UNL A   1      38.952  29.265  28.930  1.00  0.00    -0.014 A 
BRANCH  44  45
ATOM     45  C   UNL A   1      40.367  28.874  29.153  1.00  0.00     0.031 A 
ATOM     46  C   UNL A   1      41.315  29.848  29.800  1.00  0.00     0.074 A 
ATOM     47  C   UNL A   1      40.825  27.695  28.683  1.00  0.00     0.049 A 
ATOM     48  N   UNL A   1      42.611  29.767  29.958  1.00  0.00    -0.248 NA
ATOM     49  C   UNL A   1      40.734  31.111  30.289  1.00  0.00     0.031 C 
ATOM     50  C   UNL A   1      40.026  26.692  27.975  1.00  0.00     0.029 A 
ATOM     51  N   UNL A   1      42.083  27.145  28.718  1.00  0.00    -0.354 N 
ATOM     52  C   UNL A   1      42.996  30.973  30.529  1.00  0.00     0.074 A 
ATOM     53  C   UNL A   1      41.815  31.800  30.616  1.00  0.00     0.031 C 
ATOM     54  C   UNL A   1      40.800  25.636  27.681  1.00  0.00     0.029 A 
ATOM     55  C   UNL A   1      42.161  25.905  28.131  1.00  0.00     0.049 A 
ATOM     56  H   UNL A   1      42.857  27.597  29.126  1.00  0.00     0.167 HD
ATOM     57  C   UNL A   1      44.216  31.344  30.981  1.00  0.00     0.037 A 
ATOM     58  C   UNL A   1      43.216  25.082  27.969  1.00  0.00     0.037 A 
ATOM     59  C   UNL A   1      45.377  30.498  30.939  1.00  0.00     0.049 A 
ATOM     60  C   UNL A   1      44.561  25.513  28.489  1.00  0.00     0.074 A 
ATOM     61  C   UNL A   1      46.644  30.745  31.436  1.00  0.00     0.029 A 
ATOM     62  N   UNL A   1      45.407  29.233  30.370  1.00  0.00    -0.354 N 
ATOM     63  N   UNL A   1      44.898  26.626  29.097  1.00  0.00    -0.248 NA
ATOM     64  C   UNL A   1      45.674  24.572  28.305  1.00  0.00     0.031 C 
ATOM     65  C   UNL A   1      47.455  29.649  31.122  1.00  0.00     0.029 A 
ATOM     66  C   UNL A   1      46.678  28.695  30.483  1.00  0.00     0.049 A 
ATOM     67  H   UNL A   1      44.639  28.784  29.948  1.00  0.00     0.167 HD
ATOM     68  C   UNL A   1      46.248  26.506  29.395  1.00  0.00     0.074 A 
ATOM     69  C   UNL A   1      46.667  25.205  28.915  1.00  0.00     0.031 C 
ATOM     70  C   UNL A   1      47.069  27.392  30.010  1.00  0.00     0.037 A 
BRANCH  57  71
ATOM     71  C   UNL A   1      44.349  32.719  31.572  1.00  0.00     0.064 A 
ATOM     72  C   UNL A   1      44.287  32.934  32.959  1.00  0.00     0.173 A 
ATOM     73  C   UNL A   1      44.559  33.832  30.747  1.00  0.00     0.173 A 
ATOM     74  F   UNL A   1      44.072  31.906  33.793  1.00  0.00    -0.203 F 
ATOM     75  C   UNL A   1      44.390  34.217  33.491  1.00  0.00     0.198 A 
ATOM     76  C   UNL A   1      44.700  35.109  31.286  1.00  0.00     0.198 A 
ATOM     77  F   UNL A   1      44.631  33.684  29.415  1.00  0.00    -0.203 F 
ATOM     78  F   UNL A   1      44.263  34.403  34.813  1.00  0.00    -0.200 F 
ATOM     79  C   UNL A   1      44.604  35.301  32.655  1.00  0.00     0.200 A 
ATOM     80  F   UNL A   1      44.922  36.155  30.477  1.00  0.00    -0.200 F 
ATOM     81  F   UNL A   1      44.711  36.534  33.170  1.00  0.00    -0.200 F 
ENDBRANCH  57  71
BRANCH  58  82
ATOM     82  C   UNL A   1      43.039  23.757  27.315  1.00  0.00     0.064 A 
ATOM     83  C   UNL A   1      43.386  23.569  25.969  1.00  0.00     0.173 A 
ATOM     84  C   UNL A   1      42.512  22.659  28.009  1.00  0.00     0.173 A 
ATOM     85  F   UNL A   1      43.875  24.593  25.256  1.00  0.00    -0.203 F 
ATOM     86  C   UNL A   1      43.190  22.342  25.338  1.00  0.00     0.198 A 
ATOM     87  C   UNL A   1      42.346  21.423  27.386  1.00  0.00     0.198 A 
ATOM     88  F   UNL A   1      42.169  22.780  29.300  1.00  0.00    -0.203 F 
ATOM     89  F   UNL A   1      43.482  22.207  24.037  1.00  0.00    -0.200 F 
ATOM     90  C   UNL A   1      42.675  21.268  26.048  1.00  0.00     0.200 A 
ATOM     91  F   UNL A   1      41.862  20.384  28.080  1.00  0.00    -0.200 F 
ATOM     92  F   UNL A   1      42.489  20.089  25.441  1.00  0.00    -0.200 F 
ENDBRANCH  58  82
BRANCH  70  93
ATOM     93  C   UNL A   1      48.492  26.972  30.237  1.00  0.00     0.064 A 
ATOM     94  C   UNL A   1      48.865  26.198  31.345  1.00  0.00     0.173 A 
ATOM     95  C   UNL A   1      49.485  27.302  29.301  1.00  0.00     0.173 A 
ATOM     96  F   UNL A   1      47.955  25.868  32.275  1.00  0.00    -0.203 F 
ATOM     97  C   UNL A   1      50.184  25.791  31.522  1.00  0.00     0.198 A 
ATOM     98  C   UNL A   1      50.796  26.865  29.463  1.00  0.00     0.198 A 
ATOM     99  F   UNL A   1      49.178  28.033  28.219  1.00  0.00    -0.203 F 
ATOM    100  F   UNL A   1      50.527  25.092  32.612  1.00  0.00    -0.200 F 
ATOM    101  C   UNL A   1      51.146  26.116  30.576  1.00  0.00     0.200 A 
ATOM    102  F   UNL A   1      51.719  27.164  28.539  1.00  0.00    -0.200 F 
ATOM    103  F   UNL A   1      52.412  25.712  30.741  1.00  0.00    -0.200 F 
ENDBRANCH  70  93
ENDBRANCH  44  45
ENDBRANCH  36  39
ENDBRANCH  34  35
ENDBRANCH  33  34
ENDBRANCH   1  33
TORSDOF 14
ENDMDL
MODEL 3
REMARK VINA RESULT:     -13.1      4.511      7.982
REMARK SMILES CN1C(=O)/C(=C\c2ccc(C(=O)Nc3ccc(O)cc3C(=O)NCCCNC(=O)c3ccc(-c4c5nc(c(-c6c(F)c(F)c(F)c(F)c6F)c6ccc([nH]6)c(-c6c(F)c(F)c(F)c(F)c6F)c6nc(c(-c7c(F)c(F)c(F)c(F)c7F)c7ccc4[nH]7)C=C6)C=C5)cc3)cc2)SC1=S
REMARK SMILES IDX 24 1 23 2 21 3 22 4 20 6 14 7 15 8 16 9 19 10 17 11 13 12
REMARK SMILES IDX 11 13 12 14 10 16 7 17 8 18 94 19 9 20 93 21 6 22 1 23 2 24
REMARK SMILES IDX 3 25 96 26 4 27 5 28 95 29 97 30 18 31 25 33 26 34 27 35
REMARK SMILES IDX 28 36 29 38 30 39 31 40 92 41 32 42 91 43 33 44 34 45 35 46
REMARK SMILES IDX 85 47 36 48 90 49 84 50 86 51 37 52 89 53 83 54 82 55 38 57
REMARK SMILES IDX 70 58 50 59 69 60 51 61 54 62 68 63 87 64 52 65 53 66 67 68
REMARK SMILES IDX 88 69 55 70 39 71 40 72 48 73 41 74 42 75 46 76 49 77 43 78
REMARK SMILES IDX 44 79 47 80 45 81 71 82 72 83 80 84 73 85 74 86 78 87 81 88
REMARK SMILES IDX 75 89 76 90 79 91 77 92 56 93 57 94 65 95 58 96 59 97 63 98
REMARK SMILES IDX 66 99 60 100 61 101 64 102 62 103
REMARK H PARENT 23 5 13 15 18 32 27 37 86 56 54 67
REMARK Flexibility Score: inf
ROOT
ATOM      1  C   UNL A   1      35.178  32.450  31.185  1.00  0.00     0.118 C 
ENDROOT
BRANCH   1   2
ATOM      2  N   UNL A   1      34.722  32.776  32.516  1.00  0.00    -0.352 N 
ATOM      3  C   UNL A   1      35.405  33.327  33.570  1.00  0.00     0.253 C 
ATOM      4  O   UNL A   1      34.752  33.574  34.587  1.00  0.00    -0.269 OA
ATOM      5  H   UNL A   1      33.776  32.570  32.695  1.00  0.00     0.163 HD
BRANCH   3   6
ATOM      6  C   UNL A   1      36.887  33.558  33.581  1.00  0.00     0.067 A 
ATOM      7  C   UNL A   1      37.825  33.246  34.592  1.00  0.00     0.054 A 
ATOM      8  C   UNL A   1      39.135  33.751  34.488  1.00  0.00     0.031 A 
ATOM      9  C   UNL A   1      39.581  34.344  33.309  1.00  0.00     0.048 A 
ATOM     10  C   UNL A   1      37.371  34.130  32.383  1.00  0.00     0.062 A 
ATOM     11  C   UNL A   1      38.711  34.468  32.242  1.00  0.00     0.116 A 
BRANCH   7  12
ATOM     12  N   UNL A   1      37.680  32.338  35.666  1.00  0.00    -0.321 N 
ATOM     13  C   UNL A   1      38.262  31.112  35.920  1.00  0.00     0.255 C 
ATOM     14  O   UNL A   1      37.845  30.449  36.870  1.00  0.00    -0.269 OA
ATOM     15  H   UNL A   1      37.047  32.635  36.360  1.00  0.00     0.170 HD
BRANCH  13  16
ATOM     16  C   UNL A   1      39.380  30.587  35.106  1.00  0.00     0.040 A 
ATOM     17  C   UNL A   1      41.462  29.478  33.629  1.00  0.00    -0.024 A 
ATOM     18  C   UNL A   1      40.151  29.389  33.149  1.00  0.00     0.009 A 
ATOM     19  C   UNL A   1      41.740  30.198  34.792  1.00  0.00     0.009 A 
ATOM     20  C   UNL A   1      39.108  29.966  33.880  1.00  0.00     0.014 A 
ATOM     21  C   UNL A   1      40.692  30.644  35.577  1.00  0.00     0.014 A 
BRANCH  17  22
ATOM     22  C   UNL A   1      42.519  28.606  33.122  1.00  0.00     0.029 C 
ATOM     23  C   UNL A   1      41.677  24.655  35.980  1.00  0.00     0.155 C 
ATOM     24  N   UNL A   1      42.396  25.476  35.016  1.00  0.00    -0.296 N 
ATOM     25  C   UNL A   1      41.943  26.758  34.785  1.00  0.00     0.265 C 
ATOM     26  C   UNL A   1      43.480  25.058  34.283  1.00  0.00     0.148 C 
ATOM     27  O   UNL A   1      41.029  27.269  35.403  1.00  0.00    -0.268 OA
ATOM     28  C   UNL A   1      42.732  27.400  33.676  1.00  0.00     0.081 C 
ATOM     29  S   UNL A   1      43.989  26.333  33.178  1.00  0.00    -0.054 SA
ATOM     30  S   UNL A   1      44.247  23.580  34.361  1.00  0.00    -0.052 S 
ENDBRANCH  17  22
ENDBRANCH  13  16
ENDBRANCH   7  12
BRANCH  11  31
ATOM     31  O   UNL A   1      39.213  34.911  31.056  1.00  0.00    -0.508 OA
ATOM     32  H   UNL A   1      38.965  35.753  30.728  1.00  0.00     0.293 HD
ENDBRANCH  11  31
ENDBRANCH   3   6
ENDBRANCH   1   2
BRANCH   1  33
ATOM     33  C   UNL A   1      35.036  33.556  30.169  1.00  0.00     0.042 C 
BRANCH  33  34
ATOM     34  C   UNL A   1      35.216  33.090  28.732  1.00  0.00     0.118 C 
BRANCH  34  35
ATOM     35  N   UNL A   1      34.246  32.091  28.277  1.00  0.00    -0.352 N 
ATOM     36  C   UNL A   1      34.375  30.742  28.021  1.00  0.00     0.251 C 
ATOM     37  H   UNL A   1      33.340  32.446  28.127  1.00  0.00     0.163 HD
ATOM     38  O   UNL A   1      33.417  30.091  27.616  1.00  0.00    -0.269 OA
BRANCH  36  39
ATOM     39  C   UNL A   1      35.689  30.088  28.172  1.00  0.00     0.039 A 
ATOM     40  C   UNL A   1      36.599  30.120  27.114  1.00  0.00     0.014 A 
ATOM     41  C   UNL A   1      36.056  29.525  29.390  1.00  0.00     0.014 A 
ATOM     42  C   UNL A   1      37.920  29.720  27.329  1.00  0.00     0.010 A 
ATOM     43  C   UNL A   1      37.397  29.288  29.649  1.00  0.00     0.010 A 
ATOM     44  C   UNL A   1      38.348  29.379  28.622  1.00  0.00    -0.014 A 
BRANCH  44  45
ATOM     45  C   UNL A   1      39.771  29.098  28.939  1.00  0.00     0.031 A 
ATOM     46  C   UNL A   1      40.593  30.140  29.649  1.00  0.00     0.074 A 
ATOM     47  C   UNL A   1      40.351  27.962  28.500  1.00  0.00     0.049 A 
ATOM     48  N   UNL A   1      41.879  30.161  29.894  1.00  0.00    -0.248 NA
ATOM     49  C   UNL A   1      39.883  31.350  30.100  1.00  0.00     0.031 C 
ATOM     50  C   UNL A   1      39.683  26.904  27.739  1.00  0.00     0.029 A 
ATOM     51  N   UNL A   1      41.643  27.513  28.619  1.00  0.00    -0.354 N 
ATOM     52  C   UNL A   1      42.128  31.389  30.491  1.00  0.00     0.074 A 
ATOM     53  C   UNL A   1      40.883  32.121  30.499  1.00  0.00     0.031 C 
ATOM     54  C   UNL A   1      40.555  25.914  27.497  1.00  0.00     0.029 A 
ATOM     55  C   UNL A   1      41.858  26.286  28.037  1.00  0.00     0.049 A 
ATOM     56  H   UNL A   1      42.350  28.021  29.079  1.00  0.00     0.167 HD
ATOM     57  C   UNL A   1      43.283  31.852  31.024  1.00  0.00     0.037 A 
ATOM     58  C   UNL A   1      42.983  25.550  27.946  1.00  0.00     0.037 A 
ATOM     59  C   UNL A   1      44.506  31.100  31.060  1.00  0.00     0.049 A 
ATOM     60  C   UNL A   1      44.252  26.082  28.556  1.00  0.00     0.074 A 
ATOM     61  C   UNL A   1      45.714  31.442  31.641  1.00  0.00     0.029 A 
ATOM     62  N   UNL A   1      44.674  29.845  30.493  1.00  0.00    -0.354 N 
ATOM     63  N   UNL A   1      44.458  27.214  29.186  1.00  0.00    -0.248 NA
ATOM     64  C   UNL A   1      45.446  25.233  28.447  1.00  0.00     0.031 C 
ATOM     65  C   UNL A   1      46.627  30.417  31.382  1.00  0.00     0.029 A 
ATOM     66  C   UNL A   1      45.973  29.408  30.691  1.00  0.00     0.049 A 
ATOM     67  H   UNL A   1      43.974  29.340  30.020  1.00  0.00     0.167 HD
ATOM     68  C   UNL A   1      45.791  27.198  29.575  1.00  0.00     0.074 A 
ATOM     69  C   UNL A   1      46.342  25.938  29.122  1.00  0.00     0.031 C 
ATOM     70  C   UNL A   1      46.497  28.143  30.244  1.00  0.00     0.037 A 
BRANCH  57  71
ATOM     71  C   UNL A   1      43.266  33.229  31.625  1.00  0.00     0.064 A 
ATOM     72  C   UNL A   1      43.304  34.383  30.825  1.00  0.00     0.173 A 
ATOM     73  C   UNL A   1      43.192  33.400  33.014  1.00  0.00     0.173 A 
ATOM     74  F   UNL A   1      43.391  34.278  29.491  1.00  0.00    -0.203 F 
ATOM     75  C   UNL A   1      43.310  35.653  31.397  1.00  0.00     0.198 A 
ATOM     76  C   UNL A   1      43.159  34.672  33.581  1.00  0.00     0.198 A 
ATOM     77  F   UNL A   1      43.149  32.332  33.826  1.00  0.00    -0.203 F 
ATOM     78  F   UNL A   1      43.412  36.737  30.615  1.00  0.00    -0.200 F 
ATOM     79  C   UNL A   1      43.229  35.796  32.773  1.00  0.00     0.200 A 
ATOM     80  F   UNL A   1      43.067  34.809  34.912  1.00  0.00    -0.200 F 
ATOM     81  F   UNL A   1      43.227  37.019  33.322  1.00  0.00    -0.200 F 
ENDBRANCH  57  71
BRANCH  58  82
ATOM     82  C   UNL A   1      42.955  24.219  27.281  1.00  0.00     0.064 A 
ATOM     83  C   UNL A   1      42.592  23.067  27.993  1.00  0.00     0.173 A 
ATOM     84  C   UNL A   1      43.301  24.065  25.930  1.00  0.00     0.173 A 
ATOM     85  F   UNL A   1      42.272  23.158  29.292  1.00  0.00    -0.203 F 
ATOM     86  C   UNL A   1      42.598  21.812  27.388  1.00  0.00     0.198 A 
ATOM     87  C   UNL A   1      43.277  22.814  25.318  1.00  0.00     0.198 A 
ATOM     88  F   UNL A   1      43.651  25.134  25.200  1.00  0.00    -0.203 F 
ATOM     89  F   UNL A   1      42.296  20.723  28.108  1.00  0.00    -0.200 F 
ATOM     90  C   UNL A   1      42.935  21.686  26.049  1.00  0.00     0.200 A 
ATOM     91  F   UNL A   1      43.589  22.699  24.019  1.00  0.00    -0.200 F 
ATOM     92  F   UNL A   1      42.940  20.480  25.467  1.00  0.00    -0.200 F 
ENDBRANCH  58  82
BRANCH  70  93
ATOM     93  C   UNL A   1      47.930  27.834  30.566  1.00  0.00     0.064 A 
ATOM     94  C   UNL A   1      48.976  28.209  29.711  1.00  0.00     0.173 A 
ATOM     95  C   UNL A   1      48.262  27.203  31.775  1.00  0.00     0.173 A 
ATOM     96  F   UNL A   1      48.709  28.802  28.537  1.00  0.00    -0.203 F 
ATOM     97  C   UNL A   1      50.301  27.942  30.043  1.00  0.00     0.198 A 
ATOM     98  C   UNL A   1      49.589  26.967  32.119  1.00  0.00     0.198 A 
ATOM     99  F   UNL A   1      47.299  26.833  32.631  1.00  0.00    -0.203 F 
ATOM    100  F   UNL A   1      51.282  28.266  29.189  1.00  0.00    -0.200 F 
ATOM    101  C   UNL A   1      50.607  27.330  31.250  1.00  0.00     0.200 A 
ATOM    102  F   UNL A   1      49.884  26.394  33.294  1.00  0.00    -0.200 F 
ATOM    103  F   UNL A   1      51.884  27.086  31.573  1.00  0.00    -0.200 F 
ENDBRANCH  70  93
ENDBRANCH  44  45
ENDBRANCH  36  39
ENDBRANCH  34  35
ENDBRANCH  33  34
ENDBRANCH   1  33
TORSDOF 14
ENDMDL
