MODEL 1
REMARK VINA RESULT:     -10.8      0.000      0.000
REMARK SMILES [NH3+][C@@H](CC(=O)NCCCNC(=O)c1ccc(-c2c3nc(c(-c4c(F)c(F)c(F)c(F)c4F)c4ccc([nH]4)c(-c4c(F)c(F)c(F)c(F)c4F)c4nc(c(-c5c(F)c(F)c(F)c(F)c5F)c5ccc2[nH]5)C=C4)C=C3)cc1)c1ccc(C(F)(F)F)cc1F
REMARK SMILES IDX 7 1 6 2 4 3 5 4 3 6 2 7 1 8 76 12 77 13 85 14 78 15 84 16
REMARK SMILES IDX 86 17 79 18 80 19 81 20 82 21 83 22 8 23 9 24 10 25 11 26
REMARK SMILES IDX 12 28 13 29 14 30 75 31 15 32 74 33 16 34 17 35 18 36 68 37
REMARK SMILES IDX 19 38 73 39 67 40 69 41 20 42 72 43 66 44 65 45 21 47 53 48
REMARK SMILES IDX 33 49 52 50 34 51 37 52 51 53 70 54 35 55 36 56 50 58 71 59
REMARK SMILES IDX 38 60 22 61 23 62 31 63 24 64 25 65 29 66 32 67 26 68 27 69
REMARK SMILES IDX 30 70 28 71 54 72 55 73 63 74 56 75 57 76 61 77 64 78 58 79
REMARK SMILES IDX 59 80 62 81 60 82 39 83 40 84 48 85 41 86 42 87 46 88 49 89
REMARK SMILES IDX 43 90 44 91 47 92 45 93
REMARK H PARENT 6 5 1 9 1 10 1 11 10 27 69 46 37 57
REMARK Flexibility Score: inf
ROOT
ATOM      1  C   UNL A   1      34.062  35.187  28.675  1.00  0.00     0.117 C 
ENDROOT
BRANCH   1   2
ATOM      2  N   UNL A   1      33.099  35.821  29.552  1.00  0.00    -0.356 N 
ATOM      3  C   UNL A   1      33.084  35.947  30.906  1.00  0.00     0.226 C 
ATOM      4  O   UNL A   1      32.142  36.569  31.403  1.00  0.00    -0.275 OA
ATOM      5  H   UNL A   1      32.329  36.229  29.094  1.00  0.00     0.163 HD
BRANCH   3   6
ATOM      6  C   UNL A   1      34.181  35.373  31.774  1.00  0.00     0.170 C 
BRANCH   6   7
ATOM      7  C   UNL A   1      34.040  33.964  32.393  1.00  0.00     0.224 C 
BRANCH   7   8
ATOM      8  N   UNL A   1      32.878  33.804  33.271  1.00  0.00    -0.351 N 
ATOM      9  H   UNL A   1      32.369  32.959  33.012  1.00  0.00     0.345 HD
ATOM     10  H   UNL A   1      32.265  34.613  33.175  1.00  0.00     0.345 HD
ATOM     11  H   UNL A   1      33.191  33.728  34.239  1.00  0.00     0.345 HD
ENDBRANCH   7   8
BRANCH   7  12
ATOM     12  C   UNL A   1      35.253  33.278  32.997  1.00  0.00     0.045 A 
ATOM     13  C   UNL A   1      35.905  33.711  34.161  1.00  0.00     0.013 A 
ATOM     14  C   UNL A   1      35.725  32.096  32.406  1.00  0.00     0.132 A 
ATOM     15  C   UNL A   1      37.023  33.031  34.661  1.00  0.00     0.014 A 
ATOM     16  C   UNL A   1      36.820  31.396  32.912  1.00  0.00     0.052 A 
ATOM     17  F   UNL A   1      35.117  31.600  31.317  1.00  0.00    -0.206 F 
ATOM     18  C   UNL A   1      37.495  31.866  34.042  1.00  0.00     0.058 A 
BRANCH  18  19
ATOM     19  C   UNL A   1      38.713  31.162  34.579  1.00  0.00     0.416 C 
ATOM     20  F   UNL A   1      39.798  31.981  34.642  1.00  0.00    -0.166 F 
ATOM     21  F   UNL A   1      38.529  30.688  35.842  1.00  0.00    -0.166 F 
ATOM     22  F   UNL A   1      39.096  30.090  33.830  1.00  0.00    -0.166 F 
ENDBRANCH  18  19
ENDBRANCH   7  12
ENDBRANCH   6   7
ENDBRANCH   3   6
ENDBRANCH   1   2
BRANCH   1  23
ATOM     23  C   UNL A   1      33.533  33.872  28.108  1.00  0.00     0.042 C 
BRANCH  23  24
ATOM     24  C   UNL A   1      34.443  32.671  28.330  1.00  0.00     0.118 C 
BRANCH  24  25
ATOM     25  N   UNL A   1      33.855  31.424  27.872  1.00  0.00    -0.352 N 
ATOM     26  C   UNL A   1      34.423  30.192  27.663  1.00  0.00     0.251 C 
ATOM     27  H   UNL A   1      32.891  31.470  27.679  1.00  0.00     0.163 HD
ATOM     28  O   UNL A   1      33.768  29.320  27.093  1.00  0.00    -0.269 OA
BRANCH  26  29
ATOM     29  C   UNL A   1      35.809  29.896  28.092  1.00  0.00     0.039 A 
ATOM     30  C   UNL A   1      36.020  29.411  29.387  1.00  0.00     0.014 A 
ATOM     31  C   UNL A   1      36.906  30.138  27.260  1.00  0.00     0.014 A 
ATOM     32  C   UNL A   1      37.315  29.114  29.822  1.00  0.00     0.010 A 
ATOM     33  C   UNL A   1      38.186  29.763  27.664  1.00  0.00     0.010 A 
ATOM     34  C   UNL A   1      38.406  29.255  28.952  1.00  0.00    -0.014 A 
BRANCH  34  35
ATOM     35  C   UNL A   1      39.785  28.890  29.374  1.00  0.00     0.031 A 
ATOM     36  C   UNL A   1      40.581  29.822  30.246  1.00  0.00     0.074 A 
ATOM     37  C   UNL A   1      40.348  27.755  28.916  1.00  0.00     0.049 A 
ATOM     38  N   UNL A   1      41.826  29.729  30.641  1.00  0.00    -0.248 NA
ATOM     39  C   UNL A   1      39.894  31.036  30.716  1.00  0.00     0.031 C 
ATOM     40  C   UNL A   1      39.698  26.787  28.031  1.00  0.00     0.029 A 
ATOM     41  N   UNL A   1      41.599  27.229  29.120  1.00  0.00    -0.354 N 
ATOM     42  C   UNL A   1      42.076  30.877  31.383  1.00  0.00     0.074 A 
ATOM     43  C   UNL A   1      40.870  31.675  31.345  1.00  0.00     0.031 C 
ATOM     44  C   UNL A   1      40.549  25.779  27.781  1.00  0.00     0.029 A 
ATOM     45  C   UNL A   1      41.817  26.048  28.453  1.00  0.00     0.049 A 
ATOM     46  H   UNL A   1      42.278  27.658  29.691  1.00  0.00     0.167 HD
ATOM     47  C   UNL A   1      43.202  31.224  32.053  1.00  0.00     0.037 A 
ATOM     48  C   UNL A   1      42.918  25.276  28.379  1.00  0.00     0.037 A 
ATOM     49  C   UNL A   1      44.389  30.412  32.118  1.00  0.00     0.049 A 
ATOM     50  C   UNL A   1      44.156  25.684  29.131  1.00  0.00     0.074 A 
ATOM     51  C   UNL A   1      45.555  30.645  32.825  1.00  0.00     0.029 A 
ATOM     52  N   UNL A   1      44.561  29.210  31.446  1.00  0.00    -0.354 N 
ATOM     53  N   UNL A   1      44.356  26.739  29.883  1.00  0.00    -0.248 NA
ATOM     54  C   UNL A   1      45.318  24.790  29.030  1.00  0.00     0.031 C 
ATOM     55  C   UNL A   1      46.451  29.607  32.546  1.00  0.00     0.029 A 
ATOM     56  C   UNL A   1      45.823  28.702  31.706  1.00  0.00     0.049 A 
ATOM     57  H   UNL A   1      43.887  28.783  30.871  1.00  0.00     0.167 HD
ATOM     58  C   UNL A   1      45.653  26.623  30.365  1.00  0.00     0.074 A 
ATOM     59  C   UNL A   1      46.189  25.387  29.832  1.00  0.00     0.031 C 
ATOM     60  C   UNL A   1      46.339  27.465  31.176  1.00  0.00     0.037 A 
BRANCH  47  61
ATOM     61  C   UNL A   1      43.206  32.541  32.773  1.00  0.00     0.064 A 
ATOM     62  C   UNL A   1      43.452  33.748  32.100  1.00  0.00     0.173 A 
ATOM     63  C   UNL A   1      42.917  32.604  34.144  1.00  0.00     0.173 A 
ATOM     64  F   UNL A   1      43.744  33.743  30.791  1.00  0.00    -0.203 F 
ATOM     65  C   UNL A   1      43.438  34.964  32.779  1.00  0.00     0.198 A 
ATOM     66  C   UNL A   1      42.873  33.824  34.814  1.00  0.00     0.198 A 
ATOM     67  F   UNL A   1      42.666  31.482  34.835  1.00  0.00    -0.203 F 
ATOM     68  F   UNL A   1      43.725  36.098  32.125  1.00  0.00    -0.200 F 
ATOM     69  C   UNL A   1      43.142  35.002  34.133  1.00  0.00     0.200 A 
ATOM     70  F   UNL A   1      42.573  33.860  36.119  1.00  0.00    -0.200 F 
ATOM     71  F   UNL A   1      43.121  36.173  34.783  1.00  0.00    -0.200 F 
ENDBRANCH  47  61
BRANCH  48  72
ATOM     72  C   UNL A   1      42.894  24.027  27.574  1.00  0.00     0.064 A 
ATOM     73  C   UNL A   1      43.268  24.032  26.223  1.00  0.00     0.173 A 
ATOM     74  C   UNL A   1      42.499  22.803  28.136  1.00  0.00     0.173 A 
ATOM     75  F   UNL A   1      43.634  25.182  25.636  1.00  0.00    -0.203 F 
ATOM     76  C   UNL A   1      43.230  22.868  25.460  1.00  0.00     0.198 A 
ATOM     77  C   UNL A   1      42.488  21.634  27.379  1.00  0.00     0.198 A 
ATOM     78  F   UNL A   1      42.137  22.743  29.426  1.00  0.00    -0.203 F 
ATOM     79  F   UNL A   1      43.549  22.910  24.160  1.00  0.00    -0.200 F 
ATOM     80  C   UNL A   1      42.844  21.668  26.040  1.00  0.00     0.200 A 
ATOM     81  F   UNL A   1      42.129  20.474  27.947  1.00  0.00    -0.200 F 
ATOM     82  F   UNL A   1      42.813  20.547  25.307  1.00  0.00    -0.200 F 
ENDBRANCH  48  72
BRANCH  60  83
ATOM     83  C   UNL A   1      47.730  27.063  31.571  1.00  0.00     0.064 A 
ATOM     84  C   UNL A   1      47.971  26.208  32.654  1.00  0.00     0.173 A 
ATOM     85  C   UNL A   1      48.834  27.502  30.821  1.00  0.00     0.173 A 
ATOM     86  F   UNL A   1      46.952  25.774  33.411  1.00  0.00    -0.203 F 
ATOM     87  C   UNL A   1      49.267  25.822  32.988  1.00  0.00     0.198 A 
ATOM     88  C   UNL A   1      50.125  27.090  31.139  1.00  0.00     0.198 A 
ATOM     89  F   UNL A   1      48.656  28.317  29.771  1.00  0.00    -0.203 F 
ATOM     90  F   UNL A   1      49.478  25.038  34.054  1.00  0.00    -0.200 F 
ATOM     91  C   UNL A   1      50.341  26.257  32.225  1.00  0.00     0.200 A 
ATOM     92  F   UNL A   1      51.159  27.500  30.392  1.00  0.00    -0.200 F 
ATOM     93  F   UNL A   1      51.586  25.876  32.540  1.00  0.00    -0.200 F 
ENDBRANCH  60  83
ENDBRANCH  34  35
ENDBRANCH  26  29
ENDBRANCH  24  25
ENDBRANCH  23  24
ENDBRANCH   1  23
TORSDOF 14
ENDMDL
MODEL 2
REMARK VINA RESULT:     -10.7      3.192     11.247
REMARK SMILES [NH3+][C@@H](CC(=O)NCCCNC(=O)c1ccc(-c2c3nc(c(-c4c(F)c(F)c(F)c(F)c4F)c4ccc([nH]4)c(-c4c(F)c(F)c(F)c(F)c4F)c4nc(c(-c5c(F)c(F)c(F)c(F)c5F)c5ccc2[nH]5)C=C4)C=C3)cc1)c1ccc(C(F)(F)F)cc1F
REMARK SMILES IDX 7 1 6 2 4 3 5 4 3 6 2 7 1 8 76 12 77 13 85 14 78 15 84 16
REMARK SMILES IDX 86 17 79 18 80 19 81 20 82 21 83 22 8 23 9 24 10 25 11 26
REMARK SMILES IDX 12 28 13 29 14 30 75 31 15 32 74 33 16 34 17 35 18 36 68 37
REMARK SMILES IDX 19 38 73 39 67 40 69 41 20 42 72 43 66 44 65 45 21 47 53 48
REMARK SMILES IDX 33 49 52 50 34 51 37 52 51 53 70 54 35 55 36 56 50 58 71 59
REMARK SMILES IDX 38 60 22 61 23 62 31 63 24 64 25 65 29 66 32 67 26 68 27 69
REMARK SMILES IDX 30 70 28 71 54 72 55 73 63 74 56 75 57 76 61 77 64 78 58 79
REMARK SMILES IDX 59 80 62 81 60 82 39 83 40 84 48 85 41 86 42 87 46 88 49 89
REMARK SMILES IDX 43 90 44 91 47 92 45 93
REMARK H PARENT 6 5 1 9 1 10 1 11 10 27 69 46 37 57
REMARK Flexibility Score: inf
ROOT
ATOM      1  C   UNL A   1      42.291  19.610  26.922  1.00  0.00     0.117 C 
ENDROOT
BRANCH   1   2
ATOM      2  N   UNL A   1      43.006  18.895  25.884  1.00  0.00    -0.356 N 
ATOM      3  C   UNL A   1      44.092  19.254  25.149  1.00  0.00     0.226 C 
ATOM      4  O   UNL A   1      44.520  18.430  24.337  1.00  0.00    -0.275 OA
ATOM      5  H   UNL A   1      42.646  18.002  25.676  1.00  0.00     0.163 HD
BRANCH   3   6
ATOM      6  C   UNL A   1      44.769  20.594  25.327  1.00  0.00     0.170 C 
BRANCH   6   7
ATOM      7  C   UNL A   1      44.445  21.772  24.380  1.00  0.00     0.224 C 
BRANCH   7   8
ATOM      8  N   UNL A   1      44.628  21.471  22.958  1.00  0.00    -0.351 N 
ATOM      9  H   UNL A   1      44.367  20.502  22.779  1.00  0.00     0.345 HD
ATOM     10  H   UNL A   1      45.606  21.613  22.704  1.00  0.00     0.345 HD
ATOM     11  H   UNL A   1      44.040  22.090  22.400  1.00  0.00     0.345 HD
ENDBRANCH   7   8
BRANCH   7  12
ATOM     12  C   UNL A   1      44.970  23.162  24.694  1.00  0.00     0.045 A 
ATOM     13  C   UNL A   1      46.327  23.518  24.664  1.00  0.00     0.013 A 
ATOM     14  C   UNL A   1      44.051  24.186  24.970  1.00  0.00     0.132 A 
ATOM     15  C   UNL A   1      46.742  24.820  24.970  1.00  0.00     0.014 A 
ATOM     16  C   UNL A   1      44.451  25.492  25.248  1.00  0.00     0.052 A 
ATOM     17  F   UNL A   1      42.734  23.924  24.968  1.00  0.00    -0.206 F 
ATOM     18  C   UNL A   1      45.809  25.823  25.267  1.00  0.00     0.058 A 
BRANCH  18  19
ATOM     19  C   UNL A   1      46.275  27.211  25.617  1.00  0.00     0.416 C 
ATOM     20  F   UNL A   1      46.595  27.943  24.515  1.00  0.00    -0.166 F 
ATOM     21  F   UNL A   1      45.326  27.930  26.280  1.00  0.00    -0.166 F 
ATOM     22  F   UNL A   1      47.380  27.231  26.414  1.00  0.00    -0.166 F 
ENDBRANCH  18  19
ENDBRANCH   7  12
ENDBRANCH   6   7
ENDBRANCH   3   6
ENDBRANCH   1   2
BRANCH   1  23
ATOM     23  C   UNL A   1      40.904  20.045  26.460  1.00  0.00     0.042 C 
BRANCH  23  24
ATOM     24  C   UNL A   1      40.637  21.541  26.566  1.00  0.00     0.118 C 
BRANCH  24  25
ATOM     25  N   UNL A   1      39.417  21.948  25.889  1.00  0.00    -0.352 N 
ATOM     26  C   UNL A   1      38.704  23.118  25.960  1.00  0.00     0.251 C 
ATOM     27  H   UNL A   1      39.041  21.273  25.279  1.00  0.00     0.163 HD
ATOM     28  O   UNL A   1      37.592  23.174  25.434  1.00  0.00    -0.269 OA
BRANCH  26  29
ATOM     29  C   UNL A   1      39.233  24.305  26.669  1.00  0.00     0.039 A 
ATOM     30  C   UNL A   1      40.014  25.220  25.953  1.00  0.00     0.014 A 
ATOM     31  C   UNL A   1      39.017  24.505  28.035  1.00  0.00     0.014 A 
ATOM     32  C   UNL A   1      40.523  26.356  26.589  1.00  0.00     0.010 A 
ATOM     33  C   UNL A   1      39.453  25.679  28.647  1.00  0.00     0.010 A 
ATOM     34  C   UNL A   1      40.218  26.613  27.934  1.00  0.00    -0.014 A 
BRANCH  34  35
ATOM     35  C   UNL A   1      40.701  27.844  28.615  1.00  0.00     0.031 A 
ATOM     36  C   UNL A   1      42.138  27.957  29.046  1.00  0.00     0.074 A 
ATOM     37  C   UNL A   1      39.832  28.831  28.910  1.00  0.00     0.049 A 
ATOM     38  N   UNL A   1      42.726  28.903  29.734  1.00  0.00    -0.248 NA
ATOM     39  C   UNL A   1      43.027  26.844  28.679  1.00  0.00     0.031 C 
ATOM     40  C   UNL A   1      38.405  28.826  28.584  1.00  0.00     0.029 A 
ATOM     41  N   UNL A   1      40.019  30.024  29.562  1.00  0.00    -0.354 N 
ATOM     42  C   UNL A   1      44.042  28.490  29.899  1.00  0.00     0.074 A 
ATOM     43  C   UNL A   1      44.156  27.187  29.282  1.00  0.00     0.031 C 
ATOM     44  C   UNL A   1      37.850  29.966  29.024  1.00  0.00     0.029 A 
ATOM     45  C   UNL A   1      38.870  30.765  29.697  1.00  0.00     0.049 A 
ATOM     46  H   UNL A   1      40.895  30.322  29.901  1.00  0.00     0.167 HD
ATOM     47  C   UNL A   1      45.067  29.147  30.494  1.00  0.00     0.037 A 
ATOM     48  C   UNL A   1      38.658  31.946  30.307  1.00  0.00     0.037 A 
ATOM     49  C   UNL A   1      44.960  30.458  31.077  1.00  0.00     0.049 A 
ATOM     50  C   UNL A   1      39.814  32.656  30.960  1.00  0.00     0.074 A 
ATOM     51  C   UNL A   1      45.956  31.236  31.642  1.00  0.00     0.029 A 
ATOM     52  N   UNL A   1      43.782  31.186  31.173  1.00  0.00    -0.354 N 
ATOM     53  N   UNL A   1      41.067  32.284  31.051  1.00  0.00    -0.248 NA
ATOM     54  C   UNL A   1      39.525  33.952  31.591  1.00  0.00     0.031 C 
ATOM     55  C   UNL A   1      45.373  32.414  32.121  1.00  0.00     0.029 A 
ATOM     56  C   UNL A   1      44.024  32.393  31.808  1.00  0.00     0.049 A 
ATOM     57  H   UNL A   1      42.906  30.888  30.840  1.00  0.00     0.167 HD
ATOM     58  C   UNL A   1      41.722  33.309  31.721  1.00  0.00     0.074 A 
ATOM     59  C   UNL A   1      40.729  34.326  32.003  1.00  0.00     0.031 C 
ATOM     60  C   UNL A   1      43.028  33.399  32.073  1.00  0.00     0.037 A 
BRANCH  47  61
ATOM     61  C   UNL A   1      46.401  28.458  30.543  1.00  0.00     0.064 A 
ATOM     62  C   UNL A   1      46.756  27.616  31.607  1.00  0.00     0.173 A 
ATOM     63  C   UNL A   1      47.318  28.607  29.492  1.00  0.00     0.173 A 
ATOM     64  F   UNL A   1      45.919  27.447  32.643  1.00  0.00    -0.203 F 
ATOM     65  C   UNL A   1      47.991  26.973  31.632  1.00  0.00     0.198 A 
ATOM     66  C   UNL A   1      48.539  27.938  29.505  1.00  0.00     0.198 A 
ATOM     67  F   UNL A   1      47.027  29.395  28.446  1.00  0.00    -0.203 F 
ATOM     68  F   UNL A   1      48.327  26.212  32.683  1.00  0.00    -0.200 F 
ATOM     69  C   UNL A   1      48.878  27.128  30.579  1.00  0.00     0.200 A 
ATOM     70  F   UNL A   1      49.390  28.079  28.479  1.00  0.00    -0.200 F 
ATOM     71  F   UNL A   1      50.063  26.502  30.599  1.00  0.00    -0.200 F 
ENDBRANCH  47  61
BRANCH  48  72
ATOM     72  C   UNL A   1      37.297  32.544  30.314  1.00  0.00     0.064 A 
ATOM     73  C   UNL A   1      36.860  33.352  29.254  1.00  0.00     0.173 A 
ATOM     74  C   UNL A   1      36.407  32.323  31.375  1.00  0.00     0.173 A 
ATOM     75  F   UNL A   1      37.683  33.609  28.227  1.00  0.00    -0.203 F 
ATOM     76  C   UNL A   1      35.593  33.930  29.264  1.00  0.00     0.198 A 
ATOM     77  C   UNL A   1      35.130  32.879  31.371  1.00  0.00     0.198 A 
ATOM     78  F   UNL A   1      36.775  31.555  32.411  1.00  0.00    -0.203 F 
ATOM     79  F   UNL A   1      35.217  34.733  28.261  1.00  0.00    -0.200 F 
ATOM     80  C   UNL A   1      34.726  33.689  30.320  1.00  0.00     0.200 A 
ATOM     81  F   UNL A   1      34.290  32.631  32.386  1.00  0.00    -0.200 F 
ATOM     82  F   UNL A   1      33.505  34.241  30.327  1.00  0.00    -0.200 F 
ENDBRANCH  48  72
BRANCH  60  83
ATOM     83  C   UNL A   1      43.471  34.655  32.766  1.00  0.00     0.064 A 
ATOM     84  C   UNL A   1      43.856  35.796  32.050  1.00  0.00     0.173 A 
ATOM     85  C   UNL A   1      43.460  34.731  34.168  1.00  0.00     0.173 A 
ATOM     86  F   UNL A   1      43.898  35.769  30.709  1.00  0.00    -0.203 F 
ATOM     87  C   UNL A   1      44.237  36.961  32.710  1.00  0.00     0.198 A 
ATOM     88  C   UNL A   1      43.811  35.907  34.824  1.00  0.00     0.198 A 
ATOM     89  F   UNL A   1      43.092  33.669  34.900  1.00  0.00    -0.203 F 
ATOM     90  F   UNL A   1      44.643  38.027  32.006  1.00  0.00    -0.200 F 
ATOM     91  C   UNL A   1      44.205  37.018  34.096  1.00  0.00     0.200 A 
ATOM     92  F   UNL A   1      43.767  35.964  36.163  1.00  0.00    -0.200 F 
ATOM     93  F   UNL A   1      44.561  38.144  34.730  1.00  0.00    -0.200 F 
ENDBRANCH  60  83
ENDBRANCH  34  35
ENDBRANCH  26  29
ENDBRANCH  24  25
ENDBRANCH  23  24
ENDBRANCH   1  23
TORSDOF 14
ENDMDL
MODEL 3
REMARK VINA RESULT:     -10.6      4.309      7.350
REMARK SMILES [NH3+][C@@H](CC(=O)NCCCNC(=O)c1ccc(-c2c3nc(c(-c4c(F)c(F)c(F)c(F)c4F)c4ccc([nH]4)c(-c4c(F)c(F)c(F)c(F)c4F)c4nc(c(-c5c(F)c(F)c(F)c(F)c5F)c5ccc2[nH]5)C=C4)C=C3)cc1)c1ccc(C(F)(F)F)cc1F
REMARK SMILES IDX 7 1 6 2 4 3 5 4 3 6 2 7 1 8 76 12 77 13 85 14 78 15 84 16
REMARK SMILES IDX 86 17 79 18 80 19 81 20 82 21 83 22 8 23 9 24 10 25 11 26
REMARK SMILES IDX 12 28 13 29 14 30 75 31 15 32 74 33 16 34 17 35 18 36 68 37
REMARK SMILES IDX 19 38 73 39 67 40 69 41 20 42 72 43 66 44 65 45 21 47 53 48
REMARK SMILES IDX 33 49 52 50 34 51 37 52 51 53 70 54 35 55 36 56 50 58 71 59
REMARK SMILES IDX 38 60 22 61 23 62 31 63 24 64 25 65 29 66 32 67 26 68 27 69
REMARK SMILES IDX 30 70 28 71 54 72 55 73 63 74 56 75 57 76 61 77 64 78 58 79
REMARK SMILES IDX 59 80 62 81 60 82 39 83 40 84 48 85 41 86 42 87 46 88 49 89
REMARK SMILES IDX 43 90 44 91 47 92 45 93
REMARK H PARENT 6 5 1 9 1 10 1 11 10 27 69 46 37 57
REMARK Flexibility Score: inf
ROOT
ATOM      1  C   UNL A   1      32.295  27.610  26.782  1.00  0.00     0.117 C 
ENDROOT
BRANCH   1   2
ATOM      2  N   UNL A   1      31.225  26.645  26.932  1.00  0.00    -0.356 N 
ATOM      3  C   UNL A   1      30.815  25.644  26.108  1.00  0.00     0.226 C 
ATOM      4  O   UNL A   1      29.879  24.941  26.498  1.00  0.00    -0.275 OA
ATOM      5  H   UNL A   1      30.710  26.727  27.767  1.00  0.00     0.163 HD
BRANCH   3   6
ATOM      6  C   UNL A   1      31.484  25.379  24.778  1.00  0.00     0.170 C 
BRANCH   6   7
ATOM      7  C   UNL A   1      30.745  25.672  23.453  1.00  0.00     0.224 C 
BRANCH   7   8
ATOM      8  N   UNL A   1      31.446  25.202  22.254  1.00  0.00    -0.351 N 
ATOM      9  H   UNL A   1      32.033  25.952  21.888  1.00  0.00     0.345 HD
ATOM     10  H   UNL A   1      30.763  24.929  21.547  1.00  0.00     0.345 HD
ATOM     11  H   UNL A   1      32.028  24.400  22.493  1.00  0.00     0.345 HD
ENDBRANCH   7   8
BRANCH   7  12
ATOM     12  C   UNL A   1      30.151  27.048  23.207  1.00  0.00     0.045 A 
ATOM     13  C   UNL A   1      30.855  28.122  22.646  1.00  0.00     0.013 A 
ATOM     14  C   UNL A   1      28.792  27.257  23.491  1.00  0.00     0.132 A 
ATOM     15  C   UNL A   1      30.244  29.368  22.450  1.00  0.00     0.014 A 
ATOM     16  C   UNL A   1      28.166  28.485  23.275  1.00  0.00     0.052 A 
ATOM     17  F   UNL A   1      28.048  26.256  23.986  1.00  0.00    -0.206 F 
ATOM     18  C   UNL A   1      28.893  29.564  22.764  1.00  0.00     0.058 A 
BRANCH  18  19
ATOM     19  C   UNL A   1      28.258  30.916  22.571  1.00  0.00     0.416 C 
ATOM     20  F   UNL A   1      27.284  31.166  23.489  1.00  0.00    -0.166 F 
ATOM     21  F   UNL A   1      29.153  31.936  22.689  1.00  0.00    -0.166 F 
ATOM     22  F   UNL A   1      27.673  31.074  21.351  1.00  0.00    -0.166 F 
ENDBRANCH  18  19
ENDBRANCH   7  12
ENDBRANCH   6   7
ENDBRANCH   3   6
ENDBRANCH   1   2
BRANCH   1  23
ATOM     23  C   UNL A   1      31.775  28.966  26.315  1.00  0.00     0.042 C 
BRANCH  23  24
ATOM     24  C   UNL A   1      32.845  29.912  25.785  1.00  0.00     0.118 C 
BRANCH  24  25
ATOM     25  N   UNL A   1      32.667  31.280  26.238  1.00  0.00    -0.352 N 
ATOM     26  C   UNL A   1      33.299  31.981  27.234  1.00  0.00     0.251 C 
ATOM     27  H   UNL A   1      31.978  31.789  25.751  1.00  0.00     0.163 HD
ATOM     28  O   UNL A   1      32.856  33.080  27.567  1.00  0.00    -0.269 OA
BRANCH  26  29
ATOM     29  C   UNL A   1      34.489  31.437  27.927  1.00  0.00     0.039 A 
ATOM     30  C   UNL A   1      35.603  32.268  28.096  1.00  0.00     0.014 A 
ATOM     31  C   UNL A   1      34.546  30.112  28.366  1.00  0.00     0.014 A 
ATOM     32  C   UNL A   1      36.740  31.790  28.753  1.00  0.00     0.010 A 
ATOM     33  C   UNL A   1      35.646  29.663  29.094  1.00  0.00     0.010 A 
ATOM     34  C   UNL A   1      36.759  30.493  29.289  1.00  0.00    -0.014 A 
BRANCH  34  35
ATOM     35  C   UNL A   1      37.936  29.983  30.041  1.00  0.00     0.031 A 
ATOM     36  C   UNL A   1      38.190  30.443  31.451  1.00  0.00     0.074 A 
ATOM     37  C   UNL A   1      38.815  29.163  29.434  1.00  0.00     0.049 A 
ATOM     38  N   UNL A   1      39.206  30.189  32.236  1.00  0.00    -0.248 NA
ATOM     39  C   UNL A   1      37.179  31.330  32.049  1.00  0.00     0.031 C 
ATOM     40  C   UNL A   1      38.706  28.676  28.058  1.00  0.00     0.029 A 
ATOM     41  N   UNL A   1      39.982  28.602  29.892  1.00  0.00    -0.354 N 
ATOM     42  C   UNL A   1      38.968  30.899  33.406  1.00  0.00     0.074 A 
ATOM     43  C   UNL A   1      37.736  31.632  33.213  1.00  0.00     0.031 C 
ATOM     44  C   UNL A   1      39.753  27.880  27.789  1.00  0.00     0.029 A 
ATOM     45  C   UNL A   1      40.628  27.830  28.957  1.00  0.00     0.049 A 
ATOM     46  H   UNL A   1      40.324  28.740  30.806  1.00  0.00     0.167 HD
ATOM     47  C   UNL A   1      39.700  30.921  34.547  1.00  0.00     0.037 A 
ATOM     48  C   UNL A   1      41.799  27.170  29.027  1.00  0.00     0.037 A 
ATOM     49  C   UNL A   1      40.907  30.164  34.751  1.00  0.00     0.049 A 
ATOM     50  C   UNL A   1      42.593  27.211  30.305  1.00  0.00     0.074 A 
ATOM     51  C   UNL A   1      41.682  30.066  35.893  1.00  0.00     0.029 A 
ATOM     52  N   UNL A   1      41.517  29.375  33.785  1.00  0.00    -0.354 N 
ATOM     53  N   UNL A   1      42.323  27.833  31.426  1.00  0.00    -0.248 NA
ATOM     54  C   UNL A   1      43.852  26.453  30.328  1.00  0.00     0.031 C 
ATOM     55  C   UNL A   1      42.786  29.256  35.606  1.00  0.00     0.029 A 
ATOM     56  C   UNL A   1      42.670  28.806  34.300  1.00  0.00     0.049 A 
ATOM     57  H   UNL A   1      41.179  29.240  32.871  1.00  0.00     0.167 HD
ATOM     58  C   UNL A   1      43.359  27.520  32.296  1.00  0.00     0.074 A 
ATOM     59  C   UNL A   1      44.258  26.641  31.576  1.00  0.00     0.031 C 
ATOM     60  C   UNL A   1      43.549  27.925  33.575  1.00  0.00     0.037 A 
BRANCH  47  61
ATOM     61  C   UNL A   1      39.214  31.792  35.670  1.00  0.00     0.064 A 
ATOM     62  C   UNL A   1      38.309  31.319  36.631  1.00  0.00     0.173 A 
ATOM     63  C   UNL A   1      39.693  33.103  35.811  1.00  0.00     0.173 A 
ATOM     64  F   UNL A   1      37.812  30.076  36.537  1.00  0.00    -0.203 F 
ATOM     65  C   UNL A   1      37.879  32.134  37.675  1.00  0.00     0.198 A 
ATOM     66  C   UNL A   1      39.285  33.906  36.873  1.00  0.00     0.198 A 
ATOM     67  F   UNL A   1      40.566  33.604  34.924  1.00  0.00    -0.203 F 
ATOM     68  F   UNL A   1      36.976  31.676  38.553  1.00  0.00    -0.200 F 
ATOM     69  C   UNL A   1      38.372  33.424  37.799  1.00  0.00     0.200 A 
ATOM     70  F   UNL A   1      39.774  35.147  36.999  1.00  0.00    -0.200 F 
ATOM     71  F   UNL A   1      37.964  34.206  38.808  1.00  0.00    -0.200 F 
ENDBRANCH  47  61
BRANCH  48  72
ATOM     72  C   UNL A   1      42.285  26.396  27.854  1.00  0.00     0.064 A 
ATOM     73  C   UNL A   1      41.825  25.095  27.609  1.00  0.00     0.173 A 
ATOM     74  C   UNL A   1      43.217  26.939  26.956  1.00  0.00     0.173 A 
ATOM     75  F   UNL A   1      40.950  24.526  28.451  1.00  0.00    -0.203 F 
ATOM     76  C   UNL A   1      42.292  24.359  26.523  1.00  0.00     0.198 A 
ATOM     77  C   UNL A   1      43.662  26.212  25.854  1.00  0.00     0.198 A 
ATOM     78  F   UNL A   1      43.685  28.181  27.143  1.00  0.00    -0.203 F 
ATOM     79  F   UNL A   1      41.870  23.101  26.337  1.00  0.00    -0.200 F 
ATOM     80  C   UNL A   1      43.206  24.919  25.643  1.00  0.00     0.200 A 
ATOM     81  F   UNL A   1      44.534  26.763  24.998  1.00  0.00    -0.200 F 
ATOM     82  F   UNL A   1      43.651  24.213  24.595  1.00  0.00    -0.200 F 
ENDBRANCH  48  72
BRANCH  60  83
ATOM     83  C   UNL A   1      44.754  27.394  34.296  1.00  0.00     0.064 A 
ATOM     84  C   UNL A   1      45.977  28.079  34.292  1.00  0.00     0.173 A 
ATOM     85  C   UNL A   1      44.668  26.207  35.041  1.00  0.00     0.173 A 
ATOM     86  F   UNL A   1      46.115  29.210  33.583  1.00  0.00    -0.203 F 
ATOM     87  C   UNL A   1      47.076  27.585  34.990  1.00  0.00     0.198 A 
ATOM     88  C   UNL A   1      45.760  25.733  35.762  1.00  0.00     0.198 A 
ATOM     89  F   UNL A   1      43.518  25.516  35.081  1.00  0.00    -0.203 F 
ATOM     90  F   UNL A   1      48.247  28.235  34.939  1.00  0.00    -0.200 F 
ATOM     91  C   UNL A   1      46.964  26.419  35.731  1.00  0.00     0.200 A 
ATOM     92  F   UNL A   1      45.645  24.612  36.487  1.00  0.00    -0.200 F 
ATOM     93  F   UNL A   1      48.019  25.950  36.411  1.00  0.00    -0.200 F 
ENDBRANCH  60  83
ENDBRANCH  34  35
ENDBRANCH  26  29
ENDBRANCH  24  25
ENDBRANCH  23  24
ENDBRANCH   1  23
TORSDOF 14
ENDMDL
