MODEL 1
REMARK VINA RESULT:     -10.9      0.000      0.000
REMARK SMILES CC(C)[C@@H]1SC[C@@H](C(=O)NCCCNC(=O)c2ccc(-c3c4nc(c(-c5c(F)c(F)c(F)c(F)c5F)c5ccc([nH]5)c(-c5c(F)c(F)c(F)c(F)c5F)c5nc(c(-c6c(F)c(F)c(F)c(F)c6F)c6ccc3[nH]6)C=C5)C=C4)cc2)N1C(=O)COCC[NH3+]
REMARK SMILES IDX 8 1 9 2 10 3 7 5 4 6 5 7 80 8 6 9 2 10 1 11 3 12 81 13 82 14
REMARK SMILES IDX 83 15 84 16 85 17 86 18 87 19 11 23 12 24 13 25 14 26 15 27
REMARK SMILES IDX 16 29 17 30 18 31 79 32 19 33 78 34 20 35 21 36 22 37 72 38
REMARK SMILES IDX 23 39 77 40 71 41 73 42 24 43 76 44 70 45 69 46 25 48 57 49
REMARK SMILES IDX 37 50 56 51 38 52 41 53 55 54 74 55 39 56 40 57 54 59 75 60
REMARK SMILES IDX 42 61 26 62 27 63 35 64 28 65 29 66 33 67 36 68 30 69 31 70
REMARK SMILES IDX 34 71 32 72 58 73 59 74 67 75 60 76 61 77 65 78 68 79 62 80
REMARK SMILES IDX 63 81 66 82 64 83 43 84 44 85 52 86 45 87 46 88 50 89 53 90
REMARK SMILES IDX 47 91 48 92 51 93 49 94
REMARK H PARENT 10 4 87 20 87 21 87 22 14 28 73 47 41 58
REMARK Flexibility Score: inf
ROOT
ATOM      1  C   UNL A   1      32.956  28.932  25.794  1.00  0.00     0.243 C 
ATOM      2  O   UNL A   1      34.180  28.772  25.726  1.00  0.00    -0.273 OA
ATOM      3  N   UNL A   1      32.540  30.208  26.037  1.00  0.00    -0.354 N 
ATOM      4  H   UNL A   1      33.226  30.791  26.435  1.00  0.00     0.163 HD
ENDROOT
BRANCH   1   5
ATOM      5  C   UNL A   1      31.991  27.762  25.459  1.00  0.00     0.185 C 
ATOM      6  C   UNL A   1      32.657  25.786  24.101  1.00  0.00     0.146 C 
ATOM      7  S   UNL A   1      32.316  25.122  25.783  1.00  0.00    -0.134 SA
ATOM      8  N   UNL A   1      32.159  27.169  24.113  1.00  0.00    -0.316 N 
ATOM      9  C   UNL A   1      32.046  26.720  26.564  1.00  0.00     0.107 C 
BRANCH   6  10
ATOM     10  C   UNL A   1      32.169  24.782  23.025  1.00  0.00     0.016 C 
ATOM     11  C   UNL A   1      33.109  23.573  22.859  1.00  0.00     0.010 C 
ATOM     12  C   UNL A   1      30.734  24.290  23.229  1.00  0.00     0.010 C 
ENDBRANCH   6  10
BRANCH   8  13
ATOM     13  C   UNL A   1      31.827  28.024  23.070  1.00  0.00     0.250 C 
ATOM     14  O   UNL A   1      32.716  28.624  22.454  1.00  0.00    -0.272 OA
BRANCH  13  15
ATOM     15  C   UNL A   1      30.385  28.252  22.609  1.00  0.00     0.260 C 
BRANCH  15  16
ATOM     16  O   UNL A   1      29.971  29.603  22.530  1.00  0.00    -0.366 OA
BRANCH  16  17
ATOM     17  C   UNL A   1      28.662  29.776  21.968  1.00  0.00     0.222 C 
BRANCH  17  18
ATOM     18  C   UNL A   1      27.519  29.765  23.005  1.00  0.00     0.287 C 
BRANCH  18  19
ATOM     19  N   UNL A   1      26.724  28.536  23.010  1.00  0.00    -0.356 N 
ATOM     20  H   UNL A   1      26.601  28.214  23.970  1.00  0.00     0.344 HD
ATOM     21  H   UNL A   1      27.203  27.818  22.469  1.00  0.00     0.344 HD
ATOM     22  H   UNL A   1      25.809  28.720  22.595  1.00  0.00     0.344 HD
ENDBRANCH  18  19
ENDBRANCH  17  18
ENDBRANCH  16  17
ENDBRANCH  15  16
ENDBRANCH  13  15
ENDBRANCH   8  13
ENDBRANCH   1   5
BRANCH   3  23
ATOM     23  C   UNL A   1      31.264  30.853  25.810  1.00  0.00     0.117 C 
BRANCH  23  24
ATOM     24  C   UNL A   1      31.212  32.279  26.338  1.00  0.00     0.042 C 
BRANCH  24  25
ATOM     25  C   UNL A   1      32.417  32.668  27.183  1.00  0.00     0.118 C 
BRANCH  25  26
ATOM     26  N   UNL A   1      32.389  34.071  27.574  1.00  0.00    -0.352 N 
ATOM     27  C   UNL A   1      33.094  34.745  28.536  1.00  0.00     0.251 C 
ATOM     28  H   UNL A   1      31.757  34.627  27.063  1.00  0.00     0.163 HD
ATOM     29  O   UNL A   1      32.762  35.895  28.821  1.00  0.00    -0.269 OA
BRANCH  27  30
ATOM     30  C   UNL A   1      34.242  34.125  29.235  1.00  0.00     0.039 A 
ATOM     31  C   UNL A   1      35.535  34.529  28.879  1.00  0.00     0.014 A 
ATOM     32  C   UNL A   1      34.070  33.095  30.163  1.00  0.00     0.014 A 
ATOM     33  C   UNL A   1      36.645  33.913  29.461  1.00  0.00     0.010 A 
ATOM     34  C   UNL A   1      35.174  32.539  30.804  1.00  0.00     0.010 A 
ATOM     35  C   UNL A   1      36.473  32.917  30.433  1.00  0.00    -0.014 A 
BRANCH  35  36
ATOM     36  C   UNL A   1      37.638  32.202  31.008  1.00  0.00     0.031 A 
ATOM     37  C   UNL A   1      38.096  32.524  32.405  1.00  0.00     0.074 A 
ATOM     38  C   UNL A   1      38.298  31.289  30.274  1.00  0.00     0.049 A 
ATOM     39  N   UNL A   1      39.105  32.035  33.083  1.00  0.00    -0.248 NA
ATOM     40  C   UNL A   1      37.334  33.554  33.127  1.00  0.00     0.031 C 
ATOM     41  C   UNL A   1      37.969  30.914  28.898  1.00  0.00     0.029 A 
ATOM     42  N   UNL A   1      39.380  30.506  30.585  1.00  0.00    -0.354 N 
ATOM     43  C   UNL A   1      39.106  32.711  34.296  1.00  0.00     0.074 A 
ATOM     44  C   UNL A   1      38.037  33.685  34.240  1.00  0.00     0.031 C 
ATOM     45  C   UNL A   1      38.810  29.946  28.497  1.00  0.00     0.029 A 
ATOM     46  C   UNL A   1      39.749  29.652  29.576  1.00  0.00     0.049 A 
ATOM     47  H   UNL A   1      39.848  30.553  31.450  1.00  0.00     0.167 HD
ATOM     48  C   UNL A   1      39.906  32.520  35.373  1.00  0.00     0.037 A 
ATOM     49  C   UNL A   1      40.728  28.729  29.536  1.00  0.00     0.037 A 
ATOM     50  C   UNL A   1      40.948  31.529  35.438  1.00  0.00     0.049 A 
ATOM     51  C   UNL A   1      41.596  28.525  30.746  1.00  0.00     0.074 A 
ATOM     52  C   UNL A   1      41.794  31.229  36.490  1.00  0.00     0.029 A 
ATOM     53  N   UNL A   1      41.278  30.669  34.400  1.00  0.00    -0.354 N 
ATOM     54  N   UNL A   1      41.559  29.136  31.905  1.00  0.00    -0.248 NA
ATOM     55  C   UNL A   1      42.634  27.491  30.645  1.00  0.00     0.031 C 
ATOM     56  C   UNL A   1      42.656  30.205  36.079  1.00  0.00     0.029 A 
ATOM     57  C   UNL A   1      42.319  29.840  34.785  1.00  0.00     0.049 A 
ATOM     58  H   UNL A   1      40.837  30.650  33.520  1.00  0.00     0.167 HD
ATOM     59  C   UNL A   1      42.540  28.537  32.683  1.00  0.00     0.074 A 
ATOM     60  C   UNL A   1      43.151  27.509  31.866  1.00  0.00     0.031 C 
ATOM     61  C   UNL A   1      42.897  28.810  33.962  1.00  0.00     0.037 A 
BRANCH  48  62
ATOM     62  C   UNL A   1      39.674  33.404  36.564  1.00  0.00     0.064 A 
ATOM     63  C   UNL A   1      38.785  33.037  37.588  1.00  0.00     0.173 A 
ATOM     64  C   UNL A   1      40.337  34.633  36.681  1.00  0.00     0.173 A 
ATOM     65  F   UNL A   1      38.114  31.878  37.516  1.00  0.00    -0.203 F 
ATOM     66  C   UNL A   1      38.538  33.888  38.662  1.00  0.00     0.198 A 
ATOM     67  C   UNL A   1      40.110  35.468  37.774  1.00  0.00     0.198 A 
ATOM     68  F   UNL A   1      41.199  35.030  35.735  1.00  0.00    -0.203 F 
ATOM     69  F   UNL A   1      37.635  33.546  39.592  1.00  0.00    -0.200 F 
ATOM     70  C   UNL A   1      39.202  35.101  38.755  1.00  0.00     0.200 A 
ATOM     71  F   UNL A   1      40.762  36.637  37.869  1.00  0.00    -0.200 F 
ATOM     72  F   UNL A   1      38.959  35.922  39.786  1.00  0.00    -0.200 F 
ENDBRANCH  48  62
BRANCH  49  73
ATOM     73  C   UNL A   1      40.888  27.878  28.329  1.00  0.00     0.064 A 
ATOM     74  C   UNL A   1      41.702  28.296  27.267  1.00  0.00     0.173 A 
ATOM     75  C   UNL A   1      40.249  26.637  28.215  1.00  0.00     0.173 A 
ATOM     76  F   UNL A   1      42.319  29.485  27.325  1.00  0.00    -0.203 F 
ATOM     77  C   UNL A   1      41.860  27.509  26.129  1.00  0.00     0.198 A 
ATOM     78  C   UNL A   1      40.425  25.840  27.086  1.00  0.00     0.198 A 
ATOM     79  F   UNL A   1      39.464  26.190  29.207  1.00  0.00    -0.203 F 
ATOM     80  F   UNL A   1      42.616  27.948  25.114  1.00  0.00    -0.200 F 
ATOM     81  C   UNL A   1      41.227  26.279  26.042  1.00  0.00     0.200 A 
ATOM     82  F   UNL A   1      39.822  24.646  27.009  1.00  0.00    -0.200 F 
ATOM     83  F   UNL A   1      41.384  25.520  24.949  1.00  0.00    -0.200 F 
ENDBRANCH  49  73
BRANCH  61  84
ATOM     84  C   UNL A   1      43.962  27.947  34.574  1.00  0.00     0.064 A 
ATOM     85  C   UNL A   1      45.314  28.318  34.556  1.00  0.00     0.173 A 
ATOM     86  C   UNL A   1      43.617  26.744  35.209  1.00  0.00     0.173 A 
ATOM     87  F   UNL A   1      45.695  29.451  33.947  1.00  0.00    -0.203 F 
ATOM     88  C   UNL A   1      46.285  27.503  35.130  1.00  0.00     0.198 A 
ATOM     89  C   UNL A   1      44.587  25.945  35.805  1.00  0.00     0.198 A 
ATOM     90  F   UNL A   1      42.335  26.349  35.256  1.00  0.00    -0.203 F 
ATOM     91  F   UNL A   1      47.577  27.853  35.060  1.00  0.00    -0.200 F 
ATOM     92  C   UNL A   1      45.922  26.320  35.758  1.00  0.00     0.200 A 
ATOM     93  F   UNL A   1      44.233  24.809  36.420  1.00  0.00    -0.200 F 
ATOM     94  F   UNL A   1      46.858  25.538  36.311  1.00  0.00    -0.200 F 
ENDBRANCH  61  84
ENDBRANCH  35  36
ENDBRANCH  27  30
ENDBRANCH  25  26
ENDBRANCH  24  25
ENDBRANCH  23  24
ENDBRANCH   3  23
TORSDOF 17
ENDMDL
MODEL 2
REMARK VINA RESULT:     -10.7      5.875     11.356
REMARK SMILES CC(C)[C@@H]1SC[C@@H](C(=O)NCCCNC(=O)c2ccc(-c3c4nc(c(-c5c(F)c(F)c(F)c(F)c5F)c5ccc([nH]5)c(-c5c(F)c(F)c(F)c(F)c5F)c5nc(c(-c6c(F)c(F)c(F)c(F)c6F)c6ccc3[nH]6)C=C5)C=C4)cc2)N1C(=O)COCC[NH3+]
REMARK SMILES IDX 8 1 9 2 10 3 7 5 4 6 5 7 80 8 6 9 2 10 1 11 3 12 81 13 82 14
REMARK SMILES IDX 83 15 84 16 85 17 86 18 87 19 11 23 12 24 13 25 14 26 15 27
REMARK SMILES IDX 16 29 17 30 18 31 79 32 19 33 78 34 20 35 21 36 22 37 72 38
REMARK SMILES IDX 23 39 77 40 71 41 73 42 24 43 76 44 70 45 69 46 25 48 57 49
REMARK SMILES IDX 37 50 56 51 38 52 41 53 55 54 74 55 39 56 40 57 54 59 75 60
REMARK SMILES IDX 42 61 26 62 27 63 35 64 28 65 29 66 33 67 36 68 30 69 31 70
REMARK SMILES IDX 34 71 32 72 58 73 59 74 67 75 60 76 61 77 65 78 68 79 62 80
REMARK SMILES IDX 63 81 66 82 64 83 43 84 44 85 52 86 45 87 46 88 50 89 53 90
REMARK SMILES IDX 47 91 48 92 51 93 49 94
REMARK H PARENT 10 4 87 20 87 21 87 22 14 28 73 47 41 58
REMARK Flexibility Score: inf
ROOT
ATOM      1  C   UNL A   1      36.124  22.481  25.538  1.00  0.00     0.243 C 
ATOM      2  O   UNL A   1      36.306  23.316  26.432  1.00  0.00    -0.273 OA
ATOM      3  N   UNL A   1      36.933  21.383  25.583  1.00  0.00    -0.354 N 
ATOM      4  H   UNL A   1      37.758  21.507  26.106  1.00  0.00     0.163 HD
ENDROOT
BRANCH   1   5
ATOM      5  C   UNL A   1      34.937  22.635  24.549  1.00  0.00     0.185 C 
ATOM      6  C   UNL A   1      32.781  23.719  25.157  1.00  0.00     0.146 C 
ATOM      7  S   UNL A   1      33.529  24.815  23.882  1.00  0.00    -0.134 SA
ATOM      8  N   UNL A   1      33.591  22.492  25.148  1.00  0.00    -0.316 N 
ATOM      9  C   UNL A   1      35.089  23.927  23.763  1.00  0.00     0.107 C 
BRANCH   6  10
ATOM     10  C   UNL A   1      31.244  23.651  24.962  1.00  0.00     0.016 C 
ATOM     11  C   UNL A   1      30.486  24.714  25.779  1.00  0.00     0.010 C 
ATOM     12  C   UNL A   1      30.792  23.710  23.501  1.00  0.00     0.010 C 
ENDBRANCH   6  10
BRANCH   8  13
ATOM     13  C   UNL A   1      33.310  21.216  25.619  1.00  0.00     0.250 C 
ATOM     14  O   UNL A   1      33.440  20.957  26.822  1.00  0.00    -0.272 OA
BRANCH  13  15
ATOM     15  C   UNL A   1      32.812  20.087  24.714  1.00  0.00     0.260 C 
BRANCH  15  16
ATOM     16  O   UNL A   1      32.221  18.983  25.375  1.00  0.00    -0.366 OA
BRANCH  16  17
ATOM     17  C   UNL A   1      32.510  17.718  24.761  1.00  0.00     0.222 C 
BRANCH  17  18
ATOM     18  C   UNL A   1      33.271  16.730  25.670  1.00  0.00     0.287 C 
BRANCH  18  19
ATOM     19  N   UNL A   1      34.701  16.624  25.376  1.00  0.00    -0.356 N 
ATOM     20  H   UNL A   1      35.232  16.689  26.244  1.00  0.00     0.344 HD
ATOM     21  H   UNL A   1      34.977  17.379  24.750  1.00  0.00     0.344 HD
ATOM     22  H   UNL A   1      34.891  15.726  24.929  1.00  0.00     0.344 HD
ENDBRANCH  18  19
ENDBRANCH  17  18
ENDBRANCH  16  17
ENDBRANCH  15  16
ENDBRANCH  13  15
ENDBRANCH   8  13
ENDBRANCH   1   5
BRANCH   3  23
ATOM     23  C   UNL A   1      36.786  20.069  24.995  1.00  0.00     0.117 C 
BRANCH  23  24
ATOM     24  C   UNL A   1      38.083  19.273  24.977  1.00  0.00     0.042 C 
BRANCH  24  25
ATOM     25  C   UNL A   1      39.218  19.927  25.753  1.00  0.00     0.118 C 
BRANCH  25  26
ATOM     26  N   UNL A   1      40.350  19.030  25.938  1.00  0.00    -0.352 N 
ATOM     27  C   UNL A   1      41.681  19.296  26.125  1.00  0.00     0.251 C 
ATOM     28  H   UNL A   1      40.122  18.072  25.925  1.00  0.00     0.163 HD
ATOM     29  O   UNL A   1      42.488  18.370  26.063  1.00  0.00    -0.269 OA
BRANCH  27  30
ATOM     30  C   UNL A   1      42.167  20.667  26.401  1.00  0.00     0.039 A 
ATOM     31  C   UNL A   1      42.320  21.063  27.735  1.00  0.00     0.014 A 
ATOM     32  C   UNL A   1      42.384  21.592  25.377  1.00  0.00     0.014 A 
ATOM     33  C   UNL A   1      42.703  22.371  28.038  1.00  0.00     0.010 A 
ATOM     34  C   UNL A   1      42.846  22.871  25.674  1.00  0.00     0.010 A 
ATOM     35  C   UNL A   1      42.975  23.285  27.008  1.00  0.00    -0.014 A 
BRANCH  35  36
ATOM     36  C   UNL A   1      43.311  24.697  27.310  1.00  0.00     0.031 A 
ATOM     37  C   UNL A   1      44.691  25.216  27.009  1.00  0.00     0.074 A 
ATOM     38  C   UNL A   1      42.395  25.502  27.875  1.00  0.00     0.049 A 
ATOM     39  N   UNL A   1      45.196  26.407  27.218  1.00  0.00    -0.248 NA
ATOM     40  C   UNL A   1      45.639  24.261  26.415  1.00  0.00     0.031 C 
ATOM     41  C   UNL A   1      41.035  25.106  28.243  1.00  0.00     0.029 A 
ATOM     42  N   UNL A   1      42.467  26.824  28.234  1.00  0.00    -0.354 N 
ATOM     43  C   UNL A   1      46.519  26.333  26.803  1.00  0.00     0.074 A 
ATOM     44  C   UNL A   1      46.757  24.969  26.384  1.00  0.00     0.031 C 
ATOM     45  C   UNL A   1      40.389  26.173  28.742  1.00  0.00     0.029 A 
ATOM     46  C   UNL A   1      41.296  27.318  28.752  1.00  0.00     0.049 A 
ATOM     47  H   UNL A   1      43.282  27.367  28.130  1.00  0.00     0.167 HD
ATOM     48  C   UNL A   1      47.447  27.319  26.746  1.00  0.00     0.037 A 
ATOM     49  C   UNL A   1      40.990  28.559  29.173  1.00  0.00     0.037 A 
ATOM     50  C   UNL A   1      47.199  28.683  27.133  1.00  0.00     0.049 A 
ATOM     51  C   UNL A   1      42.030  29.641  29.090  1.00  0.00     0.074 A 
ATOM     52  C   UNL A   1      48.056  29.767  27.085  1.00  0.00     0.029 A 
ATOM     53  N   UNL A   1      45.992  29.148  27.635  1.00  0.00    -0.354 N 
ATOM     54  N   UNL A   1      43.264  29.573  28.652  1.00  0.00    -0.248 NA
ATOM     55  C   UNL A   1      41.629  30.977  29.549  1.00  0.00     0.031 C 
ATOM     56  C   UNL A   1      47.376  30.885  27.585  1.00  0.00     0.029 A 
ATOM     57  C   UNL A   1      46.082  30.504  27.906  1.00  0.00     0.049 A 
ATOM     58  H   UNL A   1      45.188  28.597  27.777  1.00  0.00     0.167 HD
ATOM     59  C   UNL A   1      43.773  30.860  28.746  1.00  0.00     0.074 A 
ATOM     60  C   UNL A   1      42.713  31.692  29.278  1.00  0.00     0.031 C 
ATOM     61  C   UNL A   1      45.007  31.315  28.415  1.00  0.00     0.037 A 
BRANCH  48  62
ATOM     62  C   UNL A   1      48.812  26.948  26.242  1.00  0.00     0.064 A 
ATOM     63  C   UNL A   1      49.154  27.077  24.886  1.00  0.00     0.173 A 
ATOM     64  C   UNL A   1      49.785  26.449  27.119  1.00  0.00     0.173 A 
ATOM     65  F   UNL A   1      48.253  27.534  24.004  1.00  0.00    -0.203 F 
ATOM     66  C   UNL A   1      50.404  26.680  24.422  1.00  0.00     0.198 A 
ATOM     67  C   UNL A   1      51.047  26.082  26.655  1.00  0.00     0.198 A 
ATOM     68  F   UNL A   1      49.513  26.310  28.424  1.00  0.00    -0.203 F 
ATOM     69  F   UNL A   1      50.684  26.750  23.112  1.00  0.00    -0.200 F 
ATOM     70  C   UNL A   1      51.351  26.186  25.306  1.00  0.00     0.200 A 
ATOM     71  F   UNL A   1      51.965  25.615  27.513  1.00  0.00    -0.200 F 
ATOM     72  F   UNL A   1      52.552  25.799  24.856  1.00  0.00    -0.200 F 
ENDBRANCH  48  62
BRANCH  49  73
ATOM     73  C   UNL A   1      39.613  28.858  29.643  1.00  0.00     0.064 A 
ATOM     74  C   UNL A   1      39.270  28.690  30.992  1.00  0.00     0.173 A 
ATOM     75  C   UNL A   1      38.623  29.326  28.769  1.00  0.00     0.173 A 
ATOM     76  F   UNL A   1      40.180  28.227  31.861  1.00  0.00    -0.203 F 
ATOM     77  C   UNL A   1      37.982  28.965  31.447  1.00  0.00     0.198 A 
ATOM     78  C   UNL A   1      37.342  29.623  29.228  1.00  0.00     0.198 A 
ATOM     79  F   UNL A   1      38.905  29.509  27.470  1.00  0.00    -0.203 F 
ATOM     80  F   UNL A   1      37.672  28.762  32.734  1.00  0.00    -0.200 F 
ATOM     81  C   UNL A   1      37.022  29.436  30.566  1.00  0.00     0.200 A 
ATOM     82  F   UNL A   1      36.419  30.090  28.378  1.00  0.00    -0.200 F 
ATOM     83  F   UNL A   1      35.784  29.707  31.004  1.00  0.00    -0.200 F 
ENDBRANCH  49  73
BRANCH  61  84
ATOM     84  C   UNL A   1      45.257  32.787  28.567  1.00  0.00     0.064 A 
ATOM     85  C   UNL A   1      45.816  33.324  29.736  1.00  0.00     0.173 A 
ATOM     86  C   UNL A   1      44.957  33.666  27.515  1.00  0.00     0.173 A 
ATOM     87  F   UNL A   1      46.105  32.526  30.774  1.00  0.00    -0.203 F 
ATOM     88  C   UNL A   1      46.040  34.693  29.855  1.00  0.00     0.198 A 
ATOM     89  C   UNL A   1      45.208  35.029  27.628  1.00  0.00     0.198 A 
ATOM     90  F   UNL A   1      44.426  33.198  26.375  1.00  0.00    -0.203 F 
ATOM     91  F   UNL A   1      46.531  35.191  30.999  1.00  0.00    -0.200 F 
ATOM     92  C   UNL A   1      45.742  35.544  28.801  1.00  0.00     0.200 A 
ATOM     93  F   UNL A   1      44.928  35.848  26.605  1.00  0.00    -0.200 F 
ATOM     94  F   UNL A   1      45.961  36.860  28.918  1.00  0.00    -0.200 F 
ENDBRANCH  61  84
ENDBRANCH  35  36
ENDBRANCH  27  30
ENDBRANCH  25  26
ENDBRANCH  24  25
ENDBRANCH  23  24
ENDBRANCH   3  23
TORSDOF 17
ENDMDL
MODEL 3
REMARK VINA RESULT:     -10.6      1.392      3.043
REMARK SMILES CC(C)[C@@H]1SC[C@@H](C(=O)NCCCNC(=O)c2ccc(-c3c4nc(c(-c5c(F)c(F)c(F)c(F)c5F)c5ccc([nH]5)c(-c5c(F)c(F)c(F)c(F)c5F)c5nc(c(-c6c(F)c(F)c(F)c(F)c6F)c6ccc3[nH]6)C=C5)C=C4)cc2)N1C(=O)COCC[NH3+]
REMARK SMILES IDX 8 1 9 2 10 3 7 5 4 6 5 7 80 8 6 9 2 10 1 11 3 12 81 13 82 14
REMARK SMILES IDX 83 15 84 16 85 17 86 18 87 19 11 23 12 24 13 25 14 26 15 27
REMARK SMILES IDX 16 29 17 30 18 31 79 32 19 33 78 34 20 35 21 36 22 37 72 38
REMARK SMILES IDX 23 39 77 40 71 41 73 42 24 43 76 44 70 45 69 46 25 48 57 49
REMARK SMILES IDX 37 50 56 51 38 52 41 53 55 54 74 55 39 56 40 57 54 59 75 60
REMARK SMILES IDX 42 61 26 62 27 63 35 64 28 65 29 66 33 67 36 68 30 69 31 70
REMARK SMILES IDX 34 71 32 72 58 73 59 74 67 75 60 76 61 77 65 78 68 79 62 80
REMARK SMILES IDX 63 81 66 82 64 83 43 84 44 85 52 86 45 87 46 88 50 89 53 90
REMARK SMILES IDX 47 91 48 92 51 93 49 94
REMARK H PARENT 10 4 87 20 87 21 87 22 14 28 73 47 41 58
REMARK Flexibility Score: inf
ROOT
ATOM      1  C   UNL A   1      33.680  29.213  26.584  1.00  0.00     0.243 C 
ATOM      2  O   UNL A   1      34.817  29.210  27.070  1.00  0.00    -0.273 OA
ATOM      3  N   UNL A   1      32.842  30.185  27.048  1.00  0.00    -0.354 N 
ATOM      4  H   UNL A   1      33.106  30.569  27.916  1.00  0.00     0.163 HD
ENDROOT
BRANCH   1   5
ATOM      5  C   UNL A   1      33.324  28.260  25.411  1.00  0.00     0.185 C 
ATOM      6  C   UNL A   1      31.053  28.118  24.403  1.00  0.00     0.146 C 
ATOM      7  S   UNL A   1      32.132  28.787  23.070  1.00  0.00    -0.134 SA
ATOM      8  N   UNL A   1      31.967  27.670  25.464  1.00  0.00    -0.316 N 
ATOM      9  C   UNL A   1      33.607  28.949  24.087  1.00  0.00     0.107 C 
BRANCH   6  10
ATOM     10  C   UNL A   1      30.007  27.146  23.801  1.00  0.00     0.016 C 
ATOM     11  C   UNL A   1      28.834  27.872  23.116  1.00  0.00     0.010 C 
ATOM     12  C   UNL A   1      30.593  26.106  22.843  1.00  0.00     0.010 C 
ENDBRANCH   6  10
BRANCH   8  13
ATOM     13  C   UNL A   1      31.770  26.791  26.520  1.00  0.00     0.250 C 
ATOM     14  O   UNL A   1      31.292  27.199  27.586  1.00  0.00    -0.272 OA
BRANCH  13  15
ATOM     15  C   UNL A   1      32.094  25.298  26.430  1.00  0.00     0.260 C 
BRANCH  15  16
ATOM     16  O   UNL A   1      31.302  24.446  27.237  1.00  0.00    -0.366 OA
BRANCH  16  17
ATOM     17  C   UNL A   1      30.637  23.406  26.504  1.00  0.00     0.222 C 
BRANCH  17  18
ATOM     18  C   UNL A   1      31.582  22.321  25.944  1.00  0.00     0.287 C 
BRANCH  18  19
ATOM     19  N   UNL A   1      32.522  21.779  26.925  1.00  0.00    -0.356 N 
ATOM     20  H   UNL A   1      33.477  21.964  26.619  1.00  0.00     0.344 HD
ATOM     21  H   UNL A   1      32.381  20.773  27.012  1.00  0.00     0.344 HD
ATOM     22  H   UNL A   1      32.364  22.223  27.830  1.00  0.00     0.344 HD
ENDBRANCH  18  19
ENDBRANCH  17  18
ENDBRANCH  16  17
ENDBRANCH  15  16
ENDBRANCH  13  15
ENDBRANCH   8  13
ENDBRANCH   1   5
BRANCH   3  23
ATOM     23  C   UNL A   1      31.634  30.749  26.485  1.00  0.00     0.117 C 
BRANCH  23  24
ATOM     24  C   UNL A   1      31.421  32.207  26.865  1.00  0.00     0.042 C 
BRANCH  24  25
ATOM     25  C   UNL A   1      32.710  33.005  26.994  1.00  0.00     0.118 C 
BRANCH  25  26
ATOM     26  N   UNL A   1      32.496  34.307  27.612  1.00  0.00    -0.352 N 
ATOM     27  C   UNL A   1      33.052  34.868  28.731  1.00  0.00     0.251 C 
ATOM     28  H   UNL A   1      31.842  34.878  27.148  1.00  0.00     0.163 HD
ATOM     29  O   UNL A   1      32.573  35.910  29.175  1.00  0.00    -0.269 OA
BRANCH  27  30
ATOM     30  C   UNL A   1      34.212  34.252  29.414  1.00  0.00     0.039 A 
ATOM     31  C   UNL A   1      35.499  34.598  28.982  1.00  0.00     0.014 A 
ATOM     32  C   UNL A   1      34.053  33.279  30.403  1.00  0.00     0.014 A 
ATOM     33  C   UNL A   1      36.616  33.982  29.549  1.00  0.00     0.010 A 
ATOM     34  C   UNL A   1      35.169  32.725  31.026  1.00  0.00     0.010 A 
ATOM     35  C   UNL A   1      36.460  33.045  30.581  1.00  0.00    -0.014 A 
BRANCH  35  36
ATOM     36  C   UNL A   1      37.629  32.327  31.144  1.00  0.00     0.031 A 
ATOM     37  C   UNL A   1      38.107  32.654  32.533  1.00  0.00     0.074 A 
ATOM     38  C   UNL A   1      38.276  31.408  30.405  1.00  0.00     0.049 A 
ATOM     39  N   UNL A   1      39.121  32.163  33.200  1.00  0.00    -0.248 NA
ATOM     40  C   UNL A   1      37.358  33.690  33.261  1.00  0.00     0.031 C 
ATOM     41  C   UNL A   1      37.928  31.028  29.036  1.00  0.00     0.029 A 
ATOM     42  N   UNL A   1      39.358  30.622  30.707  1.00  0.00    -0.354 N 
ATOM     43  C   UNL A   1      39.141  32.845  34.410  1.00  0.00     0.074 A 
ATOM     44  C   UNL A   1      38.076  33.823  34.364  1.00  0.00     0.031 C 
ATOM     45  C   UNL A   1      38.759  30.055  28.628  1.00  0.00     0.029 A 
ATOM     46  C   UNL A   1      39.711  29.762  29.696  1.00  0.00     0.049 A 
ATOM     47  H   UNL A   1      39.838  30.670  31.565  1.00  0.00     0.167 HD
ATOM     48  C   UNL A   1      39.954  32.655  35.478  1.00  0.00     0.037 A 
ATOM     49  C   UNL A   1      40.685  28.834  29.648  1.00  0.00     0.037 A 
ATOM     50  C   UNL A   1      40.992  31.660  35.534  1.00  0.00     0.049 A 
ATOM     51  C   UNL A   1      41.568  28.631  30.848  1.00  0.00     0.074 A 
ATOM     52  C   UNL A   1      41.851  31.361  36.577  1.00  0.00     0.029 A 
ATOM     53  N   UNL A   1      41.305  30.794  34.496  1.00  0.00    -0.354 N 
ATOM     54  N   UNL A   1      41.549  29.248  32.005  1.00  0.00    -0.248 NA
ATOM     55  C   UNL A   1      42.600  27.592  30.739  1.00  0.00     0.031 C 
ATOM     56  C   UNL A   1      42.703  30.331  36.160  1.00  0.00     0.029 A 
ATOM     57  C   UNL A   1      42.348  29.962  34.871  1.00  0.00     0.049 A 
ATOM     58  H   UNL A   1      40.853  30.772  33.622  1.00  0.00     0.167 HD
ATOM     59  C   UNL A   1      42.536  28.649  32.773  1.00  0.00     0.074 A 
ATOM     60  C   UNL A   1      43.133  27.614  31.953  1.00  0.00     0.031 C 
ATOM     61  C   UNL A   1      42.911  28.925  34.046  1.00  0.00     0.037 A 
BRANCH  48  62
ATOM     62  C   UNL A   1      39.741  33.545  36.668  1.00  0.00     0.064 A 
ATOM     63  C   UNL A   1      40.444  34.752  36.818  1.00  0.00     0.173 A 
ATOM     64  C   UNL A   1      38.833  33.187  37.674  1.00  0.00     0.173 A 
ATOM     65  F   UNL A   1      41.336  35.132  35.891  1.00  0.00    -0.203 F 
ATOM     66  C   UNL A   1      40.277  35.543  37.951  1.00  0.00     0.198 A 
ATOM     67  C   UNL A   1      38.645  33.998  38.792  1.00  0.00     0.198 A 
ATOM     68  F   UNL A   1      38.132  32.048  37.579  1.00  0.00    -0.203 F 
ATOM     69  F   UNL A   1      41.009  36.656  38.104  1.00  0.00    -0.200 F 
ATOM     70  C   UNL A   1      39.376  35.167  38.935  1.00  0.00     0.200 A 
ATOM     71  F   UNL A   1      37.766  33.638  39.738  1.00  0.00    -0.200 F 
ATOM     72  F   UNL A   1      39.220  35.927  40.028  1.00  0.00    -0.200 F 
ENDBRANCH  48  62
BRANCH  49  73
ATOM     73  C   UNL A   1      40.826  27.977  28.444  1.00  0.00     0.064 A 
ATOM     74  C   UNL A   1      40.135  26.760  28.352  1.00  0.00     0.173 A 
ATOM     75  C   UNL A   1      41.635  28.353  27.363  1.00  0.00     0.173 A 
ATOM     76  F   UNL A   1      39.364  26.351  29.370  1.00  0.00    -0.203 F 
ATOM     77  C   UNL A   1      40.259  25.945  27.230  1.00  0.00     0.198 A 
ATOM     78  C   UNL A   1      41.741  27.549  26.231  1.00  0.00     0.198 A 
ATOM     79  F   UNL A   1      42.311  29.511  27.402  1.00  0.00    -0.203 F 
ATOM     80  F   UNL A   1      39.615  24.772  27.183  1.00  0.00    -0.200 F 
ATOM     81  C   UNL A   1      41.057  26.343  26.168  1.00  0.00     0.200 A 
ATOM     82  F   UNL A   1      42.502  27.940  25.202  1.00  0.00    -0.200 F 
ATOM     83  F   UNL A   1      41.171  25.561  25.085  1.00  0.00    -0.200 F 
ENDBRANCH  49  73
BRANCH  61  84
ATOM     84  C   UNL A   1      43.980  28.061  34.648  1.00  0.00     0.064 A 
ATOM     85  C   UNL A   1      43.675  26.861  35.307  1.00  0.00     0.173 A 
ATOM     86  C   UNL A   1      45.330  28.428  34.538  1.00  0.00     0.173 A 
ATOM     87  F   UNL A   1      42.398  26.475  35.451  1.00  0.00    -0.203 F 
ATOM     88  C   UNL A   1      44.682  26.073  35.857  1.00  0.00     0.198 A 
ATOM     89  C   UNL A   1      46.335  27.625  35.066  1.00  0.00     0.198 A 
ATOM     90  F   UNL A   1      45.672  29.564  33.912  1.00  0.00    -0.203 F 
ATOM     91  F   UNL A   1      44.365  24.954  36.524  1.00  0.00    -0.200 F 
ATOM     92  C   UNL A   1      46.011  26.452  35.732  1.00  0.00     0.200 A 
ATOM     93  F   UNL A   1      47.619  27.987  34.936  1.00  0.00    -0.200 F 
ATOM     94  F   UNL A   1      46.978  25.691  36.261  1.00  0.00    -0.200 F 
ENDBRANCH  61  84
ENDBRANCH  35  36
ENDBRANCH  27  30
ENDBRANCH  25  26
ENDBRANCH  24  25
ENDBRANCH  23  24
ENDBRANCH   3  23
TORSDOF 17
ENDMDL
