MODEL 1
REMARK VINA RESULT:     -13.7      0.000      0.000
REMARK SMILES O=C(NCCCNC(=O)[C@H]1C=C[C@H](NC(=O)[C@]23C[C@H]4C[C@H](C[C@H](C4)C2)C3)C1)c1ccc(-c2c3nc(c(-c4c(F)c(F)c(F)c(F)c4F)c4ccc([nH]4)c(-c4c(F)c(F)c(F)c(F)c4F)c4nc(c(-c5c(F)c(F)c(F)c(F)c5F)c5ccc2[nH]5)C=C4)C=C3)cc1
REMARK SMILES IDX 5 1 4 2 3 3 1 4 2 5 28 7 29 8 90 9 30 10 89 11 31 12 32 13
REMARK SMILES IDX 33 14 83 15 34 16 88 17 82 18 84 19 35 20 87 21 81 22 80 23
REMARK SMILES IDX 36 25 68 26 48 27 67 28 49 29 52 30 66 31 85 32 50 33 51 34
REMARK SMILES IDX 65 36 86 37 53 38 37 39 38 40 46 41 39 42 40 43 44 44 47 45
REMARK SMILES IDX 41 46 42 47 45 48 43 49 69 50 70 51 78 52 71 53 72 54 76 55
REMARK SMILES IDX 79 56 73 57 74 58 77 59 75 60 54 61 55 62 63 63 56 64 57 65
REMARK SMILES IDX 61 66 64 67 58 68 59 69 62 70 60 71 6 72 7 73 8 74 9 76
REMARK SMILES IDX 10 77 11 78 27 79 12 80 13 81 14 82 15 83 16 85 17 86 18 87
REMARK SMILES IDX 25 88 26 89 19 90 23 91 21 92 20 93 24 94 22 95
REMARK H PARENT 3 6 84 24 52 35 7 75 14 84
REMARK Flexibility Score: inf
ROOT
ATOM      1  C   UNL A   1      37.853  19.797  24.906  1.00  0.00     0.042 C 
ENDROOT
BRANCH   1   2
ATOM      2  C   UNL A   1      39.013  20.242  25.782  1.00  0.00     0.118 C 
BRANCH   2   3
ATOM      3  N   UNL A   1      40.025  19.204  25.925  1.00  0.00    -0.352 N 
ATOM      4  O   UNL A   1      42.124  18.382  26.027  1.00  0.00    -0.269 OA
ATOM      5  C   UNL A   1      41.375  19.350  26.113  1.00  0.00     0.251 C 
ATOM      6  H   UNL A   1      39.697  18.277  25.879  1.00  0.00     0.163 HD
BRANCH   5   7
ATOM      7  C   UNL A   1      41.918  20.688  26.412  1.00  0.00     0.039 A 
ATOM      8  C   UNL A   1      42.159  21.596  25.376  1.00  0.00     0.014 A 
ATOM      9  C   UNL A   1      42.176  21.040  27.738  1.00  0.00     0.014 A 
ATOM     10  C   UNL A   1      42.759  22.814  25.653  1.00  0.00     0.010 A 
ATOM     11  C   UNL A   1      42.693  22.304  28.025  1.00  0.00     0.010 A 
ATOM     12  C   UNL A   1      42.990  23.197  26.983  1.00  0.00    -0.014 A 
BRANCH  12  13
ATOM     13  C   UNL A   1      43.403  24.591  27.265  1.00  0.00     0.031 A 
ATOM     14  C   UNL A   1      42.424  25.615  27.755  1.00  0.00     0.074 A 
ATOM     15  C   UNL A   1      44.694  24.914  27.056  1.00  0.00     0.049 A 
ATOM     16  N   UNL A   1      42.627  26.882  28.018  1.00  0.00    -0.248 NA
ATOM     17  C   UNL A   1      41.039  25.172  27.974  1.00  0.00     0.031 C 
ATOM     18  C   UNL A   1      45.721  23.993  26.559  1.00  0.00     0.029 A 
ATOM     19  N   UNL A   1      45.368  26.094  27.233  1.00  0.00    -0.354 N 
ATOM     20  C   UNL A   1      41.399  27.391  28.411  1.00  0.00     0.074 A 
ATOM     21  C   UNL A   1      40.448  26.301  28.343  1.00  0.00     0.031 C 
ATOM     22  C   UNL A   1      46.896  24.632  26.495  1.00  0.00     0.029 A 
ATOM     23  C   UNL A   1      46.692  26.023  26.874  1.00  0.00     0.049 A 
ATOM     24  H   UNL A   1      44.945  26.911  27.582  1.00  0.00     0.167 HD
ATOM     25  C   UNL A   1      41.104  28.656  28.794  1.00  0.00     0.037 A 
ATOM     26  C   UNL A   1      47.632  26.983  26.817  1.00  0.00     0.037 A 
ATOM     27  C   UNL A   1      42.070  29.722  28.878  1.00  0.00     0.049 A 
ATOM     28  C   UNL A   1      47.257  28.381  27.216  1.00  0.00     0.074 A 
ATOM     29  C   UNL A   1      41.887  31.016  29.335  1.00  0.00     0.029 A 
ATOM     30  N   UNL A   1      43.397  29.623  28.484  1.00  0.00    -0.354 N 
ATOM     31  N   UNL A   1      46.110  28.833  27.660  1.00  0.00    -0.248 NA
ATOM     32  C   UNL A   1      48.305  29.404  27.102  1.00  0.00     0.031 C 
ATOM     33  C   UNL A   1      43.083  31.717  29.157  1.00  0.00     0.029 A 
ATOM     34  C   UNL A   1      44.029  30.846  28.641  1.00  0.00     0.049 A 
ATOM     35  H   UNL A   1      43.825  28.805  28.141  1.00  0.00     0.167 HD
ATOM     36  C   UNL A   1      46.297  30.188  27.882  1.00  0.00     0.074 A 
ATOM     37  C   UNL A   1      47.679  30.479  27.559  1.00  0.00     0.031 C 
ATOM     38  C   UNL A   1      45.402  31.115  28.305  1.00  0.00     0.037 A 
BRANCH  25  39
ATOM     39  C   UNL A   1      39.682  28.985  29.140  1.00  0.00     0.064 A 
ATOM     40  C   UNL A   1      38.764  29.412  28.170  1.00  0.00     0.173 A 
ATOM     41  C   UNL A   1      39.205  28.759  30.442  1.00  0.00     0.173 A 
ATOM     42  F   UNL A   1      39.171  29.648  26.914  1.00  0.00    -0.203 F 
ATOM     43  C   UNL A   1      37.422  29.603  28.491  1.00  0.00     0.198 A 
ATOM     44  C   UNL A   1      37.858  28.929  30.753  1.00  0.00     0.198 A 
ATOM     45  F   UNL A   1      40.041  28.344  31.405  1.00  0.00    -0.203 F 
ATOM     46  F   UNL A   1      36.564  30.027  27.552  1.00  0.00    -0.200 F 
ATOM     47  C   UNL A   1      36.968  29.351  29.777  1.00  0.00     0.200 A 
ATOM     48  F   UNL A   1      37.420  28.670  31.992  1.00  0.00    -0.200 F 
ATOM     49  F   UNL A   1      35.672  29.511  30.076  1.00  0.00    -0.200 F 
ENDBRANCH  25  39
BRANCH  26  50
ATOM     50  C   UNL A   1      48.995  26.664  26.317  1.00  0.00     0.064 A 
ATOM     51  C   UNL A   1      49.994  26.196  27.179  1.00  0.00     0.173 A 
ATOM     52  C   UNL A   1      49.330  26.840  24.965  1.00  0.00     0.173 A 
ATOM     53  F   UNL A   1      49.727  26.027  28.483  1.00  0.00    -0.203 F 
ATOM     54  C   UNL A   1      51.283  25.945  26.717  1.00  0.00     0.198 A 
ATOM     55  C   UNL A   1      50.608  26.554  24.497  1.00  0.00     0.198 A 
ATOM     56  F   UNL A   1      48.409  27.281  24.095  1.00  0.00    -0.203 F 
ATOM     57  F   UNL A   1      52.236  25.556  27.574  1.00  0.00    -0.200 F 
ATOM     58  C   UNL A   1      51.588  26.120  25.375  1.00  0.00     0.200 A 
ATOM     59  F   UNL A   1      50.893  26.706  23.195  1.00  0.00    -0.200 F 
ATOM     60  F   UNL A   1      52.830  25.880  24.931  1.00  0.00    -0.200 F 
ENDBRANCH  26  50
BRANCH  38  61
ATOM     61  C   UNL A   1      45.899  32.523  28.444  1.00  0.00     0.064 A 
ATOM     62  C   UNL A   1      45.792  33.441  27.389  1.00  0.00     0.173 A 
ATOM     63  C   UNL A   1      46.459  32.967  29.651  1.00  0.00     0.173 A 
ATOM     64  F   UNL A   1      45.282  33.057  26.210  1.00  0.00    -0.203 F 
ATOM     65  C   UNL A   1      46.251  34.748  27.531  1.00  0.00     0.198 A 
ATOM     66  C   UNL A   1      46.888  34.283  29.799  1.00  0.00     0.198 A 
ATOM     67  F   UNL A   1      46.580  32.128  30.691  1.00  0.00    -0.203 F 
ATOM     68  F   UNL A   1      46.186  35.593  26.493  1.00  0.00    -0.200 F 
ATOM     69  C   UNL A   1      46.790  35.170  28.736  1.00  0.00     0.200 A 
ATOM     70  F   UNL A   1      47.395  34.693  30.969  1.00  0.00    -0.200 F 
ATOM     71  F   UNL A   1      47.224  36.430  28.873  1.00  0.00    -0.200 F 
ENDBRANCH  38  61
ENDBRANCH  12  13
ENDBRANCH   5   7
ENDBRANCH   2   3
ENDBRANCH   1   2
BRANCH   1  72
ATOM     72  C   UNL A   1      36.666  20.740  25.001  1.00  0.00     0.117 C 
BRANCH  72  73
ATOM     73  N   UNL A   1      35.466  20.002  25.361  1.00  0.00    -0.356 N 
ATOM     74  C   UNL A   1      34.157  20.379  25.196  1.00  0.00     0.227 C 
ATOM     75  H   UNL A   1      35.611  19.120  25.775  1.00  0.00     0.163 HD
ATOM     76  O   UNL A   1      33.279  19.722  25.747  1.00  0.00    -0.274 OA
BRANCH  74  77
ATOM     77  C   UNL A   1      33.885  21.540  24.250  1.00  0.00     0.103 C 
ATOM     78  C   UNL A   1      32.604  21.160  23.577  1.00  0.00    -0.016 C 
ATOM     79  C   UNL A   1      33.499  22.869  24.924  1.00  0.00     0.047 C 
ATOM     80  C   UNL A   1      31.740  22.172  23.577  1.00  0.00    -0.006 C 
ATOM     81  C   UNL A   1      32.319  23.435  24.099  1.00  0.00     0.106 C 
BRANCH  81  82
ATOM     82  N   UNL A   1      32.811  24.342  23.053  1.00  0.00    -0.349 N 
ATOM     83  C   UNL A   1      33.347  25.595  23.003  1.00  0.00     0.226 C 
ATOM     84  H   UNL A   1      32.733  23.943  22.156  1.00  0.00     0.164 HD
ATOM     85  O   UNL A   1      34.028  25.843  22.001  1.00  0.00    -0.274 OA
BRANCH  83  86
ATOM     86  C   UNL A   1      33.051  26.696  24.035  1.00  0.00     0.050 C 
ATOM     87  C   UNL A   1      33.619  28.088  23.594  1.00  0.00     0.020 C 
ATOM     88  C   UNL A   1      33.732  26.422  25.390  1.00  0.00     0.020 C 
ATOM     89  C   UNL A   1      31.518  26.907  24.099  1.00  0.00     0.020 C 
ATOM     90  C   UNL A   1      33.251  29.183  24.630  1.00  0.00    -0.010 C 
ATOM     91  C   UNL A   1      33.273  27.442  26.441  1.00  0.00    -0.010 C 
ATOM     92  C   UNL A   1      31.143  27.933  25.168  1.00  0.00    -0.010 C 
ATOM     93  C   UNL A   1      31.722  29.290  24.752  1.00  0.00     0.007 C 
ATOM     94  C   UNL A   1      33.812  28.816  26.016  1.00  0.00     0.007 C 
ATOM     95  C   UNL A   1      31.736  27.501  26.518  1.00  0.00     0.007 C 
ENDBRANCH  83  86
ENDBRANCH  81  82
ENDBRANCH  74  77
ENDBRANCH  72  73
ENDBRANCH   1  72
TORSDOF 12
ENDMDL
MODEL 2
REMARK VINA RESULT:     -13.7      0.162      1.591
REMARK SMILES O=C(NCCCNC(=O)[C@H]1C=C[C@H](NC(=O)[C@]23C[C@H]4C[C@H](C[C@H](C4)C2)C3)C1)c1ccc(-c2c3nc(c(-c4c(F)c(F)c(F)c(F)c4F)c4ccc([nH]4)c(-c4c(F)c(F)c(F)c(F)c4F)c4nc(c(-c5c(F)c(F)c(F)c(F)c5F)c5ccc2[nH]5)C=C4)C=C3)cc1
REMARK SMILES IDX 5 1 4 2 3 3 1 4 2 5 28 7 29 8 90 9 30 10 89 11 31 12 32 13
REMARK SMILES IDX 33 14 83 15 34 16 88 17 82 18 84 19 35 20 87 21 81 22 80 23
REMARK SMILES IDX 36 25 68 26 48 27 67 28 49 29 52 30 66 31 85 32 50 33 51 34
REMARK SMILES IDX 65 36 86 37 53 38 37 39 38 40 46 41 39 42 40 43 44 44 47 45
REMARK SMILES IDX 41 46 42 47 45 48 43 49 69 50 70 51 78 52 71 53 72 54 76 55
REMARK SMILES IDX 79 56 73 57 74 58 77 59 75 60 54 61 55 62 63 63 56 64 57 65
REMARK SMILES IDX 61 66 64 67 58 68 59 69 62 70 60 71 6 72 7 73 8 74 9 76
REMARK SMILES IDX 10 77 11 78 27 79 12 80 13 81 14 82 15 83 16 85 17 86 18 87
REMARK SMILES IDX 25 88 26 89 19 90 23 91 21 92 20 93 24 94 22 95
REMARK H PARENT 3 6 84 24 52 35 7 75 14 84
REMARK Flexibility Score: inf
ROOT
ATOM      1  C   UNL A   1      37.841  19.841  24.898  1.00  0.00     0.042 C 
ENDROOT
BRANCH   1   2
ATOM      2  C   UNL A   1      39.039  20.299  25.715  1.00  0.00     0.118 C 
BRANCH   2   3
ATOM      3  N   UNL A   1      40.044  19.255  25.853  1.00  0.00    -0.352 N 
ATOM      4  O   UNL A   1      42.138  18.421  25.964  1.00  0.00    -0.269 OA
ATOM      5  C   UNL A   1      41.393  19.392  26.057  1.00  0.00     0.251 C 
ATOM      6  H   UNL A   1      39.712  18.331  25.789  1.00  0.00     0.163 HD
BRANCH   5   7
ATOM      7  C   UNL A   1      41.938  20.722  26.384  1.00  0.00     0.039 A 
ATOM      8  C   UNL A   1      42.191  21.647  25.365  1.00  0.00     0.014 A 
ATOM      9  C   UNL A   1      42.188  21.051  27.717  1.00  0.00     0.014 A 
ATOM     10  C   UNL A   1      42.793  22.858  25.668  1.00  0.00     0.010 A 
ATOM     11  C   UNL A   1      42.707  22.308  28.030  1.00  0.00     0.010 A 
ATOM     12  C   UNL A   1      43.015  23.217  27.006  1.00  0.00    -0.014 A 
BRANCH  12  13
ATOM     13  C   UNL A   1      43.431  24.604  27.315  1.00  0.00     0.031 A 
ATOM     14  C   UNL A   1      42.460  25.615  27.846  1.00  0.00     0.074 A 
ATOM     15  C   UNL A   1      44.719  24.934  27.093  1.00  0.00     0.049 A 
ATOM     16  N   UNL A   1      42.666  26.875  28.136  1.00  0.00    -0.248 NA
ATOM     17  C   UNL A   1      41.079  25.164  28.077  1.00  0.00     0.031 C 
ATOM     18  C   UNL A   1      45.738  24.027  26.555  1.00  0.00     0.029 A 
ATOM     19  N   UNL A   1      45.394  26.110  27.286  1.00  0.00    -0.354 N 
ATOM     20  C   UNL A   1      41.444  27.372  28.562  1.00  0.00     0.074 A 
ATOM     21  C   UNL A   1      40.493  26.283  28.483  1.00  0.00     0.031 C 
ATOM     22  C   UNL A   1      46.911  24.669  26.488  1.00  0.00     0.029 A 
ATOM     23  C   UNL A   1      46.712  26.051  26.904  1.00  0.00     0.049 A 
ATOM     24  H   UNL A   1      44.976  26.918  27.662  1.00  0.00     0.167 HD
ATOM     25  C   UNL A   1      41.154  28.627  28.981  1.00  0.00     0.037 A 
ATOM     26  C   UNL A   1      47.650  27.013  26.854  1.00  0.00     0.037 A 
ATOM     27  C   UNL A   1      42.120  29.693  29.075  1.00  0.00     0.049 A 
ATOM     28  C   UNL A   1      47.280  28.401  27.294  1.00  0.00     0.074 A 
ATOM     29  C   UNL A   1      41.943  30.974  29.566  1.00  0.00     0.029 A 
ATOM     30  N   UNL A   1      43.440  29.605  28.656  1.00  0.00    -0.354 N 
ATOM     31  N   UNL A   1      46.140  28.839  27.768  1.00  0.00    -0.248 NA
ATOM     32  C   UNL A   1      48.324  29.427  27.187  1.00  0.00     0.031 C 
ATOM     33  C   UNL A   1      43.135  31.681  29.385  1.00  0.00     0.029 A 
ATOM     34  C   UNL A   1      44.073  30.825  28.833  1.00  0.00     0.049 A 
ATOM     35  H   UNL A   1      43.863  28.796  28.286  1.00  0.00     0.167 HD
ATOM     36  C   UNL A   1      46.329  30.189  28.020  1.00  0.00     0.074 A 
ATOM     37  C   UNL A   1      47.705  30.490  27.681  1.00  0.00     0.031 C 
ATOM     38  C   UNL A   1      45.441  31.104  28.480  1.00  0.00     0.037 A 
BRANCH  25  39
ATOM     39  C   UNL A   1      39.738  28.945  29.359  1.00  0.00     0.064 A 
ATOM     40  C   UNL A   1      38.800  29.383  28.413  1.00  0.00     0.173 A 
ATOM     41  C   UNL A   1      39.286  28.698  30.666  1.00  0.00     0.173 A 
ATOM     42  F   UNL A   1      39.182  29.640  27.152  1.00  0.00    -0.203 F 
ATOM     43  C   UNL A   1      37.463  29.564  28.761  1.00  0.00     0.198 A 
ATOM     44  C   UNL A   1      37.945  28.858  31.004  1.00  0.00     0.198 A 
ATOM     45  F   UNL A   1      40.142  28.272  31.606  1.00  0.00    -0.203 F 
ATOM     46  F   UNL A   1      36.587  29.999  27.845  1.00  0.00    -0.200 F 
ATOM     47  C   UNL A   1      37.035  29.291  30.052  1.00  0.00     0.200 A 
ATOM     48  F   UNL A   1      37.531  28.580  32.247  1.00  0.00    -0.200 F 
ATOM     49  F   UNL A   1      35.744  29.443  30.377  1.00  0.00    -0.200 F 
ENDBRANCH  25  39
BRANCH  26  50
ATOM     50  C   UNL A   1      49.004  26.708  26.324  1.00  0.00     0.064 A 
ATOM     51  C   UNL A   1      49.330  26.946  24.983  1.00  0.00     0.173 A 
ATOM     52  C   UNL A   1      49.996  26.153  27.148  1.00  0.00     0.173 A 
ATOM     53  F   UNL A   1      48.410  27.461  24.153  1.00  0.00    -0.203 F 
ATOM     54  C   UNL A   1      50.584  26.613  24.478  1.00  0.00     0.198 A 
ATOM     55  C   UNL A   1      51.261  25.855  26.651  1.00  0.00     0.198 A 
ATOM     56  F   UNL A   1      49.739  25.910  28.442  1.00  0.00    -0.203 F 
ATOM     57  F   UNL A   1      50.849  26.795  23.178  1.00  0.00    -0.200 F 
ATOM     58  C   UNL A   1      51.550  26.072  25.313  1.00  0.00     0.200 A 
ATOM     59  F   UNL A   1      52.198  25.350  27.467  1.00  0.00    -0.200 F 
ATOM     60  F   UNL A   1      52.757  25.751  24.825  1.00  0.00    -0.200 F 
ENDBRANCH  26  50
BRANCH  38  61
ATOM     61  C   UNL A   1      45.938  32.509  28.645  1.00  0.00     0.064 A 
ATOM     62  C   UNL A   1      46.548  32.932  29.835  1.00  0.00     0.173 A 
ATOM     63  C   UNL A   1      45.830  33.432  27.594  1.00  0.00     0.173 A 
ATOM     64  F   UNL A   1      46.656  32.091  30.874  1.00  0.00    -0.203 F 
ATOM     65  C   UNL A   1      47.011  34.237  29.975  1.00  0.00     0.198 A 
ATOM     66  C   UNL A   1      46.323  34.727  27.728  1.00  0.00     0.198 A 
ATOM     67  F   UNL A   1      45.258  33.075  26.435  1.00  0.00    -0.203 F 
ATOM     68  F   UNL A   1      47.544  34.634  31.139  1.00  0.00    -0.200 F 
ATOM     69  C   UNL A   1      46.906  35.130  28.920  1.00  0.00     0.200 A 
ATOM     70  F   UNL A   1      46.234  35.584  26.702  1.00  0.00    -0.200 F 
ATOM     71  F   UNL A   1      47.359  36.384  29.054  1.00  0.00    -0.200 F 
ENDBRANCH  38  61
ENDBRANCH  12  13
ENDBRANCH   5   7
ENDBRANCH   2   3
ENDBRANCH   1   2
BRANCH   1  72
ATOM     72  C   UNL A   1      36.680  20.818  24.981  1.00  0.00     0.117 C 
BRANCH  72  73
ATOM     73  N   UNL A   1      35.461  20.117  25.351  1.00  0.00    -0.356 N 
ATOM     74  C   UNL A   1      34.163  20.528  25.183  1.00  0.00     0.227 C 
ATOM     75  H   UNL A   1      35.582  19.236  25.775  1.00  0.00     0.163 HD
ATOM     76  O   UNL A   1      33.268  19.901  25.743  1.00  0.00    -0.274 OA
BRANCH  74  77
ATOM     77  C   UNL A   1      33.922  21.684  24.225  1.00  0.00     0.103 C 
ATOM     78  C   UNL A   1      32.711  21.262  23.452  1.00  0.00    -0.016 C 
ATOM     79  C   UNL A   1      33.435  22.994  24.872  1.00  0.00     0.047 C 
ATOM     80  C   UNL A   1      31.812  22.241  23.391  1.00  0.00    -0.006 C 
ATOM     81  C   UNL A   1      32.302  23.521  23.961  1.00  0.00     0.106 C 
BRANCH  81  82
ATOM     82  N   UNL A   1      32.839  24.454  22.960  1.00  0.00    -0.349 N 
ATOM     83  C   UNL A   1      33.397  25.698  22.967  1.00  0.00     0.226 C 
ATOM     84  H   UNL A   1      32.779  24.085  22.049  1.00  0.00     0.164 HD
ATOM     85  O   UNL A   1      34.110  25.967  21.993  1.00  0.00    -0.274 OA
BRANCH  83  86
ATOM     86  C   UNL A   1      33.091  26.769  24.027  1.00  0.00     0.050 C 
ATOM     87  C   UNL A   1      33.600  28.187  23.598  1.00  0.00     0.020 C 
ATOM     88  C   UNL A   1      33.816  26.494  25.359  1.00  0.00     0.020 C 
ATOM     89  C   UNL A   1      31.553  26.925  24.134  1.00  0.00     0.020 C 
ATOM     90  C   UNL A   1      33.222  29.250  24.664  1.00  0.00    -0.010 C 
ATOM     91  C   UNL A   1      33.350  27.478  26.441  1.00  0.00    -0.010 C 
ATOM     92  C   UNL A   1      31.172  27.919  25.232  1.00  0.00    -0.010 C 
ATOM     93  C   UNL A   1      31.694  29.302  24.827  1.00  0.00     0.007 C 
ATOM     94  C   UNL A   1      33.831  28.877  26.028  1.00  0.00     0.007 C 
ATOM     95  C   UNL A   1      31.815  27.483  26.558  1.00  0.00     0.007 C 
ENDBRANCH  83  86
ENDBRANCH  81  82
ENDBRANCH  74  77
ENDBRANCH  72  73
ENDBRANCH   1  72
TORSDOF 12
ENDMDL
MODEL 3
REMARK VINA RESULT:     -13.7      0.914      2.183
REMARK SMILES O=C(NCCCNC(=O)[C@H]1C=C[C@H](NC(=O)[C@]23C[C@H]4C[C@H](C[C@H](C4)C2)C3)C1)c1ccc(-c2c3nc(c(-c4c(F)c(F)c(F)c(F)c4F)c4ccc([nH]4)c(-c4c(F)c(F)c(F)c(F)c4F)c4nc(c(-c5c(F)c(F)c(F)c(F)c5F)c5ccc2[nH]5)C=C4)C=C3)cc1
REMARK SMILES IDX 5 1 4 2 3 3 1 4 2 5 28 7 29 8 90 9 30 10 89 11 31 12 32 13
REMARK SMILES IDX 33 14 83 15 34 16 88 17 82 18 84 19 35 20 87 21 81 22 80 23
REMARK SMILES IDX 36 25 68 26 48 27 67 28 49 29 52 30 66 31 85 32 50 33 51 34
REMARK SMILES IDX 65 36 86 37 53 38 37 39 38 40 46 41 39 42 40 43 44 44 47 45
REMARK SMILES IDX 41 46 42 47 45 48 43 49 69 50 70 51 78 52 71 53 72 54 76 55
REMARK SMILES IDX 79 56 73 57 74 58 77 59 75 60 54 61 55 62 63 63 56 64 57 65
REMARK SMILES IDX 61 66 64 67 58 68 59 69 62 70 60 71 6 72 7 73 8 74 9 76
REMARK SMILES IDX 10 77 11 78 27 79 12 80 13 81 14 82 15 83 16 85 17 86 18 87
REMARK SMILES IDX 25 88 26 89 19 90 23 91 21 92 20 93 24 94 22 95
REMARK H PARENT 3 6 84 24 52 35 7 75 14 84
REMARK Flexibility Score: inf
ROOT
ATOM      1  C   UNL A   1      37.804  19.792  24.900  1.00  0.00     0.042 C 
ENDROOT
BRANCH   1   2
ATOM      2  C   UNL A   1      38.997  20.247  25.725  1.00  0.00     0.118 C 
BRANCH   2   3
ATOM      3  N   UNL A   1      40.032  19.225  25.808  1.00  0.00    -0.352 N 
ATOM      4  O   UNL A   1      42.147  18.447  25.913  1.00  0.00    -0.269 OA
ATOM      5  C   UNL A   1      41.370  19.384  26.061  1.00  0.00     0.251 C 
ATOM      6  H   UNL A   1      39.730  18.299  25.664  1.00  0.00     0.163 HD
BRANCH   5   7
ATOM      7  C   UNL A   1      41.865  20.700  26.505  1.00  0.00     0.039 A 
ATOM      8  C   UNL A   1      42.254  21.658  25.563  1.00  0.00     0.014 A 
ATOM      9  C   UNL A   1      41.928  20.982  27.870  1.00  0.00     0.014 A 
ATOM     10  C   UNL A   1      42.809  22.856  25.988  1.00  0.00     0.010 A 
ATOM     11  C   UNL A   1      42.398  22.225  28.295  1.00  0.00     0.010 A 
ATOM     12  C   UNL A   1      42.845  23.168  27.355  1.00  0.00    -0.014 A 
BRANCH  12  13
ATOM     13  C   UNL A   1      43.214  24.542  27.766  1.00  0.00     0.031 A 
ATOM     14  C   UNL A   1      42.173  25.565  28.108  1.00  0.00     0.074 A 
ATOM     15  C   UNL A   1      44.525  24.848  27.815  1.00  0.00     0.049 A 
ATOM     16  N   UNL A   1      42.338  26.816  28.455  1.00  0.00    -0.248 NA
ATOM     17  C   UNL A   1      40.766  25.139  28.046  1.00  0.00     0.031 C 
ATOM     18  C   UNL A   1      45.616  23.927  27.479  1.00  0.00     0.029 A 
ATOM     19  N   UNL A   1      45.168  26.007  28.162  1.00  0.00    -0.354 N 
ATOM     20  C   UNL A   1      41.064  27.333  28.634  1.00  0.00     0.074 A 
ATOM     21  C   UNL A   1      40.129  26.265  28.345  1.00  0.00     0.031 C 
ATOM     22  C   UNL A   1      46.789  24.545  27.662  1.00  0.00     0.029 A 
ATOM     23  C   UNL A   1      46.534  25.925  28.053  1.00  0.00     0.049 A 
ATOM     24  H   UNL A   1      44.697  26.818  28.460  1.00  0.00     0.167 HD
ATOM     25  C   UNL A   1      40.717  28.588  29.007  1.00  0.00     0.037 A 
ATOM     26  C   UNL A   1      47.480  26.868  28.212  1.00  0.00     0.037 A 
ATOM     27  C   UNL A   1      41.662  29.631  29.313  1.00  0.00     0.049 A 
ATOM     28  C   UNL A   1      47.053  28.257  28.592  1.00  0.00     0.074 A 
ATOM     29  C   UNL A   1      41.412  30.910  29.781  1.00  0.00     0.029 A 
ATOM     30  N   UNL A   1      43.038  29.522  29.169  1.00  0.00    -0.354 N 
ATOM     31  N   UNL A   1      45.848  28.713  28.832  1.00  0.00    -0.248 NA
ATOM     32  C   UNL A   1      48.115  29.263  28.716  1.00  0.00     0.031 C 
ATOM     33  C   UNL A   1      42.629  31.594  29.857  1.00  0.00     0.029 A 
ATOM     34  C   UNL A   1      43.644  30.726  29.491  1.00  0.00     0.049 A 
ATOM     35  H   UNL A   1      43.513  28.710  28.879  1.00  0.00     0.167 HD
ATOM     36  C   UNL A   1      46.006  30.055  29.141  1.00  0.00     0.074 A 
ATOM     37  C   UNL A   1      47.427  30.331  29.093  1.00  0.00     0.031 C 
ATOM     38  C   UNL A   1      45.059  30.981  29.428  1.00  0.00     0.037 A 
BRANCH  25  39
ATOM     39  C   UNL A   1      39.259  28.930  29.096  1.00  0.00     0.064 A 
ATOM     40  C   UNL A   1      38.561  28.884  30.311  1.00  0.00     0.173 A 
ATOM     41  C   UNL A   1      38.582  29.419  27.967  1.00  0.00     0.173 A 
ATOM     42  F   UNL A   1      39.161  28.418  31.417  1.00  0.00    -0.203 F 
ATOM     43  C   UNL A   1      37.238  29.313  30.392  1.00  0.00     0.198 A 
ATOM     44  C   UNL A   1      37.267  29.868  28.058  1.00  0.00     0.198 A 
ATOM     45  F   UNL A   1      39.207  29.489  26.782  1.00  0.00    -0.203 F 
ATOM     46  F   UNL A   1      36.584  29.245  31.560  1.00  0.00    -0.200 F 
ATOM     47  C   UNL A   1      36.596  29.815  29.270  1.00  0.00     0.200 A 
ATOM     48  F   UNL A   1      36.654  30.367  26.975  1.00  0.00    -0.200 F 
ATOM     49  F   UNL A   1      35.332  30.250  29.357  1.00  0.00    -0.200 F 
ENDBRANCH  25  39
BRANCH  26  50
ATOM     50  C   UNL A   1      48.908  26.543  27.961  1.00  0.00     0.064 A 
ATOM     51  C   UNL A   1      49.415  26.454  26.659  1.00  0.00     0.173 A 
ATOM     52  C   UNL A   1      49.791  26.294  29.024  1.00  0.00     0.173 A 
ATOM     53  F   UNL A   1      48.606  26.666  25.610  1.00  0.00    -0.203 F 
ATOM     54  C   UNL A   1      50.742  26.100  26.427  1.00  0.00     0.198 A 
ATOM     55  C   UNL A   1      51.126  25.977  28.792  1.00  0.00     0.198 A 
ATOM     56  F   UNL A   1      49.359  26.372  30.291  1.00  0.00    -0.203 F 
ATOM     57  F   UNL A   1      51.186  25.963  25.171  1.00  0.00    -0.200 F 
ATOM     58  C   UNL A   1      51.597  25.866  27.493  1.00  0.00     0.200 A 
ATOM     59  F   UNL A   1      51.953  25.771  29.826  1.00  0.00    -0.200 F 
ATOM     60  F   UNL A   1      52.873  25.524  27.269  1.00  0.00    -0.200 F 
ENDBRANCH  26  50
BRANCH  38  61
ATOM     61  C   UNL A   1      45.537  32.373  29.715  1.00  0.00     0.064 A 
ATOM     62  C   UNL A   1      45.900  32.767  31.011  1.00  0.00     0.173 A 
ATOM     63  C   UNL A   1      45.662  33.313  28.680  1.00  0.00     0.173 A 
ATOM     64  F   UNL A   1      45.779  31.911  32.035  1.00  0.00    -0.203 F 
ATOM     65  C   UNL A   1      46.348  34.061  31.265  1.00  0.00     0.198 A 
ATOM     66  C   UNL A   1      46.140  34.595  28.933  1.00  0.00     0.198 A 
ATOM     67  F   UNL A   1      45.331  32.983  27.423  1.00  0.00    -0.203 F 
ATOM     68  F   UNL A   1      46.640  34.431  32.520  1.00  0.00    -0.200 F 
ATOM     69  C   UNL A   1      46.475  34.970  30.226  1.00  0.00     0.200 A 
ATOM     70  F   UNL A   1      46.276  35.468  27.926  1.00  0.00    -0.200 F 
ATOM     71  F   UNL A   1      46.914  36.212  30.471  1.00  0.00    -0.200 F 
ENDBRANCH  38  61
ENDBRANCH  12  13
ENDBRANCH   5   7
ENDBRANCH   2   3
ENDBRANCH   1   2
BRANCH   1  72
ATOM     72  C   UNL A   1      36.638  20.762  24.990  1.00  0.00     0.117 C 
BRANCH  72  73
ATOM     73  N   UNL A   1      35.419  20.050  25.334  1.00  0.00    -0.356 N 
ATOM     74  C   UNL A   1      34.121  20.457  25.157  1.00  0.00     0.227 C 
ATOM     75  H   UNL A   1      35.539  19.164  25.746  1.00  0.00     0.163 HD
ATOM     76  O   UNL A   1      33.222  19.817  25.696  1.00  0.00    -0.274 OA
BRANCH  74  77
ATOM     77  C   UNL A   1      33.885  21.627  24.212  1.00  0.00     0.103 C 
ATOM     78  C   UNL A   1      32.643  21.244  23.471  1.00  0.00    -0.016 C 
ATOM     79  C   UNL A   1      33.453  22.944  24.882  1.00  0.00     0.047 C 
ATOM     80  C   UNL A   1      31.771  22.248  23.440  1.00  0.00    -0.006 C 
ATOM     81  C   UNL A   1      32.311  23.509  24.005  1.00  0.00     0.106 C 
BRANCH  81  82
ATOM     82  N   UNL A   1      32.846  24.435  22.996  1.00  0.00    -0.349 N 
ATOM     83  C   UNL A   1      33.404  25.679  22.993  1.00  0.00     0.226 C 
ATOM     84  H   UNL A   1      32.785  24.059  22.088  1.00  0.00     0.164 HD
ATOM     85  O   UNL A   1      34.116  25.939  22.015  1.00  0.00    -0.274 OA
BRANCH  83  86
ATOM     86  C   UNL A   1      33.101  26.758  24.045  1.00  0.00     0.050 C 
ATOM     87  C   UNL A   1      33.637  28.167  23.618  1.00  0.00     0.020 C 
ATOM     88  C   UNL A   1      33.803  26.476  25.388  1.00  0.00     0.020 C 
ATOM     89  C   UNL A   1      31.564  26.938  24.131  1.00  0.00     0.020 C 
ATOM     90  C   UNL A   1      33.261  29.239  24.676  1.00  0.00    -0.010 C 
ATOM     91  C   UNL A   1      33.338  27.471  26.460  1.00  0.00    -0.010 C 
ATOM     92  C   UNL A   1      31.183  27.941  25.220  1.00  0.00    -0.010 C 
ATOM     93  C   UNL A   1      31.731  29.315  24.818  1.00  0.00     0.007 C 
ATOM     94  C   UNL A   1      33.846  28.862  26.049  1.00  0.00     0.007 C 
ATOM     95  C   UNL A   1      31.802  27.500  26.556  1.00  0.00     0.007 C 
ENDBRANCH  83  86
ENDBRANCH  81  82
ENDBRANCH  74  77
ENDBRANCH  72  73
ENDBRANCH   1  72
TORSDOF 12
ENDMDL
