MODEL 1
REMARK VINA RESULT:     -13.7      0.000      0.000
REMARK SMILES CN(C)S(=O)(=O)c1ccc(-n2c(CCC(=O)NCCCNC(=O)c3ccc(-c4c5nc(c(-c6c(F)c(F)c(F)c(F)c6F)c6ccc([nH]6)c(-c6c(F)c(F)c(F)c(F)c6F)c6nc(c(-c7c(F)c(F)c(F)c(F)c7F)c7ccc4[nH]7)C=C6)C=C5)cc3)ccc2-c2ccc(F)cc2)cc1
REMARK SMILES IDX 15 1 16 2 17 3 14 5 13 6 12 7 11 8 89 9 87 10 88 11 10 12
REMARK SMILES IDX 7 13 8 14 98 15 9 16 97 17 4 18 5 19 6 20 2 21 1 22 3 23
REMARK SMILES IDX 90 24 91 25 96 26 92 27 95 28 93 29 94 30 18 31 19 32 20 33
REMARK SMILES IDX 21 34 22 35 23 37 24 38 25 39 86 40 26 41 85 42 27 43 28 44
REMARK SMILES IDX 29 45 79 46 30 47 84 48 78 49 80 50 31 51 83 52 77 53 76 54
REMARK SMILES IDX 32 56 64 57 44 58 63 59 45 60 48 61 62 62 81 63 46 64 47 65
REMARK SMILES IDX 61 67 82 68 49 69 33 70 34 71 42 72 35 73 36 74 40 75 43 76
REMARK SMILES IDX 37 77 38 78 41 79 39 80 65 81 66 82 74 83 67 84 68 85 72 86
REMARK SMILES IDX 75 87 69 88 70 89 73 90 71 91 50 92 51 93 59 94 52 95 53 96
REMARK SMILES IDX 57 97 60 98 54 99 55 100 58 101 56 102
REMARK H PARENT 17 4 21 36 80 55 48 66
REMARK Flexibility Score: inf
ROOT
ATOM      1  C   UNL A   1      33.408  23.283  22.176  1.00  0.00     0.220 C 
ATOM      2  O   UNL A   1      33.289  23.774  21.044  1.00  0.00    -0.275 OA
ATOM      3  N   UNL A   1      34.697  23.115  22.629  1.00  0.00    -0.356 N 
ATOM      4  H   UNL A   1      35.368  23.312  21.938  1.00  0.00     0.163 HD
ENDROOT
BRANCH   1   5
ATOM      5  C   UNL A   1      32.141  22.802  22.898  1.00  0.00     0.106 C 
BRANCH   5   6
ATOM      6  C   UNL A   1      31.302  23.876  23.654  1.00  0.00     0.064 C 
BRANCH   6   7
ATOM      7  C   UNL A   1      32.134  24.750  24.561  1.00  0.00     0.024 A 
ATOM      8  N   UNL A   1      32.232  26.159  24.537  1.00  0.00    -0.314 N 
ATOM      9  C   UNL A   1      33.057  26.508  25.664  1.00  0.00     0.053 A 
ATOM     10  C   UNL A   1      32.965  24.261  25.554  1.00  0.00     0.024 A 
ATOM     11  C   UNL A   1      33.537  25.340  26.233  1.00  0.00     0.029 A 
BRANCH   8  12
ATOM     12  C   UNL A   1      31.362  27.072  23.762  1.00  0.00     0.046 A 
ATOM     13  C   UNL A   1      29.413  28.973  22.863  1.00  0.00     0.082 A 
ATOM     14  C   UNL A   1      30.787  29.192  22.657  1.00  0.00     0.024 A 
ATOM     15  C   UNL A   1      29.019  27.838  23.526  1.00  0.00     0.024 A 
ATOM     16  C   UNL A   1      31.762  28.252  23.119  1.00  0.00     0.028 A 
ATOM     17  C   UNL A   1      29.986  26.915  23.907  1.00  0.00     0.028 A 
BRANCH  13  18
ATOM     18  S   UNL A   1      28.169  30.109  22.285  1.00  0.00     0.242 S 
ATOM     19  O   UNL A   1      27.051  30.026  23.182  1.00  0.00    -0.207 OA
ATOM     20  O   UNL A   1      28.028  29.852  20.854  1.00  0.00    -0.207 OA
BRANCH  18  21
ATOM     21  N   UNL A   1      28.842  31.701  22.445  1.00  0.00    -0.204 NA
ATOM     22  C   UNL A   1      28.098  32.709  21.636  1.00  0.00     0.124 C 
ATOM     23  C   UNL A   1      29.008  32.207  23.833  1.00  0.00     0.124 C 
ENDBRANCH  18  21
ENDBRANCH  13  18
ENDBRANCH   8  12
BRANCH   9  24
ATOM     24  C   UNL A   1      32.900  27.736  26.448  1.00  0.00    -0.001 A 
ATOM     25  C   UNL A   1      31.744  28.332  26.937  1.00  0.00     0.013 A 
ATOM     26  C   UNL A   1      33.994  28.548  26.349  1.00  0.00     0.013 A 
ATOM     27  C   UNL A   1      31.776  29.704  27.251  1.00  0.00     0.040 A 
ATOM     28  C   UNL A   1      34.140  29.744  26.945  1.00  0.00     0.040 A 
ATOM     29  C   UNL A   1      32.978  30.399  27.228  1.00  0.00     0.123 A 
ATOM     30  F   UNL A   1      32.967  31.735  27.251  1.00  0.00    -0.207 F 
ENDBRANCH   9  24
ENDBRANCH   6   7
ENDBRANCH   5   6
ENDBRANCH   1   5
BRANCH   3  31
ATOM     31  C   UNL A   1      35.310  22.707  23.917  1.00  0.00     0.117 C 
BRANCH  31  32
ATOM     32  C   UNL A   1      36.633  23.442  24.339  1.00  0.00     0.042 C 
BRANCH  32  33
ATOM     33  C   UNL A   1      37.023  24.081  25.742  1.00  0.00     0.118 C 
BRANCH  33  34
ATOM     34  N   UNL A   1      38.270  23.511  26.372  1.00  0.00    -0.352 N 
ATOM     35  C   UNL A   1      39.347  23.901  27.187  1.00  0.00     0.251 C 
ATOM     36  H   UNL A   1      38.358  22.559  26.137  1.00  0.00     0.163 HD
ATOM     37  O   UNL A   1      40.038  22.972  27.626  1.00  0.00    -0.269 OA
BRANCH  35  38
ATOM     38  C   UNL A   1      39.777  25.293  27.597  1.00  0.00     0.039 A 
ATOM     39  C   UNL A   1      40.079  26.308  26.665  1.00  0.00     0.014 A 
ATOM     40  C   UNL A   1      39.520  25.767  28.869  1.00  0.00     0.014 A 
ATOM     41  C   UNL A   1      40.206  27.667  27.072  1.00  0.00     0.010 A 
ATOM     42  C   UNL A   1      39.925  27.003  29.360  1.00  0.00     0.010 A 
ATOM     43  C   UNL A   1      40.115  28.009  28.433  1.00  0.00    -0.014 A 
BRANCH  43  44
ATOM     44  C   UNL A   1      40.150  29.396  28.966  1.00  0.00     0.031 A 
ATOM     45  C   UNL A   1      38.719  30.040  29.125  1.00  0.00     0.074 A 
ATOM     46  C   UNL A   1      41.415  29.815  29.312  1.00  0.00     0.049 A 
ATOM     47  N   UNL A   1      38.330  31.274  28.988  1.00  0.00    -0.248 NA
ATOM     48  C   UNL A   1      37.537  29.183  29.443  1.00  0.00     0.031 C 
ATOM     49  C   UNL A   1      42.627  28.952  29.263  1.00  0.00     0.029 A 
ATOM     50  N   UNL A   1      41.970  30.986  29.792  1.00  0.00    -0.354 N 
ATOM     51  C   UNL A   1      36.961  31.376  29.387  1.00  0.00     0.074 A 
ATOM     52  C   UNL A   1      36.501  30.029  29.518  1.00  0.00     0.031 C 
ATOM     53  C   UNL A   1      43.749  29.646  29.556  1.00  0.00     0.029 A 
ATOM     54  C   UNL A   1      43.402  31.023  29.828  1.00  0.00     0.049 A 
ATOM     55  H   UNL A   1      41.419  31.745  30.090  1.00  0.00     0.167 HD
ATOM     56  C   UNL A   1      36.380  32.564  29.777  1.00  0.00     0.037 A 
ATOM     57  C   UNL A   1      44.235  32.104  29.992  1.00  0.00     0.037 A 
ATOM     58  C   UNL A   1      37.377  33.576  29.716  1.00  0.00     0.049 A 
ATOM     59  C   UNL A   1      43.323  33.196  30.326  1.00  0.00     0.074 A 
ATOM     60  C   UNL A   1      38.034  34.165  28.670  1.00  0.00     0.029 A 
ATOM     61  N   UNL A   1      38.089  33.759  30.876  1.00  0.00    -0.354 N 
ATOM     62  N   UNL A   1      42.732  33.328  31.474  1.00  0.00    -0.248 NA
ATOM     63  C   UNL A   1      42.930  34.122  29.260  1.00  0.00     0.031 C 
ATOM     64  C   UNL A   1      39.365  34.142  29.128  1.00  0.00     0.029 A 
ATOM     65  C   UNL A   1      39.393  33.931  30.513  1.00  0.00     0.049 A 
ATOM     66  H   UNL A   1      37.730  33.766  31.792  1.00  0.00     0.167 HD
ATOM     67  C   UNL A   1      41.659  34.112  31.138  1.00  0.00     0.074 A 
ATOM     68  C   UNL A   1      42.010  34.816  29.921  1.00  0.00     0.031 C 
ATOM     69  C   UNL A   1      40.415  33.707  31.498  1.00  0.00     0.037 A 
BRANCH  56  70
ATOM     70  C   UNL A   1      35.133  32.975  30.549  1.00  0.00     0.064 A 
ATOM     71  C   UNL A   1      34.311  33.994  29.974  1.00  0.00     0.173 A 
ATOM     72  C   UNL A   1      34.949  32.759  31.917  1.00  0.00     0.173 A 
ATOM     73  F   UNL A   1      34.332  34.235  28.653  1.00  0.00    -0.203 F 
ATOM     74  C   UNL A   1      33.545  34.865  30.749  1.00  0.00     0.198 A 
ATOM     75  C   UNL A   1      34.122  33.598  32.683  1.00  0.00     0.198 A 
ATOM     76  F   UNL A   1      35.626  31.806  32.565  1.00  0.00    -0.203 F 
ATOM     77  F   UNL A   1      32.955  35.926  30.179  1.00  0.00    -0.200 F 
ATOM     78  C   UNL A   1      33.472  34.680  32.111  1.00  0.00     0.200 A 
ATOM     79  F   UNL A   1      34.026  33.400  34.005  1.00  0.00    -0.200 F 
ATOM     80  F   UNL A   1      32.805  35.558  32.875  1.00  0.00    -0.200 F 
ENDBRANCH  56  70
BRANCH  57  81
ATOM     81  C   UNL A   1      45.689  32.503  29.810  1.00  0.00     0.064 A 
ATOM     82  C   UNL A   1      46.424  32.473  28.621  1.00  0.00     0.173 A 
ATOM     83  C   UNL A   1      46.402  33.079  30.910  1.00  0.00     0.173 A 
ATOM     84  F   UNL A   1      45.955  31.832  27.544  1.00  0.00    -0.203 F 
ATOM     85  C   UNL A   1      47.687  33.097  28.510  1.00  0.00     0.198 A 
ATOM     86  C   UNL A   1      47.613  33.757  30.786  1.00  0.00     0.198 A 
ATOM     87  F   UNL A   1      45.941  33.011  32.165  1.00  0.00    -0.203 F 
ATOM     88  F   UNL A   1      48.357  33.047  27.350  1.00  0.00    -0.200 F 
ATOM     89  C   UNL A   1      48.251  33.787  29.574  1.00  0.00     0.200 A 
ATOM     90  F   UNL A   1      48.131  34.394  31.846  1.00  0.00    -0.200 F 
ATOM     91  F   UNL A   1      49.403  34.457  29.437  1.00  0.00    -0.200 F 
ENDBRANCH  57  81
BRANCH  69  92
ATOM     92  C   UNL A   1      40.356  32.766  32.694  1.00  0.00     0.064 A 
ATOM     93  C   UNL A   1      40.842  33.201  33.939  1.00  0.00     0.173 A 
ATOM     94  C   UNL A   1      39.939  31.423  32.639  1.00  0.00     0.173 A 
ATOM     95  F   UNL A   1      41.223  34.479  34.097  1.00  0.00    -0.203 F 
ATOM     96  C   UNL A   1      40.943  32.345  35.039  1.00  0.00     0.198 A 
ATOM     97  C   UNL A   1      40.029  30.564  33.743  1.00  0.00     0.198 A 
ATOM     98  F   UNL A   1      39.427  30.915  31.519  1.00  0.00    -0.203 F 
ATOM     99  F   UNL A   1      41.425  32.807  36.201  1.00  0.00    -0.200 F 
ATOM    100  C   UNL A   1      40.541  31.024  34.941  1.00  0.00     0.200 A 
ATOM    101  F   UNL A   1      39.607  29.294  33.640  1.00  0.00    -0.200 F 
ATOM    102  F   UNL A   1      40.627  30.210  36.002  1.00  0.00    -0.200 F 
ENDBRANCH  69  92
ENDBRANCH  43  44
ENDBRANCH  35  38
ENDBRANCH  33  34
ENDBRANCH  32  33
ENDBRANCH  31  32
ENDBRANCH   3  31
TORSDOF 16
ENDMDL
MODEL 2
REMARK VINA RESULT:     -12.5      6.040     11.455
REMARK SMILES CN(C)S(=O)(=O)c1ccc(-n2c(CCC(=O)NCCCNC(=O)c3ccc(-c4c5nc(c(-c6c(F)c(F)c(F)c(F)c6F)c6ccc([nH]6)c(-c6c(F)c(F)c(F)c(F)c6F)c6nc(c(-c7c(F)c(F)c(F)c(F)c7F)c7ccc4[nH]7)C=C6)C=C5)cc3)ccc2-c2ccc(F)cc2)cc1
REMARK SMILES IDX 15 1 16 2 17 3 14 5 13 6 12 7 11 8 89 9 87 10 88 11 10 12
REMARK SMILES IDX 7 13 8 14 98 15 9 16 97 17 4 18 5 19 6 20 2 21 1 22 3 23
REMARK SMILES IDX 90 24 91 25 96 26 92 27 95 28 93 29 94 30 18 31 19 32 20 33
REMARK SMILES IDX 21 34 22 35 23 37 24 38 25 39 86 40 26 41 85 42 27 43 28 44
REMARK SMILES IDX 29 45 79 46 30 47 84 48 78 49 80 50 31 51 83 52 77 53 76 54
REMARK SMILES IDX 32 56 64 57 44 58 63 59 45 60 48 61 62 62 81 63 46 64 47 65
REMARK SMILES IDX 61 67 82 68 49 69 33 70 34 71 42 72 35 73 36 74 40 75 43 76
REMARK SMILES IDX 37 77 38 78 41 79 39 80 65 81 66 82 74 83 67 84 68 85 72 86
REMARK SMILES IDX 75 87 69 88 70 89 73 90 71 91 50 92 51 93 59 94 52 95 53 96
REMARK SMILES IDX 57 97 60 98 54 99 55 100 58 101 56 102
REMARK H PARENT 17 4 21 36 80 55 48 66
REMARK Flexibility Score: inf
ROOT
ATOM      1  C   UNL A   1      40.052  30.243  35.779  1.00  0.00     0.220 C 
ATOM      2  O   UNL A   1      38.822  30.388  35.815  1.00  0.00    -0.275 OA
ATOM      3  N   UNL A   1      40.531  29.032  36.229  1.00  0.00    -0.356 N 
ATOM      4  H   UNL A   1      39.827  28.473  36.627  1.00  0.00     0.163 HD
ENDROOT
BRANCH   1   5
ATOM      5  C   UNL A   1      40.916  31.443  35.367  1.00  0.00     0.106 C 
BRANCH   5   6
ATOM      6  C   UNL A   1      41.064  31.721  33.841  1.00  0.00     0.064 C 
BRANCH   6   7
ATOM      7  C   UNL A   1      41.071  30.463  33.005  1.00  0.00     0.024 A 
ATOM      8  N   UNL A   1      40.061  30.016  32.124  1.00  0.00    -0.314 N 
ATOM      9  C   UNL A   1      40.594  28.836  31.494  1.00  0.00     0.053 A 
ATOM     10  C   UNL A   1      42.097  29.534  33.019  1.00  0.00     0.024 A 
ATOM     11  C   UNL A   1      41.805  28.529  32.093  1.00  0.00     0.029 A 
BRANCH   8  12
ATOM     12  C   UNL A   1      38.895  30.809  31.674  1.00  0.00     0.046 A 
ATOM     13  C   UNL A   1      36.574  32.477  31.458  1.00  0.00     0.082 A 
ATOM     14  C   UNL A   1      37.772  32.816  30.805  1.00  0.00     0.024 A 
ATOM     15  C   UNL A   1      36.540  31.339  32.224  1.00  0.00     0.024 A 
ATOM     16  C   UNL A   1      38.937  31.993  30.925  1.00  0.00     0.028 A 
ATOM     17  C   UNL A   1      37.668  30.529  32.270  1.00  0.00     0.028 A 
BRANCH  13  18
ATOM     18  S   UNL A   1      35.098  33.466  31.316  1.00  0.00     0.242 S 
ATOM     19  O   UNL A   1      35.411  34.787  31.781  1.00  0.00    -0.207 OA
ATOM     20  O   UNL A   1      34.028  32.672  31.917  1.00  0.00    -0.207 OA
BRANCH  18  21
ATOM     21  N   UNL A   1      34.745  33.584  29.622  1.00  0.00    -0.204 NA
ATOM     22  C   UNL A   1      34.493  32.249  29.006  1.00  0.00     0.124 C 
ATOM     23  C   UNL A   1      33.649  34.516  29.243  1.00  0.00     0.124 C 
ENDBRANCH  18  21
ENDBRANCH  13  18
ENDBRANCH   8  12
BRANCH   9  24
ATOM     24  C   UNL A   1      40.294  28.433  30.117  1.00  0.00    -0.001 A 
ATOM     25  C   UNL A   1      39.213  28.774  29.312  1.00  0.00     0.013 A 
ATOM     26  C   UNL A   1      40.980  27.310  29.752  1.00  0.00     0.013 A 
ATOM     27  C   UNL A   1      38.892  27.935  28.228  1.00  0.00     0.040 A 
ATOM     28  C   UNL A   1      40.904  26.697  28.558  1.00  0.00     0.040 A 
ATOM     29  C   UNL A   1      39.736  26.888  27.880  1.00  0.00     0.123 A 
ATOM     30  F   UNL A   1      39.299  25.939  27.047  1.00  0.00    -0.207 F 
ENDBRANCH   9  24
ENDBRANCH   6   7
ENDBRANCH   5   6
ENDBRANCH   1   5
BRANCH   3  31
ATOM     31  C   UNL A   1      41.861  28.375  36.254  1.00  0.00     0.117 C 
BRANCH  31  32
ATOM     32  C   UNL A   1      41.891  26.844  36.606  1.00  0.00     0.042 C 
BRANCH  32  33
ATOM     33  C   UNL A   1      42.678  26.097  37.768  1.00  0.00     0.118 C 
BRANCH  33  34
ATOM     34  N   UNL A   1      43.582  24.981  37.304  1.00  0.00    -0.352 N 
ATOM     35  C   UNL A   1      44.413  24.639  36.223  1.00  0.00     0.251 C 
ATOM     36  H   UNL A   1      43.593  24.260  37.974  1.00  0.00     0.163 HD
ATOM     37  O   UNL A   1      45.146  23.660  36.413  1.00  0.00    -0.269 OA
BRANCH  35  38
ATOM     38  C   UNL A   1      44.532  25.299  34.867  1.00  0.00     0.039 A 
ATOM     39  C   UNL A   1      45.770  25.528  34.231  1.00  0.00     0.014 A 
ATOM     40  C   UNL A   1      43.450  25.352  34.008  1.00  0.00     0.014 A 
ATOM     41  C   UNL A   1      45.836  25.887  32.855  1.00  0.00     0.010 A 
ATOM     42  C   UNL A   1      43.440  25.985  32.771  1.00  0.00     0.010 A 
ATOM     43  C   UNL A   1      44.655  26.105  32.123  1.00  0.00    -0.014 A 
BRANCH  43  44
ATOM     44  C   UNL A   1      44.597  26.402  30.668  1.00  0.00     0.031 A 
ATOM     45  C   UNL A   1      44.692  27.942  30.341  1.00  0.00     0.074 A 
ATOM     46  C   UNL A   1      44.572  25.273  29.881  1.00  0.00     0.049 A 
ATOM     47  N   UNL A   1      44.143  28.638  29.388  1.00  0.00    -0.248 NA
ATOM     48  C   UNL A   1      45.479  28.854  31.225  1.00  0.00     0.031 C 
ATOM     49  C   UNL A   1      44.694  23.884  30.404  1.00  0.00     0.029 A 
ATOM     50  N   UNL A   1      44.478  25.015  28.527  1.00  0.00    -0.354 N 
ATOM     51  C   UNL A   1      44.658  29.971  29.430  1.00  0.00     0.074 A 
ATOM     52  C   UNL A   1      45.365  30.067  30.668  1.00  0.00     0.031 C 
ATOM     53  C   UNL A   1      44.534  22.964  29.427  1.00  0.00     0.029 A 
ATOM     54  C   UNL A   1      44.295  23.639  28.170  1.00  0.00     0.049 A 
ATOM     55  H   UNL A   1      44.531  25.728  27.851  1.00  0.00     0.167 HD
ATOM     56  C   UNL A   1      44.633  30.818  28.343  1.00  0.00     0.037 A 
ATOM     57  C   UNL A   1      43.909  23.102  26.966  1.00  0.00     0.037 A 
ATOM     58  C   UNL A   1      44.046  30.115  27.256  1.00  0.00     0.049 A 
ATOM     59  C   UNL A   1      43.917  24.248  26.058  1.00  0.00     0.074 A 
ATOM     60  C   UNL A   1      42.773  29.672  27.022  1.00  0.00     0.029 A 
ATOM     61  N   UNL A   1      44.931  29.426  26.464  1.00  0.00    -0.354 N 
ATOM     62  N   UNL A   1      44.994  24.806  25.597  1.00  0.00    -0.248 NA
ATOM     63  C   UNL A   1      42.641  24.905  25.760  1.00  0.00     0.031 C 
ATOM     64  C   UNL A   1      43.012  28.361  26.566  1.00  0.00     0.029 A 
ATOM     65  C   UNL A   1      44.352  28.225  26.178  1.00  0.00     0.049 A 
ATOM     66  H   UNL A   1      45.814  29.739  26.159  1.00  0.00     0.167 HD
ATOM     67  C   UNL A   1      44.534  26.056  25.272  1.00  0.00     0.074 A 
ATOM     68  C   UNL A   1      43.103  25.945  25.072  1.00  0.00     0.031 C 
ATOM     69  C   UNL A   1      45.193  27.141  25.752  1.00  0.00     0.037 A 
BRANCH  56  70
ATOM     70  C   UNL A   1      45.352  32.097  27.932  1.00  0.00     0.064 A 
ATOM     71  C   UNL A   1      44.542  33.224  27.587  1.00  0.00     0.173 A 
ATOM     72  C   UNL A   1      46.669  32.144  27.469  1.00  0.00     0.173 A 
ATOM     73  F   UNL A   1      43.285  33.336  28.047  1.00  0.00    -0.203 F 
ATOM     74  C   UNL A   1      44.954  34.192  26.672  1.00  0.00     0.198 A 
ATOM     75  C   UNL A   1      47.101  33.160  26.599  1.00  0.00     0.198 A 
ATOM     76  F   UNL A   1      47.540  31.172  27.758  1.00  0.00    -0.203 F 
ATOM     77  F   UNL A   1      44.083  35.112  26.231  1.00  0.00    -0.200 F 
ATOM     78  C   UNL A   1      46.230  34.144  26.158  1.00  0.00     0.200 A 
ATOM     79  F   UNL A   1      48.353  33.132  26.122  1.00  0.00    -0.200 F 
ATOM     80  F   UNL A   1      46.611  35.021  25.217  1.00  0.00    -0.200 F 
ENDBRANCH  56  70
BRANCH  57  81
ATOM     81  C   UNL A   1      43.384  21.806  26.372  1.00  0.00     0.064 A 
ATOM     82  C   UNL A   1      44.090  20.908  25.565  1.00  0.00     0.173 A 
ATOM     83  C   UNL A   1      42.076  21.350  26.729  1.00  0.00     0.173 A 
ATOM     84  F   UNL A   1      45.264  21.252  25.025  1.00  0.00    -0.203 F 
ATOM     85  C   UNL A   1      43.590  19.619  25.273  1.00  0.00     0.198 A 
ATOM     86  C   UNL A   1      41.612  20.055  26.504  1.00  0.00     0.198 A 
ATOM     87  F   UNL A   1      41.183  22.153  27.322  1.00  0.00    -0.203 F 
ATOM     88  F   UNL A   1      44.300  18.788  24.497  1.00  0.00    -0.200 F 
ATOM     89  C   UNL A   1      42.382  19.175  25.791  1.00  0.00     0.200 A 
ATOM     90  F   UNL A   1      40.428  19.675  27.008  1.00  0.00    -0.200 F 
ATOM     91  F   UNL A   1      41.958  17.920  25.591  1.00  0.00    -0.200 F 
ENDBRANCH  57  81
BRANCH  69  92
ATOM     92  C   UNL A   1      46.655  26.910  26.107  1.00  0.00     0.064 A 
ATOM     93  C   UNL A   1      47.573  26.603  25.088  1.00  0.00     0.173 A 
ATOM     94  C   UNL A   1      47.168  26.877  27.417  1.00  0.00     0.173 A 
ATOM     95  F   UNL A   1      47.184  26.652  23.804  1.00  0.00    -0.203 F 
ATOM     96  C   UNL A   1      48.897  26.247  25.361  1.00  0.00     0.198 A 
ATOM     97  C   UNL A   1      48.497  26.530  27.694  1.00  0.00     0.198 A 
ATOM     98  F   UNL A   1      46.396  27.187  28.459  1.00  0.00    -0.203 F 
ATOM     99  F   UNL A   1      49.729  25.952  24.352  1.00  0.00    -0.200 F 
ATOM    100  C   UNL A   1      49.360  26.206  26.664  1.00  0.00     0.200 A 
ATOM    101  F   UNL A   1      48.939  26.524  28.962  1.00  0.00    -0.200 F 
ATOM    102  F   UNL A   1      50.634  25.877  26.921  1.00  0.00    -0.200 F 
ENDBRANCH  69  92
ENDBRANCH  43  44
ENDBRANCH  35  38
ENDBRANCH  33  34
ENDBRANCH  32  33
ENDBRANCH  31  32
ENDBRANCH   3  31
TORSDOF 16
ENDMDL
MODEL 3
REMARK VINA RESULT:     -12.4      6.109     10.307
REMARK SMILES CN(C)S(=O)(=O)c1ccc(-n2c(CCC(=O)NCCCNC(=O)c3ccc(-c4c5nc(c(-c6c(F)c(F)c(F)c(F)c6F)c6ccc([nH]6)c(-c6c(F)c(F)c(F)c(F)c6F)c6nc(c(-c7c(F)c(F)c(F)c(F)c7F)c7ccc4[nH]7)C=C6)C=C5)cc3)ccc2-c2ccc(F)cc2)cc1
REMARK SMILES IDX 15 1 16 2 17 3 14 5 13 6 12 7 11 8 89 9 87 10 88 11 10 12
REMARK SMILES IDX 7 13 8 14 98 15 9 16 97 17 4 18 5 19 6 20 2 21 1 22 3 23
REMARK SMILES IDX 90 24 91 25 96 26 92 27 95 28 93 29 94 30 18 31 19 32 20 33
REMARK SMILES IDX 21 34 22 35 23 37 24 38 25 39 86 40 26 41 85 42 27 43 28 44
REMARK SMILES IDX 29 45 79 46 30 47 84 48 78 49 80 50 31 51 83 52 77 53 76 54
REMARK SMILES IDX 32 56 64 57 44 58 63 59 45 60 48 61 62 62 81 63 46 64 47 65
REMARK SMILES IDX 61 67 82 68 49 69 33 70 34 71 42 72 35 73 36 74 40 75 43 76
REMARK SMILES IDX 37 77 38 78 41 79 39 80 65 81 66 82 74 83 67 84 68 85 72 86
REMARK SMILES IDX 75 87 69 88 70 89 73 90 71 91 50 92 51 93 59 94 52 95 53 96
REMARK SMILES IDX 57 97 60 98 54 99 55 100 58 101 56 102
REMARK H PARENT 17 4 21 36 80 55 48 66
REMARK Flexibility Score: inf
ROOT
ATOM      1  C   UNL A   1      45.110  30.991  26.228  1.00  0.00     0.220 C 
ATOM      2  O   UNL A   1      45.878  30.023  26.136  1.00  0.00    -0.275 OA
ATOM      3  N   UNL A   1      45.565  32.176  25.693  1.00  0.00    -0.356 N 
ATOM      4  H   UNL A   1      46.501  32.121  25.399  1.00  0.00     0.163 HD
ENDROOT
BRANCH   1   5
ATOM      5  C   UNL A   1      43.807  30.815  27.022  1.00  0.00     0.106 C 
BRANCH   5   6
ATOM      6  C   UNL A   1      43.021  29.487  26.813  1.00  0.00     0.064 C 
BRANCH   6   7
ATOM      7  C   UNL A   1      42.953  28.633  28.057  1.00  0.00     0.024 A 
ATOM      8  N   UNL A   1      42.975  27.222  28.127  1.00  0.00    -0.314 N 
ATOM      9  C   UNL A   1      42.999  26.907  29.532  1.00  0.00     0.053 A 
ATOM     10  C   UNL A   1      42.824  29.143  29.336  1.00  0.00     0.024 A 
ATOM     11  C   UNL A   1      42.848  28.084  30.247  1.00  0.00     0.029 A 
BRANCH   8  12
ATOM     12  C   UNL A   1      43.298  26.306  27.010  1.00  0.00     0.046 A 
ATOM     13  C   UNL A   1      44.255  24.197  25.321  1.00  0.00     0.082 A 
ATOM     14  C   UNL A   1      42.877  24.424  25.485  1.00  0.00     0.024 A 
ATOM     15  C   UNL A   1      45.140  24.991  26.006  1.00  0.00     0.024 A 
ATOM     16  C   UNL A   1      42.397  25.467  26.340  1.00  0.00     0.028 A 
ATOM     17  C   UNL A   1      44.644  26.034  26.779  1.00  0.00     0.028 A 
BRANCH  13  18
ATOM     18  S   UNL A   1      44.891  22.922  24.251  1.00  0.00     0.242 S 
ATOM     19  O   UNL A   1      46.171  23.356  23.768  1.00  0.00    -0.207 OA
ATOM     20  O   UNL A   1      43.799  22.585  23.341  1.00  0.00    -0.207 OA
BRANCH  18  21
ATOM     21  N   UNL A   1      45.161  21.529  25.250  1.00  0.00    -0.204 NA
ATOM     22  C   UNL A   1      43.931  20.700  25.401  1.00  0.00     0.124 C 
ATOM     23  C   UNL A   1      46.301  20.655  24.863  1.00  0.00     0.124 C 
ENDBRANCH  18  21
ENDBRANCH  13  18
ENDBRANCH   8  12
BRANCH   9  24
ATOM     24  C   UNL A   1      43.684  25.744  30.101  1.00  0.00    -0.001 A 
ATOM     25  C   UNL A   1      43.455  24.390  29.889  1.00  0.00     0.013 A 
ATOM     26  C   UNL A   1      44.370  26.062  31.240  1.00  0.00     0.013 A 
ATOM     27  C   UNL A   1      43.901  23.472  30.858  1.00  0.00     0.040 A 
ATOM     28  C   UNL A   1      45.085  25.206  31.989  1.00  0.00     0.040 A 
ATOM     29  C   UNL A   1      44.697  23.900  31.913  1.00  0.00     0.123 A 
ATOM     30  F   UNL A   1      44.883  23.098  32.965  1.00  0.00    -0.207 F 
ENDBRANCH   9  24
ENDBRANCH   6   7
ENDBRANCH   5   6
ENDBRANCH   1   5
BRANCH   3  31
ATOM     31  C   UNL A   1      44.972  33.515  25.458  1.00  0.00     0.117 C 
BRANCH  31  32
ATOM     32  C   UNL A   1      45.936  34.750  25.577  1.00  0.00     0.042 C 
BRANCH  32  33
ATOM     33  C   UNL A   1      47.130  34.998  26.598  1.00  0.00     0.118 C 
BRANCH  33  34
ATOM     34  N   UNL A   1      46.900  36.123  27.577  1.00  0.00    -0.352 N 
ATOM     35  C   UNL A   1      46.078  36.460  28.666  1.00  0.00     0.251 C 
ATOM     36  H   UNL A   1      47.529  36.858  27.395  1.00  0.00     0.163 HD
ATOM     37  O   UNL A   1      46.435  37.458  29.305  1.00  0.00    -0.269 OA
BRANCH  35  38
ATOM     38  C   UNL A   1      44.823  35.775  29.160  1.00  0.00     0.039 A 
ATOM     39  C   UNL A   1      44.190  34.730  28.454  1.00  0.00     0.014 A 
ATOM     40  C   UNL A   1      44.452  35.849  30.490  1.00  0.00     0.014 A 
ATOM     41  C   UNL A   1      43.188  33.927  29.069  1.00  0.00     0.010 A 
ATOM     42  C   UNL A   1      43.291  35.308  31.029  1.00  0.00     0.010 A 
ATOM     43  C   UNL A   1      42.749  34.219  30.373  1.00  0.00    -0.014 A 
BRANCH  43  44
ATOM     44  C   UNL A   1      41.773  33.406  31.145  1.00  0.00     0.031 A 
ATOM     45  C   UNL A   1      40.284  33.901  30.986  1.00  0.00     0.074 A 
ATOM     46  C   UNL A   1      42.342  32.319  31.769  1.00  0.00     0.049 A 
ATOM     47  N   UNL A   1      39.297  33.892  31.834  1.00  0.00    -0.248 NA
ATOM     48  C   UNL A   1      39.832  34.538  29.712  1.00  0.00     0.031 C 
ATOM     49  C   UNL A   1      43.768  31.918  31.619  1.00  0.00     0.029 A 
ATOM     50  N   UNL A   1      41.895  31.317  32.610  1.00  0.00    -0.354 N 
ATOM     51  C   UNL A   1      38.105  34.310  31.164  1.00  0.00     0.074 A 
ATOM     52  C   UNL A   1      38.538  34.825  29.903  1.00  0.00     0.031 C 
ATOM     53  C   UNL A   1      44.083  30.878  32.423  1.00  0.00     0.029 A 
ATOM     54  C   UNL A   1      42.914  30.485  33.177  1.00  0.00     0.049 A 
ATOM     55  H   UNL A   1      40.940  31.184  32.806  1.00  0.00     0.167 HD
ATOM     56  C   UNL A   1      36.841  34.006  31.622  1.00  0.00     0.037 A 
ATOM     57  C   UNL A   1      42.824  29.602  34.226  1.00  0.00     0.037 A 
ATOM     58  C   UNL A   1      36.983  33.228  32.804  1.00  0.00     0.049 A 
ATOM     59  C   UNL A   1      41.391  29.551  34.513  1.00  0.00     0.074 A 
ATOM     60  C   UNL A   1      37.437  33.527  34.059  1.00  0.00     0.029 A 
ATOM     61  N   UNL A   1      37.035  31.870  32.602  1.00  0.00    -0.354 N 
ATOM     62  N   UNL A   1      40.520  28.939  33.771  1.00  0.00    -0.248 NA
ATOM     63  C   UNL A   1      40.877  30.358  35.624  1.00  0.00     0.031 C 
ATOM     64  C   UNL A   1      38.286  32.434  34.318  1.00  0.00     0.029 A 
ATOM     65  C   UNL A   1      38.002  31.385  33.433  1.00  0.00     0.049 A 
ATOM     66  H   UNL A   1      36.481  31.346  31.979  1.00  0.00     0.167 HD
ATOM     67  C   UNL A   1      39.364  29.588  34.120  1.00  0.00     0.074 A 
ATOM     68  C   UNL A   1      39.576  30.161  35.434  1.00  0.00     0.031 C 
ATOM     69  C   UNL A   1      38.581  30.104  33.139  1.00  0.00     0.037 A 
BRANCH  56  70
ATOM     70  C   UNL A   1      35.437  33.979  31.033  1.00  0.00     0.064 A 
ATOM     71  C   UNL A   1      35.250  33.255  29.814  1.00  0.00     0.173 A 
ATOM     72  C   UNL A   1      34.441  34.911  31.333  1.00  0.00     0.173 A 
ATOM     73  F   UNL A   1      36.092  32.271  29.460  1.00  0.00    -0.203 F 
ATOM     74  C   UNL A   1      34.275  33.600  28.879  1.00  0.00     0.198 A 
ATOM     75  C   UNL A   1      33.419  35.209  30.416  1.00  0.00     0.198 A 
ATOM     76  F   UNL A   1      34.477  35.623  32.464  1.00  0.00    -0.203 F 
ATOM     77  F   UNL A   1      34.272  33.023  27.668  1.00  0.00    -0.200 F 
ATOM     78  C   UNL A   1      33.373  34.598  29.172  1.00  0.00     0.200 A 
ATOM     79  F   UNL A   1      32.522  36.159  30.712  1.00  0.00    -0.200 F 
ATOM     80  F   UNL A   1      32.483  34.994  28.250  1.00  0.00    -0.200 F 
ENDBRANCH  56  70
BRANCH  57  81
ATOM     81  C   UNL A   1      43.708  28.831  35.191  1.00  0.00     0.064 A 
ATOM     82  C   UNL A   1      44.517  29.367  36.197  1.00  0.00     0.173 A 
ATOM     83  C   UNL A   1      43.669  27.400  35.189  1.00  0.00     0.173 A 
ATOM     84  F   UNL A   1      44.778  30.679  36.239  1.00  0.00    -0.203 F 
ATOM     85  C   UNL A   1      45.104  28.554  37.193  1.00  0.00     0.198 A 
ATOM     86  C   UNL A   1      44.184  26.603  36.209  1.00  0.00     0.198 A 
ATOM     87  F   UNL A   1      43.115  26.709  34.184  1.00  0.00    -0.203 F 
ATOM     88  F   UNL A   1      45.871  29.110  38.142  1.00  0.00    -0.200 F 
ATOM     89  C   UNL A   1      44.888  27.184  37.231  1.00  0.00     0.200 A 
ATOM     90  F   UNL A   1      43.967  25.280  36.194  1.00  0.00    -0.200 F 
ATOM     91  F   UNL A   1      45.366  26.431  38.230  1.00  0.00    -0.200 F 
ENDBRANCH  57  81
BRANCH  69  92
ATOM     92  C   UNL A   1      38.732  29.449  31.772  1.00  0.00     0.064 A 
ATOM     93  C   UNL A   1      38.517  28.066  31.642  1.00  0.00     0.173 A 
ATOM     94  C   UNL A   1      39.181  30.107  30.612  1.00  0.00     0.173 A 
ATOM     95  F   UNL A   1      38.048  27.363  32.685  1.00  0.00    -0.203 F 
ATOM     96  C   UNL A   1      38.772  27.382  30.450  1.00  0.00     0.198 A 
ATOM     97  C   UNL A   1      39.427  29.426  29.412  1.00  0.00     0.198 A 
ATOM     98  F   UNL A   1      39.382  31.425  30.611  1.00  0.00    -0.203 F 
ATOM     99  F   UNL A   1      38.560  26.061  30.382  1.00  0.00    -0.200 F 
ATOM    100  C   UNL A   1      39.231  28.060  29.335  1.00  0.00     0.200 A 
ATOM    101  F   UNL A   1      39.844  30.104  28.330  1.00  0.00    -0.200 F 
ATOM    102  F   UNL A   1      39.460  27.404  28.189  1.00  0.00    -0.200 F 
ENDBRANCH  69  92
ENDBRANCH  43  44
ENDBRANCH  35  38
ENDBRANCH  33  34
ENDBRANCH  32  33
ENDBRANCH  31  32
ENDBRANCH   3  31
TORSDOF 16
ENDMDL
