MODEL 1
REMARK VINA RESULT:     -13.4      0.000      0.000
REMARK SMILES COc1cc(C)c(S(=O)(=O)Nc2cc(C(=O)NCCCNC(=O)c3ccc(-c4c5nc(c(-c6c(F)c(F)c(F)c(F)c6F)c6ccc([nH]6)c(-c6c(F)c(F)c(F)c(F)c6F)c6nc(c(-c7c(F)c(F)c(F)c(F)c7F)c7ccc4[nH]7)C=C6)C=C5)cc3)ccc2F)cc1OC
REMARK SMILES IDX 18 1 17 2 15 3 16 4 14 6 12 7 13 8 89 9 88 10 90 11 87 12
REMARK SMILES IDX 11 13 8 15 9 16 10 17 7 18 3 19 4 20 92 21 5 22 91 23 6 24
REMARK SMILES IDX 2 25 1 26 93 27 94 28 19 29 20 30 21 31 22 32 23 34 24 35
REMARK SMILES IDX 25 36 86 37 26 38 85 39 27 40 28 41 29 42 79 43 30 44 84 45
REMARK SMILES IDX 78 46 80 47 31 48 83 49 77 50 76 51 32 53 64 54 44 55 63 56
REMARK SMILES IDX 45 57 48 58 62 59 81 60 46 61 47 62 61 64 82 65 49 66 33 67
REMARK SMILES IDX 34 68 42 69 35 70 36 71 40 72 43 73 37 74 38 75 41 76 39 77
REMARK SMILES IDX 65 78 66 79 74 80 67 81 68 82 72 83 75 84 69 85 70 86 73 87
REMARK SMILES IDX 71 88 50 89 51 90 59 91 52 92 53 93 57 94 60 95 54 96 55 97
REMARK SMILES IDX 58 98 56 99
REMARK H PARENT 17 5 11 14 21 33 80 52 48 63
REMARK Flexibility Score: inf
ROOT
ATOM      1  C   UNL A   1      32.540  29.796  25.319  1.00  0.00     0.118 C 
ENDROOT
BRANCH   1   2
ATOM      2  N   UNL A   1      31.365  30.047  24.498  1.00  0.00    -0.352 N 
ATOM      3  C   UNL A   1      30.427  29.221  23.924  1.00  0.00     0.251 C 
ATOM      4  O   UNL A   1      29.502  29.768  23.322  1.00  0.00    -0.269 OA
ATOM      5  H   UNL A   1      31.209  31.002  24.318  1.00  0.00     0.163 HD
BRANCH   3   6
ATOM      6  C   UNL A   1      30.421  27.726  24.032  1.00  0.00     0.042 A 
ATOM      7  C   UNL A   1      30.889  25.495  23.198  1.00  0.00     0.085 A 
ATOM      8  C   UNL A   1      30.667  26.850  22.973  1.00  0.00     0.043 A 
ATOM      9  C   UNL A   1      30.629  24.967  24.465  1.00  0.00     0.147 A 
ATOM     10  C   UNL A   1      30.284  25.795  25.524  1.00  0.00     0.042 A 
ATOM     11  F   UNL A   1      30.820  23.658  24.691  1.00  0.00    -0.205 F 
ATOM     12  C   UNL A   1      30.219  27.175  25.313  1.00  0.00     0.017 A 
BRANCH   7  13
ATOM     13  N   UNL A   1      31.507  24.640  22.239  1.00  0.00    -0.277 N 
ATOM     14  H   UNL A   1      30.906  24.100  21.676  1.00  0.00     0.180 HD
BRANCH  13  15
ATOM     15  S   UNL A   1      33.146  24.460  21.974  1.00  0.00     0.262 S 
ATOM     16  O   UNL A   1      33.652  25.765  21.598  1.00  0.00    -0.201 OA
ATOM     17  O   UNL A   1      33.278  23.328  21.084  1.00  0.00    -0.201 OA
BRANCH  15  18
ATOM     18  C   UNL A   1      33.999  24.011  23.490  1.00  0.00     0.094 A 
ATOM     19  C   UNL A   1      35.685  23.022  25.544  1.00  0.00     0.161 A 
ATOM     20  C   UNL A   1      35.330  24.372  25.478  1.00  0.00     0.055 A 
ATOM     21  C   UNL A   1      35.099  22.137  24.634  1.00  0.00     0.162 A 
ATOM     22  C   UNL A   1      34.430  24.875  24.505  1.00  0.00    -0.027 A 
ATOM     23  C   UNL A   1      34.314  22.640  23.588  1.00  0.00     0.073 A 
ATOM     24  C   UNL A   1      34.028  26.307  24.681  1.00  0.00     0.046 C 
BRANCH  19  25
ATOM     25  O   UNL A   1      36.596  22.511  26.428  1.00  0.00    -0.493 OA
ATOM     26  C   UNL A   1      37.977  22.637  26.127  1.00  0.00     0.278 C 
ENDBRANCH  19  25
BRANCH  21  27
ATOM     27  O   UNL A   1      35.251  20.774  24.618  1.00  0.00    -0.493 OA
ATOM     28  C   UNL A   1      34.086  20.018  24.949  1.00  0.00     0.278 C 
ENDBRANCH  21  27
ENDBRANCH  15  18
ENDBRANCH  13  15
ENDBRANCH   7  13
ENDBRANCH   3   6
ENDBRANCH   1   2
BRANCH   1  29
ATOM     29  C   UNL A   1      32.604  30.726  26.531  1.00  0.00     0.042 C 
BRANCH  29  30
ATOM     30  C   UNL A   1      33.498  30.216  27.645  1.00  0.00     0.118 C 
BRANCH  30  31
ATOM     31  N   UNL A   1      34.192  31.286  28.367  1.00  0.00    -0.352 N 
ATOM     32  C   UNL A   1      35.484  31.274  28.859  1.00  0.00     0.251 C 
ATOM     33  H   UNL A   1      33.677  32.111  28.520  1.00  0.00     0.163 HD
ATOM     34  O   UNL A   1      35.994  32.259  29.381  1.00  0.00    -0.269 OA
BRANCH  32  35
ATOM     35  C   UNL A   1      36.277  30.052  28.626  1.00  0.00     0.039 A 
ATOM     36  C   UNL A   1      36.688  29.328  29.747  1.00  0.00     0.014 A 
ATOM     37  C   UNL A   1      36.896  29.892  27.389  1.00  0.00     0.014 A 
ATOM     38  C   UNL A   1      37.893  28.640  29.689  1.00  0.00     0.010 A 
ATOM     39  C   UNL A   1      38.145  29.305  27.365  1.00  0.00     0.010 A 
ATOM     40  C   UNL A   1      38.673  28.746  28.537  1.00  0.00    -0.014 A 
BRANCH  40  41
ATOM     41  C   UNL A   1      40.088  28.393  28.515  1.00  0.00     0.031 A 
ATOM     42  C   UNL A   1      40.495  27.020  28.163  1.00  0.00     0.074 A 
ATOM     43  C   UNL A   1      41.026  29.328  28.788  1.00  0.00     0.049 A 
ATOM     44  N   UNL A   1      41.597  26.465  28.543  1.00  0.00    -0.248 NA
ATOM     45  C   UNL A   1      39.642  26.132  27.385  1.00  0.00     0.031 C 
ATOM     46  C   UNL A   1      42.472  29.211  28.617  1.00  0.00     0.029 A 
ATOM     47  N   UNL A   1      40.857  30.524  29.506  1.00  0.00    -0.354 N 
ATOM     48  C   UNL A   1      41.729  25.281  27.853  1.00  0.00     0.074 A 
ATOM     49  C   UNL A   1      40.457  25.092  27.196  1.00  0.00     0.031 C 
ATOM     50  C   UNL A   1      43.076  30.074  29.451  1.00  0.00     0.029 A 
ATOM     51  C   UNL A   1      42.039  30.674  30.269  1.00  0.00     0.049 A 
ATOM     52  H   UNL A   1      40.081  31.130  29.483  1.00  0.00     0.167 HD
ATOM     53  C   UNL A   1      42.950  24.670  27.814  1.00  0.00     0.037 A 
ATOM     54  C   UNL A   1      42.014  30.677  31.633  1.00  0.00     0.037 A 
ATOM     55  C   UNL A   1      43.905  25.343  28.693  1.00  0.00     0.049 A 
ATOM     56  C   UNL A   1      42.862  29.601  32.264  1.00  0.00     0.074 A 
ATOM     57  C   UNL A   1      44.911  26.268  28.462  1.00  0.00     0.029 A 
ATOM     58  N   UNL A   1      43.689  25.340  30.068  1.00  0.00    -0.354 N 
ATOM     59  N   UNL A   1      43.281  28.542  31.631  1.00  0.00    -0.248 NA
ATOM     60  C   UNL A   1      43.256  29.608  33.671  1.00  0.00     0.031 C 
ATOM     61  C   UNL A   1      45.262  26.859  29.700  1.00  0.00     0.029 A 
ATOM     62  C   UNL A   1      44.482  26.285  30.689  1.00  0.00     0.049 A 
ATOM     63  H   UNL A   1      43.056  24.746  30.535  1.00  0.00     0.167 HD
ATOM     64  C   UNL A   1      43.940  27.719  32.508  1.00  0.00     0.074 A 
ATOM     65  C   UNL A   1      43.925  28.446  33.764  1.00  0.00     0.031 C 
ATOM     66  C   UNL A   1      44.417  26.497  32.127  1.00  0.00     0.037 A 
BRANCH  53  67
ATOM     67  C   UNL A   1      43.341  23.676  26.737  1.00  0.00     0.064 A 
ATOM     68  C   UNL A   1      42.945  22.322  26.823  1.00  0.00     0.173 A 
ATOM     69  C   UNL A   1      44.178  23.967  25.645  1.00  0.00     0.173 A 
ATOM     70  F   UNL A   1      42.044  21.910  27.722  1.00  0.00    -0.203 F 
ATOM     71  C   UNL A   1      43.462  21.331  25.982  1.00  0.00     0.198 A 
ATOM     72  C   UNL A   1      44.746  22.971  24.843  1.00  0.00     0.198 A 
ATOM     73  F   UNL A   1      44.423  25.230  25.276  1.00  0.00    -0.203 F 
ATOM     74  F   UNL A   1      43.058  20.061  26.124  1.00  0.00    -0.200 F 
ATOM     75  C   UNL A   1      44.400  21.648  25.023  1.00  0.00     0.200 A 
ATOM     76  F   UNL A   1      45.630  23.306  23.892  1.00  0.00    -0.200 F 
ATOM     77  F   UNL A   1      44.940  20.692  24.255  1.00  0.00    -0.200 F 
ENDBRANCH  53  67
BRANCH  54  78
ATOM     78  C   UNL A   1      40.742  31.200  32.197  1.00  0.00     0.064 A 
ATOM     79  C   UNL A   1      39.766  30.267  32.598  1.00  0.00     0.173 A 
ATOM     80  C   UNL A   1      40.624  32.507  32.681  1.00  0.00     0.173 A 
ATOM     81  F   UNL A   1      39.828  29.000  32.159  1.00  0.00    -0.203 F 
ATOM     82  C   UNL A   1      38.809  30.593  33.553  1.00  0.00     0.198 A 
ATOM     83  C   UNL A   1      39.634  32.839  33.609  1.00  0.00     0.198 A 
ATOM     84  F   UNL A   1      41.533  33.436  32.354  1.00  0.00    -0.203 F 
ATOM     85  F   UNL A   1      38.009  29.637  34.035  1.00  0.00    -0.200 F 
ATOM     86  C   UNL A   1      38.753  31.872  34.072  1.00  0.00     0.200 A 
ATOM     87  F   UNL A   1      39.602  34.069  34.138  1.00  0.00    -0.200 F 
ATOM     88  F   UNL A   1      37.885  32.162  35.051  1.00  0.00    -0.200 F 
ENDBRANCH  54  78
BRANCH  66  89
ATOM     89  C   UNL A   1      44.946  25.429  33.052  1.00  0.00     0.064 A 
ATOM     90  C   UNL A   1      46.300  25.065  33.140  1.00  0.00     0.173 A 
ATOM     91  C   UNL A   1      44.091  24.819  34.001  1.00  0.00     0.173 A 
ATOM     92  F   UNL A   1      47.233  25.663  32.387  1.00  0.00    -0.203 F 
ATOM     93  C   UNL A   1      46.753  24.110  34.054  1.00  0.00     0.198 A 
ATOM     94  C   UNL A   1      44.556  23.911  34.953  1.00  0.00     0.198 A 
ATOM     95  F   UNL A   1      42.782  25.106  34.051  1.00  0.00    -0.203 F 
ATOM     96  F   UNL A   1      48.048  23.763  34.064  1.00  0.00    -0.200 F 
ATOM     97  C   UNL A   1      45.884  23.542  34.967  1.00  0.00     0.200 A 
ATOM     98  F   UNL A   1      43.711  23.413  35.867  1.00  0.00    -0.200 F 
ATOM     99  F   UNL A   1      46.331  22.659  35.871  1.00  0.00    -0.200 F 
ENDBRANCH  66  89
ENDBRANCH  40  41
ENDBRANCH  32  35
ENDBRANCH  30  31
ENDBRANCH  29  30
ENDBRANCH   1  29
TORSDOF 15
ENDMDL
MODEL 2
REMARK VINA RESULT:     -13.4      1.459      2.283
REMARK SMILES COc1cc(C)c(S(=O)(=O)Nc2cc(C(=O)NCCCNC(=O)c3ccc(-c4c5nc(c(-c6c(F)c(F)c(F)c(F)c6F)c6ccc([nH]6)c(-c6c(F)c(F)c(F)c(F)c6F)c6nc(c(-c7c(F)c(F)c(F)c(F)c7F)c7ccc4[nH]7)C=C6)C=C5)cc3)ccc2F)cc1OC
REMARK SMILES IDX 18 1 17 2 15 3 16 4 14 6 12 7 13 8 89 9 88 10 90 11 87 12
REMARK SMILES IDX 11 13 8 15 9 16 10 17 7 18 3 19 4 20 92 21 5 22 91 23 6 24
REMARK SMILES IDX 2 25 1 26 93 27 94 28 19 29 20 30 21 31 22 32 23 34 24 35
REMARK SMILES IDX 25 36 86 37 26 38 85 39 27 40 28 41 29 42 79 43 30 44 84 45
REMARK SMILES IDX 78 46 80 47 31 48 83 49 77 50 76 51 32 53 64 54 44 55 63 56
REMARK SMILES IDX 45 57 48 58 62 59 81 60 46 61 47 62 61 64 82 65 49 66 33 67
REMARK SMILES IDX 34 68 42 69 35 70 36 71 40 72 43 73 37 74 38 75 41 76 39 77
REMARK SMILES IDX 65 78 66 79 74 80 67 81 68 82 72 83 75 84 69 85 70 86 73 87
REMARK SMILES IDX 71 88 50 89 51 90 59 91 52 92 53 93 57 94 60 95 54 96 55 97
REMARK SMILES IDX 58 98 56 99
REMARK H PARENT 17 5 11 14 21 33 80 52 48 63
REMARK Flexibility Score: inf
ROOT
ATOM      1  C   UNL A   1      32.636  29.908  25.326  1.00  0.00     0.118 C 
ENDROOT
BRANCH   1   2
ATOM      2  N   UNL A   1      31.361  30.036  24.637  1.00  0.00    -0.352 N 
ATOM      3  C   UNL A   1      30.595  29.157  23.908  1.00  0.00     0.251 C 
ATOM      4  O   UNL A   1      29.512  29.575  23.496  1.00  0.00    -0.269 OA
ATOM      5  H   UNL A   1      30.965  30.935  24.708  1.00  0.00     0.163 HD
BRANCH   3   6
ATOM      6  C   UNL A   1      30.956  27.727  23.638  1.00  0.00     0.042 A 
ATOM      7  C   UNL A   1      30.855  25.347  24.103  1.00  0.00     0.085 A 
ATOM      8  C   UNL A   1      30.723  26.668  24.519  1.00  0.00     0.043 A 
ATOM      9  C   UNL A   1      31.454  25.081  22.870  1.00  0.00     0.147 A 
ATOM     10  C   UNL A   1      31.792  26.112  22.006  1.00  0.00     0.042 A 
ATOM     11  F   UNL A   1      31.606  23.810  22.466  1.00  0.00    -0.205 F 
ATOM     12  C   UNL A   1      31.507  27.429  22.377  1.00  0.00     0.017 A 
BRANCH   7  13
ATOM     13  N   UNL A   1      30.281  24.250  24.810  1.00  0.00    -0.277 N 
ATOM     14  H   UNL A   1      29.387  23.956  24.520  1.00  0.00     0.180 HD
BRANCH  13  15
ATOM     15  S   UNL A   1      30.969  23.413  26.081  1.00  0.00     0.262 S 
ATOM     16  O   UNL A   1      30.277  22.144  26.166  1.00  0.00    -0.201 OA
ATOM     17  O   UNL A   1      30.976  24.332  27.199  1.00  0.00    -0.201 OA
BRANCH  15  18
ATOM     18  C   UNL A   1      32.689  23.023  25.739  1.00  0.00     0.094 A 
ATOM     19  C   UNL A   1      35.197  22.115  24.776  1.00  0.00     0.161 A 
ATOM     20  C   UNL A   1      34.976  23.462  25.080  1.00  0.00     0.055 A 
ATOM     21  C   UNL A   1      34.184  21.196  25.063  1.00  0.00     0.162 A 
ATOM     22  C   UNL A   1      33.756  23.926  25.633  1.00  0.00    -0.027 A 
ATOM     23  C   UNL A   1      32.930  21.658  25.483  1.00  0.00     0.073 A 
ATOM     24  C   UNL A   1      33.747  25.363  26.056  1.00  0.00     0.046 C 
BRANCH  19  25
ATOM     25  O   UNL A   1      36.337  21.640  24.186  1.00  0.00    -0.493 OA
ATOM     26  C   UNL A   1      37.411  21.231  25.020  1.00  0.00     0.278 C 
ENDBRANCH  19  25
BRANCH  21  27
ATOM     27  O   UNL A   1      34.265  19.834  24.926  1.00  0.00    -0.493 OA
ATOM     28  C   UNL A   1      33.098  19.104  25.304  1.00  0.00     0.278 C 
ENDBRANCH  21  27
ENDBRANCH  15  18
ENDBRANCH  13  15
ENDBRANCH   7  13
ENDBRANCH   3   6
ENDBRANCH   1   2
BRANCH   1  29
ATOM     29  C   UNL A   1      32.531  30.283  26.805  1.00  0.00     0.042 C 
BRANCH  29  30
ATOM     30  C   UNL A   1      33.760  29.918  27.616  1.00  0.00     0.118 C 
BRANCH  30  31
ATOM     31  N   UNL A   1      34.341  31.058  28.332  1.00  0.00    -0.352 N 
ATOM     32  C   UNL A   1      35.623  31.174  28.836  1.00  0.00     0.251 C 
ATOM     33  H   UNL A   1      33.748  31.832  28.469  1.00  0.00     0.163 HD
ATOM     34  O   UNL A   1      36.031  32.209  29.352  1.00  0.00    -0.269 OA
BRANCH  32  35
ATOM     35  C   UNL A   1      36.531  30.031  28.627  1.00  0.00     0.039 A 
ATOM     36  C   UNL A   1      36.874  29.268  29.745  1.00  0.00     0.014 A 
ATOM     37  C   UNL A   1      37.290  29.995  27.460  1.00  0.00     0.014 A 
ATOM     38  C   UNL A   1      38.130  28.675  29.785  1.00  0.00     0.010 A 
ATOM     39  C   UNL A   1      38.576  29.504  27.544  1.00  0.00     0.010 A 
ATOM     40  C   UNL A   1      39.018  28.910  28.735  1.00  0.00    -0.014 A 
BRANCH  40  41
ATOM     41  C   UNL A   1      40.451  28.663  28.853  1.00  0.00     0.031 A 
ATOM     42  C   UNL A   1      41.017  27.390  28.370  1.00  0.00     0.074 A 
ATOM     43  C   UNL A   1      41.262  29.610  29.377  1.00  0.00     0.049 A 
ATOM     44  N   UNL A   1      42.108  26.862  28.811  1.00  0.00    -0.248 NA
ATOM     45  C   UNL A   1      40.346  26.573  27.368  1.00  0.00     0.031 C 
ATOM     46  C   UNL A   1      42.723  29.620  29.385  1.00  0.00     0.029 A 
ATOM     47  N   UNL A   1      40.903  30.670  30.227  1.00  0.00    -0.354 N 
ATOM     48  C   UNL A   1      42.427  25.808  27.986  1.00  0.00     0.074 A 
ATOM     49  C   UNL A   1      41.266  25.632  27.146  1.00  0.00     0.031 C 
ATOM     50  C   UNL A   1      43.143  30.387  30.405  1.00  0.00     0.029 A 
ATOM     51  C   UNL A   1      41.965  30.784  31.154  1.00  0.00     0.049 A 
ATOM     52  H   UNL A   1      40.085  31.217  30.186  1.00  0.00     0.167 HD
ATOM     53  C   UNL A   1      43.693  25.296  28.024  1.00  0.00     0.037 A 
ATOM     54  C   UNL A   1      41.774  30.580  32.488  1.00  0.00     0.037 A 
ATOM     55  C   UNL A   1      44.471  25.892  29.108  1.00  0.00     0.049 A 
ATOM     56  C   UNL A   1      42.630  29.483  33.070  1.00  0.00     0.074 A 
ATOM     57  C   UNL A   1      45.413  26.909  29.146  1.00  0.00     0.029 A 
ATOM     58  N   UNL A   1      44.090  25.668  30.428  1.00  0.00    -0.354 N 
ATOM     59  N   UNL A   1      43.215  28.563  32.357  1.00  0.00    -0.248 NA
ATOM     60  C   UNL A   1      42.848  29.306  34.504  1.00  0.00     0.031 C 
ATOM     61  C   UNL A   1      45.557  27.331  30.490  1.00  0.00     0.029 A 
ATOM     62  C   UNL A   1      44.716  26.562  31.276  1.00  0.00     0.049 A 
ATOM     63  H   UNL A   1      43.459  24.968  30.719  1.00  0.00     0.167 HD
ATOM     64  C   UNL A   1      43.832  27.665  33.190  1.00  0.00     0.074 A 
ATOM     65  C   UNL A   1      43.600  28.192  34.521  1.00  0.00     0.031 C 
ATOM     66  C   UNL A   1      44.457  26.550  32.708  1.00  0.00     0.037 A 
BRANCH  53  67
ATOM     67  C   UNL A   1      44.298  24.504  26.881  1.00  0.00     0.064 A 
ATOM     68  C   UNL A   1      43.974  23.141  26.692  1.00  0.00     0.173 A 
ATOM     69  C   UNL A   1      45.269  24.997  25.991  1.00  0.00     0.173 A 
ATOM     70  F   UNL A   1      42.976  22.557  27.365  1.00  0.00    -0.203 F 
ATOM     71  C   UNL A   1      44.669  22.318  25.799  1.00  0.00     0.198 A 
ATOM     72  C   UNL A   1      46.008  24.165  25.143  1.00  0.00     0.198 A 
ATOM     73  F   UNL A   1      45.490  26.311  25.866  1.00  0.00    -0.203 F 
ATOM     74  F   UNL A   1      44.325  21.029  25.677  1.00  0.00    -0.200 F 
ATOM     75  C   UNL A   1      45.719  22.819  25.059  1.00  0.00     0.200 A 
ATOM     76  F   UNL A   1      47.002  24.681  24.406  1.00  0.00    -0.200 F 
ATOM     77  F   UNL A   1      46.422  22.021  24.246  1.00  0.00    -0.200 F 
ENDBRANCH  53  67
BRANCH  54  78
ATOM     78  C   UNL A   1      40.402  30.923  32.946  1.00  0.00     0.064 A 
ATOM     79  C   UNL A   1      40.021  32.278  32.929  1.00  0.00     0.173 A 
ATOM     80  C   UNL A   1      39.385  29.967  33.030  1.00  0.00     0.173 A 
ATOM     81  F   UNL A   1      40.957  33.238  32.855  1.00  0.00    -0.203 F 
ATOM     82  C   UNL A   1      38.683  32.648  32.849  1.00  0.00     0.198 A 
ATOM     83  C   UNL A   1      38.041  30.347  32.992  1.00  0.00     0.198 A 
ATOM     84  F   UNL A   1      39.681  28.659  33.028  1.00  0.00    -0.203 F 
ATOM     85  F   UNL A   1      38.365  33.933  32.662  1.00  0.00    -0.200 F 
ATOM     86  C   UNL A   1      37.694  31.684  32.863  1.00  0.00     0.200 A 
ATOM     87  F   UNL A   1      37.084  29.410  32.970  1.00  0.00    -0.200 F 
ATOM     88  F   UNL A   1      36.410  32.036  32.704  1.00  0.00    -0.200 F 
ENDBRANCH  54  78
BRANCH  66  89
ATOM     89  C   UNL A   1      44.961  25.394  33.536  1.00  0.00     0.064 A 
ATOM     90  C   UNL A   1      44.127  24.472  34.189  1.00  0.00     0.173 A 
ATOM     91  C   UNL A   1      46.345  25.099  33.582  1.00  0.00     0.173 A 
ATOM     92  F   UNL A   1      42.793  24.563  34.113  1.00  0.00    -0.203 F 
ATOM     93  C   UNL A   1      44.638  23.381  34.897  1.00  0.00     0.198 A 
ATOM     94  C   UNL A   1      46.849  23.976  34.238  1.00  0.00     0.198 A 
ATOM     95  F   UNL A   1      47.248  25.878  32.969  1.00  0.00    -0.203 F 
ATOM     96  F   UNL A   1      43.801  22.558  35.544  1.00  0.00    -0.200 F 
ATOM     97  C   UNL A   1      45.997  23.127  34.913  1.00  0.00     0.200 A 
ATOM     98  F   UNL A   1      48.164  23.713  34.196  1.00  0.00    -0.200 F 
ATOM     99  F   UNL A   1      46.480  22.055  35.556  1.00  0.00    -0.200 F 
ENDBRANCH  66  89
ENDBRANCH  40  41
ENDBRANCH  32  35
ENDBRANCH  30  31
ENDBRANCH  29  30
ENDBRANCH   1  29
TORSDOF 15
ENDMDL
MODEL 3
REMARK VINA RESULT:     -13.3      3.585      9.703
REMARK SMILES COc1cc(C)c(S(=O)(=O)Nc2cc(C(=O)NCCCNC(=O)c3ccc(-c4c5nc(c(-c6c(F)c(F)c(F)c(F)c6F)c6ccc([nH]6)c(-c6c(F)c(F)c(F)c(F)c6F)c6nc(c(-c7c(F)c(F)c(F)c(F)c7F)c7ccc4[nH]7)C=C6)C=C5)cc3)ccc2F)cc1OC
REMARK SMILES IDX 18 1 17 2 15 3 16 4 14 6 12 7 13 8 89 9 88 10 90 11 87 12
REMARK SMILES IDX 11 13 8 15 9 16 10 17 7 18 3 19 4 20 92 21 5 22 91 23 6 24
REMARK SMILES IDX 2 25 1 26 93 27 94 28 19 29 20 30 21 31 22 32 23 34 24 35
REMARK SMILES IDX 25 36 86 37 26 38 85 39 27 40 28 41 29 42 79 43 30 44 84 45
REMARK SMILES IDX 78 46 80 47 31 48 83 49 77 50 76 51 32 53 64 54 44 55 63 56
REMARK SMILES IDX 45 57 48 58 62 59 81 60 46 61 47 62 61 64 82 65 49 66 33 67
REMARK SMILES IDX 34 68 42 69 35 70 36 71 40 72 43 73 37 74 38 75 41 76 39 77
REMARK SMILES IDX 65 78 66 79 74 80 67 81 68 82 72 83 75 84 69 85 70 86 73 87
REMARK SMILES IDX 71 88 50 89 51 90 59 91 52 92 53 93 57 94 60 95 54 96 55 97
REMARK SMILES IDX 58 98 56 99
REMARK H PARENT 17 5 11 14 21 33 80 52 48 63
REMARK Flexibility Score: inf
ROOT
ATOM      1  C   UNL A   1      36.869  21.575  25.211  1.00  0.00     0.118 C 
ENDROOT
BRANCH   1   2
ATOM      2  N   UNL A   1      35.944  21.601  26.334  1.00  0.00    -0.352 N 
ATOM      3  C   UNL A   1      34.571  21.569  26.420  1.00  0.00     0.251 C 
ATOM      4  O   UNL A   1      34.088  21.549  27.553  1.00  0.00    -0.269 OA
ATOM      5  H   UNL A   1      36.390  21.652  27.210  1.00  0.00     0.163 HD
BRANCH   3   6
ATOM      6  C   UNL A   1      33.641  21.496  25.247  1.00  0.00     0.042 A 
ATOM      7  C   UNL A   1      32.355  22.485  23.442  1.00  0.00     0.085 A 
ATOM      8  C   UNL A   1      33.000  22.594  24.669  1.00  0.00     0.043 A 
ATOM      9  C   UNL A   1      32.141  21.216  22.898  1.00  0.00     0.147 A 
ATOM     10  C   UNL A   1      32.680  20.086  23.497  1.00  0.00     0.042 A 
ATOM     11  F   UNL A   1      31.502  21.095  21.724  1.00  0.00    -0.205 F 
ATOM     12  C   UNL A   1      33.459  20.234  24.648  1.00  0.00     0.017 A 
BRANCH   7  13
ATOM     13  N   UNL A   1      32.023  23.613  22.636  1.00  0.00    -0.277 N 
ATOM     14  H   UNL A   1      31.128  23.616  22.225  1.00  0.00     0.180 HD
BRANCH  13  15
ATOM     15  S   UNL A   1      32.998  24.932  22.319  1.00  0.00     0.262 S 
ATOM     16  O   UNL A   1      32.596  25.444  21.025  1.00  0.00    -0.201 OA
ATOM     17  O   UNL A   1      34.354  24.483  22.551  1.00  0.00    -0.201 OA
BRANCH  15  18
ATOM     18  C   UNL A   1      32.697  26.254  23.497  1.00  0.00     0.094 A 
ATOM     19  C   UNL A   1      32.285  27.943  25.738  1.00  0.00     0.161 A 
ATOM     20  C   UNL A   1      33.166  28.295  24.710  1.00  0.00     0.055 A 
ATOM     21  C   UNL A   1      31.519  26.783  25.586  1.00  0.00     0.162 A 
ATOM     22  C   UNL A   1      33.331  27.503  23.547  1.00  0.00    -0.027 A 
ATOM     23  C   UNL A   1      31.769  25.926  24.507  1.00  0.00     0.073 A 
ATOM     24  C   UNL A   1      34.182  28.108  22.473  1.00  0.00     0.046 C 
BRANCH  19  25
ATOM     25  O   UNL A   1      32.143  28.649  26.901  1.00  0.00    -0.493 OA
ATOM     26  C   UNL A   1      31.913  30.047  26.821  1.00  0.00     0.278 C 
ENDBRANCH  19  25
BRANCH  21  27
ATOM     27  O   UNL A   1      30.539  26.344  26.439  1.00  0.00    -0.493 OA
ATOM     28  C   UNL A   1      30.202  24.961  26.333  1.00  0.00     0.278 C 
ENDBRANCH  21  27
ENDBRANCH  15  18
ENDBRANCH  13  15
ENDBRANCH   7  13
ENDBRANCH   3   6
ENDBRANCH   1   2
BRANCH   1  29
ATOM     29  C   UNL A   1      38.327  21.653  25.666  1.00  0.00     0.042 C 
BRANCH  29  30
ATOM     30  C   UNL A   1      38.811  23.067  25.923  1.00  0.00     0.118 C 
BRANCH  30  31
ATOM     31  N   UNL A   1      40.225  23.135  26.307  1.00  0.00    -0.352 N 
ATOM     32  C   UNL A   1      40.921  24.232  26.776  1.00  0.00     0.251 C 
ATOM     33  H   UNL A   1      40.738  22.299  26.221  1.00  0.00     0.163 HD
ATOM     34  O   UNL A   1      42.089  24.157  27.145  1.00  0.00    -0.269 OA
BRANCH  32  35
ATOM     35  C   UNL A   1      40.166  25.490  26.927  1.00  0.00     0.039 A 
ATOM     36  C   UNL A   1      40.711  26.641  26.355  1.00  0.00     0.014 A 
ATOM     37  C   UNL A   1      39.193  25.562  27.921  1.00  0.00     0.014 A 
ATOM     38  C   UNL A   1      40.474  27.865  26.969  1.00  0.00     0.010 A 
ATOM     39  C   UNL A   1      39.050  26.756  28.597  1.00  0.00     0.010 A 
ATOM     40  C   UNL A   1      39.751  27.889  28.162  1.00  0.00    -0.014 A 
BRANCH  40  41
ATOM     41  C   UNL A   1      39.774  29.033  29.067  1.00  0.00     0.031 A 
ATOM     42  C   UNL A   1      38.765  30.100  28.923  1.00  0.00     0.074 A 
ATOM     43  C   UNL A   1      40.698  29.103  30.051  1.00  0.00     0.049 A 
ATOM     44  N   UNL A   1      38.935  31.321  29.306  1.00  0.00    -0.248 NA
ATOM     45  C   UNL A   1      37.483  29.874  28.272  1.00  0.00     0.031 C 
ATOM     46  C   UNL A   1      40.744  30.054  31.159  1.00  0.00     0.029 A 
ATOM     47  N   UNL A   1      41.935  28.440  30.112  1.00  0.00    -0.354 N 
ATOM     48  C   UNL A   1      37.721  31.962  29.210  1.00  0.00     0.074 A 
ATOM     49  C   UNL A   1      36.868  31.036  28.502  1.00  0.00     0.031 C 
ATOM     50  C   UNL A   1      42.013  30.157  31.587  1.00  0.00     0.029 A 
ATOM     51  C   UNL A   1      42.833  29.372  30.683  1.00  0.00     0.049 A 
ATOM     52  H   UNL A   1      42.135  27.521  29.819  1.00  0.00     0.167 HD
ATOM     53  C   UNL A   1      37.545  33.149  29.862  1.00  0.00     0.037 A 
ATOM     54  C   UNL A   1      43.913  29.838  29.993  1.00  0.00     0.037 A 
ATOM     55  C   UNL A   1      38.800  33.623  30.443  1.00  0.00     0.049 A 
ATOM     56  C   UNL A   1      43.936  31.337  29.828  1.00  0.00     0.074 A 
ATOM     57  C   UNL A   1      39.329  33.564  31.723  1.00  0.00     0.029 A 
ATOM     58  N   UNL A   1      39.853  33.973  29.602  1.00  0.00    -0.354 N 
ATOM     59  N   UNL A   1      42.889  32.099  29.973  1.00  0.00    -0.248 NA
ATOM     60  C   UNL A   1      45.125  32.086  29.431  1.00  0.00     0.031 C 
ATOM     61  C   UNL A   1      40.718  33.831  31.640  1.00  0.00     0.029 A 
ATOM     62  C   UNL A   1      41.034  34.067  30.314  1.00  0.00     0.049 A 
ATOM     63  H   UNL A   1      39.769  34.132  28.634  1.00  0.00     0.167 HD
ATOM     64  C   UNL A   1      43.221  33.392  29.660  1.00  0.00     0.074 A 
ATOM     65  C   UNL A   1      44.639  33.337  29.358  1.00  0.00     0.031 C 
ATOM     66  C   UNL A   1      42.289  34.391  29.652  1.00  0.00     0.037 A 
BRANCH  53  67
ATOM     67  C   UNL A   1      36.178  33.692  30.235  1.00  0.00     0.064 A 
ATOM     68  C   UNL A   1      35.310  34.210  29.247  1.00  0.00     0.173 A 
ATOM     69  C   UNL A   1      35.699  33.816  31.551  1.00  0.00     0.173 A 
ATOM     70  F   UNL A   1      35.557  34.049  27.942  1.00  0.00    -0.203 F 
ATOM     71  C   UNL A   1      34.146  34.918  29.564  1.00  0.00     0.198 A 
ATOM     72  C   UNL A   1      34.570  34.577  31.874  1.00  0.00     0.198 A 
ATOM     73  F   UNL A   1      36.269  33.150  32.562  1.00  0.00    -0.203 F 
ATOM     74  F   UNL A   1      33.372  35.398  28.581  1.00  0.00    -0.200 F 
ATOM     75  C   UNL A   1      33.802  35.144  30.879  1.00  0.00     0.200 A 
ATOM     76  F   UNL A   1      34.233  34.755  33.160  1.00  0.00    -0.200 F 
ATOM     77  F   UNL A   1      32.718  35.871  31.185  1.00  0.00    -0.200 F 
ENDBRANCH  53  67
BRANCH  54  78
ATOM     78  C   UNL A   1      44.446  28.864  29.004  1.00  0.00     0.064 A 
ATOM     79  C   UNL A   1      45.076  27.705  29.495  1.00  0.00     0.173 A 
ATOM     80  C   UNL A   1      44.032  28.858  27.668  1.00  0.00     0.173 A 
ATOM     81  F   UNL A   1      45.499  27.658  30.769  1.00  0.00    -0.203 F 
ATOM     82  C   UNL A   1      45.153  26.548  28.728  1.00  0.00     0.198 A 
ATOM     83  C   UNL A   1      44.150  27.705  26.889  1.00  0.00     0.198 A 
ATOM     84  F   UNL A   1      43.406  29.923  27.147  1.00  0.00    -0.203 F 
ATOM     85  F   UNL A   1      45.603  25.419  29.283  1.00  0.00    -0.200 F 
ATOM     86  C   UNL A   1      44.675  26.541  27.432  1.00  0.00     0.200 A 
ATOM     87  F   UNL A   1      43.654  27.688  25.644  1.00  0.00    -0.200 F 
ATOM     88  F   UNL A   1      44.674  25.404  26.722  1.00  0.00    -0.200 F 
ENDBRANCH  54  78
BRANCH  66  89
ATOM     89  C   UNL A   1      42.493  35.784  29.108  1.00  0.00     0.064 A 
ATOM     90  C   UNL A   1      41.850  36.282  27.962  1.00  0.00     0.173 A 
ATOM     91  C   UNL A   1      43.265  36.726  29.829  1.00  0.00     0.173 A 
ATOM     92  F   UNL A   1      40.990  35.531  27.263  1.00  0.00    -0.203 F 
ATOM     93  C   UNL A   1      42.025  37.599  27.528  1.00  0.00     0.198 A 
ATOM     94  C   UNL A   1      43.389  38.056  29.427  1.00  0.00     0.198 A 
ATOM     95  F   UNL A   1      43.901  36.391  30.961  1.00  0.00    -0.203 F 
ATOM     96  F   UNL A   1      41.428  38.011  26.401  1.00  0.00    -0.200 F 
ATOM     97  C   UNL A   1      42.785  38.488  28.265  1.00  0.00     0.200 A 
ATOM     98  F   UNL A   1      44.083  38.919  30.184  1.00  0.00    -0.200 F 
ATOM     99  F   UNL A   1      42.914  39.762  27.870  1.00  0.00    -0.200 F 
ENDBRANCH  66  89
ENDBRANCH  40  41
ENDBRANCH  32  35
ENDBRANCH  30  31
ENDBRANCH  29  30
ENDBRANCH   1  29
TORSDOF 15
ENDMDL
