MODEL 1
REMARK VINA RESULT:     -11.5      0.000      0.000
REMARK SMILES CO[C@H]1C[C@H](C(=O)NCCCNC(=O)c2ccc(-c3c4nc(c(-c5c(F)c(F)c(F)c(F)c5F)c5ccc([nH]5)c(-c5c(F)c(F)c(F)c(F)c5F)c5nc(c(-c6c(F)c(F)c(F)c(F)c6F)c6ccc3[nH]6)C=C5)C=C4)cc2)N(C(=O)CCSCC(N)=O)C1
REMARK SMILES IDX 6 1 7 2 8 3 5 5 3 6 4 7 88 8 78 9 2 10 1 11 79 12 80 13
REMARK SMILES IDX 81 14 82 15 83 16 84 17 85 18 86 19 87 20 9 23 10 24 11 25
REMARK SMILES IDX 12 26 13 27 14 29 15 30 16 31 77 32 17 33 76 34 18 35 19 36
REMARK SMILES IDX 20 37 70 38 21 39 75 40 69 41 71 42 22 43 74 44 68 45 67 46
REMARK SMILES IDX 23 48 55 49 35 50 54 51 36 52 39 53 53 54 72 55 37 56 38 57
REMARK SMILES IDX 52 59 73 60 40 61 24 62 25 63 33 64 26 65 27 66 31 67 34 68
REMARK SMILES IDX 28 69 29 70 32 71 30 72 56 73 57 74 65 75 58 76 59 77 63 78
REMARK SMILES IDX 66 79 60 80 61 81 64 82 62 83 41 84 42 85 50 86 43 87 44 88
REMARK SMILES IDX 48 89 51 90 45 91 46 92 49 93 47 94
REMARK H PARENT 8 4 86 21 86 22 12 28 71 47 39 58
REMARK Flexibility Score: inf
ROOT
ATOM      1  C   UNL A   1      31.742  28.240  27.048  1.00  0.00     0.242 C 
ATOM      2  O   UNL A   1      31.421  27.676  28.103  1.00  0.00    -0.273 OA
ATOM      3  N   UNL A   1      31.597  29.591  27.047  1.00  0.00    -0.354 N 
ATOM      4  H   UNL A   1      31.300  29.939  27.919  1.00  0.00     0.163 HD
ENDROOT
BRANCH   1   5
ATOM      5  C   UNL A   1      32.100  27.349  25.823  1.00  0.00     0.177 C 
ATOM      6  C   UNL A   1      32.225  25.028  26.377  1.00  0.00     0.139 C 
ATOM      7  C   UNL A   1      33.114  26.248  26.175  1.00  0.00     0.069 C 
ATOM      8  C   UNL A   1      31.138  25.196  25.316  1.00  0.00     0.152 C 
ATOM      9  N   UNL A   1      31.023  26.639  25.127  1.00  0.00    -0.328 N 
BRANCH   6  10
ATOM     10  O   UNL A   1      32.837  23.761  26.486  1.00  0.00    -0.380 OA
ATOM     11  C   UNL A   1      34.049  23.548  25.792  1.00  0.00     0.195 C 
ENDBRANCH   6  10
BRANCH   9  12
ATOM     12  C   UNL A   1      30.150  27.146  24.188  1.00  0.00     0.224 C 
ATOM     13  O   UNL A   1      29.044  26.628  24.011  1.00  0.00    -0.275 OA
BRANCH  12  14
ATOM     14  C   UNL A   1      30.554  28.372  23.386  1.00  0.00     0.111 C 
BRANCH  14  15
ATOM     15  C   UNL A   1      29.439  28.898  22.483  1.00  0.00     0.080 C 
BRANCH  15  16
ATOM     16  S   UNL A   1      28.767  30.528  22.981  1.00  0.00    -0.152 SA
BRANCH  16  17
ATOM     17  C   UNL A   1      27.995  30.993  21.419  1.00  0.00     0.169 C 
BRANCH  17  18
ATOM     18  C   UNL A   1      27.952  32.477  21.129  1.00  0.00     0.227 C 
ATOM     19  N   UNL A   1      27.639  32.753  19.820  1.00  0.00    -0.369 N 
ATOM     20  O   UNL A   1      28.072  33.386  21.939  1.00  0.00    -0.274 OA
ATOM     21  H   UNL A   1      27.544  32.018  19.173  1.00  0.00     0.159 HD
ATOM     22  H   UNL A   1      27.511  33.685  19.531  1.00  0.00     0.159 HD
ENDBRANCH  17  18
ENDBRANCH  16  17
ENDBRANCH  15  16
ENDBRANCH  14  15
ENDBRANCH  12  14
ENDBRANCH   9  12
ENDBRANCH   1   5
BRANCH   3  23
ATOM     23  C   UNL A   1      31.777  30.645  26.060  1.00  0.00     0.117 C 
BRANCH  23  24
ATOM     24  C   UNL A   1      31.468  32.033  26.620  1.00  0.00     0.042 C 
BRANCH  24  25
ATOM     25  C   UNL A   1      32.641  32.692  27.330  1.00  0.00     0.118 C 
BRANCH  25  26
ATOM     26  N   UNL A   1      32.397  34.100  27.626  1.00  0.00    -0.352 N 
ATOM     27  C   UNL A   1      32.974  34.906  28.582  1.00  0.00     0.251 C 
ATOM     28  H   UNL A   1      31.721  34.537  27.061  1.00  0.00     0.163 HD
ATOM     29  O   UNL A   1      32.507  36.020  28.811  1.00  0.00    -0.269 OA
BRANCH  27  30
ATOM     30  C   UNL A   1      34.141  34.424  29.359  1.00  0.00     0.039 A 
ATOM     31  C   UNL A   1      33.932  33.775  30.580  1.00  0.00     0.014 A 
ATOM     32  C   UNL A   1      35.440  34.606  28.882  1.00  0.00     0.014 A 
ATOM     33  C   UNL A   1      35.020  33.234  31.274  1.00  0.00     0.010 A 
ATOM     34  C   UNL A   1      36.509  33.986  29.521  1.00  0.00     0.010 A 
ATOM     35  C   UNL A   1      36.312  33.296  30.727  1.00  0.00    -0.014 A 
BRANCH  35  36
ATOM     36  C   UNL A   1      37.476  32.655  31.394  1.00  0.00     0.031 A 
ATOM     37  C   UNL A   1      38.174  31.494  30.738  1.00  0.00     0.074 A 
ATOM     38  C   UNL A   1      37.850  33.057  32.625  1.00  0.00     0.049 A 
ATOM     39  N   UNL A   1      39.139  30.738  31.196  1.00  0.00    -0.248 NA
ATOM     40  C   UNL A   1      37.698  31.108  29.399  1.00  0.00     0.031 C 
ATOM     41  C   UNL A   1      37.215  34.129  33.395  1.00  0.00     0.029 A 
ATOM     42  N   UNL A   1      38.847  32.601  33.453  1.00  0.00    -0.354 N 
ATOM     43  C   UNL A   1      39.365  29.779  30.219  1.00  0.00     0.074 A 
ATOM     44  C   UNL A   1      38.400  30.010  29.168  1.00  0.00     0.031 C 
ATOM     45  C   UNL A   1      37.852  34.265  34.568  1.00  0.00     0.029 A 
ATOM     46  C   UNL A   1      38.914  33.268  34.653  1.00  0.00     0.049 A 
ATOM     47  H   UNL A   1      39.454  31.867  33.210  1.00  0.00     0.167 HD
ATOM     48  C   UNL A   1      40.311  28.811  30.187  1.00  0.00     0.037 A 
ATOM     49  C   UNL A   1      39.738  33.089  35.704  1.00  0.00     0.037 A 
ATOM     50  C   UNL A   1      41.298  28.613  31.214  1.00  0.00     0.049 A 
ATOM     51  C   UNL A   1      40.787  32.012  35.640  1.00  0.00     0.074 A 
ATOM     52  C   UNL A   1      42.353  27.717  31.236  1.00  0.00     0.029 A 
ATOM     53  N   UNL A   1      41.351  29.326  32.403  1.00  0.00    -0.354 N 
ATOM     54  N   UNL A   1      41.044  31.166  34.674  1.00  0.00    -0.248 NA
ATOM     55  C   UNL A   1      41.663  31.869  36.812  1.00  0.00     0.031 C 
ATOM     56  C   UNL A   1      43.019  27.858  32.458  1.00  0.00     0.029 A 
ATOM     57  C   UNL A   1      42.406  28.873  33.177  1.00  0.00     0.049 A 
ATOM     58  H   UNL A   1      40.731  30.046  32.657  1.00  0.00     0.167 HD
ATOM     59  C   UNL A   1      42.121  30.405  35.108  1.00  0.00     0.074 A 
ATOM     60  C   UNL A   1      42.481  30.901  36.420  1.00  0.00     0.031 C 
ATOM     61  C   UNL A   1      42.752  29.384  34.479  1.00  0.00     0.037 A 
BRANCH  48  62
ATOM     62  C   UNL A   1      40.333  27.900  28.994  1.00  0.00     0.064 A 
ATOM     63  C   UNL A   1      41.089  28.202  27.850  1.00  0.00     0.173 A 
ATOM     64  C   UNL A   1      39.614  26.694  29.003  1.00  0.00     0.173 A 
ATOM     65  F   UNL A   1      41.785  29.348  27.785  1.00  0.00    -0.203 F 
ATOM     66  C   UNL A   1      41.098  27.350  26.749  1.00  0.00     0.198 A 
ATOM     67  C   UNL A   1      39.651  25.828  27.913  1.00  0.00     0.198 A 
ATOM     68  F   UNL A   1      38.882  26.351  30.073  1.00  0.00    -0.203 F 
ATOM     69  F   UNL A   1      41.785  27.688  25.649  1.00  0.00    -0.200 F 
ATOM     70  C   UNL A   1      40.385  26.161  26.784  1.00  0.00     0.200 A 
ATOM     71  F   UNL A   1      38.974  24.674  27.953  1.00  0.00    -0.200 F 
ATOM     72  F   UNL A   1      40.401  25.339  25.726  1.00  0.00    -0.200 F 
ENDBRANCH  48  62
BRANCH  49  73
ATOM     73  C   UNL A   1      39.619  33.967  36.899  1.00  0.00     0.064 A 
ATOM     74  C   UNL A   1      38.836  33.581  37.996  1.00  0.00     0.173 A 
ATOM     75  C   UNL A   1      40.277  35.203  36.970  1.00  0.00     0.173 A 
ATOM     76  F   UNL A   1      38.170  32.417  37.967  1.00  0.00    -0.203 F 
ATOM     77  C   UNL A   1      38.702  34.405  39.112  1.00  0.00     0.198 A 
ATOM     78  C   UNL A   1      40.165  36.014  38.097  1.00  0.00     0.198 A 
ATOM     79  F   UNL A   1      41.040  35.618  35.948  1.00  0.00    -0.203 F 
ATOM     80  F   UNL A   1      37.914  34.030  40.129  1.00  0.00    -0.200 F 
ATOM     81  C   UNL A   1      39.372  35.619  39.165  1.00  0.00     0.200 A 
ATOM     82  F   UNL A   1      40.823  37.181  38.150  1.00  0.00    -0.200 F 
ATOM     83  F   UNL A   1      39.246  36.409  40.239  1.00  0.00    -0.200 F 
ENDBRANCH  49  73
BRANCH  61  84
ATOM     84  C   UNL A   1      43.911  28.748  35.186  1.00  0.00     0.064 A 
ATOM     85  C   UNL A   1      45.216  29.244  35.044  1.00  0.00     0.173 A 
ATOM     86  C   UNL A   1      43.706  27.673  36.064  1.00  0.00     0.173 A 
ATOM     87  F   UNL A   1      45.463  30.262  34.205  1.00  0.00    -0.203 F 
ATOM     88  C   UNL A   1      46.276  28.676  35.745  1.00  0.00     0.198 A 
ATOM     89  C   UNL A   1      44.765  27.126  36.784  1.00  0.00     0.198 A 
ATOM     90  F   UNL A   1      42.476  27.167  36.238  1.00  0.00    -0.203 F 
ATOM     91  F   UNL A   1      47.520  29.142  35.568  1.00  0.00    -0.200 F 
ATOM     92  C   UNL A   1      46.048  27.625  36.621  1.00  0.00     0.200 A 
ATOM     93  F   UNL A   1      44.541  26.119  37.640  1.00  0.00    -0.200 F 
ATOM     94  F   UNL A   1      47.068  27.089  37.305  1.00  0.00    -0.200 F 
ENDBRANCH  61  84
ENDBRANCH  35  36
ENDBRANCH  27  30
ENDBRANCH  25  26
ENDBRANCH  24  25
ENDBRANCH  23  24
ENDBRANCH   3  23
TORSDOF 17
ENDMDL
MODEL 2
REMARK VINA RESULT:     -11.4      6.579     11.978
REMARK SMILES CO[C@H]1C[C@H](C(=O)NCCCNC(=O)c2ccc(-c3c4nc(c(-c5c(F)c(F)c(F)c(F)c5F)c5ccc([nH]5)c(-c5c(F)c(F)c(F)c(F)c5F)c5nc(c(-c6c(F)c(F)c(F)c(F)c6F)c6ccc3[nH]6)C=C5)C=C4)cc2)N(C(=O)CCSCC(N)=O)C1
REMARK SMILES IDX 6 1 7 2 8 3 5 5 3 6 4 7 88 8 78 9 2 10 1 11 79 12 80 13
REMARK SMILES IDX 81 14 82 15 83 16 84 17 85 18 86 19 87 20 9 23 10 24 11 25
REMARK SMILES IDX 12 26 13 27 14 29 15 30 16 31 77 32 17 33 76 34 18 35 19 36
REMARK SMILES IDX 20 37 70 38 21 39 75 40 69 41 71 42 22 43 74 44 68 45 67 46
REMARK SMILES IDX 23 48 55 49 35 50 54 51 36 52 39 53 53 54 72 55 37 56 38 57
REMARK SMILES IDX 52 59 73 60 40 61 24 62 25 63 33 64 26 65 27 66 31 67 34 68
REMARK SMILES IDX 28 69 29 70 32 71 30 72 56 73 57 74 65 75 58 76 59 77 63 78
REMARK SMILES IDX 66 79 60 80 61 81 64 82 62 83 41 84 42 85 50 86 43 87 44 88
REMARK SMILES IDX 48 89 51 90 45 91 46 92 49 93 47 94
REMARK H PARENT 8 4 86 21 86 22 12 28 71 47 39 58
REMARK Flexibility Score: inf
ROOT
ATOM      1  C   UNL A   1      36.653  23.144  25.805  1.00  0.00     0.242 C 
ATOM      2  O   UNL A   1      37.308  24.060  26.321  1.00  0.00    -0.273 OA
ATOM      3  N   UNL A   1      37.386  22.101  25.336  1.00  0.00    -0.354 N 
ATOM      4  H   UNL A   1      38.348  22.203  25.524  1.00  0.00     0.163 HD
ENDROOT
BRANCH   1   5
ATOM      5  C   UNL A   1      35.125  23.363  25.603  1.00  0.00     0.177 C 
ATOM      6  C   UNL A   1      34.575  24.027  23.375  1.00  0.00     0.139 C 
ATOM      7  C   UNL A   1      34.818  24.611  24.760  1.00  0.00     0.069 C 
ATOM      8  C   UNL A   1      33.851  22.712  23.661  1.00  0.00     0.152 C 
ATOM      9  N   UNL A   1      34.335  22.299  24.975  1.00  0.00    -0.328 N 
BRANCH   6  10
ATOM     10  O   UNL A   1      34.031  24.865  22.378  1.00  0.00    -0.380 OA
ATOM     11  C   UNL A   1      33.406  26.063  22.787  1.00  0.00     0.195 C 
ENDBRANCH   6  10
BRANCH   9  12
ATOM     12  C   UNL A   1      33.841  21.157  25.568  1.00  0.00     0.224 C 
ATOM     13  O   UNL A   1      33.797  21.053  26.797  1.00  0.00    -0.275 OA
BRANCH  12  14
ATOM     14  C   UNL A   1      33.326  20.030  24.689  1.00  0.00     0.111 C 
BRANCH  14  15
ATOM     15  C   UNL A   1      34.270  18.829  24.629  1.00  0.00     0.080 C 
BRANCH  15  16
ATOM     16  S   UNL A   1      33.515  17.306  23.949  1.00  0.00    -0.152 SA
BRANCH  16  17
ATOM     17  C   UNL A   1      32.797  16.654  25.470  1.00  0.00     0.169 C 
BRANCH  17  18
ATOM     18  C   UNL A   1      32.703  15.147  25.553  1.00  0.00     0.227 C 
ATOM     19  N   UNL A   1      31.416  14.706  25.748  1.00  0.00    -0.369 N 
ATOM     20  O   UNL A   1      33.609  14.344  25.377  1.00  0.00    -0.274 OA
ATOM     21  H   UNL A   1      30.691  15.356  25.890  1.00  0.00     0.159 HD
ATOM     22  H   UNL A   1      31.221  13.742  25.746  1.00  0.00     0.159 HD
ENDBRANCH  17  18
ENDBRANCH  16  17
ENDBRANCH  15  16
ENDBRANCH  14  15
ENDBRANCH  12  14
ENDBRANCH   9  12
ENDBRANCH   1   5
BRANCH   3  23
ATOM     23  C   UNL A   1      37.086  20.870  24.622  1.00  0.00     0.117 C 
BRANCH  23  24
ATOM     24  C   UNL A   1      38.065  19.744  24.954  1.00  0.00     0.042 C 
BRANCH  24  25
ATOM     25  C   UNL A   1      39.272  20.190  25.766  1.00  0.00     0.118 C 
BRANCH  25  26
ATOM     26  N   UNL A   1      40.257  19.126  25.935  1.00  0.00    -0.352 N 
ATOM     27  C   UNL A   1      41.615  19.216  26.138  1.00  0.00     0.251 C 
ATOM     28  H   UNL A   1      39.897  18.211  25.897  1.00  0.00     0.163 HD
ATOM     29  O   UNL A   1      42.316  18.208  26.068  1.00  0.00    -0.269 OA
BRANCH  27  30
ATOM     30  C   UNL A   1      42.244  20.530  26.411  1.00  0.00     0.039 A 
ATOM     31  C   UNL A   1      42.745  21.287  25.348  1.00  0.00     0.014 A 
ATOM     32  C   UNL A   1      42.334  21.021  27.716  1.00  0.00     0.014 A 
ATOM     33  C   UNL A   1      43.254  22.568  25.586  1.00  0.00     0.010 A 
ATOM     34  C   UNL A   1      42.749  22.329  27.939  1.00  0.00     0.010 A 
ATOM     35  C   UNL A   1      43.218  23.117  26.878  1.00  0.00    -0.014 A 
BRANCH  35  36
ATOM     36  C   UNL A   1      43.669  24.507  27.150  1.00  0.00     0.031 A 
ATOM     37  C   UNL A   1      42.686  25.533  27.648  1.00  0.00     0.074 A 
ATOM     38  C   UNL A   1      44.936  24.871  26.868  1.00  0.00     0.049 A 
ATOM     39  N   UNL A   1      42.855  26.815  27.851  1.00  0.00    -0.248 NA
ATOM     40  C   UNL A   1      41.319  25.060  27.921  1.00  0.00     0.031 C 
ATOM     41  C   UNL A   1      45.968  23.987  26.321  1.00  0.00     0.029 A 
ATOM     42  N   UNL A   1      45.569  26.084  26.987  1.00  0.00    -0.354 N 
ATOM     43  C   UNL A   1      41.616  27.301  28.248  1.00  0.00     0.074 A 
ATOM     44  C   UNL A   1      40.691  26.191  28.202  1.00  0.00     0.031 C 
ATOM     45  C   UNL A   1      47.109  24.679  26.178  1.00  0.00     0.029 A 
ATOM     46  C   UNL A   1      46.882  26.062  26.584  1.00  0.00     0.049 A 
ATOM     47  H   UNL A   1      45.123  26.892  27.329  1.00  0.00     0.167 HD
ATOM     48  C   UNL A   1      41.286  28.553  28.643  1.00  0.00     0.037 A 
ATOM     49  C   UNL A   1      47.798  27.050  26.541  1.00  0.00     0.037 A 
ATOM     50  C   UNL A   1      42.220  29.644  28.730  1.00  0.00     0.049 A 
ATOM     51  C   UNL A   1      47.408  28.431  26.994  1.00  0.00     0.074 A 
ATOM     52  C   UNL A   1      42.005  30.928  29.201  1.00  0.00     0.029 A 
ATOM     53  N   UNL A   1      43.548  29.576  28.337  1.00  0.00    -0.354 N 
ATOM     54  N   UNL A   1      46.255  28.858  27.446  1.00  0.00    -0.248 NA
ATOM     55  C   UNL A   1      48.449  29.467  26.934  1.00  0.00     0.031 C 
ATOM     56  C   UNL A   1      43.194  31.650  29.052  1.00  0.00     0.029 A 
ATOM     57  C   UNL A   1      44.160  30.803  28.531  1.00  0.00     0.049 A 
ATOM     58  H   UNL A   1      43.990  28.775  27.976  1.00  0.00     0.167 HD
ATOM     59  C   UNL A   1      46.435  30.202  27.745  1.00  0.00     0.074 A 
ATOM     60  C   UNL A   1      47.815  30.517  27.439  1.00  0.00     0.031 C 
ATOM     61  C   UNL A   1      45.537  31.096  28.226  1.00  0.00     0.037 A 
BRANCH  48  62
ATOM     62  C   UNL A   1      39.857  28.807  29.026  1.00  0.00     0.064 A 
ATOM     63  C   UNL A   1      39.406  28.635  30.344  1.00  0.00     0.173 A 
ATOM     64  C   UNL A   1      38.931  29.257  28.071  1.00  0.00     0.173 A 
ATOM     65  F   UNL A   1      40.248  28.196  31.293  1.00  0.00    -0.203 F 
ATOM     66  C   UNL A   1      38.077  28.871  30.686  1.00  0.00     0.198 A 
ATOM     67  C   UNL A   1      37.610  29.523  28.423  1.00  0.00     0.198 A 
ATOM     68  F   UNL A   1      39.310  29.446  26.799  1.00  0.00    -0.203 F 
ATOM     69  F   UNL A   1      37.660  28.648  31.940  1.00  0.00    -0.200 F 
ATOM     70  C   UNL A   1      37.182  29.321  29.727  1.00  0.00     0.200 A 
ATOM     71  F   UNL A   1      36.750  29.971  27.499  1.00  0.00    -0.200 F 
ATOM     72  F   UNL A   1      35.905  29.555  30.059  1.00  0.00    -0.200 F 
ENDBRANCH  48  62
BRANCH  49  73
ATOM     73  C   UNL A   1      49.180  26.763  26.073  1.00  0.00     0.064 A 
ATOM     74  C   UNL A   1      50.146  26.265  26.959  1.00  0.00     0.173 A 
ATOM     75  C   UNL A   1      49.565  26.978  24.742  1.00  0.00     0.173 A 
ATOM     76  F   UNL A   1      49.832  26.062  28.247  1.00  0.00    -0.203 F 
ATOM     77  C   UNL A   1      51.449  26.011  26.535  1.00  0.00     0.198 A 
ATOM     78  C   UNL A   1      50.860  26.698  24.313  1.00  0.00     0.198 A 
ATOM     79  F   UNL A   1      48.677  27.450  23.854  1.00  0.00    -0.203 F 
ATOM     80  F   UNL A   1      52.364  25.576  27.413  1.00  0.00    -0.200 F 
ATOM     81  C   UNL A   1      51.804  26.221  25.211  1.00  0.00     0.200 A 
ATOM     82  F   UNL A   1      51.196  26.891  23.030  1.00  0.00    -0.200 F 
ATOM     83  F   UNL A   1      53.055  25.973  24.804  1.00  0.00    -0.200 F 
ENDBRANCH  49  73
BRANCH  61  84
ATOM     84  C   UNL A   1      46.020  32.494  28.474  1.00  0.00     0.064 A 
ATOM     85  C   UNL A   1      45.917  33.488  27.489  1.00  0.00     0.173 A 
ATOM     86  C   UNL A   1      46.531  32.858  29.728  1.00  0.00     0.173 A 
ATOM     87  F   UNL A   1      45.447  33.183  26.270  1.00  0.00    -0.203 F 
ATOM     88  C   UNL A   1      46.322  34.794  27.748  1.00  0.00     0.198 A 
ATOM     89  C   UNL A   1      46.910  34.172  29.992  1.00  0.00     0.198 A 
ATOM     90  F   UNL A   1      46.644  31.945  30.704  1.00  0.00    -0.203 F 
ATOM     91  F   UNL A   1      46.248  35.720  26.783  1.00  0.00    -0.200 F 
ATOM     92  C   UNL A   1      46.809  35.136  29.001  1.00  0.00     0.200 A 
ATOM     93  F   UNL A   1      47.368  34.504  31.207  1.00  0.00    -0.200 F 
ATOM     94  F   UNL A   1      47.185  36.398  29.253  1.00  0.00    -0.200 F 
ENDBRANCH  61  84
ENDBRANCH  35  36
ENDBRANCH  27  30
ENDBRANCH  25  26
ENDBRANCH  24  25
ENDBRANCH  23  24
ENDBRANCH   3  23
TORSDOF 17
ENDMDL
MODEL 3
REMARK VINA RESULT:     -11.3      6.159     10.675
REMARK SMILES CO[C@H]1C[C@H](C(=O)NCCCNC(=O)c2ccc(-c3c4nc(c(-c5c(F)c(F)c(F)c(F)c5F)c5ccc([nH]5)c(-c5c(F)c(F)c(F)c(F)c5F)c5nc(c(-c6c(F)c(F)c(F)c(F)c6F)c6ccc3[nH]6)C=C5)C=C4)cc2)N(C(=O)CCSCC(N)=O)C1
REMARK SMILES IDX 6 1 7 2 8 3 5 5 3 6 4 7 88 8 78 9 2 10 1 11 79 12 80 13
REMARK SMILES IDX 81 14 82 15 83 16 84 17 85 18 86 19 87 20 9 23 10 24 11 25
REMARK SMILES IDX 12 26 13 27 14 29 15 30 16 31 77 32 17 33 76 34 18 35 19 36
REMARK SMILES IDX 20 37 70 38 21 39 75 40 69 41 71 42 22 43 74 44 68 45 67 46
REMARK SMILES IDX 23 48 55 49 35 50 54 51 36 52 39 53 53 54 72 55 37 56 38 57
REMARK SMILES IDX 52 59 73 60 40 61 24 62 25 63 33 64 26 65 27 66 31 67 34 68
REMARK SMILES IDX 28 69 29 70 32 71 30 72 56 73 57 74 65 75 58 76 59 77 63 78
REMARK SMILES IDX 66 79 60 80 61 81 64 82 62 83 41 84 42 85 50 86 43 87 44 88
REMARK SMILES IDX 48 89 51 90 45 91 46 92 49 93 47 94
REMARK H PARENT 8 4 86 21 86 22 12 28 71 47 39 58
REMARK Flexibility Score: inf
ROOT
ATOM      1  C   UNL A   1      35.948  22.704  23.738  1.00  0.00     0.242 C 
ATOM      2  O   UNL A   1      36.312  23.363  22.753  1.00  0.00    -0.273 OA
ATOM      3  N   UNL A   1      36.731  21.635  24.039  1.00  0.00    -0.354 N 
ATOM      4  H   UNL A   1      37.518  21.567  23.451  1.00  0.00     0.163 HD
ENDROOT
BRANCH   1   5
ATOM      5  C   UNL A   1      34.583  23.063  24.393  1.00  0.00     0.177 C 
ATOM      6  C   UNL A   1      33.799  25.231  23.761  1.00  0.00     0.139 C 
ATOM      7  C   UNL A   1      34.535  24.518  24.888  1.00  0.00     0.069 C 
ATOM      8  C   UNL A   1      32.756  24.208  23.310  1.00  0.00     0.152 C 
ATOM      9  N   UNL A   1      33.358  22.910  23.603  1.00  0.00    -0.328 N 
BRANCH   6  10
ATOM     10  O   UNL A   1      33.360  26.554  23.976  1.00  0.00    -0.380 OA
ATOM     11  C   UNL A   1      32.965  27.313  22.853  1.00  0.00     0.195 C 
ENDBRANCH   6  10
BRANCH   9  12
ATOM     12  C   UNL A   1      32.654  21.750  23.359  1.00  0.00     0.224 C 
ATOM     13  O   UNL A   1      32.207  21.509  22.234  1.00  0.00    -0.275 OA
BRANCH  12  14
ATOM     14  C   UNL A   1      32.453  20.753  24.488  1.00  0.00     0.111 C 
BRANCH  14  15
ATOM     15  C   UNL A   1      32.552  19.297  24.033  1.00  0.00     0.080 C 
BRANCH  15  16
ATOM     16  S   UNL A   1      32.798  18.095  25.393  1.00  0.00    -0.152 SA
BRANCH  16  17
ATOM     17  C   UNL A   1      32.941  16.592  24.405  1.00  0.00     0.169 C 
BRANCH  17  18
ATOM     18  C   UNL A   1      33.038  15.303  25.190  1.00  0.00     0.227 C 
ATOM     19  N   UNL A   1      31.813  14.850  25.618  1.00  0.00    -0.369 N 
ATOM     20  O   UNL A   1      34.043  14.631  25.377  1.00  0.00    -0.274 OA
ATOM     21  H   UNL A   1      31.008  15.394  25.465  1.00  0.00     0.159 HD
ATOM     22  H   UNL A   1      31.743  13.982  26.076  1.00  0.00     0.159 HD
ENDBRANCH  17  18
ENDBRANCH  16  17
ENDBRANCH  15  16
ENDBRANCH  14  15
ENDBRANCH  12  14
ENDBRANCH   9  12
ENDBRANCH   1   5
BRANCH   3  23
ATOM     23  C   UNL A   1      36.680  20.568  25.026  1.00  0.00     0.117 C 
BRANCH  23  24
ATOM     24  C   UNL A   1      37.914  19.666  24.981  1.00  0.00     0.042 C 
BRANCH  24  25
ATOM     25  C   UNL A   1      39.107  20.207  25.753  1.00  0.00     0.118 C 
BRANCH  25  26
ATOM     26  N   UNL A   1      40.154  19.207  25.936  1.00  0.00    -0.352 N 
ATOM     27  C   UNL A   1      41.505  19.382  26.137  1.00  0.00     0.251 C 
ATOM     28  H   UNL A   1      39.851  18.271  25.911  1.00  0.00     0.163 HD
ATOM     29  O   UNL A   1      42.266  18.418  26.081  1.00  0.00    -0.269 OA
BRANCH  27  30
ATOM     30  C   UNL A   1      42.053  20.736  26.393  1.00  0.00     0.039 A 
ATOM     31  C   UNL A   1      42.344  21.574  25.312  1.00  0.00     0.014 A 
ATOM     32  C   UNL A   1      42.273  21.182  27.697  1.00  0.00     0.014 A 
ATOM     33  C   UNL A   1      42.771  22.885  25.546  1.00  0.00     0.010 A 
ATOM     34  C   UNL A   1      42.604  22.513  27.930  1.00  0.00     0.010 A 
ATOM     35  C   UNL A   1      42.861  23.380  26.858  1.00  0.00    -0.014 A 
BRANCH  35  36
ATOM     36  C   UNL A   1      43.226  24.793  27.138  1.00  0.00     0.031 A 
ATOM     37  C   UNL A   1      44.628  25.274  26.876  1.00  0.00     0.074 A 
ATOM     38  C   UNL A   1      42.326  25.619  27.708  1.00  0.00     0.049 A 
ATOM     39  N   UNL A   1      45.171  26.435  27.143  1.00  0.00    -0.248 NA
ATOM     40  C   UNL A   1      45.555  24.308  26.264  1.00  0.00     0.031 C 
ATOM     41  C   UNL A   1      40.954  25.256  28.069  1.00  0.00     0.029 A 
ATOM     42  N   UNL A   1      42.434  26.932  28.097  1.00  0.00    -0.354 N 
ATOM     43  C   UNL A   1      46.500  26.328  26.758  1.00  0.00     0.074 A 
ATOM     44  C   UNL A   1      46.698  24.974  26.292  1.00  0.00     0.031 C 
ATOM     45  C   UNL A   1      40.342  26.325  28.602  1.00  0.00     0.029 A 
ATOM     46  C   UNL A   1      41.285  27.437  28.657  1.00  0.00     0.049 A 
ATOM     47  H   UNL A   1      43.257  27.460  27.986  1.00  0.00     0.167 HD
ATOM     48  C   UNL A   1      47.462  27.281  26.763  1.00  0.00     0.037 A 
ATOM     49  C   UNL A   1      41.026  28.659  29.162  1.00  0.00     0.037 A 
ATOM     50  C   UNL A   1      47.249  28.640  27.185  1.00  0.00     0.049 A 
ATOM     51  C   UNL A   1      42.109  29.703  29.148  1.00  0.00     0.074 A 
ATOM     52  C   UNL A   1      48.133  29.704  27.148  1.00  0.00     0.029 A 
ATOM     53  N   UNL A   1      46.063  29.121  27.722  1.00  0.00    -0.354 N 
ATOM     54  N   UNL A   1      43.337  29.614  28.703  1.00  0.00    -0.248 NA
ATOM     55  C   UNL A   1      41.767  31.021  29.705  1.00  0.00     0.031 C 
ATOM     56  C   UNL A   1      47.496  30.819  27.703  1.00  0.00     0.029 A 
ATOM     57  C   UNL A   1      46.201  30.461  28.043  1.00  0.00     0.049 A 
ATOM     58  H   UNL A   1      45.246  28.589  27.853  1.00  0.00     0.167 HD
ATOM     59  C   UNL A   1      43.909  30.863  28.904  1.00  0.00     0.074 A 
ATOM     60  C   UNL A   1      42.886  31.701  29.496  1.00  0.00     0.031 C 
ATOM     61  C   UNL A   1      45.169  31.279  28.626  1.00  0.00     0.037 A 
BRANCH  48  62
ATOM     62  C   UNL A   1      48.830  26.891  26.284  1.00  0.00     0.064 A 
ATOM     63  C   UNL A   1      49.798  26.376  27.160  1.00  0.00     0.173 A 
ATOM     64  C   UNL A   1      49.171  27.006  24.927  1.00  0.00     0.173 A 
ATOM     65  F   UNL A   1      49.527  26.256  28.469  1.00  0.00    -0.203 F 
ATOM     66  C   UNL A   1      51.064  26.021  26.704  1.00  0.00     0.198 A 
ATOM     67  C   UNL A   1      50.428  26.620  24.468  1.00  0.00     0.198 A 
ATOM     68  F   UNL A   1      48.282  27.485  24.045  1.00  0.00    -0.203 F 
ATOM     69  F   UNL A   1      51.988  25.581  27.570  1.00  0.00    -0.200 F 
ATOM     70  C   UNL A   1      51.376  26.137  25.358  1.00  0.00     0.200 A 
ATOM     71  F   UNL A   1      50.723  26.720  23.165  1.00  0.00    -0.200 F 
ATOM     72  F   UNL A   1      52.593  25.789  24.918  1.00  0.00    -0.200 F 
ENDBRANCH  48  62
BRANCH  49  73
ATOM     73  C   UNL A   1      39.675  28.968  29.702  1.00  0.00     0.064 A 
ATOM     74  C   UNL A   1      39.376  28.745  31.054  1.00  0.00     0.173 A 
ATOM     75  C   UNL A   1      38.659  29.488  28.887  1.00  0.00     0.173 A 
ATOM     76  F   UNL A   1      40.307  28.229  31.869  1.00  0.00    -0.203 F 
ATOM     77  C   UNL A   1      38.107  29.013  31.565  1.00  0.00     0.198 A 
ATOM     78  C   UNL A   1      37.400  29.781  29.405  1.00  0.00     0.198 A 
ATOM     79  F   UNL A   1      38.895  29.722  27.588  1.00  0.00    -0.203 F 
ATOM     80  F   UNL A   1      37.836  28.750  32.851  1.00  0.00    -0.200 F 
ATOM     81  C   UNL A   1      37.122  29.537  30.742  1.00  0.00     0.200 A 
ATOM     82  F   UNL A   1      36.453  30.299  28.609  1.00  0.00    -0.200 F 
ATOM     83  F   UNL A   1      35.904  29.798  31.235  1.00  0.00    -0.200 F 
ENDBRANCH  49  73
BRANCH  61  84
ATOM     84  C   UNL A   1      45.509  32.706  28.937  1.00  0.00     0.064 A 
ATOM     85  C   UNL A   1      46.076  33.071  30.166  1.00  0.00     0.173 A 
ATOM     86  C   UNL A   1      45.325  33.707  27.972  1.00  0.00     0.173 A 
ATOM     87  F   UNL A   1      46.258  32.151  31.126  1.00  0.00    -0.203 F 
ATOM     88  C   UNL A   1      46.433  34.392  30.424  1.00  0.00     0.198 A 
ATOM     89  C   UNL A   1      45.709  35.022  28.222  1.00  0.00     0.198 A 
ATOM     90  F   UNL A   1      44.791  33.407  26.779  1.00  0.00    -0.203 F 
ATOM     91  F   UNL A   1      46.941  34.726  31.618  1.00  0.00    -0.200 F 
ATOM     92  C   UNL A   1      46.258  35.363  29.449  1.00  0.00     0.200 A 
ATOM     93  F   UNL A   1      45.551  35.956  27.275  1.00  0.00    -0.200 F 
ATOM     94  F   UNL A   1      46.617  36.631  29.693  1.00  0.00    -0.200 F 
ENDBRANCH  61  84
ENDBRANCH  35  36
ENDBRANCH  27  30
ENDBRANCH  25  26
ENDBRANCH  24  25
ENDBRANCH  23  24
ENDBRANCH   3  23
TORSDOF 17
ENDMDL
