MODEL 1
REMARK VINA RESULT:     -13.4      0.000      0.000
REMARK SMILES C=C1C[C@@]23CC[C@H]4[C@@](C)(CCC[C@@]4(C)C(=O)NCCCNC(=O)c4ccc(-c5c6nc(c(-c7c(F)c(F)c(F)c(F)c7F)c7ccc([nH]7)c(-c7c(F)c(F)c(F)c(F)c7F)c7nc(c(-c8c(F)c(F)c(F)c(F)c8F)c8ccc5[nH]8)C=C7)C=C6)cc4)[C@H]2CC[C@]1(O)C3
REMARK SMILES IDX 19 1 18 2 17 3 15 4 16 5 13 7 1 8 2 9 3 10 90 11 4 12 89 13
REMARK SMILES IDX 92 14 5 15 87 16 88 17 6 18 8 19 7 20 9 21 10 22 11 23 12 24
REMARK SMILES IDX 14 25 91 26 20 28 21 29 22 30 23 32 24 33 25 34 86 35 26 36
REMARK SMILES IDX 85 37 27 38 28 39 29 40 79 41 30 42 84 43 78 44 80 45 31 46
REMARK SMILES IDX 83 47 77 48 76 49 32 51 64 52 44 53 63 54 45 55 48 56 62 57
REMARK SMILES IDX 81 58 46 59 47 60 61 62 82 63 49 64 33 65 34 66 42 67 35 68
REMARK SMILES IDX 36 69 40 70 43 71 37 72 38 73 41 74 39 75 65 76 66 77 74 78
REMARK SMILES IDX 67 79 68 80 72 81 75 82 69 83 70 84 73 85 71 86 50 87 51 88
REMARK SMILES IDX 59 89 52 90 53 91 57 92 60 93 54 94 55 95 58 96 56 97
REMARK H PARENT 17 6 91 27 21 31 80 50 48 61
REMARK Flexibility Score: inf
ROOT
ATOM      1  C   UNL A   1      36.267  23.958  26.031  1.00  0.00     0.042 C 
ENDROOT
BRANCH   1   2
ATOM      2  C   UNL A   1      35.097  23.024  26.253  1.00  0.00     0.117 C 
BRANCH   2   3
ATOM      3  N   UNL A   1      34.558  22.554  24.997  1.00  0.00    -0.356 N 
ATOM      4  C   UNL A   1      33.334  22.641  24.432  1.00  0.00     0.226 C 
ATOM      5  O   UNL A   1      33.256  22.149  23.301  1.00  0.00    -0.274 OA
ATOM      6  H   UNL A   1      35.215  22.077  24.441  1.00  0.00     0.163 HD
BRANCH   4   7
ATOM      7  C   UNL A   1      32.113  23.245  25.145  1.00  0.00     0.050 C 
ATOM      8  C   UNL A   1      31.783  31.283  26.634  1.00  0.00     0.011 C 
ATOM      9  C   UNL A   1      32.175  30.049  26.288  1.00  0.00    -0.045 C 
ATOM     10  C   UNL A   1      31.373  29.089  25.425  1.00  0.00     0.040 C 
ATOM     11  C   UNL A   1      33.301  29.272  26.920  1.00  0.00     0.086 C 
ATOM     12  C   UNL A   1      31.842  27.689  25.927  1.00  0.00    -0.020 C 
ATOM     13  C   UNL A   1      34.438  28.928  25.934  1.00  0.00     0.040 C 
ATOM     14  C   UNL A   1      32.505  28.038  27.283  1.00  0.00     0.047 C 
ATOM     15  C   UNL A   1      30.707  26.733  26.205  1.00  0.00     0.008 C 
ATOM     16  C   UNL A   1      32.967  27.030  25.056  1.00  0.00     0.002 C 
ATOM     17  C   UNL A   1      34.021  28.107  24.670  1.00  0.00     0.008 C 
ATOM     18  C   UNL A   1      31.328  25.372  26.584  1.00  0.00     0.006 C 
ATOM     19  C   UNL A   1      32.634  25.693  24.209  1.00  0.00    -0.025 C 
ATOM     20  C   UNL A   1      31.974  24.773  25.303  1.00  0.00     0.010 C 
ATOM     21  C   UNL A   1      33.987  25.386  23.511  1.00  0.00     0.012 C 
ATOM     22  C   UNL A   1      31.621  25.442  23.001  1.00  0.00     0.007 C 
ATOM     23  C   UNL A   1      30.818  24.011  22.988  1.00  0.00     0.002 C 
ATOM     24  C   UNL A   1      30.905  22.964  24.193  1.00  0.00     0.017 C 
ATOM     25  C   UNL A   1      32.016  22.530  26.511  1.00  0.00     0.022 C 
BRANCH  11  26
ATOM     26  O   UNL A   1      33.815  29.869  28.095  1.00  0.00    -0.386 OA
ATOM     27  H   UNL A   1      33.081  30.178  28.648  1.00  0.00     0.211 HD
ENDBRANCH  11  26
ENDBRANCH   4   7
ENDBRANCH   2   3
ENDBRANCH   1   2
BRANCH   1  28
ATOM     28  C   UNL A   1      37.269  23.435  25.005  1.00  0.00     0.118 C 
BRANCH  28  29
ATOM     29  N   UNL A   1      38.259  22.516  25.561  1.00  0.00    -0.352 N 
ATOM     30  C   UNL A   1      39.340  22.794  26.359  1.00  0.00     0.251 C 
ATOM     31  H   UNL A   1      38.134  21.567  25.331  1.00  0.00     0.163 HD
ATOM     32  O   UNL A   1      40.169  21.921  26.618  1.00  0.00    -0.269 OA
BRANCH  30  33
ATOM     33  C   UNL A   1      39.523  24.163  26.877  1.00  0.00     0.039 A 
ATOM     34  C   UNL A   1      39.162  24.442  28.196  1.00  0.00     0.014 A 
ATOM     35  C   UNL A   1      40.107  25.148  26.077  1.00  0.00     0.014 A 
ATOM     36  C   UNL A   1      39.466  25.691  28.736  1.00  0.00     0.010 A 
ATOM     37  C   UNL A   1      40.503  26.352  26.648  1.00  0.00     0.010 A 
ATOM     38  C   UNL A   1      40.185  26.637  27.982  1.00  0.00    -0.014 A 
BRANCH  38  39
ATOM     39  C   UNL A   1      40.621  27.918  28.592  1.00  0.00     0.031 A 
ATOM     40  C   UNL A   1      42.060  28.132  28.968  1.00  0.00     0.074 A 
ATOM     41  C   UNL A   1      39.705  28.873  28.844  1.00  0.00     0.049 A 
ATOM     42  N   UNL A   1      42.627  29.185  29.500  1.00  0.00    -0.248 NA
ATOM     43  C   UNL A   1      42.981  27.005  28.746  1.00  0.00     0.031 C 
ATOM     44  C   UNL A   1      38.267  28.755  28.590  1.00  0.00     0.029 A 
ATOM     45  N   UNL A   1      39.845  30.135  29.365  1.00  0.00    -0.354 N 
ATOM     46  C   UNL A   1      43.962  28.846  29.676  1.00  0.00     0.074 A 
ATOM     47  C   UNL A   1      44.108  27.468  29.263  1.00  0.00     0.031 C 
ATOM     48  C   UNL A   1      37.666  29.910  28.914  1.00  0.00     0.029 A 
ATOM     49  C   UNL A   1      38.665  30.835  29.434  1.00  0.00     0.049 A 
ATOM     50  H   UNL A   1      40.708  30.503  29.662  1.00  0.00     0.167 HD
ATOM     51  C   UNL A   1      44.981  29.623  30.116  1.00  0.00     0.037 A 
ATOM     52  C   UNL A   1      38.419  32.086  29.868  1.00  0.00     0.037 A 
ATOM     53  C   UNL A   1      44.831  30.999  30.515  1.00  0.00     0.049 A 
ATOM     54  C   UNL A   1      39.569  32.928  30.352  1.00  0.00     0.074 A 
ATOM     55  C   UNL A   1      45.807  31.892  30.920  1.00  0.00     0.029 A 
ATOM     56  N   UNL A   1      43.621  31.678  30.568  1.00  0.00    -0.354 N 
ATOM     57  N   UNL A   1      40.842  32.626  30.431  1.00  0.00    -0.248 NA
ATOM     58  C   UNL A   1      39.246  34.290  30.793  1.00  0.00     0.031 C 
ATOM     59  C   UNL A   1      45.182  33.093  31.274  1.00  0.00     0.029 A 
ATOM     60  C   UNL A   1      43.824  32.971  31.027  1.00  0.00     0.049 A 
ATOM     61  H   UNL A   1      42.748  31.298  30.317  1.00  0.00     0.167 HD
ATOM     62  C   UNL A   1      41.476  33.765  30.908  1.00  0.00     0.074 A 
ATOM     63  C   UNL A   1      40.448  34.773  31.070  1.00  0.00     0.031 C 
ATOM     64  C   UNL A   1      42.788  33.959  31.192  1.00  0.00     0.037 A 
BRANCH  51  65
ATOM     65  C   UNL A   1      46.349  29.004  30.184  1.00  0.00     0.064 A 
ATOM     66  C   UNL A   1      46.811  28.361  31.343  1.00  0.00     0.173 A 
ATOM     67  C   UNL A   1      47.196  29.023  29.065  1.00  0.00     0.173 A 
ATOM     68  F   UNL A   1      46.047  28.324  32.445  1.00  0.00    -0.203 F 
ATOM     69  C   UNL A   1      48.080  27.789  31.389  1.00  0.00     0.198 A 
ATOM     70  C   UNL A   1      48.451  28.420  29.104  1.00  0.00     0.198 A 
ATOM     71  F   UNL A   1      46.804  29.621  27.929  1.00  0.00    -0.203 F 
ATOM     72  F   UNL A   1      48.520  27.229  32.525  1.00  0.00    -0.200 F 
ATOM     73  C   UNL A   1      48.896  27.811  30.268  1.00  0.00     0.200 A 
ATOM     74  F   UNL A   1      49.231  28.429  28.015  1.00  0.00    -0.200 F 
ATOM     75  F   UNL A   1      50.112  27.252  30.311  1.00  0.00    -0.200 F 
ENDBRANCH  51  65
BRANCH  52  76
ATOM     76  C   UNL A   1      37.034  32.627  29.837  1.00  0.00     0.064 A 
ATOM     77  C   UNL A   1      36.546  33.300  28.707  1.00  0.00     0.173 A 
ATOM     78  C   UNL A   1      36.174  32.495  30.936  1.00  0.00     0.173 A 
ATOM     79  F   UNL A   1      37.336  33.469  27.635  1.00  0.00    -0.203 F 
ATOM     80  C   UNL A   1      35.262  33.842  28.688  1.00  0.00     0.198 A 
ATOM     81  C   UNL A   1      34.878  33.007  30.903  1.00  0.00     0.198 A 
ATOM     82  F   UNL A   1      36.587  31.854  32.039  1.00  0.00    -0.203 F 
ATOM     83  F   UNL A   1      34.842  34.526  27.616  1.00  0.00    -0.200 F 
ATOM     84  C   UNL A   1      34.428  33.689  29.784  1.00  0.00     0.200 A 
ATOM     85  F   UNL A   1      34.069  32.842  31.958  1.00  0.00    -0.200 F 
ATOM     86  F   UNL A   1      33.192  34.207  29.765  1.00  0.00    -0.200 F 
ENDBRANCH  52  76
BRANCH  64  87
ATOM     87  C   UNL A   1      43.183  35.324  31.684  1.00  0.00     0.064 A 
ATOM     88  C   UNL A   1      43.094  35.676  33.040  1.00  0.00     0.173 A 
ATOM     89  C   UNL A   1      43.658  36.293  30.787  1.00  0.00     0.173 A 
ATOM     90  F   UNL A   1      42.635  34.791  33.938  1.00  0.00    -0.203 F 
ATOM     91  C   UNL A   1      43.420  36.959  33.471  1.00  0.00     0.198 A 
ATOM     92  C   UNL A   1      44.020  37.563  31.227  1.00  0.00     0.198 A 
ATOM     93  F   UNL A   1      43.773  36.008  29.481  1.00  0.00    -0.203 F 
ATOM     94  F   UNL A   1      43.255  37.292  34.758  1.00  0.00    -0.200 F 
ATOM     95  C   UNL A   1      43.887  37.899  32.565  1.00  0.00     0.200 A 
ATOM     96  F   UNL A   1      44.488  38.465  30.353  1.00  0.00    -0.200 F 
ATOM     97  F   UNL A   1      44.196  39.135  32.981  1.00  0.00    -0.200 F 
ENDBRANCH  64  87
ENDBRANCH  38  39
ENDBRANCH  30  33
ENDBRANCH  28  29
ENDBRANCH   1  28
TORSDOF 11
ENDMDL
MODEL 2
REMARK VINA RESULT:     -13.3      0.086      1.110
REMARK SMILES C=C1C[C@@]23CC[C@H]4[C@@](C)(CCC[C@@]4(C)C(=O)NCCCNC(=O)c4ccc(-c5c6nc(c(-c7c(F)c(F)c(F)c(F)c7F)c7ccc([nH]7)c(-c7c(F)c(F)c(F)c(F)c7F)c7nc(c(-c8c(F)c(F)c(F)c(F)c8F)c8ccc5[nH]8)C=C7)C=C6)cc4)[C@H]2CC[C@]1(O)C3
REMARK SMILES IDX 19 1 18 2 17 3 15 4 16 5 13 7 1 8 2 9 3 10 90 11 4 12 89 13
REMARK SMILES IDX 92 14 5 15 87 16 88 17 6 18 8 19 7 20 9 21 10 22 11 23 12 24
REMARK SMILES IDX 14 25 91 26 20 28 21 29 22 30 23 32 24 33 25 34 86 35 26 36
REMARK SMILES IDX 85 37 27 38 28 39 29 40 79 41 30 42 84 43 78 44 80 45 31 46
REMARK SMILES IDX 83 47 77 48 76 49 32 51 64 52 44 53 63 54 45 55 48 56 62 57
REMARK SMILES IDX 81 58 46 59 47 60 61 62 82 63 49 64 33 65 34 66 42 67 35 68
REMARK SMILES IDX 36 69 40 70 43 71 37 72 38 73 41 74 39 75 65 76 66 77 74 78
REMARK SMILES IDX 67 79 68 80 72 81 75 82 69 83 70 84 73 85 71 86 50 87 51 88
REMARK SMILES IDX 59 89 52 90 53 91 57 92 60 93 54 94 55 95 58 96 56 97
REMARK H PARENT 17 6 91 27 21 31 80 50 48 61
REMARK Flexibility Score: inf
ROOT
ATOM      1  C   UNL A   1      36.334  23.970  26.121  1.00  0.00     0.042 C 
ENDROOT
BRANCH   1   2
ATOM      2  C   UNL A   1      35.122  23.094  26.355  1.00  0.00     0.117 C 
BRANCH   2   3
ATOM      3  N   UNL A   1      34.598  22.585  25.107  1.00  0.00    -0.356 N 
ATOM      4  C   UNL A   1      33.376  22.641  24.533  1.00  0.00     0.226 C 
ATOM      5  O   UNL A   1      33.312  22.119  23.414  1.00  0.00    -0.274 OA
ATOM      6  H   UNL A   1      35.265  22.103  24.567  1.00  0.00     0.163 HD
BRANCH   4   7
ATOM      7  C   UNL A   1      32.143  23.246  25.222  1.00  0.00     0.050 C 
ATOM      8  C   UNL A   1      31.731  31.303  26.579  1.00  0.00     0.011 C 
ATOM      9  C   UNL A   1      32.137  30.067  26.257  1.00  0.00    -0.045 C 
ATOM     10  C   UNL A   1      31.352  29.087  25.400  1.00  0.00     0.040 C 
ATOM     11  C   UNL A   1      33.262  29.310  26.914  1.00  0.00     0.086 C 
ATOM     12  C   UNL A   1      31.827  27.700  25.930  1.00  0.00    -0.020 C 
ATOM     13  C   UNL A   1      34.412  28.960  25.946  1.00  0.00     0.040 C 
ATOM     14  C   UNL A   1      32.472  28.076  27.287  1.00  0.00     0.047 C 
ATOM     15  C   UNL A   1      30.697  26.738  26.211  1.00  0.00     0.008 C 
ATOM     16  C   UNL A   1      32.967  27.036  25.082  1.00  0.00     0.002 C 
ATOM     17  C   UNL A   1      34.016  28.115  24.690  1.00  0.00     0.008 C 
ATOM     18  C   UNL A   1      31.325  25.389  26.619  1.00  0.00     0.006 C 
ATOM     19  C   UNL A   1      32.654  25.683  24.253  1.00  0.00    -0.025 C 
ATOM     20  C   UNL A   1      31.989  24.775  25.355  1.00  0.00     0.010 C 
ATOM     21  C   UNL A   1      34.017  25.377  23.575  1.00  0.00     0.012 C 
ATOM     22  C   UNL A   1      31.657  25.404  23.039  1.00  0.00     0.007 C 
ATOM     23  C   UNL A   1      30.866  23.966  23.039  1.00  0.00     0.002 C 
ATOM     24  C   UNL A   1      30.948  22.940  24.262  1.00  0.00     0.017 C 
ATOM     25  C   UNL A   1      32.036  22.552  26.599  1.00  0.00     0.022 C 
BRANCH  11  26
ATOM     26  O   UNL A   1      33.757  29.930  28.084  1.00  0.00    -0.386 OA
ATOM     27  H   UNL A   1      34.159  30.782  27.854  1.00  0.00     0.211 HD
ENDBRANCH  11  26
ENDBRANCH   4   7
ENDBRANCH   2   3
ENDBRANCH   1   2
BRANCH   1  28
ATOM     28  C   UNL A   1      37.286  23.412  25.066  1.00  0.00     0.118 C 
BRANCH  28  29
ATOM     29  N   UNL A   1      38.296  22.503  25.602  1.00  0.00    -0.352 N 
ATOM     30  C   UNL A   1      39.389  22.790  26.380  1.00  0.00     0.251 C 
ATOM     31  H   UNL A   1      38.175  21.553  25.374  1.00  0.00     0.163 HD
ATOM     32  O   UNL A   1      40.231  21.925  26.623  1.00  0.00    -0.269 OA
BRANCH  30  33
ATOM     33  C   UNL A   1      39.568  24.160  26.896  1.00  0.00     0.039 A 
ATOM     34  C   UNL A   1      39.171  24.450  28.202  1.00  0.00     0.014 A 
ATOM     35  C   UNL A   1      40.185  25.136  26.109  1.00  0.00     0.014 A 
ATOM     36  C   UNL A   1      39.470  25.699  28.744  1.00  0.00     0.010 A 
ATOM     37  C   UNL A   1      40.575  26.339  26.684  1.00  0.00     0.010 A 
ATOM     38  C   UNL A   1      40.219  26.634  28.007  1.00  0.00    -0.014 A 
BRANCH  38  39
ATOM     39  C   UNL A   1      40.649  27.915  28.622  1.00  0.00     0.031 A 
ATOM     40  C   UNL A   1      42.082  28.126  29.021  1.00  0.00     0.074 A 
ATOM     41  C   UNL A   1      39.731  28.872  28.860  1.00  0.00     0.049 A 
ATOM     42  N   UNL A   1      42.643  29.179  29.561  1.00  0.00    -0.248 NA
ATOM     43  C   UNL A   1      43.004  26.997  28.814  1.00  0.00     0.031 C 
ATOM     44  C   UNL A   1      38.297  28.756  28.584  1.00  0.00     0.029 A 
ATOM     45  N   UNL A   1      39.865  30.134  29.383  1.00  0.00    -0.354 N 
ATOM     46  C   UNL A   1      43.975  28.837  29.757  1.00  0.00     0.074 A 
ATOM     47  C   UNL A   1      44.124  27.459  29.347  1.00  0.00     0.031 C 
ATOM     48  C   UNL A   1      37.693  29.912  28.898  1.00  0.00     0.029 A 
ATOM     49  C   UNL A   1      38.686  30.837  29.434  1.00  0.00     0.049 A 
ATOM     50  H   UNL A   1      40.725  30.500  29.693  1.00  0.00     0.167 HD
ATOM     51  C   UNL A   1      44.988  29.613  30.212  1.00  0.00     0.037 A 
ATOM     52  C   UNL A   1      38.436  32.088  29.863  1.00  0.00     0.037 A 
ATOM     53  C   UNL A   1      44.834  30.988  30.609  1.00  0.00     0.049 A 
ATOM     54  C   UNL A   1      39.580  32.928  30.364  1.00  0.00     0.074 A 
ATOM     55  C   UNL A   1      45.806  31.880  31.028  1.00  0.00     0.029 A 
ATOM     56  N   UNL A   1      43.626  31.670  30.643  1.00  0.00    -0.354 N 
ATOM     57  N   UNL A   1      40.851  32.623  30.463  1.00  0.00    -0.248 NA
ATOM     58  C   UNL A   1      39.253  34.291  30.800  1.00  0.00     0.031 C 
ATOM     59  C   UNL A   1      45.178  33.082  31.372  1.00  0.00     0.029 A 
ATOM     60  C   UNL A   1      43.824  32.963  31.104  1.00  0.00     0.049 A 
ATOM     61  H   UNL A   1      42.756  31.292  30.378  1.00  0.00     0.167 HD
ATOM     62  C   UNL A   1      41.479  33.762  30.949  1.00  0.00     0.074 A 
ATOM     63  C   UNL A   1      40.451  34.772  31.095  1.00  0.00     0.031 C 
ATOM     64  C   UNL A   1      42.787  33.953  31.253  1.00  0.00     0.037 A 
BRANCH  51  65
ATOM     65  C   UNL A   1      46.354  28.991  30.301  1.00  0.00     0.064 A 
ATOM     66  C   UNL A   1      46.801  28.356  31.471  1.00  0.00     0.173 A 
ATOM     67  C   UNL A   1      47.214  28.999  29.193  1.00  0.00     0.173 A 
ATOM     68  F   UNL A   1      46.024  28.330  32.565  1.00  0.00    -0.203 F 
ATOM     69  C   UNL A   1      48.068  27.781  31.537  1.00  0.00     0.198 A 
ATOM     70  C   UNL A   1      48.466  28.393  29.251  1.00  0.00     0.198 A 
ATOM     71  F   UNL A   1      46.837  29.588  28.047  1.00  0.00    -0.203 F 
ATOM     72  F   UNL A   1      48.493  27.230  32.682  1.00  0.00    -0.200 F 
ATOM     73  C   UNL A   1      48.896  27.793  30.425  1.00  0.00     0.200 A 
ATOM     74  F   UNL A   1      49.260  28.391  28.171  1.00  0.00    -0.200 F 
ATOM     75  F   UNL A   1      50.111  27.231  30.487  1.00  0.00    -0.200 F 
ENDBRANCH  51  65
BRANCH  52  76
ATOM     76  C   UNL A   1      37.052  32.632  29.810  1.00  0.00     0.064 A 
ATOM     77  C   UNL A   1      36.173  32.478  30.893  1.00  0.00     0.173 A 
ATOM     78  C   UNL A   1      36.576  33.304  28.676  1.00  0.00     0.173 A 
ATOM     79  F   UNL A   1      36.575  31.826  31.994  1.00  0.00    -0.203 F 
ATOM     80  C   UNL A   1      34.864  32.952  30.832  1.00  0.00     0.198 A 
ATOM     81  C   UNL A   1      35.277  33.809  28.630  1.00  0.00     0.198 A 
ATOM     82  F   UNL A   1      37.377  33.486  27.616  1.00  0.00    -0.203 F 
ATOM     83  F   UNL A   1      34.030  32.744  31.859  1.00  0.00    -0.200 F 
ATOM     84  C   UNL A   1      34.420  33.623  29.702  1.00  0.00     0.200 A 
ATOM     85  F   UNL A   1      34.857  34.472  27.544  1.00  0.00    -0.200 F 
ATOM     86  F   UNL A   1      33.162  34.082  29.645  1.00  0.00    -0.200 F 
ENDBRANCH  52  76
BRANCH  64  87
ATOM     87  C   UNL A   1      43.177  35.318  31.749  1.00  0.00     0.064 A 
ATOM     88  C   UNL A   1      43.050  35.677  33.101  1.00  0.00     0.173 A 
ATOM     89  C   UNL A   1      43.687  36.279  30.863  1.00  0.00     0.173 A 
ATOM     90  F   UNL A   1      42.557  34.799  33.988  1.00  0.00    -0.203 F 
ATOM     91  C   UNL A   1      43.372  36.960  33.535  1.00  0.00     0.198 A 
ATOM     92  C   UNL A   1      44.045  37.548  31.307  1.00  0.00     0.198 A 
ATOM     93  F   UNL A   1      43.839  35.986  29.563  1.00  0.00    -0.203 F 
ATOM     94  F   UNL A   1      43.171  37.300  34.815  1.00  0.00    -0.200 F 
ATOM     95  C   UNL A   1      43.874  37.892  32.640  1.00  0.00     0.200 A 
ATOM     96  F   UNL A   1      44.545  38.442  30.444  1.00  0.00    -0.200 F 
ATOM     97  F   UNL A   1      44.179  39.127  33.059  1.00  0.00    -0.200 F 
ENDBRANCH  64  87
ENDBRANCH  38  39
ENDBRANCH  30  33
ENDBRANCH  28  29
ENDBRANCH   1  28
TORSDOF 11
ENDMDL
MODEL 3
REMARK VINA RESULT:     -13.0      4.009      8.961
REMARK SMILES C=C1C[C@@]23CC[C@H]4[C@@](C)(CCC[C@@]4(C)C(=O)NCCCNC(=O)c4ccc(-c5c6nc(c(-c7c(F)c(F)c(F)c(F)c7F)c7ccc([nH]7)c(-c7c(F)c(F)c(F)c(F)c7F)c7nc(c(-c8c(F)c(F)c(F)c(F)c8F)c8ccc5[nH]8)C=C7)C=C6)cc4)[C@H]2CC[C@]1(O)C3
REMARK SMILES IDX 19 1 18 2 17 3 15 4 16 5 13 7 1 8 2 9 3 10 90 11 4 12 89 13
REMARK SMILES IDX 92 14 5 15 87 16 88 17 6 18 8 19 7 20 9 21 10 22 11 23 12 24
REMARK SMILES IDX 14 25 91 26 20 28 21 29 22 30 23 32 24 33 25 34 86 35 26 36
REMARK SMILES IDX 85 37 27 38 28 39 29 40 79 41 30 42 84 43 78 44 80 45 31 46
REMARK SMILES IDX 83 47 77 48 76 49 32 51 64 52 44 53 63 54 45 55 48 56 62 57
REMARK SMILES IDX 81 58 46 59 47 60 61 62 82 63 49 64 33 65 34 66 42 67 35 68
REMARK SMILES IDX 36 69 40 70 43 71 37 72 38 73 41 74 39 75 65 76 66 77 74 78
REMARK SMILES IDX 67 79 68 80 72 81 75 82 69 83 70 84 73 85 71 86 50 87 51 88
REMARK SMILES IDX 59 89 52 90 53 91 57 92 60 93 54 94 55 95 58 96 56 97
REMARK H PARENT 17 6 91 27 21 31 80 50 48 61
REMARK Flexibility Score: inf
ROOT
ATOM      1  C   UNL A   1      31.487  31.851  26.710  1.00  0.00     0.042 C 
ENDROOT
BRANCH   1   2
ATOM      2  C   UNL A   1      31.809  30.403  26.409  1.00  0.00     0.117 C 
BRANCH   2   3
ATOM      3  N   UNL A   1      31.460  30.063  25.048  1.00  0.00    -0.356 N 
ATOM      4  C   UNL A   1      32.017  29.238  24.135  1.00  0.00     0.226 C 
ATOM      5  O   UNL A   1      31.401  29.167  23.066  1.00  0.00    -0.274 OA
ATOM      6  H   UNL A   1      30.655  30.526  24.721  1.00  0.00     0.163 HD
BRANCH   4   7
ATOM      7  C   UNL A   1      33.336  28.484  24.369  1.00  0.00     0.050 C 
ATOM      8  C   UNL A   1      33.260  20.471  26.016  1.00  0.00     0.011 C 
ATOM      9  C   UNL A   1      32.914  21.744  25.783  1.00  0.00    -0.045 C 
ATOM     10  C   UNL A   1      33.437  22.594  24.636  1.00  0.00     0.040 C 
ATOM     11  C   UNL A   1      32.208  22.658  26.751  1.00  0.00     0.086 C 
ATOM     12  C   UNL A   1      33.360  24.042  25.208  1.00  0.00    -0.020 C 
ATOM     13  C   UNL A   1      30.832  23.142  26.246  1.00  0.00     0.040 C 
ATOM     14  C   UNL A   1      33.221  23.781  26.729  1.00  0.00     0.047 C 
ATOM     15  C   UNL A   1      34.619  24.847  24.995  1.00  0.00     0.008 C 
ATOM     16  C   UNL A   1      32.075  24.837  24.790  1.00  0.00     0.002 C 
ATOM     17  C   UNL A   1      30.835  23.903  24.879  1.00  0.00     0.008 C 
ATOM     18  C   UNL A   1      34.351  26.276  25.512  1.00  0.00     0.006 C 
ATOM     19  C   UNL A   1      32.217  26.121  23.816  1.00  0.00    -0.025 C 
ATOM     20  C   UNL A   1      33.345  26.951  24.538  1.00  0.00     0.010 C 
ATOM     21  C   UNL A   1      30.747  26.596  23.661  1.00  0.00     0.012 C 
ATOM     22  C   UNL A   1      32.723  26.241  22.307  1.00  0.00     0.007 C 
ATOM     23  C   UNL A   1      33.623  27.558  21.924  1.00  0.00     0.002 C 
ATOM     24  C   UNL A   1      34.120  28.609  23.022  1.00  0.00     0.017 C 
ATOM     25  C   UNL A   1      34.024  29.182  25.563  1.00  0.00     0.022 C 
BRANCH  11  26
ATOM     26  O   UNL A   1      32.110  22.132  28.060  1.00  0.00    -0.386 OA
ATOM     27  H   UNL A   1      32.262  22.840  28.705  1.00  0.00     0.211 HD
ENDBRANCH  11  26
ENDBRANCH   4   7
ENDBRANCH   2   3
ENDBRANCH   1   2
BRANCH   1  28
ATOM     28  C   UNL A   1      32.668  32.624  27.292  1.00  0.00     0.118 C 
BRANCH  28  29
ATOM     29  N   UNL A   1      32.370  34.022  27.590  1.00  0.00    -0.352 N 
ATOM     30  C   UNL A   1      32.957  34.850  28.513  1.00  0.00     0.251 C 
ATOM     31  H   UNL A   1      31.649  34.426  27.056  1.00  0.00     0.163 HD
ATOM     32  O   UNL A   1      32.485  35.964  28.747  1.00  0.00    -0.269 OA
BRANCH  30  33
ATOM     33  C   UNL A   1      34.142  34.381  29.255  1.00  0.00     0.039 A 
ATOM     34  C   UNL A   1      33.962  33.675  30.445  1.00  0.00     0.014 A 
ATOM     35  C   UNL A   1      35.425  34.587  28.739  1.00  0.00     0.014 A 
ATOM     36  C   UNL A   1      35.068  33.104  31.074  1.00  0.00     0.010 A 
ATOM     37  C   UNL A   1      36.508  33.930  29.309  1.00  0.00     0.010 A 
ATOM     38  C   UNL A   1      36.342  33.183  30.483  1.00  0.00    -0.014 A 
BRANCH  38  39
ATOM     39  C   UNL A   1      37.499  32.471  31.080  1.00  0.00     0.031 A 
ATOM     40  C   UNL A   1      37.998  32.840  32.449  1.00  0.00     0.074 A 
ATOM     41  C   UNL A   1      38.127  31.519  30.363  1.00  0.00     0.049 A 
ATOM     42  N   UNL A   1      38.987  32.324  33.134  1.00  0.00    -0.248 NA
ATOM     43  C   UNL A   1      37.317  33.954  33.127  1.00  0.00     0.031 C 
ATOM     44  C   UNL A   1      37.781  31.123  28.996  1.00  0.00     0.029 A 
ATOM     45  N   UNL A   1      39.185  30.705  30.684  1.00  0.00    -0.354 N 
ATOM     46  C   UNL A   1      39.045  33.050  34.316  1.00  0.00     0.074 A 
ATOM     47  C   UNL A   1      38.042  34.087  34.227  1.00  0.00     0.031 C 
ATOM     48  C   UNL A   1      38.580  30.115  28.613  1.00  0.00     0.029 A 
ATOM     49  C   UNL A   1      39.520  29.819  29.689  1.00  0.00     0.049 A 
ATOM     50  H   UNL A   1      39.659  30.752  31.546  1.00  0.00     0.167 HD
ATOM     51  C   UNL A   1      39.844  32.851  35.392  1.00  0.00     0.037 A 
ATOM     52  C   UNL A   1      40.477  28.874  29.651  1.00  0.00     0.037 A 
ATOM     53  C   UNL A   1      40.834  31.808  35.479  1.00  0.00     0.049 A 
ATOM     54  C   UNL A   1      41.350  28.674  30.859  1.00  0.00     0.074 A 
ATOM     55  C   UNL A   1      41.655  31.483  36.544  1.00  0.00     0.029 A 
ATOM     56  N   UNL A   1      41.143  30.926  34.453  1.00  0.00    -0.354 N 
ATOM     57  N   UNL A   1      41.338  29.308  32.006  1.00  0.00    -0.248 NA
ATOM     58  C   UNL A   1      42.363  27.615  30.770  1.00  0.00     0.031 C 
ATOM     59  C   UNL A   1      42.501  30.443  36.144  1.00  0.00     0.029 A 
ATOM     60  C   UNL A   1      42.163  30.075  34.852  1.00  0.00     0.049 A 
ATOM     61  H   UNL A   1      40.703  30.906  33.572  1.00  0.00     0.167 HD
ATOM     62  C   UNL A   1      42.322  28.713  32.783  1.00  0.00     0.074 A 
ATOM     63  C   UNL A   1      42.890  27.645  31.986  1.00  0.00     0.031 C 
ATOM     64  C   UNL A   1      42.724  29.023  34.041  1.00  0.00     0.037 A 
BRANCH  51  65
ATOM     65  C   UNL A   1      39.677  33.778  36.564  1.00  0.00     0.064 A 
ATOM     66  C   UNL A   1      40.307  35.032  36.608  1.00  0.00     0.173 A 
ATOM     67  C   UNL A   1      38.850  33.424  37.640  1.00  0.00     0.173 A 
ATOM     68  F   UNL A   1      41.119  35.416  35.612  1.00  0.00    -0.203 F 
ATOM     69  C   UNL A   1      40.140  35.881  37.699  1.00  0.00     0.198 A 
ATOM     70  C   UNL A   1      38.657  34.290  38.713  1.00  0.00     0.198 A 
ATOM     71  F   UNL A   1      38.220  32.239  37.648  1.00  0.00    -0.203 F 
ATOM     72  F   UNL A   1      40.795  37.049  37.744  1.00  0.00    -0.200 F 
ATOM     73  C   UNL A   1      39.309  35.514  38.747  1.00  0.00     0.200 A 
ATOM     74  F   UNL A   1      37.842  33.940  39.718  1.00  0.00    -0.200 F 
ATOM     75  F   UNL A   1      39.141  36.336  39.791  1.00  0.00    -0.200 F 
ENDBRANCH  51  65
BRANCH  52  76
ATOM     76  C   UNL A   1      40.639  28.025  28.440  1.00  0.00     0.064 A 
ATOM     77  C   UNL A   1      41.420  28.453  27.356  1.00  0.00     0.173 A 
ATOM     78  C   UNL A   1      40.008  26.777  28.335  1.00  0.00     0.173 A 
ATOM     79  F   UNL A   1      42.029  29.647  27.400  1.00  0.00    -0.203 F 
ATOM     80  C   UNL A   1      41.542  27.677  26.205  1.00  0.00     0.198 A 
ATOM     81  C   UNL A   1      40.160  25.987  27.196  1.00  0.00     0.198 A 
ATOM     82  F   UNL A   1      39.256  26.316  29.344  1.00  0.00    -0.203 F 
ATOM     83  F   UNL A   1      42.251  28.135  25.164  1.00  0.00    -0.200 F 
ATOM     84  C   UNL A   1      40.917  26.443  26.129  1.00  0.00     0.200 A 
ATOM     85  F   UNL A   1      39.568  24.786  27.134  1.00  0.00    -0.200 F 
ATOM     86  F   UNL A   1      41.038  25.695  25.023  1.00  0.00    -0.200 F 
ENDBRANCH  52  76
BRANCH  64  87
ATOM     87  C   UNL A   1      43.815  28.176  34.635  1.00  0.00     0.064 A 
ATOM     88  C   UNL A   1      45.168  28.537  34.534  1.00  0.00     0.173 A 
ATOM     89  C   UNL A   1      43.504  26.989  35.315  1.00  0.00     0.173 A 
ATOM     90  F   UNL A   1      45.522  29.656  33.883  1.00  0.00    -0.203 F 
ATOM     91  C   UNL A   1      46.169  27.718  35.049  1.00  0.00     0.198 A 
ATOM     92  C   UNL A   1      44.504  26.192  35.864  1.00  0.00     0.198 A 
ATOM     93  F   UNL A   1      42.227  26.602  35.451  1.00  0.00    -0.203 F 
ATOM     94  F   UNL A   1      47.456  28.046  34.874  1.00  0.00    -0.200 F 
ATOM     95  C   UNL A   1      45.836  26.549  35.718  1.00  0.00     0.200 A 
ATOM     96  F   UNL A   1      44.180  25.073  36.524  1.00  0.00    -0.200 F 
ATOM     97  F   UNL A   1      46.800  25.760  36.209  1.00  0.00    -0.200 F 
ENDBRANCH  64  87
ENDBRANCH  38  39
ENDBRANCH  30  33
ENDBRANCH  28  29
ENDBRANCH   1  28
TORSDOF 11
ENDMDL
