MODEL 1
REMARK VINA RESULT:     -12.9      0.000      0.000
REMARK SMILES Cc1nn(C)cc1-c1cc(C(F)(F)F)nc(N2CCC[C@@H]2C(=O)NCCCNC(=O)c2ccc(-c3c4nc(c(-c5c(F)c(F)c(F)c(F)c5F)c5ccc([nH]5)c(-c5c(F)c(F)c(F)c(F)c5F)c5nc(c(-c6c(F)c(F)c(F)c(F)c6F)c6ccc3[nH]6)C=C5)C=C4)cc2)n1
REMARK SMILES IDX 26 1 25 2 24 3 22 4 23 5 21 7 17 8 18 9 19 10 20 11 16 12
REMARK SMILES IDX 8 13 9 14 94 15 10 16 15 17 7 18 1 19 2 20 3 21 4 22 6 23
REMARK SMILES IDX 5 24 11 25 12 26 13 27 14 28 27 29 28 30 29 31 30 33 31 34
REMARK SMILES IDX 32 35 93 36 33 37 92 38 34 39 35 40 36 41 86 42 37 43 91 44
REMARK SMILES IDX 85 45 87 46 38 47 90 48 84 49 83 50 39 52 71 53 51 54 70 55
REMARK SMILES IDX 52 56 55 57 69 58 88 59 53 60 54 61 68 63 89 64 56 65 40 66
REMARK SMILES IDX 41 67 49 68 42 69 43 70 47 71 50 72 44 73 45 74 48 75 46 76
REMARK SMILES IDX 72 77 73 78 81 79 74 80 75 81 79 82 82 83 76 84 77 85 80 86
REMARK SMILES IDX 78 87 57 88 58 89 66 90 59 91 60 92 64 93 67 94 61 95 62 96
REMARK SMILES IDX 65 97 63 98
REMARK H PARENT 24 6 28 32 87 51 55 62
REMARK Flexibility Score: inf
ROOT
ATOM      1  C   UNL A   1      35.556  23.550  24.841  1.00  0.00     0.042 C 
ENDROOT
BRANCH   1   2
ATOM      2  C   UNL A   1      34.520  24.662  24.748  1.00  0.00     0.117 C 
BRANCH   2   3
ATOM      3  N   UNL A   1      34.423  25.213  23.409  1.00  0.00    -0.354 N 
ATOM      4  C   UNL A   1      33.376  25.288  22.537  1.00  0.00     0.242 C 
ATOM      5  O   UNL A   1      33.620  25.813  21.443  1.00  0.00    -0.273 OA
ATOM      6  H   UNL A   1      35.261  25.603  23.069  1.00  0.00     0.163 HD
BRANCH   4   7
ATOM      7  C   UNL A   1      31.981  24.685  22.815  1.00  0.00     0.174 C 
ATOM      8  N   UNL A   1      31.335  25.175  24.021  1.00  0.00    -0.329 N 
ATOM      9  C   UNL A   1      30.830  24.136  24.882  1.00  0.00     0.120 C 
ATOM     10  C   UNL A   1      31.627  22.905  24.458  1.00  0.00     0.024 C 
ATOM     11  C   UNL A   1      32.030  23.163  23.007  1.00  0.00     0.037 C 
BRANCH   8  12
ATOM     12  C   UNL A   1      31.191  26.500  24.273  1.00  0.00     0.227 A 
ATOM     13  C   UNL A   1      30.349  28.554  23.720  1.00  0.00     0.080 A 
ATOM     14  C   UNL A   1      31.183  29.195  24.607  1.00  0.00     0.062 A 
ATOM     15  N   UNL A   1      30.370  27.224  23.512  1.00  0.00    -0.213 NA
ATOM     16  C   UNL A   1      32.017  28.382  25.342  1.00  0.00     0.150 A 
ATOM     17  N   UNL A   1      31.986  27.032  25.211  1.00  0.00    -0.208 NA
BRANCH  13  18
ATOM     18  C   UNL A   1      29.347  29.306  22.998  1.00  0.00     0.041 A 
ATOM     19  C   UNL A   1      27.045  28.187  23.568  1.00  0.00     0.069 C 
ATOM     20  C   UNL A   1      27.942  29.146  22.877  1.00  0.00     0.069 A 
ATOM     21  N   UNL A   1      27.421  30.014  21.997  1.00  0.00    -0.178 NA
ATOM     22  N   UNL A   1      28.479  30.736  21.584  1.00  0.00    -0.275 N 
ATOM     23  C   UNL A   1      29.653  30.356  22.158  1.00  0.00     0.119 A 
ATOM     24  C   UNL A   1      28.293  31.760  20.586  1.00  0.00     0.173 C 
ENDBRANCH  13  18
BRANCH  16  25
ATOM     25  C   UNL A   1      33.051  28.992  26.268  1.00  0.00     0.433 C 
ATOM     26  F   UNL A   1      33.317  30.301  25.997  1.00  0.00    -0.165 F 
ATOM     27  F   UNL A   1      32.663  28.948  27.576  1.00  0.00    -0.165 F 
ATOM     28  F   UNL A   1      34.257  28.355  26.225  1.00  0.00    -0.165 F 
ENDBRANCH  16  25
ENDBRANCH   8  12
ENDBRANCH   4   7
ENDBRANCH   2   3
ENDBRANCH   1   2
BRANCH   1  29
ATOM     29  C   UNL A   1      36.435  23.634  26.080  1.00  0.00     0.118 C 
BRANCH  29  30
ATOM     30  N   UNL A   1      37.558  22.707  26.028  1.00  0.00    -0.352 N 
ATOM     31  C   UNL A   1      38.892  22.912  26.264  1.00  0.00     0.251 C 
ATOM     32  H   UNL A   1      37.319  21.785  25.783  1.00  0.00     0.163 HD
ATOM     33  O   UNL A   1      39.694  22.020  25.993  1.00  0.00    -0.269 OA
BRANCH  31  34
ATOM     34  C   UNL A   1      39.386  24.185  26.833  1.00  0.00     0.039 A 
ATOM     35  C   UNL A   1      39.141  24.449  28.184  1.00  0.00     0.014 A 
ATOM     36  C   UNL A   1      40.021  25.147  26.043  1.00  0.00     0.014 A 
ATOM     37  C   UNL A   1      39.554  25.659  28.747  1.00  0.00     0.010 A 
ATOM     38  C   UNL A   1      40.501  26.320  26.620  1.00  0.00     0.010 A 
ATOM     39  C   UNL A   1      40.249  26.599  27.971  1.00  0.00    -0.014 A 
BRANCH  39  40
ATOM     40  C   UNL A   1      40.670  27.901  28.543  1.00  0.00     0.031 A 
ATOM     41  C   UNL A   1      42.116  28.133  28.892  1.00  0.00     0.074 A 
ATOM     42  C   UNL A   1      39.753  28.855  28.790  1.00  0.00     0.049 A 
ATOM     43  N   UNL A   1      42.677  29.174  29.453  1.00  0.00    -0.248 NA
ATOM     44  C   UNL A   1      43.051  27.035  28.594  1.00  0.00     0.031 C 
ATOM     45  C   UNL A   1      38.317  28.732  28.535  1.00  0.00     0.029 A 
ATOM     46  N   UNL A   1      39.893  30.113  29.317  1.00  0.00    -0.354 N 
ATOM     47  C   UNL A   1      44.020  28.847  29.597  1.00  0.00     0.074 A 
ATOM     48  C   UNL A   1      44.181  27.495  29.109  1.00  0.00     0.031 C 
ATOM     49  C   UNL A   1      37.710  29.877  28.887  1.00  0.00     0.029 A 
ATOM     50  C   UNL A   1      38.709  30.802  29.417  1.00  0.00     0.049 A 
ATOM     51  H   UNL A   1      40.759  30.487  29.598  1.00  0.00     0.167 HD
ATOM     52  C   UNL A   1      45.030  29.613  30.070  1.00  0.00     0.037 A 
ATOM     53  C   UNL A   1      38.461  32.041  29.882  1.00  0.00     0.037 A 
ATOM     54  C   UNL A   1      44.874  30.972  30.517  1.00  0.00     0.049 A 
ATOM     55  C   UNL A   1      39.607  32.884  30.372  1.00  0.00     0.074 A 
ATOM     56  C   UNL A   1      45.842  31.852  30.967  1.00  0.00     0.029 A 
ATOM     57  N   UNL A   1      43.665  31.650  30.562  1.00  0.00    -0.354 N 
ATOM     58  N   UNL A   1      40.880  32.584  30.452  1.00  0.00    -0.248 NA
ATOM     59  C   UNL A   1      39.281  34.244  30.824  1.00  0.00     0.031 C 
ATOM     60  C   UNL A   1      45.215  33.054  31.312  1.00  0.00     0.029 A 
ATOM     61  C   UNL A   1      43.862  32.936  31.038  1.00  0.00     0.049 A 
ATOM     62  H   UNL A   1      42.795  31.274  30.295  1.00  0.00     0.167 HD
ATOM     63  C   UNL A   1      41.511  33.724  30.931  1.00  0.00     0.074 A 
ATOM     64  C   UNL A   1      40.482  34.725  31.114  1.00  0.00     0.031 C 
ATOM     65  C   UNL A   1      42.825  33.924  31.196  1.00  0.00     0.037 A 
BRANCH  52  66
ATOM     66  C   UNL A   1      46.399  28.999  30.123  1.00  0.00     0.064 A 
ATOM     67  C   UNL A   1      47.283  29.078  29.035  1.00  0.00     0.173 A 
ATOM     68  C   UNL A   1      46.842  28.343  31.282  1.00  0.00     0.173 A 
ATOM     69  F   UNL A   1      46.902  29.682  27.900  1.00  0.00    -0.203 F 
ATOM     70  C   UNL A   1      48.547  28.498  29.096  1.00  0.00     0.198 A 
ATOM     71  C   UNL A   1      48.118  27.791  31.349  1.00  0.00     0.198 A 
ATOM     72  F   UNL A   1      46.039  28.243  32.351  1.00  0.00    -0.203 F 
ATOM     73  F   UNL A   1      49.354  28.544  28.027  1.00  0.00    -0.200 F 
ATOM     74  C   UNL A   1      48.966  27.861  30.254  1.00  0.00     0.200 A 
ATOM     75  F   UNL A   1      48.526  27.185  32.472  1.00  0.00    -0.200 F 
ATOM     76  F   UNL A   1      50.185  27.308  30.312  1.00  0.00    -0.200 F 
ENDBRANCH  52  66
BRANCH  53  77
ATOM     77  C   UNL A   1      37.076  32.574  29.865  1.00  0.00     0.064 A 
ATOM     78  C   UNL A   1      36.596  33.286  28.758  1.00  0.00     0.173 A 
ATOM     79  C   UNL A   1      36.205  32.383  30.948  1.00  0.00     0.173 A 
ATOM     80  F   UNL A   1      37.398  33.509  27.707  1.00  0.00    -0.203 F 
ATOM     81  C   UNL A   1      35.303  33.806  28.742  1.00  0.00     0.198 A 
ATOM     82  C   UNL A   1      34.904  32.882  30.920  1.00  0.00     0.198 A 
ATOM     83  F   UNL A   1      36.616  31.704  32.028  1.00  0.00    -0.203 F 
ATOM     84  F   UNL A   1      34.883  34.519  27.687  1.00  0.00    -0.200 F 
ATOM     85  C   UNL A   1      34.456  33.598  29.820  1.00  0.00     0.200 A 
ATOM     86  F   UNL A   1      34.086  32.668  31.958  1.00  0.00    -0.200 F 
ATOM     87  F   UNL A   1      33.212  34.095  29.804  1.00  0.00    -0.200 F 
ENDBRANCH  53  77
BRANCH  65  88
ATOM     88  C   UNL A   1      43.230  35.289  31.664  1.00  0.00     0.064 A 
ATOM     89  C   UNL A   1      43.207  35.639  33.021  1.00  0.00     0.173 A 
ATOM     90  C   UNL A   1      43.682  36.248  30.743  1.00  0.00     0.173 A 
ATOM     91  F   UNL A   1      42.770  34.761  33.937  1.00  0.00    -0.203 F 
ATOM     92  C   UNL A   1      43.596  36.909  33.439  1.00  0.00     0.198 A 
ATOM     93  C   UNL A   1      44.095  37.507  31.167  1.00  0.00     0.198 A 
ATOM     94  F   UNL A   1      43.729  35.959  29.434  1.00  0.00    -0.203 F 
ATOM     95  F   UNL A   1      43.522  37.237  34.736  1.00  0.00    -0.200 F 
ATOM     96  C   UNL A   1      44.045  37.839  32.513  1.00  0.00     0.200 A 
ATOM     97  F   UNL A   1      44.539  38.401  30.274  1.00  0.00    -0.200 F 
ATOM     98  F   UNL A   1      44.423  39.060  32.917  1.00  0.00    -0.200 F 
ENDBRANCH  65  88
ENDBRANCH  39  40
ENDBRANCH  31  34
ENDBRANCH  29  30
ENDBRANCH   1  29
TORSDOF 13
ENDMDL
MODEL 2
REMARK VINA RESULT:     -12.9      0.155      1.687
REMARK SMILES Cc1nn(C)cc1-c1cc(C(F)(F)F)nc(N2CCC[C@@H]2C(=O)NCCCNC(=O)c2ccc(-c3c4nc(c(-c5c(F)c(F)c(F)c(F)c5F)c5ccc([nH]5)c(-c5c(F)c(F)c(F)c(F)c5F)c5nc(c(-c6c(F)c(F)c(F)c(F)c6F)c6ccc3[nH]6)C=C5)C=C4)cc2)n1
REMARK SMILES IDX 26 1 25 2 24 3 22 4 23 5 21 7 17 8 18 9 19 10 20 11 16 12
REMARK SMILES IDX 8 13 9 14 94 15 10 16 15 17 7 18 1 19 2 20 3 21 4 22 6 23
REMARK SMILES IDX 5 24 11 25 12 26 13 27 14 28 27 29 28 30 29 31 30 33 31 34
REMARK SMILES IDX 32 35 93 36 33 37 92 38 34 39 35 40 36 41 86 42 37 43 91 44
REMARK SMILES IDX 85 45 87 46 38 47 90 48 84 49 83 50 39 52 71 53 51 54 70 55
REMARK SMILES IDX 52 56 55 57 69 58 88 59 53 60 54 61 68 63 89 64 56 65 40 66
REMARK SMILES IDX 41 67 49 68 42 69 43 70 47 71 50 72 44 73 45 74 48 75 46 76
REMARK SMILES IDX 72 77 73 78 81 79 74 80 75 81 79 82 82 83 76 84 77 85 80 86
REMARK SMILES IDX 78 87 57 88 58 89 66 90 59 91 60 92 64 93 67 94 61 95 62 96
REMARK SMILES IDX 65 97 63 98
REMARK H PARENT 24 6 28 32 87 51 55 62
REMARK Flexibility Score: inf
ROOT
ATOM      1  C   UNL A   1      35.725  23.403  24.750  1.00  0.00     0.042 C 
ENDROOT
BRANCH   1   2
ATOM      2  C   UNL A   1      34.562  24.385  24.720  1.00  0.00     0.117 C 
BRANCH   2   3
ATOM      3  N   UNL A   1      34.444  25.059  23.441  1.00  0.00    -0.354 N 
ATOM      4  C   UNL A   1      33.380  25.228  22.603  1.00  0.00     0.242 C 
ATOM      5  O   UNL A   1      33.608  25.850  21.558  1.00  0.00    -0.273 OA
ATOM      6  H   UNL A   1      35.280  25.469  23.120  1.00  0.00     0.163 HD
BRANCH   4   7
ATOM      7  C   UNL A   1      31.983  24.617  22.855  1.00  0.00     0.174 C 
ATOM      8  N   UNL A   1      31.314  25.100  24.051  1.00  0.00    -0.329 N 
ATOM      9  C   UNL A   1      30.799  24.056  24.900  1.00  0.00     0.120 C 
ATOM     10  C   UNL A   1      31.609  22.830  24.486  1.00  0.00     0.024 C 
ATOM     11  C   UNL A   1      32.036  23.094  23.043  1.00  0.00     0.037 C 
BRANCH   8  12
ATOM     12  C   UNL A   1      31.160  26.423  24.305  1.00  0.00     0.227 A 
ATOM     13  C   UNL A   1      30.318  28.475  23.745  1.00  0.00     0.080 A 
ATOM     14  C   UNL A   1      31.134  29.117  24.648  1.00  0.00     0.062 A 
ATOM     15  N   UNL A   1      30.349  27.147  23.533  1.00  0.00    -0.213 NA
ATOM     16  C   UNL A   1      31.959  28.306  25.395  1.00  0.00     0.150 A 
ATOM     17  N   UNL A   1      31.936  26.956  25.259  1.00  0.00    -0.208 NA
BRANCH  13  18
ATOM     18  C   UNL A   1      29.326  29.225  23.008  1.00  0.00     0.041 A 
ATOM     19  C   UNL A   1      27.015  28.119  23.564  1.00  0.00     0.069 C 
ATOM     20  C   UNL A   1      27.922  29.069  22.875  1.00  0.00     0.069 A 
ATOM     21  N   UNL A   1      27.412  29.933  21.983  1.00  0.00    -0.178 NA
ATOM     22  N   UNL A   1      28.476  30.648  21.575  1.00  0.00    -0.275 N 
ATOM     23  C   UNL A   1      29.644  30.269  22.163  1.00  0.00     0.119 A 
ATOM     24  C   UNL A   1      28.303  31.665  20.568  1.00  0.00     0.173 C 
ENDBRANCH  13  18
BRANCH  16  25
ATOM     25  C   UNL A   1      32.973  28.917  26.342  1.00  0.00     0.433 C 
ATOM     26  F   UNL A   1      34.020  28.092  26.622  1.00  0.00    -0.165 F 
ATOM     27  F   UNL A   1      33.519  30.065  25.845  1.00  0.00    -0.165 F 
ATOM     28  F   UNL A   1      32.442  29.261  27.551  1.00  0.00    -0.165 F 
ENDBRANCH  16  25
ENDBRANCH   8  12
ENDBRANCH   4   7
ENDBRANCH   2   3
ENDBRANCH   1   2
BRANCH   1  29
ATOM     29  C   UNL A   1      36.439  23.339  26.092  1.00  0.00     0.118 C 
BRANCH  29  30
ATOM     30  N   UNL A   1      37.643  22.521  26.043  1.00  0.00    -0.352 N 
ATOM     31  C   UNL A   1      38.951  22.848  26.289  1.00  0.00     0.251 C 
ATOM     32  H   UNL A   1      37.493  21.582  25.791  1.00  0.00     0.163 HD
ATOM     33  O   UNL A   1      39.834  22.037  26.018  1.00  0.00    -0.269 OA
BRANCH  31  34
ATOM     34  C   UNL A   1      39.321  24.159  26.867  1.00  0.00     0.039 A 
ATOM     35  C   UNL A   1      40.026  25.063  26.066  1.00  0.00     0.014 A 
ATOM     36  C   UNL A   1      39.048  24.479  28.199  1.00  0.00     0.014 A 
ATOM     37  C   UNL A   1      40.431  26.293  26.590  1.00  0.00     0.010 A 
ATOM     38  C   UNL A   1      39.384  25.735  28.699  1.00  0.00     0.010 A 
ATOM     39  C   UNL A   1      40.101  26.643  27.908  1.00  0.00    -0.014 A 
BRANCH  39  40
ATOM     40  C   UNL A   1      40.547  27.933  28.491  1.00  0.00     0.031 A 
ATOM     41  C   UNL A   1      41.999  28.138  28.828  1.00  0.00     0.074 A 
ATOM     42  C   UNL A   1      39.647  28.897  28.757  1.00  0.00     0.049 A 
ATOM     43  N   UNL A   1      42.582  29.164  29.396  1.00  0.00    -0.248 NA
ATOM     44  C   UNL A   1      42.914  27.030  28.509  1.00  0.00     0.031 C 
ATOM     45  C   UNL A   1      38.207  28.800  28.514  1.00  0.00     0.029 A 
ATOM     46  N   UNL A   1      39.811  30.147  29.297  1.00  0.00    -0.354 N 
ATOM     47  C   UNL A   1      43.921  28.814  29.523  1.00  0.00     0.074 A 
ATOM     48  C   UNL A   1      44.057  27.466  29.018  1.00  0.00     0.031 C 
ATOM     49  C   UNL A   1      37.622  29.950  28.885  1.00  0.00     0.029 A 
ATOM     50  C   UNL A   1      38.639  30.853  29.415  1.00  0.00     0.049 A 
ATOM     51  H   UNL A   1      40.686  30.504  29.574  1.00  0.00     0.167 HD
ATOM     52  C   UNL A   1      44.947  29.560  29.995  1.00  0.00     0.037 A 
ATOM     53  C   UNL A   1      38.416  32.091  29.896  1.00  0.00     0.037 A 
ATOM     54  C   UNL A   1      44.816  30.916  30.459  1.00  0.00     0.049 A 
ATOM     55  C   UNL A   1      39.579  32.910  30.385  1.00  0.00     0.074 A 
ATOM     56  C   UNL A   1      45.803  31.775  30.909  1.00  0.00     0.029 A 
ATOM     57  N   UNL A   1      43.618  31.612  30.523  1.00  0.00    -0.354 N 
ATOM     58  N   UNL A   1      40.848  32.590  30.450  1.00  0.00    -0.248 NA
ATOM     59  C   UNL A   1      39.279  34.269  30.856  1.00  0.00     0.031 C 
ATOM     60  C   UNL A   1      45.197  32.983  31.274  1.00  0.00     0.029 A 
ATOM     61  C   UNL A   1      43.840  32.889  31.012  1.00  0.00     0.049 A 
ATOM     62  H   UNL A   1      42.740  31.252  30.259  1.00  0.00     0.167 HD
ATOM     63  C   UNL A   1      41.501  33.715  30.935  1.00  0.00     0.074 A 
ATOM     64  C   UNL A   1      40.489  34.729  31.140  1.00  0.00     0.031 C 
ATOM     65  C   UNL A   1      42.820  33.891  31.190  1.00  0.00     0.037 A 
BRANCH  52  66
ATOM     66  C   UNL A   1      46.307  28.924  30.029  1.00  0.00     0.064 A 
ATOM     67  C   UNL A   1      46.764  28.225  31.157  1.00  0.00     0.173 A 
ATOM     68  C   UNL A   1      47.154  28.993  28.913  1.00  0.00     0.173 A 
ATOM     69  F   UNL A   1      45.998  28.142  32.255  1.00  0.00    -0.203 F 
ATOM     70  C   UNL A   1      48.030  27.645  31.177  1.00  0.00     0.198 A 
ATOM     71  C   UNL A   1      48.407  28.386  28.926  1.00  0.00     0.198 A 
ATOM     72  F   UNL A   1      46.764  29.645  27.807  1.00  0.00    -0.203 F 
ATOM     73  F   UNL A   1      48.463  27.027  32.284  1.00  0.00    -0.200 F 
ATOM     74  C   UNL A   1      48.847  27.721  30.059  1.00  0.00     0.200 A 
ATOM     75  F   UNL A   1      49.192  28.450  27.842  1.00  0.00    -0.200 F 
ATOM     76  F   UNL A   1      50.063  27.158  30.078  1.00  0.00    -0.200 F 
ENDBRANCH  52  66
BRANCH  53  77
ATOM     77  C   UNL A   1      37.038  32.645  29.899  1.00  0.00     0.064 A 
ATOM     78  C   UNL A   1      36.542  33.334  28.784  1.00  0.00     0.173 A 
ATOM     79  C   UNL A   1      36.192  32.498  31.007  1.00  0.00     0.173 A 
ATOM     80  F   UNL A   1      37.321  33.516  27.708  1.00  0.00    -0.203 F 
ATOM     81  C   UNL A   1      35.257  33.874  28.785  1.00  0.00     0.198 A 
ATOM     82  C   UNL A   1      34.899  33.016  30.997  1.00  0.00     0.198 A 
ATOM     83  F   UNL A   1      36.619  31.841  32.095  1.00  0.00    -0.203 F 
ATOM     84  F   UNL A   1      34.822  34.565  27.722  1.00  0.00    -0.200 F 
ATOM     85  C   UNL A   1      34.435  33.709  29.889  1.00  0.00     0.200 A 
ATOM     86  F   UNL A   1      34.103  32.844  32.061  1.00  0.00    -0.200 F 
ATOM     87  F   UNL A   1      33.198  34.226  29.890  1.00  0.00    -0.200 F 
ENDBRANCH  53  77
BRANCH  65  88
ATOM     88  C   UNL A   1      43.251  35.245  31.670  1.00  0.00     0.064 A 
ATOM     89  C   UNL A   1      43.698  36.233  30.783  1.00  0.00     0.173 A 
ATOM     90  C   UNL A   1      43.179  35.566  33.035  1.00  0.00     0.173 A 
ATOM     91  F   UNL A   1      43.797  35.968  29.471  1.00  0.00    -0.203 F 
ATOM     92  C   UNL A   1      44.084  37.488  31.246  1.00  0.00     0.198 A 
ATOM     93  C   UNL A   1      43.540  36.830  33.491  1.00  0.00     0.198 A 
ATOM     94  F   UNL A   1      42.751  34.656  33.922  1.00  0.00    -0.203 F 
ATOM     95  F   UNL A   1      44.553  38.402  30.386  1.00  0.00    -0.200 F 
ATOM     96  C   UNL A   1      44.000  37.787  32.598  1.00  0.00     0.200 A 
ATOM     97  F   UNL A   1      43.447  37.122  34.795  1.00  0.00    -0.200 F 
ATOM     98  F   UNL A   1      44.368  38.997  33.042  1.00  0.00    -0.200 F 
ENDBRANCH  65  88
ENDBRANCH  39  40
ENDBRANCH  31  34
ENDBRANCH  29  30
ENDBRANCH   1  29
TORSDOF 13
ENDMDL
MODEL 3
REMARK VINA RESULT:     -12.8      4.467      9.353
REMARK SMILES Cc1nn(C)cc1-c1cc(C(F)(F)F)nc(N2CCC[C@@H]2C(=O)NCCCNC(=O)c2ccc(-c3c4nc(c(-c5c(F)c(F)c(F)c(F)c5F)c5ccc([nH]5)c(-c5c(F)c(F)c(F)c(F)c5F)c5nc(c(-c6c(F)c(F)c(F)c(F)c6F)c6ccc3[nH]6)C=C5)C=C4)cc2)n1
REMARK SMILES IDX 26 1 25 2 24 3 22 4 23 5 21 7 17 8 18 9 19 10 20 11 16 12
REMARK SMILES IDX 8 13 9 14 94 15 10 16 15 17 7 18 1 19 2 20 3 21 4 22 6 23
REMARK SMILES IDX 5 24 11 25 12 26 13 27 14 28 27 29 28 30 29 31 30 33 31 34
REMARK SMILES IDX 32 35 93 36 33 37 92 38 34 39 35 40 36 41 86 42 37 43 91 44
REMARK SMILES IDX 85 45 87 46 38 47 90 48 84 49 83 50 39 52 71 53 51 54 70 55
REMARK SMILES IDX 52 56 55 57 69 58 88 59 53 60 54 61 68 63 89 64 56 65 40 66
REMARK SMILES IDX 41 67 49 68 42 69 43 70 47 71 50 72 44 73 45 74 48 75 46 76
REMARK SMILES IDX 72 77 73 78 81 79 74 80 75 81 79 82 82 83 76 84 77 85 80 86
REMARK SMILES IDX 78 87 57 88 58 89 66 90 59 91 60 92 64 93 67 94 61 95 62 96
REMARK SMILES IDX 65 97 63 98
REMARK H PARENT 24 6 28 32 87 51 55 62
REMARK Flexibility Score: inf
ROOT
ATOM      1  C   UNL A   1      32.412  27.801  25.600  1.00  0.00     0.042 C 
ENDROOT
BRANCH   1   2
ATOM      2  C   UNL A   1      32.973  26.387  25.529  1.00  0.00     0.117 C 
BRANCH   2   3
ATOM      3  N   UNL A   1      32.309  25.486  26.451  1.00  0.00    -0.354 N 
ATOM      4  C   UNL A   1      31.513  24.399  26.237  1.00  0.00     0.242 C 
ATOM      5  O   UNL A   1      31.079  23.837  27.251  1.00  0.00    -0.273 OA
ATOM      6  H   UNL A   1      32.460  25.694  27.402  1.00  0.00     0.163 HD
BRANCH   4   7
ATOM      7  C   UNL A   1      31.075  23.918  24.835  1.00  0.00     0.174 C 
ATOM      8  N   UNL A   1      32.152  23.406  24.003  1.00  0.00    -0.329 N 
ATOM      9  C   UNL A   1      32.189  23.969  22.678  1.00  0.00     0.120 C 
ATOM     10  C   UNL A   1      31.406  25.271  22.823  1.00  0.00     0.024 C 
ATOM     11  C   UNL A   1      30.455  25.044  23.997  1.00  0.00     0.037 C 
BRANCH   8  12
ATOM     12  C   UNL A   1      33.008  22.450  24.441  1.00  0.00     0.227 A 
ATOM     13  C   UNL A   1      35.125  21.756  24.959  1.00  0.00     0.080 A 
ATOM     14  C   UNL A   1      34.741  20.436  25.002  1.00  0.00     0.062 A 
ATOM     15  N   UNL A   1      34.288  22.761  24.641  1.00  0.00    -0.213 NA
ATOM     16  C   UNL A   1      33.407  20.190  24.765  1.00  0.00     0.150 A 
ATOM     17  N   UNL A   1      32.531  21.201  24.533  1.00  0.00    -0.208 NA
BRANCH  13  18
ATOM     18  C   UNL A   1      36.475  22.128  25.322  1.00  0.00     0.041 A 
ATOM     19  C   UNL A   1      37.940  19.982  24.975  1.00  0.00     0.069 C 
ATOM     20  C   UNL A   1      37.682  21.385  25.383  1.00  0.00     0.069 A 
ATOM     21  N   UNL A   1      38.685  22.115  25.893  1.00  0.00    -0.178 NA
ATOM     22  N   UNL A   1      38.128  23.317  26.127  1.00  0.00    -0.275 N 
ATOM     23  C   UNL A   1      36.809  23.380  25.796  1.00  0.00     0.119 A 
ATOM     24  C   UNL A   1      38.922  24.364  26.723  1.00  0.00     0.173 C 
ENDBRANCH  13  18
BRANCH  16  25
ATOM     25  C   UNL A   1      32.899  18.764  24.683  1.00  0.00     0.433 C 
ATOM     26  F   UNL A   1      31.811  18.621  23.874  1.00  0.00    -0.165 F 
ATOM     27  F   UNL A   1      33.844  17.905  24.201  1.00  0.00    -0.165 F 
ATOM     28  F   UNL A   1      32.527  18.254  25.893  1.00  0.00    -0.165 F 
ENDBRANCH  16  25
ENDBRANCH   8  12
ENDBRANCH   4   7
ENDBRANCH   2   3
ENDBRANCH   1   2
BRANCH   1  29
ATOM     29  C   UNL A   1      33.456  28.886  25.382  1.00  0.00     0.118 C 
BRANCH  29  30
ATOM     30  N   UNL A   1      33.017  30.186  25.870  1.00  0.00    -0.352 N 
ATOM     31  C   UNL A   1      33.489  30.954  26.902  1.00  0.00     0.251 C 
ATOM     32  H   UNL A   1      32.258  30.576  25.379  1.00  0.00     0.163 HD
ATOM     33  O   UNL A   1      32.853  31.948  27.251  1.00  0.00    -0.269 OA
BRANCH  31  34
ATOM     34  C   UNL A   1      34.742  30.609  27.609  1.00  0.00     0.039 A 
ATOM     35  C   UNL A   1      34.864  29.328  28.158  1.00  0.00     0.014 A 
ATOM     36  C   UNL A   1      35.761  31.545  27.799  1.00  0.00     0.014 A 
ATOM     37  C   UNL A   1      36.014  28.979  28.869  1.00  0.00     0.010 A 
ATOM     38  C   UNL A   1      36.940  31.173  28.442  1.00  0.00     0.010 A 
ATOM     39  C   UNL A   1      37.067  29.896  29.005  1.00  0.00    -0.014 A 
BRANCH  39  40
ATOM     40  C   UNL A   1      38.284  29.553  29.782  1.00  0.00     0.031 A 
ATOM     41  C   UNL A   1      38.480  30.130  31.158  1.00  0.00     0.074 A 
ATOM     42  C   UNL A   1      39.228  28.764  29.237  1.00  0.00     0.049 A 
ATOM     43  N   UNL A   1      39.496  30.002  31.973  1.00  0.00    -0.248 NA
ATOM     44  C   UNL A   1      37.401  30.987  31.674  1.00  0.00     0.031 C 
ATOM     45  C   UNL A   1      39.172  28.180  27.896  1.00  0.00     0.029 A 
ATOM     46  N   UNL A   1      40.424  28.323  29.744  1.00  0.00    -0.354 N 
ATOM     47  C   UNL A   1      39.188  30.780  33.083  1.00  0.00     0.074 A 
ATOM     48  C   UNL A   1      37.916  31.413  32.818  1.00  0.00     0.031 C 
ATOM     49  C   UNL A   1      40.274  27.440  27.694  1.00  0.00     0.029 A 
ATOM     50  C   UNL A   1      41.125  27.520  28.878  1.00  0.00     0.049 A 
ATOM     51  H   UNL A   1      40.749  28.560  30.643  1.00  0.00     0.167 HD
ATOM     52  C   UNL A   1      39.893  30.933  34.229  1.00  0.00     0.037 A 
ATOM     53  C   UNL A   1      42.320  26.917  29.027  1.00  0.00     0.037 A 
ATOM     54  C   UNL A   1      41.139  30.270  34.507  1.00  0.00     0.049 A 
ATOM     55  C   UNL A   1      43.067  27.077  30.323  1.00  0.00     0.074 A 
ATOM     56  C   UNL A   1      41.906  30.317  35.658  1.00  0.00     0.029 A 
ATOM     57  N   UNL A   1      41.797  29.429  33.621  1.00  0.00    -0.354 N 
ATOM     58  N   UNL A   1      42.741  27.771  31.386  1.00  0.00    -0.248 NA
ATOM     59  C   UNL A   1      44.343  26.358  30.444  1.00  0.00     0.031 C 
ATOM     60  C   UNL A   1      43.044  29.528  35.457  1.00  0.00     0.029 A 
ATOM     61  C   UNL A   1      42.964  28.957  34.197  1.00  0.00     0.049 A 
ATOM     62  H   UNL A   1      41.481  29.202  32.717  1.00  0.00     0.167 HD
ATOM     63  C   UNL A   1      43.751  27.547  32.312  1.00  0.00     0.074 A 
ATOM     64  C   UNL A   1      44.696  26.645  31.689  1.00  0.00     0.031 C 
ATOM     65  C   UNL A   1      43.883  28.044  33.566  1.00  0.00     0.037 A 
BRANCH  52  66
ATOM     66  C   UNL A   1      39.326  31.851  35.273  1.00  0.00     0.064 A 
ATOM     67  C   UNL A   1      38.489  31.375  36.295  1.00  0.00     0.173 A 
ATOM     68  C   UNL A   1      39.641  33.218  35.267  1.00  0.00     0.173 A 
ATOM     69  F   UNL A   1      38.147  30.078  36.336  1.00  0.00    -0.203 F 
ATOM     70  C   UNL A   1      37.965  32.238  37.252  1.00  0.00     0.198 A 
ATOM     71  C   UNL A   1      39.139  34.073  36.245  1.00  0.00     0.198 A 
ATOM     72  F   UNL A   1      40.439  33.724  34.316  1.00  0.00    -0.203 F 
ATOM     73  F   UNL A   1      37.128  31.769  38.188  1.00  0.00    -0.200 F 
ATOM     74  C   UNL A   1      38.295  33.585  37.231  1.00  0.00     0.200 A 
ATOM     75  F   UNL A   1      39.467  35.372  36.229  1.00  0.00    -0.200 F 
ATOM     76  F   UNL A   1      37.794  34.414  38.156  1.00  0.00    -0.200 F 
ENDBRANCH  52  66
BRANCH  53  77
ATOM     77  C   UNL A   1      42.863  26.071  27.934  1.00  0.00     0.064 A 
ATOM     78  C   UNL A   1      43.726  26.612  26.972  1.00  0.00     0.173 A 
ATOM     79  C   UNL A   1      42.536  24.712  27.830  1.00  0.00     0.173 A 
ATOM     80  F   UNL A   1      44.052  27.912  27.021  1.00  0.00    -0.203 F 
ATOM     81  C   UNL A   1      44.225  25.830  25.932  1.00  0.00     0.198 A 
ATOM     82  C   UNL A   1      43.055  23.925  26.804  1.00  0.00     0.198 A 
ATOM     83  F   UNL A   1      41.719  24.147  28.730  1.00  0.00    -0.203 F 
ATOM     84  F   UNL A   1      45.015  26.382  25.001  1.00  0.00    -0.200 F 
ATOM     85  C   UNL A   1      43.894  24.486  25.853  1.00  0.00     0.200 A 
ATOM     86  F   UNL A   1      42.744  22.624  26.738  1.00  0.00    -0.200 F 
ATOM     87  F   UNL A   1      44.376  23.733  24.855  1.00  0.00    -0.200 F 
ENDBRANCH  53  77
BRANCH  65  88
ATOM     88  C   UNL A   1      45.067  27.585  34.364  1.00  0.00     0.064 A 
ATOM     89  C   UNL A   1      46.277  28.293  34.360  1.00  0.00     0.173 A 
ATOM     90  C   UNL A   1      44.975  26.440  35.170  1.00  0.00     0.173 A 
ATOM     91  F   UNL A   1      46.417  29.386  33.594  1.00  0.00    -0.203 F 
ATOM     92  C   UNL A   1      47.362  27.857  35.115  1.00  0.00     0.198 A 
ATOM     93  C   UNL A   1      46.054  26.022  35.944  1.00  0.00     0.198 A 
ATOM     94  F   UNL A   1      43.837  25.732  35.213  1.00  0.00    -0.203 F 
ATOM     95  F   UNL A   1      48.524  28.523  35.060  1.00  0.00    -0.200 F 
ATOM     96  C   UNL A   1      47.249  26.727  35.910  1.00  0.00     0.200 A 
ATOM     97  F   UNL A   1      45.939  24.937  36.721  1.00  0.00    -0.200 F 
ATOM     98  F   UNL A   1      48.293  26.310  36.639  1.00  0.00    -0.200 F 
ENDBRANCH  65  88
ENDBRANCH  39  40
ENDBRANCH  31  34
ENDBRANCH  29  30
ENDBRANCH   1  29
TORSDOF 13
ENDMDL
