MODEL 1
REMARK VINA RESULT:     -12.7      0.000      0.000
REMARK SMILES CC[C@@H](NC(=O)c1ccc(CNC(=O)[C@H]2CCCO2)cc1)C(=O)NCCCNC(=O)c1ccc(-c2c3nc(c(-c4c(F)c(F)c(F)c(F)c4F)c4ccc([nH]4)c(-c4c(F)c(F)c(F)c(F)c4F)c4nc(c(-c5c(F)c(F)c(F)c(F)c5F)c5ccc2[nH]5)C=C4)C=C3)cc1
REMARK SMILES IDX 22 1 23 2 24 3 3 5 2 6 1 7 4 8 5 9 6 11 7 12 8 13 21 14 9 15
REMARK SMILES IDX 20 16 10 17 11 18 12 19 13 20 14 22 15 23 16 24 19 25 17 26
REMARK SMILES IDX 18 27 25 28 26 29 27 30 28 31 29 32 30 34 31 35 32 36 93 37
REMARK SMILES IDX 33 38 92 39 34 40 35 41 36 42 86 43 37 44 91 45 85 46 87 47
REMARK SMILES IDX 38 48 90 49 84 50 83 51 39 53 71 54 51 55 70 56 52 57 55 58
REMARK SMILES IDX 69 59 88 60 53 61 54 62 68 64 89 65 56 66 40 67 41 68 49 69
REMARK SMILES IDX 42 70 43 71 47 72 50 73 44 74 45 75 48 76 46 77 72 78 73 79
REMARK SMILES IDX 81 80 74 81 75 82 79 83 82 84 76 85 77 86 80 87 78 88 57 89
REMARK SMILES IDX 58 90 66 91 59 92 60 93 64 94 67 95 61 96 62 97 65 98 63 99
REMARK H PARENT 24 4 4 10 12 21 28 33 87 52 55 63
REMARK Flexibility Score: inf
ROOT
ATOM      1  C   UNL A   1      34.183  21.617  26.448  1.00  0.00     0.242 C 
ATOM      2  O   UNL A   1      34.335  21.438  27.660  1.00  0.00    -0.273 OA
ATOM      3  N   UNL A   1      35.296  21.831  25.693  1.00  0.00    -0.354 N 
ATOM      4  H   UNL A   1      36.153  21.720  26.164  1.00  0.00     0.163 HD
ENDROOT
BRANCH   1   5
ATOM      5  C   UNL A   1      32.771  21.759  25.844  1.00  0.00     0.171 C 
BRANCH   5   6
ATOM      6  C   UNL A   1      32.472  20.387  25.190  1.00  0.00     0.032 C 
ATOM      7  C   UNL A   1      32.425  20.377  23.672  1.00  0.00     0.006 C 
ENDBRANCH   5   6
BRANCH   5   8
ATOM      8  N   UNL A   1      31.714  22.182  26.778  1.00  0.00    -0.340 N 
ATOM      9  C   UNL A   1      30.727  23.134  26.653  1.00  0.00     0.251 C 
ATOM     10  H   UNL A   1      31.714  21.702  27.638  1.00  0.00     0.164 HD
ATOM     11  O   UNL A   1      29.794  23.133  27.452  1.00  0.00    -0.269 OA
BRANCH   9  12
ATOM     12  C   UNL A   1      30.865  24.264  25.708  1.00  0.00     0.039 A 
ATOM     13  C   UNL A   1      30.611  24.001  24.356  1.00  0.00     0.014 A 
ATOM     14  C   UNL A   1      31.168  25.561  26.117  1.00  0.00     0.014 A 
ATOM     15  C   UNL A   1      30.541  25.051  23.436  1.00  0.00     0.006 A 
ATOM     16  C   UNL A   1      31.099  26.611  25.192  1.00  0.00     0.006 A 
ATOM     17  C   UNL A   1      30.763  26.372  23.847  1.00  0.00    -0.029 A 
BRANCH  17  18
ATOM     18  C   UNL A   1      30.594  27.524  22.881  1.00  0.00     0.151 C 
BRANCH  18  19
ATOM     19  N   UNL A   1      30.654  28.799  23.563  1.00  0.00    -0.350 N 
ATOM     20  C   UNL A   1      29.815  29.870  23.546  1.00  0.00     0.249 C 
ATOM     21  H   UNL A   1      31.442  28.912  24.142  1.00  0.00     0.163 HD
ATOM     22  O   UNL A   1      30.140  30.841  24.238  1.00  0.00    -0.272 OA
BRANCH  20  23
ATOM     23  C   UNL A   1      28.473  29.848  22.769  1.00  0.00     0.207 C 
ATOM     24  C   UNL A   1      27.597  31.041  23.158  1.00  0.00     0.044 C 
ATOM     25  O   UNL A   1      28.567  29.901  21.344  1.00  0.00    -0.368 OA
ATOM     26  C   UNL A   1      27.981  32.059  22.113  1.00  0.00     0.032 C 
ATOM     27  C   UNL A   1      28.145  31.191  20.890  1.00  0.00     0.161 C 
ENDBRANCH  20  23
ENDBRANCH  18  19
ENDBRANCH  17  18
ENDBRANCH   9  12
ENDBRANCH   5   8
ENDBRANCH   1   5
BRANCH   3  28
ATOM     28  C   UNL A   1      35.401  22.199  24.293  1.00  0.00     0.117 C 
BRANCH  28  29
ATOM     29  C   UNL A   1      36.470  23.253  24.075  1.00  0.00     0.042 C 
BRANCH  29  30
ATOM     30  C   UNL A   1      37.198  23.628  25.353  1.00  0.00     0.118 C 
BRANCH  30  31
ATOM     31  N   UNL A   1      38.364  22.792  25.613  1.00  0.00    -0.352 N 
ATOM     32  C   UNL A   1      39.517  23.138  26.280  1.00  0.00     0.251 C 
ATOM     33  H   UNL A   1      38.322  21.870  25.271  1.00  0.00     0.163 HD
ATOM     34  O   UNL A   1      40.461  22.362  26.374  1.00  0.00    -0.269 OA
BRANCH  32  35
ATOM     35  C   UNL A   1      39.595  24.485  26.864  1.00  0.00     0.039 A 
ATOM     36  C   UNL A   1      39.143  24.681  28.170  1.00  0.00     0.014 A 
ATOM     37  C   UNL A   1      40.244  25.504  26.161  1.00  0.00     0.014 A 
ATOM     38  C   UNL A   1      39.425  25.885  28.813  1.00  0.00     0.010 A 
ATOM     39  C   UNL A   1      40.597  26.663  26.832  1.00  0.00     0.010 A 
ATOM     40  C   UNL A   1      40.198  26.861  28.165  1.00  0.00    -0.014 A 
BRANCH  40  41
ATOM     41  C   UNL A   1      40.605  28.116  28.839  1.00  0.00     0.031 A 
ATOM     42  C   UNL A   1      41.991  28.222  29.402  1.00  0.00     0.074 A 
ATOM     43  C   UNL A   1      39.702  29.090  29.055  1.00  0.00     0.049 A 
ATOM     44  N   UNL A   1      42.494  29.120  30.207  1.00  0.00    -0.248 NA
ATOM     45  C   UNL A   1      42.921  27.138  29.048  1.00  0.00     0.031 C 
ATOM     46  C   UNL A   1      38.311  29.075  28.599  1.00  0.00     0.029 A 
ATOM     47  N   UNL A   1      39.814  30.272  29.745  1.00  0.00    -0.354 N 
ATOM     48  C   UNL A   1      43.780  28.683  30.494  1.00  0.00     0.074 A 
ATOM     49  C   UNL A   1      43.964  27.422  29.811  1.00  0.00     0.031 C 
ATOM     50  C   UNL A   1      37.700  30.196  29.018  1.00  0.00     0.029 A 
ATOM     51  C   UNL A   1      38.642  30.985  29.805  1.00  0.00     0.049 A 
ATOM     52  H   UNL A   1      40.653  30.577  30.157  1.00  0.00     0.167 HD
ATOM     53  C   UNL A   1      44.724  29.290  31.249  1.00  0.00     0.037 A 
ATOM     54  C   UNL A   1      38.358  32.136  30.443  1.00  0.00     0.037 A 
ATOM     55  C   UNL A   1      44.547  30.569  31.879  1.00  0.00     0.049 A 
ATOM     56  C   UNL A   1      39.439  32.822  31.233  1.00  0.00     0.074 A 
ATOM     57  C   UNL A   1      45.463  31.312  32.602  1.00  0.00     0.029 A 
ATOM     58  N   UNL A   1      43.368  31.302  31.852  1.00  0.00    -0.354 N 
ATOM     59  N   UNL A   1      40.669  32.429  31.460  1.00  0.00    -0.248 NA
ATOM     60  C   UNL A   1      39.096  34.111  31.850  1.00  0.00     0.031 C 
ATOM     61  C   UNL A   1      44.830  32.482  33.034  1.00  0.00     0.029 A 
ATOM     62  C   UNL A   1      43.531  32.485  32.551  1.00  0.00     0.049 A 
ATOM     63  H   UNL A   1      42.538  31.020  31.402  1.00  0.00     0.167 HD
ATOM     64  C   UNL A   1      41.256  33.428  32.222  1.00  0.00     0.074 A 
ATOM     65  C   UNL A   1      40.247  34.450  32.417  1.00  0.00     0.031 C 
ATOM     66  C   UNL A   1      42.516  33.494  32.714  1.00  0.00     0.037 A 
BRANCH  53  67
ATOM     67  C   UNL A   1      46.026  28.567  31.429  1.00  0.00     0.064 A 
ATOM     68  C   UNL A   1      46.231  27.671  32.491  1.00  0.00     0.173 A 
ATOM     69  C   UNL A   1      47.086  28.782  30.538  1.00  0.00     0.173 A 
ATOM     70  F   UNL A   1      45.253  27.445  33.381  1.00  0.00    -0.203 F 
ATOM     71  C   UNL A   1      47.464  27.053  32.677  1.00  0.00     0.198 A 
ATOM     72  C   UNL A   1      48.309  28.138  30.709  1.00  0.00     0.198 A 
ATOM     73  F   UNL A   1      46.943  29.627  29.505  1.00  0.00    -0.203 F 
ATOM     74  F   UNL A   1      47.658  26.256  33.737  1.00  0.00    -0.200 F 
ATOM     75  C   UNL A   1      48.500  27.284  31.785  1.00  0.00     0.200 A 
ATOM     76  F   UNL A   1      49.307  28.354  29.841  1.00  0.00    -0.200 F 
ATOM     77  F   UNL A   1      49.689  26.693  31.969  1.00  0.00    -0.200 F 
ENDBRANCH  53  67
BRANCH  54  78
ATOM     78  C   UNL A   1      36.996  32.716  30.336  1.00  0.00     0.064 A 
ATOM     79  C   UNL A   1      36.058  32.535  31.361  1.00  0.00     0.173 A 
ATOM     80  C   UNL A   1      36.616  33.492  29.232  1.00  0.00     0.173 A 
ATOM     81  F   UNL A   1      36.372  31.786  32.430  1.00  0.00    -0.203 F 
ATOM     82  C   UNL A   1      34.788  33.103  31.285  1.00  0.00     0.198 A 
ATOM     83  C   UNL A   1      35.354  34.078  29.165  1.00  0.00     0.198 A 
ATOM     84  F   UNL A   1      37.481  33.701  28.229  1.00  0.00    -0.203 F 
ATOM     85  F   UNL A   1      33.902  32.896  32.268  1.00  0.00    -0.200 F 
ATOM     86  C   UNL A   1      34.440  33.881  30.189  1.00  0.00     0.200 A 
ATOM     87  F   UNL A   1      35.025  34.840  28.113  1.00  0.00    -0.200 F 
ATOM     88  F   UNL A   1      33.223  34.438  30.122  1.00  0.00    -0.200 F 
ENDBRANCH  54  78
BRANCH  66  89
ATOM     89  C   UNL A   1      42.896  34.728  33.475  1.00  0.00     0.064 A 
ATOM     90  C   UNL A   1      43.274  35.907  32.819  1.00  0.00     0.173 A 
ATOM     91  C   UNL A   1      42.801  34.751  34.874  1.00  0.00     0.173 A 
ATOM     92  F   UNL A   1      43.391  35.928  31.483  1.00  0.00    -0.203 F 
ATOM     93  C   UNL A   1      43.550  37.066  33.539  1.00  0.00     0.198 A 
ATOM     94  C   UNL A   1      43.056  35.916  35.589  1.00  0.00     0.198 A 
ATOM     95  F   UNL A   1      42.437  33.646  35.545  1.00  0.00    -0.203 F 
ATOM     96  F   UNL A   1      43.931  38.177  32.895  1.00  0.00    -0.200 F 
ATOM     97  C   UNL A   1      43.431  37.072  34.922  1.00  0.00     0.200 A 
ATOM     98  F   UNL A   1      42.931  35.924  36.924  1.00  0.00    -0.200 F 
ATOM     99  F   UNL A   1      43.682  38.193  35.612  1.00  0.00    -0.200 F 
ENDBRANCH  66  89
ENDBRANCH  40  41
ENDBRANCH  32  35
ENDBRANCH  30  31
ENDBRANCH  29  30
ENDBRANCH  28  29
ENDBRANCH   3  28
TORSDOF 16
ENDMDL
MODEL 2
REMARK VINA RESULT:     -12.5      3.466      9.062
REMARK SMILES CC[C@@H](NC(=O)c1ccc(CNC(=O)[C@H]2CCCO2)cc1)C(=O)NCCCNC(=O)c1ccc(-c2c3nc(c(-c4c(F)c(F)c(F)c(F)c4F)c4ccc([nH]4)c(-c4c(F)c(F)c(F)c(F)c4F)c4nc(c(-c5c(F)c(F)c(F)c(F)c5F)c5ccc2[nH]5)C=C4)C=C3)cc1
REMARK SMILES IDX 22 1 23 2 24 3 3 5 2 6 1 7 4 8 5 9 6 11 7 12 8 13 21 14 9 15
REMARK SMILES IDX 20 16 10 17 11 18 12 19 13 20 14 22 15 23 16 24 19 25 17 26
REMARK SMILES IDX 18 27 25 28 26 29 27 30 28 31 29 32 30 34 31 35 32 36 93 37
REMARK SMILES IDX 33 38 92 39 34 40 35 41 36 42 86 43 37 44 91 45 85 46 87 47
REMARK SMILES IDX 38 48 90 49 84 50 83 51 39 53 71 54 51 55 70 56 52 57 55 58
REMARK SMILES IDX 69 59 88 60 53 61 54 62 68 64 89 65 56 66 40 67 41 68 49 69
REMARK SMILES IDX 42 70 43 71 47 72 50 73 44 74 45 75 48 76 46 77 72 78 73 79
REMARK SMILES IDX 81 80 74 81 75 82 79 83 82 84 76 85 77 86 80 87 78 88 57 89
REMARK SMILES IDX 58 90 66 91 59 92 60 93 64 94 67 95 61 96 62 97 65 98 63 99
REMARK H PARENT 24 4 4 10 12 21 28 33 87 52 55 63
REMARK Flexibility Score: inf
ROOT
ATOM      1  C   UNL A   1      33.751  25.772  22.845  1.00  0.00     0.242 C 
ATOM      2  O   UNL A   1      33.654  26.025  21.640  1.00  0.00    -0.273 OA
ATOM      3  N   UNL A   1      34.521  24.709  23.210  1.00  0.00    -0.354 N 
ATOM      4  H   UNL A   1      35.029  24.286  22.481  1.00  0.00     0.163 HD
ENDROOT
BRANCH   1   5
ATOM      5  C   UNL A   1      32.897  26.530  23.880  1.00  0.00     0.171 C 
BRANCH   5   6
ATOM      6  C   UNL A   1      33.441  27.981  23.867  1.00  0.00     0.032 C 
ATOM      7  C   UNL A   1      33.775  28.571  25.226  1.00  0.00     0.006 C 
ENDBRANCH   5   6
BRANCH   5   8
ATOM      8  N   UNL A   1      31.440  26.472  23.676  1.00  0.00    -0.340 N 
ATOM      9  C   UNL A   1      30.514  25.522  24.043  1.00  0.00     0.251 C 
ATOM     10  H   UNL A   1      31.065  27.244  23.193  1.00  0.00     0.164 HD
ATOM     11  O   UNL A   1      29.320  25.806  24.002  1.00  0.00    -0.269 OA
BRANCH   9  12
ATOM     12  C   UNL A   1      30.912  24.120  24.298  1.00  0.00     0.039 A 
ATOM     13  C   UNL A   1      31.216  23.329  23.183  1.00  0.00     0.014 A 
ATOM     14  C   UNL A   1      31.052  23.593  25.580  1.00  0.00     0.014 A 
ATOM     15  C   UNL A   1      31.772  22.058  23.352  1.00  0.00     0.006 A 
ATOM     16  C   UNL A   1      31.608  22.318  25.747  1.00  0.00     0.006 A 
ATOM     17  C   UNL A   1      31.996  21.545  24.637  1.00  0.00    -0.029 A 
BRANCH  17  18
ATOM     18  C   UNL A   1      32.688  20.213  24.832  1.00  0.00     0.151 C 
BRANCH  18  19
ATOM     19  N   UNL A   1      32.474  19.337  23.700  1.00  0.00    -0.350 N 
ATOM     20  C   UNL A   1      32.899  18.069  23.450  1.00  0.00     0.249 C 
ATOM     21  H   UNL A   1      31.924  19.729  22.983  1.00  0.00     0.163 HD
ATOM     22  O   UNL A   1      32.559  17.572  22.371  1.00  0.00    -0.272 OA
BRANCH  20  23
ATOM     23  C   UNL A   1      33.697  17.250  24.497  1.00  0.00     0.207 C 
ATOM     24  C   UNL A   1      32.972  17.234  25.844  1.00  0.00     0.044 C 
ATOM     25  O   UNL A   1      33.930  15.876  24.180  1.00  0.00    -0.368 OA
ATOM     26  C   UNL A   1      32.155  15.970  25.741  1.00  0.00     0.032 C 
ATOM     27  C   UNL A   1      33.107  15.053  25.014  1.00  0.00     0.161 C 
ENDBRANCH  20  23
ENDBRANCH  18  19
ENDBRANCH  17  18
ENDBRANCH   9  12
ENDBRANCH   5   8
ENDBRANCH   1   5
BRANCH   3  28
ATOM     28  C   UNL A   1      34.700  24.111  24.520  1.00  0.00     0.117 C 
BRANCH  28  29
ATOM     29  C   UNL A   1      35.485  22.816  24.436  1.00  0.00     0.042 C 
BRANCH  29  30
ATOM     30  C   UNL A   1      36.315  22.547  25.677  1.00  0.00     0.118 C 
BRANCH  30  31
ATOM     31  N   UNL A   1      37.262  21.450  25.507  1.00  0.00    -0.352 N 
ATOM     32  C   UNL A   1      38.595  21.428  25.844  1.00  0.00     0.251 C 
ATOM     33  H   UNL A   1      36.903  20.628  25.101  1.00  0.00     0.163 HD
ATOM     34  O   UNL A   1      39.306  20.464  25.585  1.00  0.00    -0.269 OA
BRANCH  32  35
ATOM     35  C   UNL A   1      39.154  22.612  26.513  1.00  0.00     0.039 A 
ATOM     36  C   UNL A   1      40.180  22.439  27.444  1.00  0.00     0.014 A 
ATOM     37  C   UNL A   1      38.754  23.887  26.105  1.00  0.00     0.014 A 
ATOM     38  C   UNL A   1      40.874  23.556  27.906  1.00  0.00     0.010 A 
ATOM     39  C   UNL A   1      39.501  24.985  26.499  1.00  0.00     0.010 A 
ATOM     40  C   UNL A   1      40.572  24.828  27.396  1.00  0.00    -0.014 A 
BRANCH  40  41
ATOM     41  C   UNL A   1      41.343  26.033  27.782  1.00  0.00     0.031 A 
ATOM     42  C   UNL A   1      40.649  27.131  28.531  1.00  0.00     0.074 A 
ATOM     43  C   UNL A   1      42.609  26.190  27.353  1.00  0.00     0.049 A 
ATOM     44  N   UNL A   1      41.052  28.349  28.782  1.00  0.00    -0.248 NA
ATOM     45  C   UNL A   1      39.292  26.831  29.017  1.00  0.00     0.031 C 
ATOM     46  C   UNL A   1      43.370  25.212  26.575  1.00  0.00     0.029 A 
ATOM     47  N   UNL A   1      43.468  27.253  27.484  1.00  0.00    -0.354 N 
ATOM     48  C   UNL A   1      39.983  28.972  29.411  1.00  0.00     0.074 A 
ATOM     49  C   UNL A   1      38.902  28.013  29.465  1.00  0.00     0.031 C 
ATOM     50  C   UNL A   1      44.584  25.718  26.301  1.00  0.00     0.029 A 
ATOM     51  C   UNL A   1      44.671  27.069  26.847  1.00  0.00     0.049 A 
ATOM     52  H   UNL A   1      43.243  28.068  27.987  1.00  0.00     0.167 HD
ATOM     53  C   UNL A   1      39.918  30.228  29.909  1.00  0.00     0.037 A 
ATOM     54  C   UNL A   1      45.715  27.905  26.704  1.00  0.00     0.037 A 
ATOM     55  C   UNL A   1      41.016  31.154  29.897  1.00  0.00     0.049 A 
ATOM     56  C   UNL A   1      45.642  29.279  27.313  1.00  0.00     0.074 A 
ATOM     57  C   UNL A   1      41.085  32.423  30.443  1.00  0.00     0.029 A 
ATOM     58  N   UNL A   1      42.249  30.902  29.310  1.00  0.00    -0.354 N 
ATOM     59  N   UNL A   1      44.646  29.845  27.950  1.00  0.00    -0.248 NA
ATOM     60  C   UNL A   1      46.836  30.126  27.189  1.00  0.00     0.031 C 
ATOM     61  C   UNL A   1      42.350  32.949  30.163  1.00  0.00     0.029 A 
ATOM     62  C   UNL A   1      43.083  31.995  29.475  1.00  0.00     0.049 A 
ATOM     63  H   UNL A   1      42.494  30.069  28.845  1.00  0.00     0.167 HD
ATOM     64  C   UNL A   1      45.097  31.102  28.325  1.00  0.00     0.074 A 
ATOM     65  C   UNL A   1      46.460  31.216  27.847  1.00  0.00     0.031 C 
ATOM     66  C   UNL A   1      44.442  32.074  29.006  1.00  0.00     0.037 A 
BRANCH  53  67
ATOM     67  C   UNL A   1      38.611  30.662  30.504  1.00  0.00     0.064 A 
ATOM     68  C   UNL A   1      37.563  31.148  29.706  1.00  0.00     0.173 A 
ATOM     69  C   UNL A   1      38.408  30.604  31.889  1.00  0.00     0.173 A 
ATOM     70  F   UNL A   1      37.714  31.240  28.376  1.00  0.00    -0.203 F 
ATOM     71  C   UNL A   1      36.378  31.601  30.279  1.00  0.00     0.198 A 
ATOM     72  C   UNL A   1      37.209  31.028  32.457  1.00  0.00     0.198 A 
ATOM     73  F   UNL A   1      39.376  30.145  32.697  1.00  0.00    -0.203 F 
ATOM     74  F   UNL A   1      35.419  32.126  29.503  1.00  0.00    -0.200 F 
ATOM     75  C   UNL A   1      36.201  31.538  31.652  1.00  0.00     0.200 A 
ATOM     76  F   UNL A   1      37.035  30.958  33.784  1.00  0.00    -0.200 F 
ATOM     77  F   UNL A   1      35.062  31.980  32.203  1.00  0.00    -0.200 F 
ENDBRANCH  53  67
BRANCH  54  78
ATOM     78  C   UNL A   1      46.923  27.451  25.970  1.00  0.00     0.064 A 
ATOM     79  C   UNL A   1      47.038  27.650  24.588  1.00  0.00     0.173 A 
ATOM     80  C   UNL A   1      47.999  26.847  26.636  1.00  0.00     0.173 A 
ATOM     81  F   UNL A   1      46.027  28.210  23.907  1.00  0.00    -0.203 F 
ATOM     82  C   UNL A   1      48.182  27.257  23.897  1.00  0.00     0.198 A 
ATOM     83  C   UNL A   1      49.151  26.473  25.949  1.00  0.00     0.198 A 
ATOM     84  F   UNL A   1      47.939  26.642  27.961  1.00  0.00    -0.203 F 
ATOM     85  F   UNL A   1      48.258  27.438  22.572  1.00  0.00    -0.200 F 
ATOM     86  C   UNL A   1      49.241  26.675  24.579  1.00  0.00     0.200 A 
ATOM     87  F   UNL A   1      50.177  25.924  26.613  1.00  0.00    -0.200 F 
ATOM     88  F   UNL A   1      50.346  26.308  23.916  1.00  0.00    -0.200 F 
ENDBRANCH  54  78
BRANCH  66  89
ATOM     89  C   UNL A   1      45.199  33.330  29.315  1.00  0.00     0.064 A 
ATOM     90  C   UNL A   1      46.014  33.434  30.450  1.00  0.00     0.173 A 
ATOM     91  C   UNL A   1      45.170  34.409  28.419  1.00  0.00     0.173 A 
ATOM     92  F   UNL A   1      46.061  32.432  31.341  1.00  0.00    -0.203 F 
ATOM     93  C   UNL A   1      46.769  34.581  30.682  1.00  0.00     0.198 A 
ATOM     94  C   UNL A   1      45.943  35.544  28.643  1.00  0.00     0.198 A 
ATOM     95  F   UNL A   1      44.409  34.351  27.315  1.00  0.00    -0.203 F 
ATOM     96  F   UNL A   1      47.523  34.671  31.785  1.00  0.00    -0.200 F 
ATOM     97  C   UNL A   1      46.740  35.630  29.773  1.00  0.00     0.200 A 
ATOM     98  F   UNL A   1      45.923  36.551  27.759  1.00  0.00    -0.200 F 
ATOM     99  F   UNL A   1      47.481  36.725  29.991  1.00  0.00    -0.200 F 
ENDBRANCH  66  89
ENDBRANCH  40  41
ENDBRANCH  32  35
ENDBRANCH  30  31
ENDBRANCH  29  30
ENDBRANCH  28  29
ENDBRANCH   3  28
TORSDOF 16
ENDMDL
MODEL 3
REMARK VINA RESULT:     -12.3      3.820      8.640
REMARK SMILES CC[C@@H](NC(=O)c1ccc(CNC(=O)[C@H]2CCCO2)cc1)C(=O)NCCCNC(=O)c1ccc(-c2c3nc(c(-c4c(F)c(F)c(F)c(F)c4F)c4ccc([nH]4)c(-c4c(F)c(F)c(F)c(F)c4F)c4nc(c(-c5c(F)c(F)c(F)c(F)c5F)c5ccc2[nH]5)C=C4)C=C3)cc1
REMARK SMILES IDX 22 1 23 2 24 3 3 5 2 6 1 7 4 8 5 9 6 11 7 12 8 13 21 14 9 15
REMARK SMILES IDX 20 16 10 17 11 18 12 19 13 20 14 22 15 23 16 24 19 25 17 26
REMARK SMILES IDX 18 27 25 28 26 29 27 30 28 31 29 32 30 34 31 35 32 36 93 37
REMARK SMILES IDX 33 38 92 39 34 40 35 41 36 42 86 43 37 44 91 45 85 46 87 47
REMARK SMILES IDX 38 48 90 49 84 50 83 51 39 53 71 54 51 55 70 56 52 57 55 58
REMARK SMILES IDX 69 59 88 60 53 61 54 62 68 64 89 65 56 66 40 67 41 68 49 69
REMARK SMILES IDX 42 70 43 71 47 72 50 73 44 74 45 75 48 76 46 77 72 78 73 79
REMARK SMILES IDX 81 80 74 81 75 82 79 83 82 84 76 85 77 86 80 87 78 88 57 89
REMARK SMILES IDX 58 90 66 91 59 92 60 93 64 94 67 95 61 96 62 97 65 98 63 99
REMARK H PARENT 24 4 4 10 12 21 28 33 87 52 55 63
REMARK Flexibility Score: inf
ROOT
ATOM      1  C   UNL A   1      37.295  22.742  25.740  1.00  0.00     0.242 C 
ATOM      2  O   UNL A   1      37.947  23.730  26.096  1.00  0.00    -0.273 OA
ATOM      3  N   UNL A   1      37.982  21.669  25.260  1.00  0.00    -0.354 N 
ATOM      4  H   UNL A   1      38.962  21.728  25.333  1.00  0.00     0.163 HD
ENDROOT
BRANCH   1   5
ATOM      5  C   UNL A   1      35.755  22.791  25.688  1.00  0.00     0.171 C 
BRANCH   5   6
ATOM      6  C   UNL A   1      35.418  23.470  24.337  1.00  0.00     0.032 C 
ATOM      7  C   UNL A   1      34.722  24.817  24.433  1.00  0.00     0.006 C 
ENDBRANCH   5   6
BRANCH   5   8
ATOM      8  N   UNL A   1      35.067  21.500  25.858  1.00  0.00    -0.340 N 
ATOM      9  C   UNL A   1      33.755  21.142  25.646  1.00  0.00     0.251 C 
ATOM     10  H   UNL A   1      35.645  20.770  26.178  1.00  0.00     0.164 HD
ATOM     11  O   UNL A   1      33.463  19.950  25.600  1.00  0.00    -0.269 OA
BRANCH   9  12
ATOM     12  C   UNL A   1      32.671  22.148  25.667  1.00  0.00     0.039 A 
ATOM     13  C   UNL A   1      32.510  22.891  26.844  1.00  0.00     0.014 A 
ATOM     14  C   UNL A   1      31.867  22.420  24.562  1.00  0.00     0.014 A 
ATOM     15  C   UNL A   1      31.634  23.979  26.876  1.00  0.00     0.006 A 
ATOM     16  C   UNL A   1      30.987  23.509  24.597  1.00  0.00     0.006 A 
ATOM     17  C   UNL A   1      30.877  24.316  25.745  1.00  0.00    -0.029 A 
BRANCH  17  18
ATOM     18  C   UNL A   1      30.000  25.549  25.737  1.00  0.00     0.151 C 
BRANCH  18  19
ATOM     19  N   UNL A   1      30.466  26.521  24.771  1.00  0.00    -0.350 N 
ATOM     20  C   UNL A   1      31.178  27.671  24.922  1.00  0.00     0.249 C 
ATOM     21  H   UNL A   1      30.223  26.314  23.839  1.00  0.00     0.163 HD
ATOM     22  O   UNL A   1      31.423  28.311  23.894  1.00  0.00    -0.272 OA
BRANCH  20  23
ATOM     23  C   UNL A   1      31.732  28.117  26.300  1.00  0.00     0.207 C 
ATOM     24  C   UNL A   1      33.111  27.508  26.557  1.00  0.00     0.044 C 
ATOM     25  O   UNL A   1      31.902  29.524  26.486  1.00  0.00    -0.368 OA
ATOM     26  C   UNL A   1      34.027  28.588  26.038  1.00  0.00     0.032 C 
ATOM     27  C   UNL A   1      33.299  29.837  26.470  1.00  0.00     0.161 C 
ENDBRANCH  20  23
ENDBRANCH  18  19
ENDBRANCH  17  18
ENDBRANCH   9  12
ENDBRANCH   5   8
ENDBRANCH   1   5
BRANCH   3  28
ATOM     28  C   UNL A   1      37.478  20.450  24.655  1.00  0.00     0.117 C 
BRANCH  28  29
ATOM     29  C   UNL A   1      38.347  19.257  25.002  1.00  0.00     0.042 C 
BRANCH  29  30
ATOM     30  C   UNL A   1      39.417  19.584  26.027  1.00  0.00     0.118 C 
BRANCH  30  31
ATOM     31  N   UNL A   1      40.664  18.863  25.804  1.00  0.00    -0.352 N 
ATOM     32  C   UNL A   1      41.947  19.348  25.902  1.00  0.00     0.251 C 
ATOM     33  H   UNL A   1      40.578  17.916  25.551  1.00  0.00     0.163 HD
ATOM     34  O   UNL A   1      42.918  18.656  25.620  1.00  0.00    -0.269 OA
BRANCH  32  35
ATOM     35  C   UNL A   1      42.124  20.741  26.341  1.00  0.00     0.039 A 
ATOM     36  C   UNL A   1      42.390  20.996  27.687  1.00  0.00     0.014 A 
ATOM     37  C   UNL A   1      42.163  21.763  25.388  1.00  0.00     0.014 A 
ATOM     38  C   UNL A   1      42.789  22.275  28.071  1.00  0.00     0.010 A 
ATOM     39  C   UNL A   1      42.642  23.009  25.759  1.00  0.00     0.010 A 
ATOM     40  C   UNL A   1      42.967  23.273  27.101  1.00  0.00    -0.014 A 
BRANCH  40  41
ATOM     41  C   UNL A   1      43.480  24.620  27.444  1.00  0.00     0.031 A 
ATOM     42  C   UNL A   1      42.531  25.642  27.995  1.00  0.00     0.074 A 
ATOM     43  C   UNL A   1      44.748  24.956  27.143  1.00  0.00     0.049 A 
ATOM     44  N   UNL A   1      42.699  26.927  28.163  1.00  0.00    -0.248 NA
ATOM     45  C   UNL A   1      41.190  25.155  28.358  1.00  0.00     0.031 C 
ATOM     46  C   UNL A   1      45.748  24.061  26.557  1.00  0.00     0.029 A 
ATOM     47  N   UNL A   1      45.403  26.157  27.259  1.00  0.00    -0.354 N 
ATOM     48  C   UNL A   1      41.473  27.407  28.603  1.00  0.00     0.074 A 
ATOM     49  C   UNL A   1      40.562  26.285  28.636  1.00  0.00     0.031 C 
ATOM     50  C   UNL A   1      46.890  24.743  26.369  1.00  0.00     0.029 A 
ATOM     51  C   UNL A   1      46.690  26.129  26.780  1.00  0.00     0.049 A 
ATOM     52  H   UNL A   1      44.989  26.961  27.647  1.00  0.00     0.167 HD
ATOM     53  C   UNL A   1      41.146  28.671  28.960  1.00  0.00     0.037 A 
ATOM     54  C   UNL A   1      47.596  27.118  26.668  1.00  0.00     0.037 A 
ATOM     55  C   UNL A   1      42.074  29.767  28.974  1.00  0.00     0.049 A 
ATOM     56  C   UNL A   1      47.229  28.504  27.121  1.00  0.00     0.074 A 
ATOM     57  C   UNL A   1      41.870  31.069  29.391  1.00  0.00     0.029 A 
ATOM     58  N   UNL A   1      43.396  29.682  28.556  1.00  0.00    -0.354 N 
ATOM     59  N   UNL A   1      46.082  28.942  27.583  1.00  0.00    -0.248 NA
ATOM     60  C   UNL A   1      48.277  29.530  27.044  1.00  0.00     0.031 C 
ATOM     61  C   UNL A   1      43.060  31.779  29.201  1.00  0.00     0.029 A 
ATOM     62  C   UNL A   1      44.016  30.911  28.699  1.00  0.00     0.049 A 
ATOM     63  H   UNL A   1      43.827  28.867  28.208  1.00  0.00     0.167 HD
ATOM     64  C   UNL A   1      46.275  30.285  27.875  1.00  0.00     0.074 A 
ATOM     65  C   UNL A   1      47.652  30.590  27.541  1.00  0.00     0.031 C 
ATOM     66  C   UNL A   1      45.393  31.183  28.376  1.00  0.00     0.037 A 
BRANCH  53  67
ATOM     67  C   UNL A   1      39.722  28.921  29.360  1.00  0.00     0.064 A 
ATOM     68  C   UNL A   1      39.288  28.762  30.686  1.00  0.00     0.173 A 
ATOM     69  C   UNL A   1      38.775  29.311  28.402  1.00  0.00     0.173 A 
ATOM     70  F   UNL A   1      40.153  28.373  31.636  1.00  0.00    -0.203 F 
ATOM     71  C   UNL A   1      37.951  28.942  31.029  1.00  0.00     0.198 A 
ATOM     72  C   UNL A   1      37.444  29.521  28.755  1.00  0.00     0.198 A 
ATOM     73  F   UNL A   1      39.136  29.479  27.121  1.00  0.00    -0.203 F 
ATOM     74  F   UNL A   1      37.549  28.717  32.286  1.00  0.00    -0.200 F 
ATOM     75  C   UNL A   1      37.032  29.324  30.064  1.00  0.00     0.200 A 
ATOM     76  F   UNL A   1      36.557  29.900  27.824  1.00  0.00    -0.200 F 
ATOM     77  F   UNL A   1      35.744  29.491  30.394  1.00  0.00    -0.200 F 
ENDBRANCH  53  67
BRANCH  54  78
ATOM     78  C   UNL A   1      48.944  26.818  26.122  1.00  0.00     0.064 A 
ATOM     79  C   UNL A   1      49.947  26.288  26.945  1.00  0.00     0.173 A 
ATOM     80  C   UNL A   1      49.245  27.015  24.767  1.00  0.00     0.173 A 
ATOM     81  F   UNL A   1      49.709  26.098  28.251  1.00  0.00    -0.203 F 
ATOM     82  C   UNL A   1      51.205  25.973  26.434  1.00  0.00     0.198 A 
ATOM     83  C   UNL A   1      50.495  26.679  24.252  1.00  0.00     0.198 A 
ATOM     84  F   UNL A   1      48.314  27.511  23.938  1.00  0.00    -0.203 F 
ATOM     85  F   UNL A   1      52.154  25.489  27.247  1.00  0.00    -0.200 F 
ATOM     86  C   UNL A   1      51.475  26.161  25.086  1.00  0.00     0.200 A 
ATOM     87  F   UNL A   1      50.748  26.849  22.948  1.00  0.00    -0.200 F 
ATOM     88  F   UNL A   1      52.680  25.845  24.593  1.00  0.00    -0.200 F 
ENDBRANCH  54  78
BRANCH  66  89
ATOM     89  C   UNL A   1      45.894  32.571  28.636  1.00  0.00     0.064 A 
ATOM     90  C   UNL A   1      46.511  32.913  29.848  1.00  0.00     0.173 A 
ATOM     91  C   UNL A   1      45.828  33.545  27.629  1.00  0.00     0.173 A 
ATOM     92  F   UNL A   1      46.584  32.017  30.844  1.00  0.00    -0.203 F 
ATOM     93  C   UNL A   1      47.039  34.186  30.044  1.00  0.00     0.198 A 
ATOM     94  C   UNL A   1      46.376  34.809  27.821  1.00  0.00     0.198 A 
ATOM     95  F   UNL A   1      45.252  33.260  26.451  1.00  0.00    -0.203 F 
ATOM     96  F   UNL A   1      47.603  34.501  31.217  1.00  0.00    -0.200 F 
ATOM     97  C   UNL A   1      46.979  35.129  29.027  1.00  0.00     0.200 A 
ATOM     98  F   UNL A   1      46.328  35.715  26.834  1.00  0.00    -0.200 F 
ATOM     99  F   UNL A   1      47.502  36.348  29.213  1.00  0.00    -0.200 F 
ENDBRANCH  66  89
ENDBRANCH  40  41
ENDBRANCH  32  35
ENDBRANCH  30  31
ENDBRANCH  29  30
ENDBRANCH  28  29
ENDBRANCH   3  28
TORSDOF 16
ENDMDL
