MODEL 1
REMARK VINA RESULT:     -12.5      0.000      0.000
REMARK SMILES O=C(NCCCNC(=O)c1c[nH]c(=O)c(-c2cccc([N+](=O)[O-])c2)c1)c1ccc(-c2c3nc(c(-c4c(F)c(F)c(F)c(F)c4F)c4ccc([nH]4)c(-c4c(F)c(F)c(F)c(F)c4F)c4nc(c(-c5c(F)c(F)c(F)c(F)c5F)c5ccc2[nH]5)C=C4)C=C3)cc1
REMARK SMILES IDX 5 1 4 2 3 3 1 4 2 5 26 7 27 8 88 9 28 10 87 11 29 12 30 13
REMARK SMILES IDX 31 14 81 15 32 16 86 17 80 18 82 19 33 20 85 21 79 22 78 23
REMARK SMILES IDX 34 25 66 26 46 27 65 28 47 29 50 30 64 31 83 32 48 33 49 34
REMARK SMILES IDX 63 36 84 37 51 38 35 39 36 40 44 41 37 42 38 43 42 44 45 45
REMARK SMILES IDX 39 46 40 47 43 48 41 49 67 50 68 51 76 52 69 53 70 54 74 55
REMARK SMILES IDX 77 56 71 57 72 58 75 59 73 60 52 61 53 62 61 63 54 64 55 65
REMARK SMILES IDX 59 66 62 67 56 68 57 69 60 70 58 71 6 72 7 73 8 74 9 76
REMARK SMILES IDX 10 77 11 78 25 79 12 80 15 81 13 82 14 84 16 85 17 86 24 87
REMARK SMILES IDX 18 88 20 89 19 90 21 91 22 92 23 93
REMARK H PARENT 3 6 82 24 50 35 7 75 12 83
REMARK Flexibility Score: inf
ROOT
ATOM      1  C   UNL A   1      31.529  31.979  26.853  1.00  0.00     0.042 C 
ENDROOT
BRANCH   1   2
ATOM      2  C   UNL A   1      32.762  32.861  26.938  1.00  0.00     0.118 C 
BRANCH   2   3
ATOM      3  N   UNL A   1      32.477  34.166  27.524  1.00  0.00    -0.352 N 
ATOM      4  O   UNL A   1      32.510  35.794  29.081  1.00  0.00    -0.269 OA
ATOM      5  C   UNL A   1      33.014  34.766  28.635  1.00  0.00     0.251 C 
ATOM      6  H   UNL A   1      31.797  34.696  27.051  1.00  0.00     0.163 HD
BRANCH   5   7
ATOM      7  C   UNL A   1      34.193  34.173  29.300  1.00  0.00     0.039 A 
ATOM      8  C   UNL A   1      34.030  33.249  30.332  1.00  0.00     0.014 A 
ATOM      9  C   UNL A   1      35.477  34.520  28.868  1.00  0.00     0.014 A 
ATOM     10  C   UNL A   1      35.134  32.795  31.037  1.00  0.00     0.010 A 
ATOM     11  C   UNL A   1      36.594  33.968  29.502  1.00  0.00     0.010 A 
ATOM     12  C   UNL A   1      36.429  33.113  30.602  1.00  0.00    -0.014 A 
BRANCH  12  13
ATOM     13  C   UNL A   1      37.579  32.425  31.238  1.00  0.00     0.031 A 
ATOM     14  C   UNL A   1      38.317  31.318  30.547  1.00  0.00     0.074 A 
ATOM     15  C   UNL A   1      37.961  32.843  32.463  1.00  0.00     0.049 A 
ATOM     16  N   UNL A   1      39.343  30.625  30.973  1.00  0.00    -0.248 NA
ATOM     17  C   UNL A   1      37.845  30.927  29.209  1.00  0.00     0.031 C 
ATOM     18  C   UNL A   1      37.299  33.902  33.232  1.00  0.00     0.029 A 
ATOM     19  N   UNL A   1      38.994  32.447  33.270  1.00  0.00    -0.354 N 
ATOM     20  C   UNL A   1      39.629  29.708  29.972  1.00  0.00     0.074 A 
ATOM     21  C   UNL A   1      38.658  29.918  28.918  1.00  0.00     0.031 C 
ATOM     22  C   UNL A   1      37.966  34.099  34.377  1.00  0.00     0.029 A 
ATOM     23  C   UNL A   1      39.049  33.130  34.461  1.00  0.00     0.049 A 
ATOM     24  H   UNL A   1      39.634  31.742  33.021  1.00  0.00     0.167 HD
ATOM     25  C   UNL A   1      40.616  28.780  29.943  1.00  0.00     0.037 A 
ATOM     26  C   UNL A   1      39.859  32.971  35.522  1.00  0.00     0.037 A 
ATOM     27  C   UNL A   1      41.588  28.597  30.992  1.00  0.00     0.049 A 
ATOM     28  C   UNL A   1      40.919  31.909  35.465  1.00  0.00     0.074 A 
ATOM     29  C   UNL A   1      42.664  27.727  31.025  1.00  0.00     0.029 A 
ATOM     30  N   UNL A   1      41.593  29.285  32.197  1.00  0.00    -0.354 N 
ATOM     31  N   UNL A   1      41.217  31.091  34.486  1.00  0.00    -0.248 NA
ATOM     32  C   UNL A   1      41.751  31.742  36.664  1.00  0.00     0.031 C 
ATOM     33  C   UNL A   1      43.283  27.843  32.273  1.00  0.00     0.029 A 
ATOM     34  C   UNL A   1      42.630  28.828  32.996  1.00  0.00     0.049 A 
ATOM     35  H   UNL A   1      40.956  29.992  32.447  1.00  0.00     0.167 HD
ATOM     36  C   UNL A   1      42.279  30.324  34.942  1.00  0.00     0.074 A 
ATOM     37  C   UNL A   1      42.593  30.798  36.274  1.00  0.00     0.031 C 
ATOM     38  C   UNL A   1      42.927  29.310  34.321  1.00  0.00     0.037 A 
BRANCH  25  39
ATOM     39  C   UNL A   1      40.702  27.868  28.754  1.00  0.00     0.064 A 
ATOM     40  C   UNL A   1      39.926  26.705  28.656  1.00  0.00     0.173 A 
ATOM     41  C   UNL A   1      41.493  28.223  27.650  1.00  0.00     0.173 A 
ATOM     42  F   UNL A   1      39.158  26.317  29.686  1.00  0.00    -0.203 F 
ATOM     43  C   UNL A   1      39.940  25.929  27.499  1.00  0.00     0.198 A 
ATOM     44  C   UNL A   1      41.486  27.459  26.486  1.00  0.00     0.198 A 
ATOM     45  F   UNL A   1      42.249  29.330  27.688  1.00  0.00    -0.203 F 
ATOM     46  F   UNL A   1      39.203  24.810  27.434  1.00  0.00    -0.200 F 
ATOM     47  C   UNL A   1      40.710  26.313  26.411  1.00  0.00     0.200 A 
ATOM     48  F   UNL A   1      42.218  27.842  25.430  1.00  0.00    -0.200 F 
ATOM     49  F   UNL A   1      40.703  25.579  25.290  1.00  0.00    -0.200 F 
ENDBRANCH  25  39
BRANCH  26  50
ATOM     50  C   UNL A   1      39.670  33.804  36.738  1.00  0.00     0.064 A 
ATOM     51  C   UNL A   1      38.850  33.378  37.792  1.00  0.00     0.173 A 
ATOM     52  C   UNL A   1      40.285  35.061  36.859  1.00  0.00     0.173 A 
ATOM     53  F   UNL A   1      38.227  32.193  37.717  1.00  0.00    -0.203 F 
ATOM     54  C   UNL A   1      38.627  34.189  38.902  1.00  0.00     0.198 A 
ATOM     55  C   UNL A   1      40.093  35.853  37.988  1.00  0.00     0.198 A 
ATOM     56  F   UNL A   1      41.086  35.514  35.883  1.00  0.00    -0.203 F 
ATOM     57  F   UNL A   1      37.789  33.783  39.866  1.00  0.00    -0.200 F 
ATOM     58  C   UNL A   1      39.252  35.422  39.002  1.00  0.00     0.200 A 
ATOM     59  F   UNL A   1      40.716  37.035  38.088  1.00  0.00    -0.200 F 
ATOM     60  F   UNL A   1      39.035  36.202  40.070  1.00  0.00    -0.200 F 
ENDBRANCH  26  50
BRANCH  38  61
ATOM     61  C   UNL A   1      44.053  28.662  35.072  1.00  0.00     0.064 A 
ATOM     62  C   UNL A   1      43.840  27.539  35.886  1.00  0.00     0.173 A 
ATOM     63  C   UNL A   1      45.360  29.157  34.961  1.00  0.00     0.173 A 
ATOM     64  F   UNL A   1      42.604  27.041  36.040  1.00  0.00    -0.203 F 
ATOM     65  C   UNL A   1      44.891  26.955  36.587  1.00  0.00     0.198 A 
ATOM     66  C   UNL A   1      46.414  28.549  35.636  1.00  0.00     0.198 A 
ATOM     67  F   UNL A   1      45.617  30.225  34.192  1.00  0.00    -0.203 F 
ATOM     68  F   UNL A   1      44.655  25.920  37.404  1.00  0.00    -0.200 F 
ATOM     69  C   UNL A   1      46.179  27.455  36.454  1.00  0.00     0.200 A 
ATOM     70  F   UNL A   1      47.660  29.024  35.496  1.00  0.00    -0.200 F 
ATOM     71  F   UNL A   1      47.190  26.887  37.126  1.00  0.00    -0.200 F 
ENDBRANCH  38  61
ENDBRANCH  12  13
ENDBRANCH   5   7
ENDBRANCH   2   3
ENDBRANCH   1   2
BRANCH   1  72
ATOM     72  C   UNL A   1      31.847  30.497  26.928  1.00  0.00     0.118 C 
BRANCH  72  73
ATOM     73  N   UNL A   1      33.171  30.239  27.485  1.00  0.00    -0.352 N 
ATOM     74  C   UNL A   1      34.077  29.259  27.185  1.00  0.00     0.252 C 
ATOM     75  H   UNL A   1      33.458  30.869  28.185  1.00  0.00     0.163 HD
ATOM     76  O   UNL A   1      35.079  29.112  27.878  1.00  0.00    -0.269 OA
BRANCH  74  77
ATOM     77  C   UNL A   1      33.793  28.370  26.030  1.00  0.00     0.056 A 
ATOM     78  C   UNL A   1      33.693  28.915  24.810  1.00  0.00     0.099 A 
ATOM     79  C   UNL A   1      33.693  26.934  26.181  1.00  0.00     0.029 A 
ATOM     80  N   UNL A   1      33.586  28.107  23.704  1.00  0.00    -0.328 N 
ATOM     81  C   UNL A   1      33.686  26.111  25.117  1.00  0.00     0.048 A 
ATOM     82  C   UNL A   1      33.621  26.728  23.747  1.00  0.00     0.255 A 
ATOM     83  H   UNL A   1      33.478  28.538  22.826  1.00  0.00     0.169 HD
ATOM     84  O   UNL A   1      33.603  26.053  22.723  1.00  0.00    -0.269 OA
BRANCH  81  85
ATOM     85  C   UNL A   1      33.875  24.667  25.339  1.00  0.00    -0.006 A 
ATOM     86  C   UNL A   1      35.159  24.104  25.404  1.00  0.00     0.009 A 
ATOM     87  C   UNL A   1      32.757  23.821  25.376  1.00  0.00     0.094 A 
ATOM     88  C   UNL A   1      35.329  22.720  25.496  1.00  0.00     0.008 A 
ATOM     89  C   UNL A   1      32.933  22.434  25.465  1.00  0.00     0.270 A 
ATOM     90  C   UNL A   1      34.217  21.878  25.523  1.00  0.00     0.085 A 
BRANCH  89  91
ATOM     91  N   UNL A   1      31.761  21.550  25.460  1.00  0.00     0.062 N 
ATOM     92  O   UNL A   1      31.915  20.391  25.049  1.00  0.00    -0.258 OA
ATOM     93  O   UNL A   1      30.681  22.021  25.845  1.00  0.00    -0.258 OA
ENDBRANCH  89  91
ENDBRANCH  81  85
ENDBRANCH  74  77
ENDBRANCH  72  73
ENDBRANCH   1  72
TORSDOF 12
ENDMDL
MODEL 2
REMARK VINA RESULT:     -12.4      4.150      9.492
REMARK SMILES O=C(NCCCNC(=O)c1c[nH]c(=O)c(-c2cccc([N+](=O)[O-])c2)c1)c1ccc(-c2c3nc(c(-c4c(F)c(F)c(F)c(F)c4F)c4ccc([nH]4)c(-c4c(F)c(F)c(F)c(F)c4F)c4nc(c(-c5c(F)c(F)c(F)c(F)c5F)c5ccc2[nH]5)C=C4)C=C3)cc1
REMARK SMILES IDX 5 1 4 2 3 3 1 4 2 5 26 7 27 8 88 9 28 10 87 11 29 12 30 13
REMARK SMILES IDX 31 14 81 15 32 16 86 17 80 18 82 19 33 20 85 21 79 22 78 23
REMARK SMILES IDX 34 25 66 26 46 27 65 28 47 29 50 30 64 31 83 32 48 33 49 34
REMARK SMILES IDX 63 36 84 37 51 38 35 39 36 40 44 41 37 42 38 43 42 44 45 45
REMARK SMILES IDX 39 46 40 47 43 48 41 49 67 50 68 51 76 52 69 53 70 54 74 55
REMARK SMILES IDX 77 56 71 57 72 58 75 59 73 60 52 61 53 62 61 63 54 64 55 65
REMARK SMILES IDX 59 66 62 67 56 68 57 69 60 70 58 71 6 72 7 73 8 74 9 76
REMARK SMILES IDX 10 77 11 78 25 79 12 80 15 81 13 82 14 84 16 85 17 86 24 87
REMARK SMILES IDX 18 88 20 89 19 90 21 91 22 92 23 93
REMARK H PARENT 3 6 82 24 50 35 7 75 12 83
REMARK Flexibility Score: inf
ROOT
ATOM      1  C   UNL A   1      33.643  27.929  25.246  1.00  0.00     0.042 C 
ENDROOT
BRANCH   1   2
ATOM      2  C   UNL A   1      34.028  28.210  26.687  1.00  0.00     0.118 C 
BRANCH   2   3
ATOM      3  N   UNL A   1      33.815  29.603  27.063  1.00  0.00    -0.352 N 
ATOM      4  O   UNL A   1      34.169  31.531  28.174  1.00  0.00    -0.269 OA
ATOM      5  C   UNL A   1      34.607  30.444  27.803  1.00  0.00     0.251 C 
ATOM      6  H   UNL A   1      32.976  30.000  26.735  1.00  0.00     0.163 HD
BRANCH   5   7
ATOM      7  C   UNL A   1      35.983  30.041  28.162  1.00  0.00     0.039 A 
ATOM      8  C   UNL A   1      37.027  30.206  27.252  1.00  0.00     0.014 A 
ATOM      9  C   UNL A   1      36.239  29.519  29.434  1.00  0.00     0.014 A 
ATOM     10  C   UNL A   1      38.287  29.709  27.545  1.00  0.00     0.010 A 
ATOM     11  C   UNL A   1      37.537  29.126  29.773  1.00  0.00     0.010 A 
ATOM     12  C   UNL A   1      38.568  29.205  28.824  1.00  0.00    -0.014 A 
BRANCH  12  13
ATOM     13  C   UNL A   1      39.977  28.898  29.171  1.00  0.00     0.031 A 
ATOM     14  C   UNL A   1      40.818  29.849  29.969  1.00  0.00     0.074 A 
ATOM     15  C   UNL A   1      40.480  27.715  28.762  1.00  0.00     0.049 A 
ATOM     16  N   UNL A   1      42.063  29.717  30.354  1.00  0.00    -0.248 NA
ATOM     17  C   UNL A   1      40.193  31.113  30.386  1.00  0.00     0.031 C 
ATOM     18  C   UNL A   1      39.751  26.723  27.964  1.00  0.00     0.029 A 
ATOM     19  N   UNL A   1      41.705  27.137  28.964  1.00  0.00    -0.354 N 
ATOM     20  C   UNL A   1      42.377  30.883  31.039  1.00  0.00     0.074 A 
ATOM     21  C   UNL A   1      41.197  31.721  31.006  1.00  0.00     0.031 C 
ATOM     22  C   UNL A   1      40.526  25.646  27.781  1.00  0.00     0.029 A 
ATOM     23  C   UNL A   1      41.831  25.901  28.376  1.00  0.00     0.049 A 
ATOM     24  H   UNL A   1      42.426  27.565  29.480  1.00  0.00     0.167 HD
ATOM     25  C   UNL A   1      43.546  31.212  31.639  1.00  0.00     0.037 A 
ATOM     26  C   UNL A   1      42.890  25.077  28.291  1.00  0.00     0.037 A 
ATOM     27  C   UNL A   1      44.706  30.356  31.680  1.00  0.00     0.049 A 
ATOM     28  C   UNL A   1      44.178  25.493  28.941  1.00  0.00     0.074 A 
ATOM     29  C   UNL A   1      45.914  30.574  32.319  1.00  0.00     0.029 A 
ATOM     30  N   UNL A   1      44.806  29.125  31.047  1.00  0.00    -0.354 N 
ATOM     31  N   UNL A   1      44.441  26.570  29.639  1.00  0.00    -0.248 NA
ATOM     32  C   UNL A   1      45.319  24.582  28.785  1.00  0.00     0.031 C 
ATOM     33  C   UNL A   1      46.767  29.508  32.021  1.00  0.00     0.029 A 
ATOM     34  C   UNL A   1      46.071  28.594  31.246  1.00  0.00     0.049 A 
ATOM     35  H   UNL A   1      44.087  28.694  30.532  1.00  0.00     0.167 HD
ATOM     36  C   UNL A   1      45.771  26.461  30.018  1.00  0.00     0.074 A 
ATOM     37  C   UNL A   1      46.249  25.196  29.500  1.00  0.00     0.031 C 
ATOM     38  C   UNL A   1      46.531  27.334  30.721  1.00  0.00     0.037 A 
BRANCH  25  39
ATOM     39  C   UNL A   1      43.658  32.559  32.293  1.00  0.00     0.064 A 
ATOM     40  C   UNL A   1      44.032  33.701  31.572  1.00  0.00     0.173 A 
ATOM     41  C   UNL A   1      43.278  32.724  33.634  1.00  0.00     0.173 A 
ATOM     42  F   UNL A   1      44.410  33.597  30.289  1.00  0.00    -0.203 F 
ATOM     43  C   UNL A   1      44.026  34.959  32.170  1.00  0.00     0.198 A 
ATOM     44  C   UNL A   1      43.249  33.986  34.221  1.00  0.00     0.198 A 
ATOM     45  F   UNL A   1      42.904  31.664  34.366  1.00  0.00    -0.203 F 
ATOM     46  F   UNL A   1      44.405  36.036  31.468  1.00  0.00    -0.200 F 
ATOM     47  C   UNL A   1      43.622  35.103  33.490  1.00  0.00     0.200 A 
ATOM     48  F   UNL A   1      42.843  34.123  35.492  1.00  0.00    -0.200 F 
ATOM     49  F   UNL A   1      43.593  36.317  34.056  1.00  0.00    -0.200 F 
ENDBRANCH  25  39
BRANCH  26  50
ATOM     50  C   UNL A   1      42.788  23.806  27.529  1.00  0.00     0.064 A 
ATOM     51  C   UNL A   1      43.140  23.740  26.174  1.00  0.00     0.173 A 
ATOM     52  C   UNL A   1      42.308  22.633  28.135  1.00  0.00     0.173 A 
ATOM     53  F   UNL A   1      43.588  24.836  25.545  1.00  0.00    -0.203 F 
ATOM     54  C   UNL A   1      42.985  22.560  25.448  1.00  0.00     0.198 A 
ATOM     55  C   UNL A   1      42.192  21.446  27.418  1.00  0.00     0.198 A 
ATOM     56  F   UNL A   1      41.964  22.639  29.432  1.00  0.00    -0.203 F 
ATOM     57  F   UNL A   1      43.271  22.542  24.139  1.00  0.00    -0.200 F 
ATOM     58  C   UNL A   1      42.517  21.414  26.072  1.00  0.00     0.200 A 
ATOM     59  F   UNL A   1      41.758  20.336  28.031  1.00  0.00    -0.200 F 
ATOM     60  F   UNL A   1      42.367  20.282  25.372  1.00  0.00    -0.200 F 
ENDBRANCH  26  50
BRANCH  38  61
ATOM     61  C   UNL A   1      47.954  26.936  30.984  1.00  0.00     0.064 A 
ATOM     62  C   UNL A   1      49.002  27.377  30.162  1.00  0.00     0.173 A 
ATOM     63  C   UNL A   1      48.274  26.123  32.081  1.00  0.00     0.173 A 
ATOM     64  F   UNL A   1      48.744  28.141  29.090  1.00  0.00    -0.203 F 
ATOM     65  C   UNL A   1      50.316  26.991  30.410  1.00  0.00     0.198 A 
ATOM     66  C   UNL A   1      49.593  25.768  32.346  1.00  0.00     0.198 A 
ATOM     67  F   UNL A   1      47.310  25.679  32.900  1.00  0.00    -0.203 F 
ATOM     68  F   UNL A   1      51.293  27.375  29.578  1.00  0.00    -0.200 F 
ATOM     69  C   UNL A   1      50.612  26.194  31.507  1.00  0.00     0.200 A 
ATOM     70  F   UNL A   1      49.880  25.009  33.414  1.00  0.00    -0.200 F 
ATOM     71  F   UNL A   1      51.878  25.828  31.748  1.00  0.00    -0.200 F 
ENDBRANCH  38  61
ENDBRANCH  12  13
ENDBRANCH   5   7
ENDBRANCH   2   3
ENDBRANCH   1   2
BRANCH   1  72
ATOM     72  C   UNL A   1      33.572  26.448  24.922  1.00  0.00     0.118 C 
BRANCH  72  73
ATOM     73  N   UNL A   1      33.837  26.173  23.514  1.00  0.00    -0.352 N 
ATOM     74  C   UNL A   1      32.974  26.095  22.455  1.00  0.00     0.252 C 
ATOM     75  H   UNL A   1      34.783  26.022  23.290  1.00  0.00     0.163 HD
ATOM     76  O   UNL A   1      33.371  25.695  21.365  1.00  0.00    -0.269 OA
BRANCH  74  77
ATOM     77  C   UNL A   1      31.555  26.472  22.676  1.00  0.00     0.056 A 
ATOM     78  C   UNL A   1      30.705  25.538  23.124  1.00  0.00     0.099 A 
ATOM     79  C   UNL A   1      31.091  27.830  22.488  1.00  0.00     0.029 A 
ATOM     80  N   UNL A   1      29.428  25.891  23.485  1.00  0.00    -0.328 N 
ATOM     81  C   UNL A   1      29.882  28.228  22.921  1.00  0.00     0.048 A 
ATOM     82  C   UNL A   1      28.946  27.184  23.467  1.00  0.00     0.255 A 
ATOM     83  H   UNL A   1      28.816  25.176  23.776  1.00  0.00     0.169 HD
ATOM     84  O   UNL A   1      27.823  27.458  23.876  1.00  0.00    -0.269 OA
BRANCH  81  85
ATOM     85  C   UNL A   1      29.585  29.671  22.963  1.00  0.00    -0.006 A 
ATOM     86  C   UNL A   1      29.805  30.424  24.127  1.00  0.00     0.009 A 
ATOM     87  C   UNL A   1      28.973  30.284  21.860  1.00  0.00     0.094 A 
ATOM     88  C   UNL A   1      29.412  31.763  24.196  1.00  0.00     0.008 A 
ATOM     89  C   UNL A   1      28.578  31.626  21.936  1.00  0.00     0.270 A 
ATOM     90  C   UNL A   1      28.793  32.369  23.103  1.00  0.00     0.085 A 
BRANCH  89  91
ATOM     91  N   UNL A   1      27.897  32.250  20.795  1.00  0.00     0.062 N 
ATOM     92  O   UNL A   1      27.658  31.539  19.808  1.00  0.00    -0.258 OA
ATOM     93  O   UNL A   1      27.620  33.455  20.877  1.00  0.00    -0.258 OA
ENDBRANCH  89  91
ENDBRANCH  81  85
ENDBRANCH  74  77
ENDBRANCH  72  73
ENDBRANCH   1  72
TORSDOF 12
ENDMDL
MODEL 3
REMARK VINA RESULT:     -12.4      0.627      1.337
REMARK SMILES O=C(NCCCNC(=O)c1c[nH]c(=O)c(-c2cccc([N+](=O)[O-])c2)c1)c1ccc(-c2c3nc(c(-c4c(F)c(F)c(F)c(F)c4F)c4ccc([nH]4)c(-c4c(F)c(F)c(F)c(F)c4F)c4nc(c(-c5c(F)c(F)c(F)c(F)c5F)c5ccc2[nH]5)C=C4)C=C3)cc1
REMARK SMILES IDX 5 1 4 2 3 3 1 4 2 5 26 7 27 8 88 9 28 10 87 11 29 12 30 13
REMARK SMILES IDX 31 14 81 15 32 16 86 17 80 18 82 19 33 20 85 21 79 22 78 23
REMARK SMILES IDX 34 25 66 26 46 27 65 28 47 29 50 30 64 31 83 32 48 33 49 34
REMARK SMILES IDX 63 36 84 37 51 38 35 39 36 40 44 41 37 42 38 43 42 44 45 45
REMARK SMILES IDX 39 46 40 47 43 48 41 49 67 50 68 51 76 52 69 53 70 54 74 55
REMARK SMILES IDX 77 56 71 57 72 58 75 59 73 60 52 61 53 62 61 63 54 64 55 65
REMARK SMILES IDX 59 66 62 67 56 68 57 69 60 70 58 71 6 72 7 73 8 74 9 76
REMARK SMILES IDX 10 77 11 78 25 79 12 80 15 81 13 82 14 84 16 85 17 86 24 87
REMARK SMILES IDX 18 88 20 89 19 90 21 91 22 92 23 93
REMARK H PARENT 3 6 82 24 50 35 7 75 12 83
REMARK Flexibility Score: inf
ROOT
ATOM      1  C   UNL A   1      31.473  31.880  26.874  1.00  0.00     0.042 C 
ENDROOT
BRANCH   1   2
ATOM      2  C   UNL A   1      32.713  32.755  26.876  1.00  0.00     0.118 C 
BRANCH   2   3
ATOM      3  N   UNL A   1      32.477  34.059  27.487  1.00  0.00    -0.352 N 
ATOM      4  O   UNL A   1      32.579  35.658  29.071  1.00  0.00    -0.269 OA
ATOM      5  C   UNL A   1      33.045  34.622  28.602  1.00  0.00     0.251 C 
ATOM      6  H   UNL A   1      31.811  34.620  27.030  1.00  0.00     0.163 HD
BRANCH   5   7
ATOM      7  C   UNL A   1      34.210  33.978  29.245  1.00  0.00     0.039 A 
ATOM      8  C   UNL A   1      34.029  32.915  30.130  1.00  0.00     0.014 A 
ATOM      9  C   UNL A   1      35.500  34.422  28.938  1.00  0.00     0.014 A 
ATOM     10  C   UNL A   1      35.112  32.401  30.826  1.00  0.00     0.010 A 
ATOM     11  C   UNL A   1      36.603  33.823  29.553  1.00  0.00     0.010 A 
ATOM     12  C   UNL A   1      36.414  32.817  30.513  1.00  0.00    -0.014 A 
BRANCH  12  13
ATOM     13  C   UNL A   1      37.556  32.084  31.113  1.00  0.00     0.031 A 
ATOM     14  C   UNL A   1      38.318  31.045  30.345  1.00  0.00     0.074 A 
ATOM     15  C   UNL A   1      37.907  32.396  32.377  1.00  0.00     0.049 A 
ATOM     16  N   UNL A   1      39.340  30.324  30.732  1.00  0.00    -0.248 NA
ATOM     17  C   UNL A   1      37.878  30.770  28.968  1.00  0.00     0.031 C 
ATOM     18  C   UNL A   1      37.221  33.380  33.221  1.00  0.00     0.029 A 
ATOM     19  N   UNL A   1      38.926  31.937  33.170  1.00  0.00    -0.354 N 
ATOM     20  C   UNL A   1      39.654  29.499  29.661  1.00  0.00     0.074 A 
ATOM     21  C   UNL A   1      38.705  29.795  28.609  1.00  0.00     0.031 C 
ATOM     22  C   UNL A   1      37.861  33.480  34.394  1.00  0.00     0.029 A 
ATOM     23  C   UNL A   1      38.950  32.514  34.417  1.00  0.00     0.049 A 
ATOM     24  H   UNL A   1      39.577  31.260  32.876  1.00  0.00     0.167 HD
ATOM     25  C   UNL A   1      40.649  28.584  29.574  1.00  0.00     0.037 A 
ATOM     26  C   UNL A   1      39.738  32.268  35.479  1.00  0.00     0.037 A 
ATOM     27  C   UNL A   1      41.599  28.316  30.625  1.00  0.00     0.049 A 
ATOM     28  C   UNL A   1      40.806  31.221  35.354  1.00  0.00     0.074 A 
ATOM     29  C   UNL A   1      42.682  27.452  30.607  1.00  0.00     0.029 A 
ATOM     30  N   UNL A   1      41.573  28.896  31.885  1.00  0.00    -0.354 N 
ATOM     31  N   UNL A   1      41.133  30.494  34.313  1.00  0.00    -0.248 NA
ATOM     32  C   UNL A   1      41.614  30.956  36.551  1.00  0.00     0.031 C 
ATOM     33  C   UNL A   1      43.272  27.463  31.874  1.00  0.00     0.029 A 
ATOM     34  C   UNL A   1      42.596  28.378  32.665  1.00  0.00     0.049 A 
ATOM     35  H   UNL A   1      40.925  29.575  32.181  1.00  0.00     0.167 HD
ATOM     36  C   UNL A   1      42.190  29.696  34.725  1.00  0.00     0.074 A 
ATOM     37  C   UNL A   1      42.471  30.054  36.100  1.00  0.00     0.031 C 
ATOM     38  C   UNL A   1      42.859  28.744  34.033  1.00  0.00     0.037 A 
BRANCH  25  39
ATOM     39  C   UNL A   1      40.769  27.779  28.313  1.00  0.00     0.064 A 
ATOM     40  C   UNL A   1      41.566  28.200  27.240  1.00  0.00     0.173 A 
ATOM     41  C   UNL A   1      40.162  26.516  28.223  1.00  0.00     0.173 A 
ATOM     42  F   UNL A   1      42.163  29.401  27.272  1.00  0.00    -0.203 F 
ATOM     43  C   UNL A   1      41.750  27.389  26.122  1.00  0.00     0.198 A 
ATOM     44  C   UNL A   1      40.368  25.698  27.116  1.00  0.00     0.198 A 
ATOM     45  F   UNL A   1      39.396  26.062  29.226  1.00  0.00    -0.203 F 
ATOM     46  F   UNL A   1      42.502  27.819  25.099  1.00  0.00    -0.200 F 
ATOM     47  C   UNL A   1      41.161  26.134  26.066  1.00  0.00     0.200 A 
ATOM     48  F   UNL A   1      39.812  24.479  27.073  1.00  0.00    -0.200 F 
ATOM     49  F   UNL A   1      41.360  25.345  25.001  1.00  0.00    -0.200 F 
ENDBRANCH  25  39
BRANCH  26  50
ATOM     50  C   UNL A   1      39.515  32.991  36.758  1.00  0.00     0.064 A 
ATOM     51  C   UNL A   1      38.552  32.558  37.680  1.00  0.00     0.173 A 
ATOM     52  C   UNL A   1      40.244  34.149  37.073  1.00  0.00     0.173 A 
ATOM     53  F   UNL A   1      37.818  31.467  37.418  1.00  0.00    -0.203 F 
ATOM     54  C   UNL A   1      38.304  33.274  38.849  1.00  0.00     0.198 A 
ATOM     55  C   UNL A   1      40.023  34.840  38.261  1.00  0.00     0.198 A 
ATOM     56  F   UNL A   1      41.183  34.602  36.229  1.00  0.00    -0.203 F 
ATOM     57  F   UNL A   1      37.335  32.873  39.683  1.00  0.00    -0.200 F 
ATOM     58  C   UNL A   1      39.043  34.410  39.141  1.00  0.00     0.200 A 
ATOM     59  F   UNL A   1      40.755  35.926  38.547  1.00  0.00    -0.200 F 
ATOM     60  F   UNL A   1      38.803  35.098  40.265  1.00  0.00    -0.200 F 
ENDBRANCH  26  50
BRANCH  38  61
ATOM     61  C   UNL A   1      43.974  28.040  34.750  1.00  0.00     0.064 A 
ATOM     62  C   UNL A   1      43.761  26.828  35.424  1.00  0.00     0.173 A 
ATOM     63  C   UNL A   1      45.272  28.572  34.746  1.00  0.00     0.173 A 
ATOM     64  F   UNL A   1      42.533  26.289  35.473  1.00  0.00    -0.203 F 
ATOM     65  C   UNL A   1      44.801  26.191  36.096  1.00  0.00     0.198 A 
ATOM     66  C   UNL A   1      46.316  27.915  35.389  1.00  0.00     0.198 A 
ATOM     67  F   UNL A   1      45.528  29.725  34.112  1.00  0.00    -0.203 F 
ATOM     68  F   UNL A   1      44.562  25.066  36.782  1.00  0.00    -0.200 F 
ATOM     69  C   UNL A   1      46.079  26.730  36.070  1.00  0.00     0.200 A 
ATOM     70  F   UNL A   1      47.553  28.429  35.352  1.00  0.00    -0.200 F 
ATOM     71  F   UNL A   1      47.080  26.113  36.713  1.00  0.00    -0.200 F 
ENDBRANCH  38  61
ENDBRANCH  12  13
ENDBRANCH   5   7
ENDBRANCH   2   3
ENDBRANCH   1   2
BRANCH   1  72
ATOM     72  C   UNL A   1      31.787  30.395  26.874  1.00  0.00     0.118 C 
BRANCH  72  73
ATOM     73  N   UNL A   1      33.126  30.110  27.379  1.00  0.00    -0.352 N 
ATOM     74  C   UNL A   1      34.042  29.181  26.968  1.00  0.00     0.252 C 
ATOM     75  H   UNL A   1      33.415  30.674  28.131  1.00  0.00     0.163 HD
ATOM     76  O   UNL A   1      35.060  28.987  27.626  1.00  0.00    -0.269 OA
BRANCH  74  77
ATOM     77  C   UNL A   1      33.750  28.404  25.738  1.00  0.00     0.056 A 
ATOM     78  C   UNL A   1      33.655  29.058  24.573  1.00  0.00     0.099 A 
ATOM     79  C   UNL A   1      33.638  26.960  25.758  1.00  0.00     0.029 A 
ATOM     80  N   UNL A   1      33.541  28.355  23.398  1.00  0.00    -0.328 N 
ATOM     81  C   UNL A   1      33.624  26.238  24.623  1.00  0.00     0.048 A 
ATOM     82  C   UNL A   1      33.565  26.977  23.315  1.00  0.00     0.255 A 
ATOM     83  H   UNL A   1      33.437  28.865  22.563  1.00  0.00     0.169 HD
ATOM     84  O   UNL A   1      33.541  26.398  22.234  1.00  0.00    -0.269 OA
BRANCH  81  85
ATOM     85  C   UNL A   1      33.801  24.778  24.712  1.00  0.00    -0.006 A 
ATOM     86  C   UNL A   1      35.012  24.169  24.346  1.00  0.00     0.009 A 
ATOM     87  C   UNL A   1      32.711  23.969  25.064  1.00  0.00     0.094 A 
ATOM     88  C   UNL A   1      35.133  22.778  24.321  1.00  0.00     0.008 A 
ATOM     89  C   UNL A   1      32.837  22.574  25.033  1.00  0.00     0.270 A 
ATOM     90  C   UNL A   1      34.046  21.973  24.661  1.00  0.00     0.085 A 
BRANCH  89  91
ATOM     91  N   UNL A   1      31.679  21.732  25.359  1.00  0.00     0.062 N 
ATOM     92  O   UNL A   1      30.682  22.286  25.843  1.00  0.00    -0.258 OA
ATOM     93  O   UNL A   1      31.776  20.513  25.152  1.00  0.00    -0.258 OA
ENDBRANCH  89  91
ENDBRANCH  81  85
ENDBRANCH  74  77
ENDBRANCH  72  73
ENDBRANCH   1  72
TORSDOF 12
ENDMDL
