MODEL 1
REMARK VINA RESULT:     -12.5      0.000      0.000
REMARK SMILES N#C/C(=C\c1ccc(-c2cc(C(F)(F)F)ccc2Cl)o1)C(=O)NCCCNC(=O)c1ccc(-c2c3nc(c(-c4c(F)c(F)c(F)c(F)c4F)c4ccc([nH]4)c(-c4c(F)c(F)c(F)c(F)c4F)c4nc(c(-c5c(F)c(F)c(F)c(F)c5F)c5ccc2[nH]5)C=C4)C=C3)cc1
REMARK SMILES IDX 24 1 23 2 21 3 22 4 3 6 4 7 2 8 1 9 5 10 6 11 20 12 7 13
REMARK SMILES IDX 8 14 9 15 10 16 18 17 11 18 17 19 19 20 16 21 12 22 13 23
REMARK SMILES IDX 14 24 15 25 25 26 26 27 27 28 28 29 29 31 30 32 31 33 92 34
REMARK SMILES IDX 32 35 91 36 33 37 34 38 35 39 85 40 36 41 90 42 84 43 86 44
REMARK SMILES IDX 37 45 89 46 83 47 82 48 38 50 70 51 50 52 69 53 51 54 54 55
REMARK SMILES IDX 68 56 87 57 52 58 53 59 67 61 88 62 55 63 39 64 40 65 48 66
REMARK SMILES IDX 41 67 42 68 46 69 49 70 43 71 44 72 47 73 45 74 71 75 72 76
REMARK SMILES IDX 80 77 73 78 74 79 78 80 81 81 75 82 76 83 79 84 77 85 56 86
REMARK SMILES IDX 57 87 65 88 58 89 59 90 63 91 66 92 60 93 61 94 64 95 62 96
REMARK H PARENT 23 5 27 30 86 49 54 60
REMARK Flexibility Score: inf
ROOT
ATOM      1  C   UNL A   1      36.726  20.349  25.019  1.00  0.00     0.118 C 
ENDROOT
BRANCH   1   2
ATOM      2  N   UNL A   1      35.662  19.368  24.915  1.00  0.00    -0.351 N 
ATOM      3  C   UNL A   1      34.306  19.477  24.899  1.00  0.00     0.262 C 
ATOM      4  O   UNL A   1      33.665  18.437  24.749  1.00  0.00    -0.268 OA
ATOM      5  H   UNL A   1      35.985  18.441  24.842  1.00  0.00     0.163 HD
BRANCH   3   6
ATOM      6  C   UNL A   1      33.587  20.769  25.041  1.00  0.00     0.120 C 
ATOM      7  C   UNL A   1      32.997  21.511  24.072  1.00  0.00     0.072 C 
BRANCH   6   8
ATOM      8  C   UNL A   1      33.570  21.404  26.422  1.00  0.00     0.105 C 
ATOM      9  N   UNL A   1      33.556  21.930  27.568  1.00  0.00    -0.192 NA
ENDBRANCH   6   8
BRANCH   7  10
ATOM     10  C   UNL A   1      32.371  22.784  24.311  1.00  0.00     0.129 A 
ATOM     11  C   UNL A   1      31.080  23.075  24.746  1.00  0.00     0.051 A 
ATOM     12  O   UNL A   1      33.030  23.994  24.158  1.00  0.00    -0.457 OA
ATOM     13  C   UNL A   1      30.935  24.476  24.800  1.00  0.00     0.051 A 
ATOM     14  C   UNL A   1      32.158  25.002  24.459  1.00  0.00     0.136 A 
BRANCH  14  15
ATOM     15  C   UNL A   1      32.651  26.374  24.387  1.00  0.00     0.036 A 
ATOM     16  C   UNL A   1      32.705  27.159  25.553  1.00  0.00     0.026 A 
ATOM     17  C   UNL A   1      33.169  26.913  23.194  1.00  0.00     0.052 A 
ATOM     18  C   UNL A   1      33.286  28.445  25.545  1.00  0.00     0.056 A 
ATOM     19  C   UNL A   1      33.735  28.191  23.175  1.00  0.00     0.022 A 
ATOM     20  Cl  UNL A   1      33.133  26.053  21.691  1.00  0.00    -0.084 Cl
ATOM     21  C   UNL A   1      33.799  28.951  24.343  1.00  0.00     0.014 A 
BRANCH  18  22
ATOM     22  C   UNL A   1      33.368  29.257  26.817  1.00  0.00     0.416 C 
ATOM     23  F   UNL A   1      34.038  28.607  27.807  1.00  0.00    -0.166 F 
ATOM     24  F   UNL A   1      34.012  30.442  26.639  1.00  0.00    -0.166 F 
ATOM     25  F   UNL A   1      32.148  29.573  27.338  1.00  0.00    -0.166 F 
ENDBRANCH  18  22
ENDBRANCH  14  15
ENDBRANCH   7  10
ENDBRANCH   3   6
ENDBRANCH   1   2
BRANCH   1  26
ATOM     26  C   UNL A   1      38.100  19.715  24.788  1.00  0.00     0.042 C 
BRANCH  26  27
ATOM     27  C   UNL A   1      39.148  20.172  25.795  1.00  0.00     0.118 C 
BRANCH  27  28
ATOM     28  N   UNL A   1      40.191  19.174  25.971  1.00  0.00    -0.352 N 
ATOM     29  C   UNL A   1      41.546  19.319  26.095  1.00  0.00     0.251 C 
ATOM     30  H   UNL A   1      39.871  18.243  26.006  1.00  0.00     0.163 HD
ATOM     31  O   UNL A   1      42.262  18.326  26.002  1.00  0.00    -0.269 OA
BRANCH  29  32
ATOM     32  C   UNL A   1      42.158  20.643  26.345  1.00  0.00     0.039 A 
ATOM     33  C   UNL A   1      42.286  21.074  27.669  1.00  0.00     0.014 A 
ATOM     34  C   UNL A   1      42.513  21.496  25.296  1.00  0.00     0.014 A 
ATOM     35  C   UNL A   1      42.772  22.354  27.942  1.00  0.00     0.010 A 
ATOM     36  C   UNL A   1      43.066  22.744  25.570  1.00  0.00     0.010 A 
ATOM     37  C   UNL A   1      43.168  23.197  26.894  1.00  0.00    -0.014 A 
BRANCH  37  38
ATOM     38  C   UNL A   1      43.620  24.583  27.161  1.00  0.00     0.031 A 
ATOM     39  C   UNL A   1      42.643  25.601  27.682  1.00  0.00     0.074 A 
ATOM     40  C   UNL A   1      44.892  24.936  26.898  1.00  0.00     0.049 A 
ATOM     41  N   UNL A   1      42.824  26.871  27.940  1.00  0.00    -0.248 NA
ATOM     42  C   UNL A   1      41.267  25.134  27.915  1.00  0.00     0.031 C 
ATOM     43  C   UNL A   1      45.918  24.045  26.356  1.00  0.00     0.029 A 
ATOM     44  N   UNL A   1      45.535  26.136  27.050  1.00  0.00    -0.354 N 
ATOM     45  C   UNL A   1      41.584  27.357  28.334  1.00  0.00     0.074 A 
ATOM     46  C   UNL A   1      40.648  26.259  28.233  1.00  0.00     0.031 C 
ATOM     47  C   UNL A   1      47.073  24.722  26.252  1.00  0.00     0.029 A 
ATOM     48  C   UNL A   1      46.859  26.099  26.692  1.00  0.00     0.049 A 
ATOM     49  H   UNL A   1      45.090  26.948  27.386  1.00  0.00     0.167 HD
ATOM     50  C   UNL A   1      41.260  28.601  28.762  1.00  0.00     0.037 A 
ATOM     51  C   UNL A   1      47.794  27.066  26.725  1.00  0.00     0.037 A 
ATOM     52  C   UNL A   1      42.206  29.677  28.901  1.00  0.00     0.049 A 
ATOM     53  C   UNL A   1      47.418  28.431  27.231  1.00  0.00     0.074 A 
ATOM     54  C   UNL A   1      42.000  30.955  29.389  1.00  0.00     0.029 A 
ATOM     55  N   UNL A   1      43.546  29.593  28.552  1.00  0.00    -0.354 N 
ATOM     56  N   UNL A   1      46.257  28.865  27.661  1.00  0.00    -0.248 NA
ATOM     57  C   UNL A   1      48.486  29.439  27.266  1.00  0.00     0.031 C 
ATOM     58  C   UNL A   1      43.208  31.656  29.300  1.00  0.00     0.029 A 
ATOM     59  C   UNL A   1      44.177  30.800  28.801  1.00  0.00     0.049 A 
ATOM     60  H   UNL A   1      43.985  28.793  28.182  1.00  0.00     0.167 HD
ATOM     61  C   UNL A   1      46.463  30.179  28.054  1.00  0.00     0.074 A 
ATOM     62  C   UNL A   1      47.862  30.472  27.814  1.00  0.00     0.031 C 
ATOM     63  C   UNL A   1      45.575  31.064  28.572  1.00  0.00     0.037 A 
BRANCH  50  64
ATOM     64  C   UNL A   1      39.819  28.860  29.102  1.00  0.00     0.064 A 
ATOM     65  C   UNL A   1      39.317  28.662  30.398  1.00  0.00     0.173 A 
ATOM     66  C   UNL A   1      38.926  29.308  28.117  1.00  0.00     0.173 A 
ATOM     67  F   UNL A   1      40.125  28.221  31.374  1.00  0.00    -0.203 F 
ATOM     68  C   UNL A   1      37.969  28.860  30.683  1.00  0.00     0.198 A 
ATOM     69  C   UNL A   1      37.585  29.536  28.413  1.00  0.00     0.198 A 
ATOM     70  F   UNL A   1      39.352  29.519  26.862  1.00  0.00    -0.203 F 
ATOM     71  F   UNL A   1      37.500  28.599  31.911  1.00  0.00    -0.200 F 
ATOM     72  C   UNL A   1      37.104  29.301  29.692  1.00  0.00     0.200 A 
ATOM     73  F   UNL A   1      36.753  29.973  27.457  1.00  0.00    -0.200 F 
ATOM     74  F   UNL A   1      35.806  29.486  29.967  1.00  0.00    -0.200 F 
ENDBRANCH  50  64
BRANCH  51  75
ATOM     75  C   UNL A   1      49.191  26.753  26.330  1.00  0.00     0.064 A 
ATOM     76  C   UNL A   1      49.627  26.981  25.018  1.00  0.00     0.173 A 
ATOM     77  C   UNL A   1      50.119  26.244  27.250  1.00  0.00     0.173 A 
ATOM     78  F   UNL A   1      48.769  27.452  24.100  1.00  0.00    -0.203 F 
ATOM     79  C   UNL A   1      50.936  26.699  24.635  1.00  0.00     0.198 A 
ATOM     80  C   UNL A   1      51.434  25.985  26.871  1.00  0.00     0.198 A 
ATOM     81  F   UNL A   1      49.751  26.017  28.519  1.00  0.00    -0.203 F 
ATOM     82  F   UNL A   1      51.317  26.895  23.366  1.00  0.00    -0.200 F 
ATOM     83  C   UNL A   1      51.840  26.207  25.564  1.00  0.00     0.200 A 
ATOM     84  F   UNL A   1      52.310  25.523  27.774  1.00  0.00    -0.200 F 
ATOM     85  F   UNL A   1      53.102  25.944  25.198  1.00  0.00    -0.200 F 
ENDBRANCH  51  75
BRANCH  63  86
ATOM     86  C   UNL A   1      46.102  32.413  28.965  1.00  0.00     0.064 A 
ATOM     87  C   UNL A   1      46.621  32.661  30.244  1.00  0.00     0.173 A 
ATOM     88  C   UNL A   1      46.115  33.463  28.034  1.00  0.00     0.173 A 
ATOM     89  F   UNL A   1      46.616  31.694  31.173  1.00  0.00    -0.203 F 
ATOM     90  C   UNL A   1      47.107  33.920  30.585  1.00  0.00     0.198 A 
ATOM     91  C   UNL A   1      46.629  34.712  28.369  1.00  0.00     0.198 A 
ATOM     92  F   UNL A   1      45.635  33.274  26.795  1.00  0.00    -0.203 F 
ATOM     93  F   UNL A   1      47.553  34.149  31.828  1.00  0.00    -0.200 F 
ATOM     94  C   UNL A   1      47.116  34.942  29.646  1.00  0.00     0.200 A 
ATOM     95  F   UNL A   1      46.647  35.694  27.458  1.00  0.00    -0.200 F 
ATOM     96  F   UNL A   1      47.589  36.151  29.976  1.00  0.00    -0.200 F 
ENDBRANCH  63  86
ENDBRANCH  37  38
ENDBRANCH  29  32
ENDBRANCH  27  28
ENDBRANCH  26  27
ENDBRANCH   1  26
TORSDOF 14
ENDMDL
MODEL 2
REMARK VINA RESULT:     -12.5      0.772      7.222
REMARK SMILES N#C/C(=C\c1ccc(-c2cc(C(F)(F)F)ccc2Cl)o1)C(=O)NCCCNC(=O)c1ccc(-c2c3nc(c(-c4c(F)c(F)c(F)c(F)c4F)c4ccc([nH]4)c(-c4c(F)c(F)c(F)c(F)c4F)c4nc(c(-c5c(F)c(F)c(F)c(F)c5F)c5ccc2[nH]5)C=C4)C=C3)cc1
REMARK SMILES IDX 24 1 23 2 21 3 22 4 3 6 4 7 2 8 1 9 5 10 6 11 20 12 7 13
REMARK SMILES IDX 8 14 9 15 10 16 18 17 11 18 17 19 19 20 16 21 12 22 13 23
REMARK SMILES IDX 14 24 15 25 25 26 26 27 27 28 28 29 29 31 30 32 31 33 92 34
REMARK SMILES IDX 32 35 91 36 33 37 34 38 35 39 85 40 36 41 90 42 84 43 86 44
REMARK SMILES IDX 37 45 89 46 83 47 82 48 38 50 70 51 50 52 69 53 51 54 54 55
REMARK SMILES IDX 68 56 87 57 52 58 53 59 67 61 88 62 55 63 39 64 40 65 48 66
REMARK SMILES IDX 41 67 42 68 46 69 49 70 43 71 44 72 47 73 45 74 71 75 72 76
REMARK SMILES IDX 80 77 73 78 74 79 78 80 81 81 75 82 76 83 79 84 77 85 56 86
REMARK SMILES IDX 57 87 65 88 58 89 59 90 63 91 66 92 60 93 61 94 64 95 62 96
REMARK H PARENT 23 5 27 30 86 49 54 60
REMARK Flexibility Score: inf
ROOT
ATOM      1  C   UNL A   1      36.722  20.292  24.999  1.00  0.00     0.118 C 
ENDROOT
BRANCH   1   2
ATOM      2  N   UNL A   1      35.654  19.314  24.910  1.00  0.00    -0.351 N 
ATOM      3  C   UNL A   1      34.298  19.427  24.903  1.00  0.00     0.262 C 
ATOM      4  O   UNL A   1      33.653  18.388  24.766  1.00  0.00    -0.268 OA
ATOM      5  H   UNL A   1      35.974  18.385  24.844  1.00  0.00     0.163 HD
BRANCH   3   6
ATOM      6  C   UNL A   1      33.584  20.723  25.039  1.00  0.00     0.120 C 
ATOM      7  C   UNL A   1      32.971  21.447  24.071  1.00  0.00     0.072 C 
BRANCH   6   8
ATOM      8  C   UNL A   1      33.602  21.383  26.408  1.00  0.00     0.105 C 
ATOM      9  N   UNL A   1      33.616  21.930  27.543  1.00  0.00    -0.192 NA
ENDBRANCH   6   8
BRANCH   7  10
ATOM     10  C   UNL A   1      32.353  22.725  24.302  1.00  0.00     0.129 A 
ATOM     11  C   UNL A   1      31.056  23.027  24.709  1.00  0.00     0.051 A 
ATOM     12  O   UNL A   1      33.027  23.930  24.168  1.00  0.00    -0.457 OA
ATOM     13  C   UNL A   1      30.924  24.430  24.766  1.00  0.00     0.051 A 
ATOM     14  C   UNL A   1      32.159  24.945  24.454  1.00  0.00     0.136 A 
BRANCH  14  15
ATOM     15  C   UNL A   1      32.667  26.312  24.399  1.00  0.00     0.036 A 
ATOM     16  C   UNL A   1      32.710  27.089  25.571  1.00  0.00     0.026 A 
ATOM     17  C   UNL A   1      33.209  26.854  23.218  1.00  0.00     0.052 A 
ATOM     18  C   UNL A   1      33.304  28.369  25.581  1.00  0.00     0.056 A 
ATOM     19  C   UNL A   1      33.788  28.126  23.217  1.00  0.00     0.022 A 
ATOM     20  Cl  UNL A   1      33.187  26.004  21.708  1.00  0.00    -0.084 Cl
ATOM     21  C   UNL A   1      33.842  28.877  24.390  1.00  0.00     0.014 A 
BRANCH  18  22
ATOM     22  C   UNL A   1      33.374  29.172  26.859  1.00  0.00     0.416 C 
ATOM     23  F   UNL A   1      32.159  29.306  27.457  1.00  0.00    -0.166 F 
ATOM     24  F   UNL A   1      34.192  28.603  27.788  1.00  0.00    -0.166 F 
ATOM     25  F   UNL A   1      33.844  30.438  26.679  1.00  0.00    -0.166 F 
ENDBRANCH  18  22
ENDBRANCH  14  15
ENDBRANCH   7  10
ENDBRANCH   3   6
ENDBRANCH   1   2
BRANCH   1  26
ATOM     26  C   UNL A   1      38.095  19.644  24.812  1.00  0.00     0.042 C 
BRANCH  26  27
ATOM     27  C   UNL A   1      39.132  20.133  25.815  1.00  0.00     0.118 C 
BRANCH  27  28
ATOM     28  N   UNL A   1      40.233  19.193  25.948  1.00  0.00    -0.352 N 
ATOM     29  C   UNL A   1      41.573  19.415  26.112  1.00  0.00     0.251 C 
ATOM     30  H   UNL A   1      39.973  18.244  25.913  1.00  0.00     0.163 HD
ATOM     31  O   UNL A   1      42.354  18.478  25.970  1.00  0.00    -0.269 OA
BRANCH  29  32
ATOM     32  C   UNL A   1      42.094  20.754  26.464  1.00  0.00     0.039 A 
ATOM     33  C   UNL A   1      42.209  21.086  27.818  1.00  0.00     0.014 A 
ATOM     34  C   UNL A   1      42.373  21.713  25.486  1.00  0.00     0.014 A 
ATOM     35  C   UNL A   1      42.608  22.371  28.191  1.00  0.00     0.010 A 
ATOM     36  C   UNL A   1      42.841  22.971  25.856  1.00  0.00     0.010 A 
ATOM     37  C   UNL A   1      42.928  23.322  27.211  1.00  0.00    -0.014 A 
BRANCH  37  38
ATOM     38  C   UNL A   1      43.286  24.711  27.586  1.00  0.00     0.031 A 
ATOM     39  C   UNL A   1      44.728  25.138  27.584  1.00  0.00     0.074 A 
ATOM     40  C   UNL A   1      42.324  25.571  27.965  1.00  0.00     0.049 A 
ATOM     41  N   UNL A   1      45.254  26.289  27.917  1.00  0.00    -0.248 NA
ATOM     42  C   UNL A   1      45.715  24.123  27.181  1.00  0.00     0.031 C 
ATOM     43  C   UNL A   1      40.896  25.259  28.042  1.00  0.00     0.029 A 
ATOM     44  N   UNL A   1      42.402  26.882  28.358  1.00  0.00    -0.354 N 
ATOM     45  C   UNL A   1      46.628  26.125  27.795  1.00  0.00     0.074 A 
ATOM     46  C   UNL A   1      46.858  24.751  27.405  1.00  0.00     0.031 C 
ATOM     47  C   UNL A   1      40.229  26.359  28.426  1.00  0.00     0.029 A 
ATOM     48  C   UNL A   1      41.184  27.442  28.648  1.00  0.00     0.049 A 
ATOM     49  H   UNL A   1      43.252  27.375  28.425  1.00  0.00     0.167 HD
ATOM     50  C   UNL A   1      47.609  27.044  27.970  1.00  0.00     0.037 A 
ATOM     51  C   UNL A   1      40.875  28.692  29.041  1.00  0.00     0.037 A 
ATOM     52  C   UNL A   1      47.370  28.421  28.316  1.00  0.00     0.049 A 
ATOM     53  C   UNL A   1      41.977  29.701  29.201  1.00  0.00     0.074 A 
ATOM     54  C   UNL A   1      48.283  29.451  28.452  1.00  0.00     0.029 A 
ATOM     55  N   UNL A   1      46.117  28.958  28.577  1.00  0.00    -0.354 N 
ATOM     56  N   UNL A   1      43.268  29.556  29.021  1.00  0.00    -0.248 NA
ATOM     57  C   UNL A   1      41.577  31.055  29.608  1.00  0.00     0.031 C 
ATOM     58  C   UNL A   1      47.586  30.604  28.832  1.00  0.00     0.029 A 
ATOM     59  C   UNL A   1      46.234  30.303  28.887  1.00  0.00     0.049 A 
ATOM     60  H   UNL A   1      45.270  28.457  28.547  1.00  0.00     0.167 HD
ATOM     61  C   UNL A   1      43.829  30.803  29.255  1.00  0.00     0.074 A 
ATOM     62  C   UNL A   1      42.737  31.696  29.585  1.00  0.00     0.031 C 
ATOM     63  C   UNL A   1      45.132  31.178  29.195  1.00  0.00     0.037 A 
BRANCH  50  64
ATOM     64  C   UNL A   1      49.028  26.580  27.796  1.00  0.00     0.064 A 
ATOM     65  C   UNL A   1      49.850  26.285  28.895  1.00  0.00     0.173 A 
ATOM     66  C   UNL A   1      49.576  26.435  26.513  1.00  0.00     0.173 A 
ATOM     67  F   UNL A   1      49.380  26.420  30.145  1.00  0.00    -0.203 F 
ATOM     68  C   UNL A   1      51.177  25.904  28.716  1.00  0.00     0.198 A 
ATOM     69  C   UNL A   1      50.893  26.022  26.337  1.00  0.00     0.198 A 
ATOM     70  F   UNL A   1      48.834  26.698  25.426  1.00  0.00    -0.203 F 
ATOM     71  F   UNL A   1      51.961  25.693  29.783  1.00  0.00    -0.200 F 
ATOM     72  C   UNL A   1      51.697  25.769  27.438  1.00  0.00     0.200 A 
ATOM     73  F   UNL A   1      51.391  25.881  25.101  1.00  0.00    -0.200 F 
ATOM     74  F   UNL A   1      52.976  25.407  27.268  1.00  0.00    -0.200 F 
ENDBRANCH  50  64
BRANCH  51  75
ATOM     75  C   UNL A   1      39.454  29.071  29.240  1.00  0.00     0.064 A 
ATOM     76  C   UNL A   1      38.873  29.011  30.515  1.00  0.00     0.173 A 
ATOM     77  C   UNL A   1      38.655  29.516  28.178  1.00  0.00     0.173 A 
ATOM     78  F   UNL A   1      39.596  28.575  31.558  1.00  0.00    -0.203 F 
ATOM     79  C   UNL A   1      37.544  29.370  30.718  1.00  0.00     0.198 A 
ATOM     80  C   UNL A   1      37.331  29.897  28.387  1.00  0.00     0.198 A 
ATOM     81  F   UNL A   1      39.167  29.598  26.941  1.00  0.00    -0.203 F 
ATOM     82  F   UNL A   1      37.005  29.272  31.941  1.00  0.00    -0.200 F 
ATOM     83  C   UNL A   1      36.775  29.819  29.655  1.00  0.00     0.200 A 
ATOM     84  F   UNL A   1      36.595  30.344  27.360  1.00  0.00    -0.200 F 
ATOM     85  F   UNL A   1      35.498  30.173  29.852  1.00  0.00    -0.200 F 
ENDBRANCH  51  75
BRANCH  63  86
ATOM     86  C   UNL A   1      45.439  32.625  29.440  1.00  0.00     0.064 A 
ATOM     87  C   UNL A   1      45.761  33.108  30.717  1.00  0.00     0.173 A 
ATOM     88  C   UNL A   1      45.441  33.537  28.373  1.00  0.00     0.173 A 
ATOM     89  F   UNL A   1      45.758  32.279  31.772  1.00  0.00    -0.203 F 
ATOM     90  C   UNL A   1      46.046  34.455  30.921  1.00  0.00     0.198 A 
ATOM     91  C   UNL A   1      45.754  34.877  28.575  1.00  0.00     0.198 A 
ATOM     92  F   UNL A   1      45.145  33.123  27.131  1.00  0.00    -0.203 F 
ATOM     93  F   UNL A   1      46.302  34.904  32.157  1.00  0.00    -0.200 F 
ATOM     94  C   UNL A   1      46.048  35.337  29.849  1.00  0.00     0.200 A 
ATOM     95  F   UNL A   1      45.767  35.725  27.538  1.00  0.00    -0.200 F 
ATOM     96  F   UNL A   1      46.327  36.632  30.048  1.00  0.00    -0.200 F 
ENDBRANCH  63  86
ENDBRANCH  37  38
ENDBRANCH  29  32
ENDBRANCH  27  28
ENDBRANCH  26  27
ENDBRANCH   1  26
TORSDOF 14
ENDMDL
MODEL 3
REMARK VINA RESULT:     -12.4      5.755      9.800
REMARK SMILES N#C/C(=C\c1ccc(-c2cc(C(F)(F)F)ccc2Cl)o1)C(=O)NCCCNC(=O)c1ccc(-c2c3nc(c(-c4c(F)c(F)c(F)c(F)c4F)c4ccc([nH]4)c(-c4c(F)c(F)c(F)c(F)c4F)c4nc(c(-c5c(F)c(F)c(F)c(F)c5F)c5ccc2[nH]5)C=C4)C=C3)cc1
REMARK SMILES IDX 24 1 23 2 21 3 22 4 3 6 4 7 2 8 1 9 5 10 6 11 20 12 7 13
REMARK SMILES IDX 8 14 9 15 10 16 18 17 11 18 17 19 19 20 16 21 12 22 13 23
REMARK SMILES IDX 14 24 15 25 25 26 26 27 27 28 28 29 29 31 30 32 31 33 92 34
REMARK SMILES IDX 32 35 91 36 33 37 34 38 35 39 85 40 36 41 90 42 84 43 86 44
REMARK SMILES IDX 37 45 89 46 83 47 82 48 38 50 70 51 50 52 69 53 51 54 54 55
REMARK SMILES IDX 68 56 87 57 52 58 53 59 67 61 88 62 55 63 39 64 40 65 48 66
REMARK SMILES IDX 41 67 42 68 46 69 49 70 43 71 44 72 47 73 45 74 71 75 72 76
REMARK SMILES IDX 80 77 73 78 74 79 78 80 81 81 75 82 76 83 79 84 77 85 56 86
REMARK SMILES IDX 57 87 65 88 58 89 59 90 63 91 66 92 60 93 61 94 64 95 62 96
REMARK H PARENT 23 5 27 30 86 49 54 60
REMARK Flexibility Score: inf
ROOT
ATOM      1  C   UNL A   1      31.426  30.487  25.534  1.00  0.00     0.118 C 
ENDROOT
BRANCH   1   2
ATOM      2  N   UNL A   1      30.464  30.549  24.449  1.00  0.00    -0.351 N 
ATOM      3  C   UNL A   1      30.233  29.746  23.375  1.00  0.00     0.262 C 
ATOM      4  O   UNL A   1      29.291  30.051  22.644  1.00  0.00    -0.268 OA
ATOM      5  H   UNL A   1      29.862  31.325  24.500  1.00  0.00     0.163 HD
BRANCH   3   6
ATOM      6  C   UNL A   1      31.044  28.542  23.064  1.00  0.00     0.120 C 
ATOM      7  C   UNL A   1      30.624  27.260  22.926  1.00  0.00     0.072 C 
BRANCH   6   8
ATOM      8  C   UNL A   1      32.550  28.727  22.966  1.00  0.00     0.105 C 
ATOM      9  N   UNL A   1      33.799  28.881  22.885  1.00  0.00    -0.192 NA
ENDBRANCH   6   8
BRANCH   7  10
ATOM     10  C   UNL A   1      31.508  26.153  22.678  1.00  0.00     0.129 A 
ATOM     11  C   UNL A   1      32.197  25.806  21.518  1.00  0.00     0.051 A 
ATOM     12  O   UNL A   1      31.845  25.218  23.645  1.00  0.00    -0.457 OA
ATOM     13  C   UNL A   1      32.913  24.617  21.766  1.00  0.00     0.051 A 
ATOM     14  C   UNL A   1      32.693  24.305  23.086  1.00  0.00     0.136 A 
BRANCH  14  15
ATOM     15  C   UNL A   1      33.199  23.234  23.938  1.00  0.00     0.036 A 
ATOM     16  C   UNL A   1      32.820  21.902  23.688  1.00  0.00     0.026 A 
ATOM     17  C   UNL A   1      34.140  23.480  24.956  1.00  0.00     0.052 A 
ATOM     18  C   UNL A   1      33.383  20.831  24.413  1.00  0.00     0.056 A 
ATOM     19  C   UNL A   1      34.693  22.424  25.688  1.00  0.00     0.022 A 
ATOM     20  Cl  UNL A   1      34.662  25.078  25.376  1.00  0.00    -0.084 Cl
ATOM     21  C   UNL A   1      34.322  21.108  25.415  1.00  0.00     0.014 A 
BRANCH  18  22
ATOM     22  C   UNL A   1      32.990  19.405  24.101  1.00  0.00     0.416 C 
ATOM     23  F   UNL A   1      34.053  18.555  24.124  1.00  0.00    -0.166 F 
ATOM     24  F   UNL A   1      32.089  18.906  24.991  1.00  0.00    -0.166 F 
ATOM     25  F   UNL A   1      32.419  19.256  22.873  1.00  0.00    -0.166 F 
ENDBRANCH  18  22
ENDBRANCH  14  15
ENDBRANCH   7  10
ENDBRANCH   3   6
ENDBRANCH   1   2
BRANCH   1  26
ATOM     26  C   UNL A   1      31.278  31.677  26.485  1.00  0.00     0.042 C 
BRANCH  26  27
ATOM     27  C   UNL A   1      32.613  32.223  26.975  1.00  0.00     0.118 C 
BRANCH  27  28
ATOM     28  N   UNL A   1      32.514  33.625  27.346  1.00  0.00    -0.352 N 
ATOM     29  C   UNL A   1      33.136  34.324  28.345  1.00  0.00     0.251 C 
ATOM     30  H   UNL A   1      31.900  34.157  26.790  1.00  0.00     0.163 HD
ATOM     31  O   UNL A   1      32.731  35.449  28.625  1.00  0.00    -0.269 OA
BRANCH  29  32
ATOM     32  C   UNL A   1      34.285  33.755  29.082  1.00  0.00     0.039 A 
ATOM     33  C   UNL A   1      35.569  34.206  28.759  1.00  0.00     0.014 A 
ATOM     34  C   UNL A   1      34.122  32.721  30.008  1.00  0.00     0.014 A 
ATOM     35  C   UNL A   1      36.685  33.628  29.365  1.00  0.00     0.010 A 
ATOM     36  C   UNL A   1      35.231  32.194  30.667  1.00  0.00     0.010 A 
ATOM     37  C   UNL A   1      36.523  32.619  30.326  1.00  0.00    -0.014 A 
BRANCH  37  38
ATOM     38  C   UNL A   1      37.698  31.945  30.929  1.00  0.00     0.031 A 
ATOM     39  C   UNL A   1      38.129  32.302  32.325  1.00  0.00     0.074 A 
ATOM     40  C   UNL A   1      38.396  31.047  30.211  1.00  0.00     0.049 A 
ATOM     41  N   UNL A   1      39.149  31.862  33.017  1.00  0.00    -0.248 NA
ATOM     42  C   UNL A   1      37.322  33.313  33.025  1.00  0.00     0.031 C 
ATOM     43  C   UNL A   1      38.095  30.648  28.836  1.00  0.00     0.029 A 
ATOM     44  N   UNL A   1      39.504  30.309  30.539  1.00  0.00    -0.354 N 
ATOM     45  C   UNL A   1      39.122  32.564  34.216  1.00  0.00     0.074 A 
ATOM     46  C   UNL A   1      38.016  33.493  34.137  1.00  0.00     0.031 C 
ATOM     47  C   UNL A   1      38.977  29.713  28.449  1.00  0.00     0.029 A 
ATOM     48  C   UNL A   1      39.921  29.469  29.537  1.00  0.00     0.049 A 
ATOM     49  H   UNL A   1      39.958  30.375  31.411  1.00  0.00     0.167 HD
ATOM     50  C   UNL A   1      39.932  32.430  35.293  1.00  0.00     0.037 A 
ATOM     51  C   UNL A   1      40.944  28.596  29.507  1.00  0.00     0.037 A 
ATOM     52  C   UNL A   1      41.004  31.473  35.380  1.00  0.00     0.049 A 
ATOM     53  C   UNL A   1      41.813  28.444  30.725  1.00  0.00     0.074 A 
ATOM     54  C   UNL A   1      41.842  31.206  36.448  1.00  0.00     0.029 A 
ATOM     55  N   UNL A   1      41.380  30.619  34.353  1.00  0.00    -0.354 N 
ATOM     56  N   UNL A   1      41.741  29.066  31.877  1.00  0.00    -0.248 NA
ATOM     57  C   UNL A   1      42.899  27.459  30.642  1.00  0.00     0.031 C 
ATOM     58  C   UNL A   1      42.750  30.216  36.053  1.00  0.00     0.029 A 
ATOM     59  C   UNL A   1      42.447  29.834  34.755  1.00  0.00     0.049 A 
ATOM     60  H   UNL A   1      40.951  30.579  33.467  1.00  0.00     0.167 HD
ATOM     61  C   UNL A   1      42.744  28.522  32.667  1.00  0.00     0.074 A 
ATOM     62  C   UNL A   1      43.408  27.516  31.864  1.00  0.00     0.031 C 
ATOM     63  C   UNL A   1      43.081  28.825  33.946  1.00  0.00     0.037 A 
BRANCH  50  64
ATOM     64  C   UNL A   1      39.690  33.349  36.457  1.00  0.00     0.064 A 
ATOM     65  C   UNL A   1      38.807  33.012  37.495  1.00  0.00     0.173 A 
ATOM     66  C   UNL A   1      40.346  34.587  36.534  1.00  0.00     0.173 A 
ATOM     67  F   UNL A   1      38.143  31.847  37.464  1.00  0.00    -0.203 F 
ATOM     68  C   UNL A   1      38.558  33.897  38.540  1.00  0.00     0.198 A 
ATOM     69  C   UNL A   1      40.120  35.456  37.598  1.00  0.00     0.198 A 
ATOM     70  F   UNL A   1      41.206  34.959  35.572  1.00  0.00    -0.203 F 
ATOM     71  F   UNL A   1      37.659  33.581  39.484  1.00  0.00    -0.200 F 
ATOM     72  C   UNL A   1      39.217  35.116  38.594  1.00  0.00     0.200 A 
ATOM     73  F   UNL A   1      40.766  36.629  37.654  1.00  0.00    -0.200 F 
ATOM     74  F   UNL A   1      38.972  35.969  39.598  1.00  0.00    -0.200 F 
ENDBRANCH  50  64
BRANCH  51  75
ATOM     75  C   UNL A   1      41.155  27.751  28.305  1.00  0.00     0.064 A 
ATOM     76  C   UNL A   1      42.008  28.176  27.277  1.00  0.00     0.173 A 
ATOM     77  C   UNL A   1      40.533  26.502  28.165  1.00  0.00     0.173 A 
ATOM     78  F   UNL A   1      42.612  29.371  27.361  1.00  0.00    -0.203 F 
ATOM     79  C   UNL A   1      42.222  27.390  26.147  1.00  0.00     0.198 A 
ATOM     80  C   UNL A   1      40.766  25.707  27.045  1.00  0.00     0.198 A 
ATOM     81  F   UNL A   1      39.714  26.048  29.125  1.00  0.00    -0.203 F 
ATOM     82  F   UNL A   1      43.015  27.835  25.165  1.00  0.00    -0.200 F 
ATOM     83  C   UNL A   1      41.604  26.153  26.035  1.00  0.00     0.200 A 
ATOM     84  F   UNL A   1      40.180  24.506  26.945  1.00  0.00    -0.200 F 
ATOM     85  F   UNL A   1      41.817  25.394  24.952  1.00  0.00    -0.200 F 
ENDBRANCH  51  75
BRANCH  63  86
ATOM     86  C   UNL A   1      44.183  28.021  34.571  1.00  0.00     0.064 A 
ATOM     87  C   UNL A   1      45.517  28.452  34.550  1.00  0.00     0.173 A 
ATOM     88  C   UNL A   1      43.890  26.816  35.228  1.00  0.00     0.173 A 
ATOM     89  F   UNL A   1      45.849  29.589  33.921  1.00  0.00    -0.203 F 
ATOM     90  C   UNL A   1      46.523  27.691  35.139  1.00  0.00     0.198 A 
ATOM     91  C   UNL A   1      44.894  26.073  35.842  1.00  0.00     0.198 A 
ATOM     92  F   UNL A   1      42.628  26.364  35.281  1.00  0.00    -0.203 F 
ATOM     93  F   UNL A   1      47.798  28.096  35.065  1.00  0.00    -0.200 F 
ATOM     94  C   UNL A   1      46.210  26.506  35.790  1.00  0.00     0.200 A 
ATOM     95  F   UNL A   1      44.588  24.934  36.479  1.00  0.00    -0.200 F 
ATOM     96  F   UNL A   1      47.179  25.778  36.360  1.00  0.00    -0.200 F 
ENDBRANCH  63  86
ENDBRANCH  37  38
ENDBRANCH  29  32
ENDBRANCH  27  28
ENDBRANCH  26  27
ENDBRANCH   1  26
TORSDOF 14
ENDMDL
