MODEL 1
REMARK VINA RESULT:     -13.7      0.000      0.000
REMARK SMILES CC[C@H]1CCCCN1S(=O)(=O)c1ccc2oc(C(=O)NCCCNC(=O)c3ccc(-c4c5nc(c(-c6c(F)c(F)c(F)c(F)c6F)c6ccc([nH]6)c(-c6c(F)c(F)c(F)c(F)c6F)c6nc(c(-c7c(F)c(F)c(F)c(F)c7F)c7ccc4[nH]7)C=C6)C=C5)cc3)c(C)c2c1
REMARK SMILES IDX 21 1 20 2 18 3 19 4 17 6 12 7 13 8 93 9 14 10 92 11 15 12
REMARK SMILES IDX 90 13 16 14 91 15 9 16 10 17 11 18 8 19 3 20 4 21 5 22 7 23
REMARK SMILES IDX 6 24 2 25 1 26 22 27 23 28 24 29 25 30 26 32 27 33 28 34
REMARK SMILES IDX 89 35 29 36 88 37 30 38 31 39 32 40 82 41 33 42 87 43 81 44
REMARK SMILES IDX 83 45 34 46 86 47 80 48 79 49 35 51 67 52 47 53 66 54 48 55
REMARK SMILES IDX 51 56 65 57 84 58 49 59 50 60 64 62 85 63 52 64 36 65 37 66
REMARK SMILES IDX 45 67 38 68 39 69 43 70 46 71 40 72 41 73 44 74 42 75 68 76
REMARK SMILES IDX 69 77 77 78 70 79 71 80 75 81 78 82 72 83 73 84 76 85 74 86
REMARK SMILES IDX 53 87 54 88 62 89 55 90 56 91 60 92 63 93 57 94 58 95 61 96
REMARK SMILES IDX 59 97
REMARK H PARENT 20 5 24 31 83 50 51 61
REMARK Flexibility Score: inf
ROOT
ATOM      1  C   UNL A   1      31.617  30.677  25.926  1.00  0.00     0.118 C 
ENDROOT
BRANCH   1   2
ATOM      2  N   UNL A   1      31.025  30.423  24.631  1.00  0.00    -0.349 N 
ATOM      3  C   UNL A   1      30.870  29.245  23.929  1.00  0.00     0.287 C 
ATOM      4  O   UNL A   1      30.307  29.362  22.837  1.00  0.00    -0.266 OA
ATOM      5  H   UNL A   1      30.675  31.223  24.175  1.00  0.00     0.163 HD
BRANCH   3   6
ATOM      6  C   UNL A   1      31.385  27.971  24.417  1.00  0.00     0.195 A 
ATOM      7  C   UNL A   1      33.254  24.190  26.183  1.00  0.00     0.083 A 
ATOM      8  C   UNL A   1      34.397  24.747  25.596  1.00  0.00     0.025 A 
ATOM      9  C   UNL A   1      32.049  24.892  26.192  1.00  0.00     0.034 A 
ATOM     10  C   UNL A   1      34.345  26.019  24.987  1.00  0.00     0.049 A 
ATOM     11  C   UNL A   1      31.943  26.046  25.421  1.00  0.00     0.025 A 
ATOM     12  C   UNL A   1      33.087  26.621  24.913  1.00  0.00     0.135 A 
ATOM     13  C   UNL A   1      30.847  26.780  24.897  1.00  0.00     0.008 A 
ATOM     14  O   UNL A   1      32.766  27.821  24.360  1.00  0.00    -0.451 OA
ATOM     15  C   UNL A   1      29.472  26.215  24.859  1.00  0.00     0.049 C 
BRANCH   7  16
ATOM     16  S   UNL A   1      33.296  22.667  27.098  1.00  0.00     0.243 S 
ATOM     17  O   UNL A   1      31.983  22.577  27.693  1.00  0.00    -0.207 OA
ATOM     18  O   UNL A   1      34.482  22.693  27.931  1.00  0.00    -0.207 OA
BRANCH  16  19
ATOM     19  N   UNL A   1      33.509  21.372  25.984  1.00  0.00    -0.195 NA
ATOM     20  C   UNL A   1      32.398  21.196  24.980  1.00  0.00     0.073 C 
ATOM     21  C   UNL A   1      32.328  19.684  24.666  1.00  0.00     0.020 C 
ATOM     22  C   UNL A   1      33.645  19.153  24.092  1.00  0.00     0.003 C 
ATOM     23  C   UNL A   1      34.824  20.987  25.432  1.00  0.00     0.103 C 
ATOM     24  C   UNL A   1      34.817  19.522  24.988  1.00  0.00     0.017 C 
BRANCH  20  25
ATOM     25  C   UNL A   1      32.551  21.980  23.651  1.00  0.00     0.017 C 
ATOM     26  C   UNL A   1      31.434  22.919  23.242  1.00  0.00     0.005 C 
ENDBRANCH  20  25
ENDBRANCH  16  19
ENDBRANCH   7  16
ENDBRANCH   3   6
ENDBRANCH   1   2
BRANCH   1  27
ATOM     27  C   UNL A   1      31.349  32.052  26.515  1.00  0.00     0.042 C 
BRANCH  27  28
ATOM     28  C   UNL A   1      32.530  32.671  27.242  1.00  0.00     0.118 C 
BRANCH  28  29
ATOM     29  N   UNL A   1      32.328  34.066  27.616  1.00  0.00    -0.352 N 
ATOM     30  C   UNL A   1      32.967  34.890  28.513  1.00  0.00     0.251 C 
ATOM     31  H   UNL A   1      31.591  34.503  27.133  1.00  0.00     0.163 HD
ATOM     32  O   UNL A   1      32.501  36.007  28.727  1.00  0.00    -0.269 OA
BRANCH  30  33
ATOM     33  C   UNL A   1      34.168  34.454  29.266  1.00  0.00     0.039 A 
ATOM     34  C   UNL A   1      34.000  33.856  30.523  1.00  0.00     0.014 A 
ATOM     35  C   UNL A   1      35.456  34.649  28.780  1.00  0.00     0.014 A 
ATOM     36  C   UNL A   1      35.108  33.368  31.226  1.00  0.00     0.010 A 
ATOM     37  C   UNL A   1      36.543  34.060  29.418  1.00  0.00     0.010 A 
ATOM     38  C   UNL A   1      36.385  33.412  30.651  1.00  0.00    -0.014 A 
BRANCH  38  39
ATOM     39  C   UNL A   1      37.580  32.808  31.301  1.00  0.00     0.031 A 
ATOM     40  C   UNL A   1      38.308  31.674  30.627  1.00  0.00     0.074 A 
ATOM     41  C   UNL A   1      37.936  33.187  32.544  1.00  0.00     0.049 A 
ATOM     42  N   UNL A   1      39.222  30.870  31.108  1.00  0.00    -0.248 NA
ATOM     43  C   UNL A   1      37.918  31.374  29.239  1.00  0.00     0.031 C 
ATOM     44  C   UNL A   1      37.286  34.235  33.333  1.00  0.00     0.029 A 
ATOM     45  N   UNL A   1      38.922  32.713  33.376  1.00  0.00    -0.354 N 
ATOM     46  C   UNL A   1      39.473  29.942  30.105  1.00  0.00     0.074 A 
ATOM     47  C   UNL A   1      38.588  30.257  29.004  1.00  0.00     0.031 C 
ATOM     48  C   UNL A   1      37.900  34.337  34.522  1.00  0.00     0.029 A 
ATOM     49  C   UNL A   1      38.954  33.332  34.601  1.00  0.00     0.049 A 
ATOM     50  H   UNL A   1      39.546  31.996  33.117  1.00  0.00     0.167 HD
ATOM     51  C   UNL A   1      40.373  28.931  30.094  1.00  0.00     0.037 A 
ATOM     52  C   UNL A   1      39.735  33.104  35.674  1.00  0.00     0.037 A 
ATOM     53  C   UNL A   1      41.304  28.666  31.158  1.00  0.00     0.049 A 
ATOM     54  C   UNL A   1      40.764  32.010  35.618  1.00  0.00     0.074 A 
ATOM     55  C   UNL A   1      42.316  27.722  31.206  1.00  0.00     0.029 A 
ATOM     56  N   UNL A   1      41.347  29.360  32.357  1.00  0.00    -0.354 N 
ATOM     57  N   UNL A   1      41.021  31.168  34.648  1.00  0.00    -0.248 NA
ATOM     58  C   UNL A   1      41.612  31.834  36.806  1.00  0.00     0.031 C 
ATOM     59  C   UNL A   1      42.956  27.831  32.445  1.00  0.00     0.029 A 
ATOM     60  C   UNL A   1      42.364  28.863  33.155  1.00  0.00     0.049 A 
ATOM     61  H   UNL A   1      40.744  30.098  32.605  1.00  0.00     0.167 HD
ATOM     62  C   UNL A   1      42.073  30.380  35.095  1.00  0.00     0.074 A 
ATOM     63  C   UNL A   1      42.414  30.851  36.421  1.00  0.00     0.031 C 
ATOM     64  C   UNL A   1      42.699  29.358  34.464  1.00  0.00     0.037 A 
BRANCH  51  65
ATOM     65  C   UNL A   1      40.406  28.041  28.886  1.00  0.00     0.064 A 
ATOM     66  C   UNL A   1      39.669  26.847  28.831  1.00  0.00     0.173 A 
ATOM     67  C   UNL A   1      41.159  28.398  27.758  1.00  0.00     0.173 A 
ATOM     68  F   UNL A   1      38.943  26.454  29.889  1.00  0.00    -0.203 F 
ATOM     69  C   UNL A   1      39.713  26.029  27.706  1.00  0.00     0.198 A 
ATOM     70  C   UNL A   1      41.177  27.592  26.623  1.00  0.00     0.198 A 
ATOM     71  F   UNL A   1      41.876  29.532  27.754  1.00  0.00    -0.203 F 
ATOM     72  F   UNL A   1      39.044  24.868  27.699  1.00  0.00    -0.200 F 
ATOM     73  C   UNL A   1      40.461  26.405  26.601  1.00  0.00     0.200 A 
ATOM     74  F   UNL A   1      41.891  27.962  25.550  1.00  0.00    -0.200 F 
ATOM     75  F   UNL A   1      40.498  25.617  25.517  1.00  0.00    -0.200 F 
ENDBRANCH  51  65
BRANCH  52  76
ATOM     76  C   UNL A   1      39.590  33.949  36.887  1.00  0.00     0.064 A 
ATOM     77  C   UNL A   1      40.249  35.183  36.979  1.00  0.00     0.173 A 
ATOM     78  C   UNL A   1      38.793  33.552  37.969  1.00  0.00     0.173 A 
ATOM     79  F   UNL A   1      41.039  35.595  35.976  1.00  0.00    -0.203 F 
ATOM     80  C   UNL A   1      40.128  35.981  38.114  1.00  0.00     0.198 A 
ATOM     81  C   UNL A   1      38.652  34.362  39.095  1.00  0.00     0.198 A 
ATOM     82  F   UNL A   1      38.136  32.384  37.926  1.00  0.00    -0.203 F 
ATOM     83  F   UNL A   1      40.798  37.140  38.191  1.00  0.00    -0.200 F 
ATOM     84  C   UNL A   1      39.326  35.573  39.169  1.00  0.00     0.200 A 
ATOM     85  F   UNL A   1      37.866  33.971  40.106  1.00  0.00    -0.200 F 
ATOM     86  F   UNL A   1      39.205  36.343  40.258  1.00  0.00    -0.200 F 
ENDBRANCH  52  76
BRANCH  64  87
ATOM     87  C   UNL A   1      43.841  28.704  35.179  1.00  0.00     0.064 A 
ATOM     88  C   UNL A   1      45.152  29.183  35.058  1.00  0.00     0.173 A 
ATOM     89  C   UNL A   1      43.610  27.618  36.037  1.00  0.00     0.173 A 
ATOM     90  F   UNL A   1      45.423  30.208  34.236  1.00  0.00    -0.203 F 
ATOM     91  C   UNL A   1      46.196  28.591  35.763  1.00  0.00     0.198 A 
ATOM     92  C   UNL A   1      44.652  27.043  36.758  1.00  0.00     0.198 A 
ATOM     93  F   UNL A   1      42.370  27.128  36.189  1.00  0.00    -0.203 F 
ATOM     94  F   UNL A   1      47.448  29.043  35.609  1.00  0.00    -0.200 F 
ATOM     95  C   UNL A   1      45.944  27.527  36.618  1.00  0.00     0.200 A 
ATOM     96  F   UNL A   1      44.406  26.023  37.591  1.00  0.00    -0.200 F 
ATOM     97  F   UNL A   1      46.949  26.964  37.303  1.00  0.00    -0.200 F 
ENDBRANCH  64  87
ENDBRANCH  38  39
ENDBRANCH  30  33
ENDBRANCH  28  29
ENDBRANCH  27  28
ENDBRANCH   1  27
TORSDOF 13
ENDMDL
MODEL 2
REMARK VINA RESULT:     -13.7      5.376     11.112
REMARK SMILES CC[C@H]1CCCCN1S(=O)(=O)c1ccc2oc(C(=O)NCCCNC(=O)c3ccc(-c4c5nc(c(-c6c(F)c(F)c(F)c(F)c6F)c6ccc([nH]6)c(-c6c(F)c(F)c(F)c(F)c6F)c6nc(c(-c7c(F)c(F)c(F)c(F)c7F)c7ccc4[nH]7)C=C6)C=C5)cc3)c(C)c2c1
REMARK SMILES IDX 21 1 20 2 18 3 19 4 17 6 12 7 13 8 93 9 14 10 92 11 15 12
REMARK SMILES IDX 90 13 16 14 91 15 9 16 10 17 11 18 8 19 3 20 4 21 5 22 7 23
REMARK SMILES IDX 6 24 2 25 1 26 22 27 23 28 24 29 25 30 26 32 27 33 28 34
REMARK SMILES IDX 89 35 29 36 88 37 30 38 31 39 32 40 82 41 33 42 87 43 81 44
REMARK SMILES IDX 83 45 34 46 86 47 80 48 79 49 35 51 67 52 47 53 66 54 48 55
REMARK SMILES IDX 51 56 65 57 84 58 49 59 50 60 64 62 85 63 52 64 36 65 37 66
REMARK SMILES IDX 45 67 38 68 39 69 43 70 46 71 40 72 41 73 44 74 42 75 68 76
REMARK SMILES IDX 69 77 77 78 70 79 71 80 75 81 78 82 72 83 73 84 76 85 74 86
REMARK SMILES IDX 53 87 54 88 62 89 55 90 56 91 60 92 63 93 57 94 58 95 61 96
REMARK SMILES IDX 59 97
REMARK H PARENT 20 5 24 31 83 50 51 61
REMARK Flexibility Score: inf
ROOT
ATOM      1  C   UNL A   1      36.505  20.387  25.030  1.00  0.00     0.118 C 
ENDROOT
BRANCH   1   2
ATOM      2  N   UNL A   1      35.486  19.362  24.997  1.00  0.00    -0.349 N 
ATOM      3  C   UNL A   1      34.110  19.462  24.924  1.00  0.00     0.287 C 
ATOM      4  O   UNL A   1      33.512  18.383  24.905  1.00  0.00    -0.266 OA
ATOM      5  H   UNL A   1      35.829  18.439  25.033  1.00  0.00     0.163 HD
BRANCH   3   6
ATOM      6  C   UNL A   1      33.420  20.746  24.929  1.00  0.00     0.195 A 
ATOM      7  C   UNL A   1      30.964  24.598  24.716  1.00  0.00     0.083 A 
ATOM      8  C   UNL A   1      31.210  24.417  23.349  1.00  0.00     0.025 A 
ATOM      9  C   UNL A   1      31.359  23.630  25.640  1.00  0.00     0.034 A 
ATOM     10  C   UNL A   1      31.875  23.264  22.885  1.00  0.00     0.049 A 
ATOM     11  C   UNL A   1      32.189  22.598  25.212  1.00  0.00     0.025 A 
ATOM     12  C   UNL A   1      32.359  22.390  23.861  1.00  0.00     0.135 A 
ATOM     13  C   UNL A   1      33.059  21.697  25.880  1.00  0.00     0.008 A 
ATOM     14  O   UNL A   1      33.049  21.232  23.680  1.00  0.00    -0.451 OA
ATOM     15  C   UNL A   1      33.478  21.912  27.290  1.00  0.00     0.049 C 
BRANCH   7  16
ATOM     16  S   UNL A   1      29.997  25.950  25.343  1.00  0.00     0.243 S 
ATOM     17  O   UNL A   1      29.553  25.496  26.640  1.00  0.00    -0.207 OA
ATOM     18  O   UNL A   1      29.033  26.306  24.319  1.00  0.00    -0.207 OA
BRANCH  16  19
ATOM     19  N   UNL A   1      31.030  27.312  25.537  1.00  0.00    -0.195 NA
ATOM     20  C   UNL A   1      32.372  27.019  26.161  1.00  0.00     0.073 C 
ATOM     21  C   UNL A   1      32.772  28.287  26.951  1.00  0.00     0.020 C 
ATOM     22  C   UNL A   1      32.869  29.521  26.050  1.00  0.00     0.003 C 
ATOM     23  C   UNL A   1      31.100  28.421  24.563  1.00  0.00     0.103 C 
ATOM     24  C   UNL A   1      31.597  29.703  25.237  1.00  0.00     0.017 C 
BRANCH  20  25
ATOM     25  C   UNL A   1      33.515  26.657  25.179  1.00  0.00     0.017 C 
ATOM     26  C   UNL A   1      34.418  25.492  25.531  1.00  0.00     0.005 C 
ENDBRANCH  20  25
ENDBRANCH  16  19
ENDBRANCH   7  16
ENDBRANCH   3   6
ENDBRANCH   1   2
BRANCH   1  27
ATOM     27  C   UNL A   1      37.912  19.930  24.686  1.00  0.00     0.042 C 
BRANCH  27  28
ATOM     28  C   UNL A   1      38.950  20.216  25.757  1.00  0.00     0.118 C 
BRANCH  28  29
ATOM     29  N   UNL A   1      39.991  19.200  25.857  1.00  0.00    -0.352 N 
ATOM     30  C   UNL A   1      41.342  19.273  26.106  1.00  0.00     0.251 C 
ATOM     31  H   UNL A   1      39.664  18.282  25.719  1.00  0.00     0.163 HD
ATOM     32  O   UNL A   1      42.019  18.252  26.005  1.00  0.00    -0.269 OA
BRANCH  30  33
ATOM     33  C   UNL A   1      42.012  20.552  26.442  1.00  0.00     0.039 A 
ATOM     34  C   UNL A   1      42.403  21.406  25.402  1.00  0.00     0.014 A 
ATOM     35  C   UNL A   1      42.294  20.916  27.755  1.00  0.00     0.014 A 
ATOM     36  C   UNL A   1      42.973  22.653  25.688  1.00  0.00     0.010 A 
ATOM     37  C   UNL A   1      42.747  22.200  28.044  1.00  0.00     0.010 A 
ATOM     38  C   UNL A   1      43.093  23.087  27.015  1.00  0.00    -0.014 A 
BRANCH  38  39
ATOM     39  C   UNL A   1      43.585  24.445  27.375  1.00  0.00     0.031 A 
ATOM     40  C   UNL A   1      42.627  25.466  27.930  1.00  0.00     0.074 A 
ATOM     41  C   UNL A   1      44.853  24.802  27.089  1.00  0.00     0.049 A 
ATOM     42  N   UNL A   1      42.791  26.754  28.102  1.00  0.00    -0.248 NA
ATOM     43  C   UNL A   1      41.286  24.980  28.296  1.00  0.00     0.031 C 
ATOM     44  C   UNL A   1      45.870  23.929  26.502  1.00  0.00     0.029 A 
ATOM     45  N   UNL A   1      45.496  26.007  27.231  1.00  0.00    -0.354 N 
ATOM     46  C   UNL A   1      41.564  27.235  28.540  1.00  0.00     0.074 A 
ATOM     47  C   UNL A   1      40.654  26.110  28.570  1.00  0.00     0.031 C 
ATOM     48  C   UNL A   1      47.012  24.620  26.353  1.00  0.00     0.029 A 
ATOM     49  C   UNL A   1      46.795  25.996  26.786  1.00  0.00     0.049 A 
ATOM     50  H   UNL A   1      45.065  26.806  27.616  1.00  0.00     0.167 HD
ATOM     51  C   UNL A   1      41.230  28.496  28.903  1.00  0.00     0.037 A 
ATOM     52  C   UNL A   1      47.705  26.985  26.719  1.00  0.00     0.037 A 
ATOM     53  C   UNL A   1      42.155  29.596  28.944  1.00  0.00     0.049 A 
ATOM     54  C   UNL A   1      47.326  28.366  27.179  1.00  0.00     0.074 A 
ATOM     55  C   UNL A   1      41.939  30.891  29.382  1.00  0.00     0.029 A 
ATOM     56  N   UNL A   1      43.482  29.525  28.546  1.00  0.00    -0.354 N 
ATOM     57  N   UNL A   1      46.176  28.799  27.632  1.00  0.00    -0.248 NA
ATOM     58  C   UNL A   1      48.373  29.396  27.117  1.00  0.00     0.031 C 
ATOM     59  C   UNL A   1      43.129  31.610  29.228  1.00  0.00     0.029 A 
ATOM     60  C   UNL A   1      44.095  30.754  28.724  1.00  0.00     0.049 A 
ATOM     61  H   UNL A   1      43.922  28.719  28.191  1.00  0.00     0.167 HD
ATOM     62  C   UNL A   1      46.364  30.141  27.933  1.00  0.00     0.074 A 
ATOM     63  C   UNL A   1      47.744  30.450  27.621  1.00  0.00     0.031 C 
ATOM     64  C   UNL A   1      45.474  31.035  28.423  1.00  0.00     0.037 A 
BRANCH  51  65
ATOM     65  C   UNL A   1      39.805  28.752  29.299  1.00  0.00     0.064 A 
ATOM     66  C   UNL A   1      39.363  28.571  30.618  1.00  0.00     0.173 A 
ATOM     67  C   UNL A   1      38.875  29.211  28.354  1.00  0.00     0.173 A 
ATOM     68  F   UNL A   1      40.211  28.121  31.557  1.00  0.00    -0.203 F 
ATOM     69  C   UNL A   1      38.038  28.807  30.970  1.00  0.00     0.198 A 
ATOM     70  C   UNL A   1      37.557  29.476  28.715  1.00  0.00     0.198 A 
ATOM     71  F   UNL A   1      39.246  29.408  27.080  1.00  0.00    -0.203 F 
ATOM     72  F   UNL A   1      37.628  28.576  32.224  1.00  0.00    -0.200 F 
ATOM     73  C   UNL A   1      37.138  29.266  30.019  1.00  0.00     0.200 A 
ATOM     74  F   UNL A   1      36.690  29.930  27.799  1.00  0.00    -0.200 F 
ATOM     75  F   UNL A   1      35.862  29.497  30.361  1.00  0.00    -0.200 F 
ENDBRANCH  51  65
BRANCH  52  76
ATOM     76  C   UNL A   1      49.074  26.700  26.219  1.00  0.00     0.064 A 
ATOM     77  C   UNL A   1      49.420  26.980  24.890  1.00  0.00     0.173 A 
ATOM     78  C   UNL A   1      50.061  26.152  27.050  1.00  0.00     0.173 A 
ATOM     79  F   UNL A   1      48.502  27.485  24.053  1.00  0.00    -0.203 F 
ATOM     80  C   UNL A   1      50.698  26.709  24.407  1.00  0.00     0.198 A 
ATOM     81  C   UNL A   1      51.347  25.904  26.573  1.00  0.00     0.198 A 
ATOM     82  F   UNL A   1      49.781  25.874  28.332  1.00  0.00    -0.203 F 
ATOM     83  F   UNL A   1      50.992  26.953  23.122  1.00  0.00    -0.200 F 
ATOM     84  C   UNL A   1      51.661  26.177  25.249  1.00  0.00     0.200 A 
ATOM     85  F   UNL A   1      52.279  25.403  27.393  1.00  0.00    -0.200 F 
ATOM     86  F   UNL A   1      52.893  25.922  24.786  1.00  0.00    -0.200 F 
ENDBRANCH  52  76
BRANCH  64  87
ATOM     87  C   UNL A   1      45.970  32.424  28.690  1.00  0.00     0.064 A 
ATOM     88  C   UNL A   1      46.547  32.772  29.919  1.00  0.00     0.173 A 
ATOM     89  C   UNL A   1      45.914  33.401  27.685  1.00  0.00     0.173 A 
ATOM     90  F   UNL A   1      46.606  31.875  30.915  1.00  0.00    -0.203 F 
ATOM     91  C   UNL A   1      47.042  34.055  30.136  1.00  0.00     0.198 A 
ATOM     92  C   UNL A   1      46.431  34.675  27.897  1.00  0.00     0.198 A 
ATOM     93  F   UNL A   1      45.375  33.112  26.491  1.00  0.00    -0.203 F 
ATOM     94  F   UNL A   1      47.561  34.378  31.328  1.00  0.00    -0.200 F 
ATOM     95  C   UNL A   1      46.991  35.002  29.123  1.00  0.00     0.200 A 
ATOM     96  F   UNL A   1      46.391  35.586  26.916  1.00  0.00    -0.200 F 
ATOM     97  F   UNL A   1      47.477  36.234  29.332  1.00  0.00    -0.200 F 
ENDBRANCH  64  87
ENDBRANCH  38  39
ENDBRANCH  30  33
ENDBRANCH  28  29
ENDBRANCH  27  28
ENDBRANCH   1  27
TORSDOF 13
ENDMDL
MODEL 3
REMARK VINA RESULT:     -13.6      2.045      7.899
REMARK SMILES CC[C@H]1CCCCN1S(=O)(=O)c1ccc2oc(C(=O)NCCCNC(=O)c3ccc(-c4c5nc(c(-c6c(F)c(F)c(F)c(F)c6F)c6ccc([nH]6)c(-c6c(F)c(F)c(F)c(F)c6F)c6nc(c(-c7c(F)c(F)c(F)c(F)c7F)c7ccc4[nH]7)C=C6)C=C5)cc3)c(C)c2c1
REMARK SMILES IDX 21 1 20 2 18 3 19 4 17 6 12 7 13 8 93 9 14 10 92 11 15 12
REMARK SMILES IDX 90 13 16 14 91 15 9 16 10 17 11 18 8 19 3 20 4 21 5 22 7 23
REMARK SMILES IDX 6 24 2 25 1 26 22 27 23 28 24 29 25 30 26 32 27 33 28 34
REMARK SMILES IDX 89 35 29 36 88 37 30 38 31 39 32 40 82 41 33 42 87 43 81 44
REMARK SMILES IDX 83 45 34 46 86 47 80 48 79 49 35 51 67 52 47 53 66 54 48 55
REMARK SMILES IDX 51 56 65 57 84 58 49 59 50 60 64 62 85 63 52 64 36 65 37 66
REMARK SMILES IDX 45 67 38 68 39 69 43 70 46 71 40 72 41 73 44 74 42 75 68 76
REMARK SMILES IDX 69 77 77 78 70 79 71 80 75 81 78 82 72 83 73 84 76 85 74 86
REMARK SMILES IDX 53 87 54 88 62 89 55 90 56 91 60 92 63 93 57 94 58 95 61 96
REMARK SMILES IDX 59 97
REMARK H PARENT 20 5 24 31 83 50 51 61
REMARK Flexibility Score: inf
ROOT
ATOM      1  C   UNL A   1      33.603  34.010  28.590  1.00  0.00     0.118 C 
ENDROOT
BRANCH   1   2
ATOM      2  N   UNL A   1      35.024  33.780  28.445  1.00  0.00    -0.349 N 
ATOM      3  C   UNL A   1      35.717  32.651  28.055  1.00  0.00     0.287 C 
ATOM      4  O   UNL A   1      36.944  32.781  28.022  1.00  0.00    -0.266 OA
ATOM      5  H   UNL A   1      35.590  34.557  28.659  1.00  0.00     0.163 HD
BRANCH   3   6
ATOM      6  C   UNL A   1      35.050  31.388  27.761  1.00  0.00     0.195 A 
ATOM      7  C   UNL A   1      32.779  27.615  26.530  1.00  0.00     0.083 A 
ATOM      8  C   UNL A   1      31.688  28.449  26.804  1.00  0.00     0.025 A 
ATOM      9  C   UNL A   1      34.081  28.115  26.569  1.00  0.00     0.034 A 
ATOM     10  C   UNL A   1      31.887  29.805  27.140  1.00  0.00     0.049 A 
ATOM     11  C   UNL A   1      34.291  29.387  27.096  1.00  0.00     0.025 A 
ATOM     12  C   UNL A   1      33.212  30.220  27.288  1.00  0.00     0.135 A 
ATOM     13  C   UNL A   1      35.426  30.054  27.625  1.00  0.00     0.008 A 
ATOM     14  O   UNL A   1      33.668  31.455  27.629  1.00  0.00    -0.451 OA
ATOM     15  C   UNL A   1      36.665  29.320  27.994  1.00  0.00     0.049 C 
BRANCH   7  16
ATOM     16  S   UNL A   1      32.584  25.947  25.951  1.00  0.00     0.243 S 
ATOM     17  O   UNL A   1      31.413  25.466  26.646  1.00  0.00    -0.207 OA
ATOM     18  O   UNL A   1      33.861  25.279  26.110  1.00  0.00    -0.207 OA
BRANCH  16  19
ATOM     19  N   UNL A   1      32.265  25.994  24.260  1.00  0.00    -0.195 NA
ATOM     20  C   UNL A   1      32.961  24.934  23.443  1.00  0.00     0.073 C 
ATOM     21  C   UNL A   1      33.228  25.558  22.054  1.00  0.00     0.020 C 
ATOM     22  C   UNL A   1      31.934  25.994  21.359  1.00  0.00     0.003 C 
ATOM     23  C   UNL A   1      30.951  26.360  23.693  1.00  0.00     0.103 C 
ATOM     24  C   UNL A   1      31.105  26.890  22.265  1.00  0.00     0.017 C 
BRANCH  20  25
ATOM     25  C   UNL A   1      32.189  23.603  23.257  1.00  0.00     0.017 C 
ATOM     26  C   UNL A   1      32.782  22.343  23.853  1.00  0.00     0.005 C 
ENDBRANCH  20  25
ENDBRANCH  16  19
ENDBRANCH   7  16
ENDBRANCH   3   6
ENDBRANCH   1   2
BRANCH   1  27
ATOM     27  C   UNL A   1      33.145  35.446  28.400  1.00  0.00     0.042 C 
BRANCH  27  28
ATOM     28  C   UNL A   1      33.530  36.388  29.527  1.00  0.00     0.118 C 
BRANCH  28  29
ATOM     29  N   UNL A   1      32.547  36.454  30.603  1.00  0.00    -0.352 N 
ATOM     30  C   UNL A   1      32.516  35.918  31.869  1.00  0.00     0.251 C 
ATOM     31  H   UNL A   1      31.750  36.986  30.378  1.00  0.00     0.163 HD
ATOM     32  O   UNL A   1      31.487  36.027  32.533  1.00  0.00    -0.269 OA
BRANCH  30  33
ATOM     33  C   UNL A   1      33.664  35.171  32.436  1.00  0.00     0.039 A 
ATOM     34  C   UNL A   1      33.461  33.865  32.900  1.00  0.00     0.014 A 
ATOM     35  C   UNL A   1      34.929  35.738  32.552  1.00  0.00     0.014 A 
ATOM     36  C   UNL A   1      34.539  33.108  33.374  1.00  0.00     0.010 A 
ATOM     37  C   UNL A   1      36.021  34.951  32.907  1.00  0.00     0.010 A 
ATOM     38  C   UNL A   1      35.841  33.625  33.325  1.00  0.00    -0.014 A 
BRANCH  38  39
ATOM     39  C   UNL A   1      37.038  32.826  33.708  1.00  0.00     0.031 A 
ATOM     40  C   UNL A   1      37.742  33.109  35.009  1.00  0.00     0.074 A 
ATOM     41  C   UNL A   1      37.564  31.940  32.839  1.00  0.00     0.049 A 
ATOM     42  N   UNL A   1      38.909  32.691  35.430  1.00  0.00    -0.248 NA
ATOM     43  C   UNL A   1      37.063  34.024  35.940  1.00  0.00     0.031 C 
ATOM     44  C   UNL A   1      37.014  31.609  31.524  1.00  0.00     0.029 A 
ATOM     45  N   UNL A   1      38.700  31.173  32.924  1.00  0.00    -0.354 N 
ATOM     46  C   UNL A   1      39.125  33.334  36.643  1.00  0.00     0.074 A 
ATOM     47  C   UNL A   1      37.987  34.199  36.871  1.00  0.00     0.031 C 
ATOM     48  C   UNL A   1      37.800  30.693  30.935  1.00  0.00     0.029 A 
ATOM     49  C   UNL A   1      38.935  30.409  31.806  1.00  0.00     0.049 A 
ATOM     50  H   UNL A   1      39.292  31.171  33.712  1.00  0.00     0.167 HD
ATOM     51  C   UNL A   1      40.166  33.201  37.498  1.00  0.00     0.037 A 
ATOM     52  C   UNL A   1      39.957  29.585  31.510  1.00  0.00     0.037 A 
ATOM     53  C   UNL A   1      41.258  32.285  37.305  1.00  0.00     0.049 A 
ATOM     54  C   UNL A   1      41.075  29.413  32.500  1.00  0.00     0.074 A 
ATOM     55  C   UNL A   1      42.315  32.009  38.155  1.00  0.00     0.029 A 
ATOM     56  N   UNL A   1      41.422  31.481  36.187  1.00  0.00    -0.354 N 
ATOM     57  N   UNL A   1      41.245  29.993  33.662  1.00  0.00    -0.248 NA
ATOM     58  C   UNL A   1      42.144  28.472  32.136  1.00  0.00     0.031 C 
ATOM     59  C   UNL A   1      43.132  31.054  37.541  1.00  0.00     0.029 A 
ATOM     60  C   UNL A   1      42.567  30.712  36.323  1.00  0.00     0.049 A 
ATOM     61  H   UNL A   1      40.815  31.458  35.413  1.00  0.00     0.167 HD
ATOM     62  C   UNL A   1      42.423  29.472  34.180  1.00  0.00     0.074 A 
ATOM     63  C   UNL A   1      42.922  28.520  33.210  1.00  0.00     0.031 C 
ATOM     64  C   UNL A   1      43.035  29.757  35.354  1.00  0.00     0.037 A 
BRANCH  51  65
ATOM     65  C   UNL A   1      40.168  34.058  38.730  1.00  0.00     0.064 A 
ATOM     66  C   UNL A   1      40.791  35.315  38.751  1.00  0.00     0.173 A 
ATOM     67  C   UNL A   1      39.517  33.630  39.896  1.00  0.00     0.173 A 
ATOM     68  F   UNL A   1      41.438  35.764  37.665  1.00  0.00    -0.203 F 
ATOM     69  C   UNL A   1      40.790  36.096  39.902  1.00  0.00     0.198 A 
ATOM     70  C   UNL A   1      39.492  34.427  41.037  1.00  0.00     0.198 A 
ATOM     71  F   UNL A   1      38.900  32.439  39.929  1.00  0.00    -0.203 F 
ATOM     72  F   UNL A   1      41.437  37.270  39.913  1.00  0.00    -0.200 F 
ATOM     73  C   UNL A   1      40.135  35.655  41.042  1.00  0.00     0.200 A 
ATOM     74  F   UNL A   1      38.849  34.005  42.135  1.00  0.00    -0.200 F 
ATOM     75  F   UNL A   1      40.132  36.411  42.149  1.00  0.00    -0.200 F 
ENDBRANCH  51  65
BRANCH  52  76
ATOM     76  C   UNL A   1      39.957  28.839  30.226  1.00  0.00     0.064 A 
ATOM     77  C   UNL A   1      40.540  29.394  29.078  1.00  0.00     0.173 A 
ATOM     78  C   UNL A   1      39.387  27.563  30.117  1.00  0.00     0.173 A 
ATOM     79  F   UNL A   1      41.079  30.621  29.130  1.00  0.00    -0.203 F 
ATOM     80  C   UNL A   1      40.539  28.708  27.866  1.00  0.00     0.198 A 
ATOM     81  C   UNL A   1      39.408  26.866  28.910  1.00  0.00     0.198 A 
ATOM     82  F   UNL A   1      38.824  26.985  31.188  1.00  0.00    -0.203 F 
ATOM     83  F   UNL A   1      41.071  29.277  26.776  1.00  0.00    -0.200 F 
ATOM     84  C   UNL A   1      39.979  27.443  27.784  1.00  0.00     0.200 A 
ATOM     85  F   UNL A   1      38.878  25.638  28.838  1.00  0.00    -0.200 F 
ATOM     86  F   UNL A   1      39.984  26.780  26.620  1.00  0.00    -0.200 F 
ENDBRANCH  52  76
BRANCH  64  87
ATOM     87  C   UNL A   1      44.291  29.006  35.675  1.00  0.00     0.064 A 
ATOM     88  C   UNL A   1      45.553  29.502  35.320  1.00  0.00     0.173 A 
ATOM     89  C   UNL A   1      44.232  27.803  36.394  1.00  0.00     0.173 A 
ATOM     90  F   UNL A   1      45.657  30.640  34.616  1.00  0.00    -0.203 F 
ATOM     91  C   UNL A   1      46.713  28.814  35.663  1.00  0.00     0.198 A 
ATOM     92  C   UNL A   1      45.394  27.129  36.756  1.00  0.00     0.198 A 
ATOM     93  F   UNL A   1      43.047  27.292  36.761  1.00  0.00    -0.203 F 
ATOM     94  F   UNL A   1      47.908  29.288  35.287  1.00  0.00    -0.200 F 
ATOM     95  C   UNL A   1      46.633  27.633  36.388  1.00  0.00     0.200 A 
ATOM     96  F   UNL A   1      45.317  25.995  37.465  1.00  0.00    -0.200 F 
ATOM     97  F   UNL A   1      47.752  26.976  36.726  1.00  0.00    -0.200 F 
ENDBRANCH  64  87
ENDBRANCH  38  39
ENDBRANCH  30  33
ENDBRANCH  28  29
ENDBRANCH  27  28
ENDBRANCH   1  27
TORSDOF 13
ENDMDL
