MODEL 1
REMARK VINA RESULT:     -11.5      0.000      0.000
REMARK SMILES C[C@H](C(=O)NCCCNC(=O)c1ccc(-c2c3nc(c(-c4c(F)c(F)c(F)c(F)c4F)c4ccc([nH]4)c(-c4c(F)c(F)c(F)c(F)c4F)c4nc(c(-c5c(F)c(F)c(F)c(F)c5F)c5ccc2[nH]5)C=C4)C=C3)cc1)[C@H](C)[S@@](=O)c1cccs1
REMARK SMILES IDX 6 1 5 2 3 3 4 4 2 6 1 7 75 8 76 9 77 10 78 11 79 12 80 13
REMARK SMILES IDX 83 14 81 15 82 16 7 17 8 18 9 19 10 20 11 22 12 23 13 24
REMARK SMILES IDX 74 25 14 26 73 27 15 28 16 29 17 30 67 31 18 32 72 33 66 34
REMARK SMILES IDX 68 35 19 36 71 37 65 38 64 39 20 41 52 42 32 43 51 44 33 45
REMARK SMILES IDX 36 46 50 47 69 48 34 49 35 50 49 52 70 53 37 54 21 55 22 56
REMARK SMILES IDX 30 57 23 58 24 59 28 60 31 61 25 62 26 63 29 64 27 65 53 66
REMARK SMILES IDX 54 67 62 68 55 69 56 70 60 71 63 72 57 73 58 74 61 75 59 76
REMARK SMILES IDX 38 77 39 78 47 79 40 80 41 81 45 82 48 83 42 84 43 85 46 86
REMARK SMILES IDX 44 87
REMARK H PARENT 5 5 9 21 68 40 36 51
REMARK Flexibility Score: inf
ROOT
ATOM      1  C   UNL A   1      31.635  30.791  26.066  1.00  0.00     0.117 C 
ENDROOT
BRANCH   1   2
ATOM      2  N   UNL A   1      31.515  29.776  27.100  1.00  0.00    -0.356 N 
ATOM      3  C   UNL A   1      31.733  28.431  27.017  1.00  0.00     0.224 C 
ATOM      4  O   UNL A   1      31.528  27.747  28.018  1.00  0.00    -0.275 OA
ATOM      5  H   UNL A   1      31.238  30.106  27.986  1.00  0.00     0.163 HD
BRANCH   3   6
ATOM      6  C   UNL A   1      32.267  27.858  25.710  1.00  0.00     0.091 C 
ATOM      7  C   UNL A   1      33.377  26.852  26.049  1.00  0.00     0.019 C 
BRANCH   6   8
ATOM      8  C   UNL A   1      31.105  27.333  24.834  1.00  0.00     0.094 C 
ATOM      9  C   UNL A   1      30.791  25.843  24.927  1.00  0.00     0.023 C 
BRANCH   8  10
ATOM     10  S   UNL A   1      31.228  27.925  23.078  1.00  0.00     0.067 S 
ATOM     11  O   UNL A   1      31.222  26.689  22.222  1.00  0.00    -0.253 OA
BRANCH  10  12
ATOM     12  C   UNL A   1      29.679  28.688  22.860  1.00  0.00     0.091 A 
ATOM     13  C   UNL A   1      28.481  28.133  23.253  1.00  0.00     0.029 A 
ATOM     14  S   UNL A   1      29.473  30.170  22.047  1.00  0.00    -0.135 S 
ATOM     15  C   UNL A   1      27.380  28.994  22.963  1.00  0.00     0.013 A 
ATOM     16  C   UNL A   1      27.779  30.133  22.298  1.00  0.00     0.066 A 
ENDBRANCH  10  12
ENDBRANCH   8  10
ENDBRANCH   6   8
ENDBRANCH   3   6
ENDBRANCH   1   2
BRANCH   1  17
ATOM     17  C   UNL A   1      31.400  32.190  26.614  1.00  0.00     0.042 C 
BRANCH  17  18
ATOM     18  C   UNL A   1      32.663  32.881  27.106  1.00  0.00     0.118 C 
BRANCH  18  19
ATOM     19  N   UNL A   1      32.410  34.212  27.640  1.00  0.00    -0.352 N 
ATOM     20  C   UNL A   1      33.010  34.870  28.682  1.00  0.00     0.251 C 
ATOM     21  H   UNL A   1      31.698  34.716  27.183  1.00  0.00     0.163 HD
ATOM     22  O   UNL A   1      32.536  35.931  29.086  1.00  0.00    -0.269 OA
BRANCH  20  23
ATOM     23  C   UNL A   1      34.205  34.302  29.340  1.00  0.00     0.039 A 
ATOM     24  C   UNL A   1      34.028  33.466  30.445  1.00  0.00     0.014 A 
ATOM     25  C   UNL A   1      35.494  34.596  28.888  1.00  0.00     0.014 A 
ATOM     26  C   UNL A   1      35.137  32.877  31.054  1.00  0.00     0.010 A 
ATOM     27  C   UNL A   1      36.591  33.935  29.435  1.00  0.00     0.010 A 
ATOM     28  C   UNL A   1      36.426  33.077  30.530  1.00  0.00    -0.014 A 
BRANCH  28  29
ATOM     29  C   UNL A   1      37.601  32.389  31.123  1.00  0.00     0.031 A 
ATOM     30  C   UNL A   1      38.104  32.776  32.486  1.00  0.00     0.074 A 
ATOM     31  C   UNL A   1      38.240  31.439  30.413  1.00  0.00     0.049 A 
ATOM     32  N   UNL A   1      39.115  32.290  33.164  1.00  0.00    -0.248 NA
ATOM     33  C   UNL A   1      37.396  33.870  33.170  1.00  0.00     0.031 C 
ATOM     34  C   UNL A   1      37.888  31.021  29.054  1.00  0.00     0.029 A 
ATOM     35  N   UNL A   1      39.316  30.651  30.733  1.00  0.00    -0.354 N 
ATOM     36  C   UNL A   1      39.164  33.018  34.345  1.00  0.00     0.074 A 
ATOM     37  C   UNL A   1      38.128  34.024  34.264  1.00  0.00     0.031 C 
ATOM     38  C   UNL A   1      38.712  30.033  28.671  1.00  0.00     0.029 A 
ATOM     39  C   UNL A   1      39.670  29.771  29.740  1.00  0.00     0.049 A 
ATOM     40  H   UNL A   1      39.791  30.713  31.594  1.00  0.00     0.167 HD
ATOM     41  C   UNL A   1      39.978  32.845  35.414  1.00  0.00     0.037 A 
ATOM     42  C   UNL A   1      40.655  28.855  29.697  1.00  0.00     0.037 A 
ATOM     43  C   UNL A   1      41.000  31.833  35.496  1.00  0.00     0.049 A 
ATOM     44  C   UNL A   1      41.544  28.681  30.898  1.00  0.00     0.074 A 
ATOM     45  C   UNL A   1      41.845  31.544  36.552  1.00  0.00     0.029 A 
ATOM     46  N   UNL A   1      41.318  30.948  34.476  1.00  0.00    -0.354 N 
ATOM     47  N   UNL A   1      41.530  29.323  32.040  1.00  0.00    -0.248 NA
ATOM     48  C   UNL A   1      42.580  27.643  30.807  1.00  0.00     0.031 C 
ATOM     49  C   UNL A   1      42.708  30.517  36.154  1.00  0.00     0.029 A 
ATOM     50  C   UNL A   1      42.361  30.125  34.871  1.00  0.00     0.049 A 
ATOM     51  H   UNL A   1      40.869  30.910  33.601  1.00  0.00     0.167 HD
ATOM     52  C   UNL A   1      42.534  28.753  32.812  1.00  0.00     0.074 A 
ATOM     53  C   UNL A   1      43.121  27.695  32.015  1.00  0.00     0.031 C 
ATOM     54  C   UNL A   1      42.935  29.078  34.066  1.00  0.00     0.037 A 
BRANCH  41  55
ATOM     55  C   UNL A   1      39.787  33.763  36.588  1.00  0.00     0.064 A 
ATOM     56  C   UNL A   1      38.952  33.419  37.663  1.00  0.00     0.173 A 
ATOM     57  C   UNL A   1      40.469  34.986  36.657  1.00  0.00     0.173 A 
ATOM     58  F   UNL A   1      38.266  32.266  37.642  1.00  0.00    -0.203 F 
ATOM     59  C   UNL A   1      38.785  34.276  38.747  1.00  0.00     0.198 A 
ATOM     60  C   UNL A   1      40.326  35.827  37.758  1.00  0.00     0.198 A 
ATOM     61  F   UNL A   1      41.285  35.365  35.660  1.00  0.00    -0.203 F 
ATOM     62  F   UNL A   1      37.942  33.948  39.735  1.00  0.00    -0.200 F 
ATOM     63  C   UNL A   1      39.478  35.475  38.797  1.00  0.00     0.200 A 
ATOM     64  F   UNL A   1      41.008  36.980  37.813  1.00  0.00    -0.200 F 
ATOM     65  F   UNL A   1      39.323  36.296  39.845  1.00  0.00    -0.200 F 
ENDBRANCH  41  55
BRANCH  42  66
ATOM     66  C   UNL A   1      40.833  28.013  28.485  1.00  0.00     0.064 A 
ATOM     67  C   UNL A   1      40.215  26.758  28.379  1.00  0.00     0.173 A 
ATOM     68  C   UNL A   1      41.630  28.440  27.412  1.00  0.00     0.173 A 
ATOM     69  F   UNL A   1      39.459  26.298  29.386  1.00  0.00    -0.203 F 
ATOM     70  C   UNL A   1      40.406  25.954  27.257  1.00  0.00     0.198 A 
ATOM     71  C   UNL A   1      41.794  27.647  26.278  1.00  0.00     0.198 A 
ATOM     72  F   UNL A   1      42.238  29.633  27.460  1.00  0.00    -0.203 F 
ATOM     73  F   UNL A   1      39.845  24.739  27.204  1.00  0.00    -0.200 F 
ATOM     74  C   UNL A   1      41.190  26.402  26.205  1.00  0.00     0.200 A 
ATOM     75  F   UNL A   1      42.539  28.092  25.256  1.00  0.00    -0.200 F 
ATOM     76  F   UNL A   1      41.372  25.629  25.125  1.00  0.00    -0.200 F 
ENDBRANCH  42  66
BRANCH  54  77
ATOM     77  C   UNL A   1      44.044  28.258  34.663  1.00  0.00     0.064 A 
ATOM     78  C   UNL A   1      45.387  28.654  34.573  1.00  0.00     0.173 A 
ATOM     79  C   UNL A   1      43.755  27.068  35.351  1.00  0.00     0.173 A 
ATOM     80  F   UNL A   1      45.717  29.775  33.915  1.00  0.00    -0.203 F 
ATOM     81  C   UNL A   1      46.402  27.870  35.116  1.00  0.00     0.198 A 
ATOM     82  C   UNL A   1      44.771  26.306  35.922  1.00  0.00     0.198 A 
ATOM     83  F   UNL A   1      42.489  26.647  35.473  1.00  0.00    -0.203 F 
ATOM     84  F   UNL A   1      47.682  28.238  34.963  1.00  0.00    -0.200 F 
ATOM     85  C   UNL A   1      46.093  26.701  35.794  1.00  0.00     0.200 A 
ATOM     86  F   UNL A   1      44.469  25.185  36.591  1.00  0.00    -0.200 F 
ATOM     87  F   UNL A   1      47.072  25.950  36.317  1.00  0.00    -0.200 F 
ENDBRANCH  54  77
ENDBRANCH  28  29
ENDBRANCH  20  23
ENDBRANCH  18  19
ENDBRANCH  17  18
ENDBRANCH   1  17
TORSDOF 13
ENDMDL
MODEL 2
REMARK VINA RESULT:     -11.4      1.378      8.015
REMARK SMILES C[C@H](C(=O)NCCCNC(=O)c1ccc(-c2c3nc(c(-c4c(F)c(F)c(F)c(F)c4F)c4ccc([nH]4)c(-c4c(F)c(F)c(F)c(F)c4F)c4nc(c(-c5c(F)c(F)c(F)c(F)c5F)c5ccc2[nH]5)C=C4)C=C3)cc1)[C@H](C)[S@@](=O)c1cccs1
REMARK SMILES IDX 6 1 5 2 3 3 4 4 2 6 1 7 75 8 76 9 77 10 78 11 79 12 80 13
REMARK SMILES IDX 83 14 81 15 82 16 7 17 8 18 9 19 10 20 11 22 12 23 13 24
REMARK SMILES IDX 74 25 14 26 73 27 15 28 16 29 17 30 67 31 18 32 72 33 66 34
REMARK SMILES IDX 68 35 19 36 71 37 65 38 64 39 20 41 52 42 32 43 51 44 33 45
REMARK SMILES IDX 36 46 50 47 69 48 34 49 35 50 49 52 70 53 37 54 21 55 22 56
REMARK SMILES IDX 30 57 23 58 24 59 28 60 31 61 25 62 26 63 29 64 27 65 53 66
REMARK SMILES IDX 54 67 62 68 55 69 56 70 60 71 63 72 57 73 58 74 61 75 59 76
REMARK SMILES IDX 38 77 39 78 47 79 40 80 41 81 45 82 48 83 42 84 43 85 46 86
REMARK SMILES IDX 44 87
REMARK H PARENT 5 5 9 21 68 40 36 51
REMARK Flexibility Score: inf
ROOT
ATOM      1  C   UNL A   1      31.589  30.722  26.126  1.00  0.00     0.117 C 
ENDROOT
BRANCH   1   2
ATOM      2  N   UNL A   1      31.033  30.423  24.817  1.00  0.00    -0.356 N 
ATOM      3  C   UNL A   1      31.117  29.271  24.089  1.00  0.00     0.224 C 
ATOM      4  O   UNL A   1      30.601  29.252  22.972  1.00  0.00    -0.275 OA
ATOM      5  H   UNL A   1      30.524  31.153  24.397  1.00  0.00     0.163 HD
BRANCH   3   6
ATOM      6  C   UNL A   1      31.795  28.059  24.715  1.00  0.00     0.091 C 
ATOM      7  C   UNL A   1      30.764  26.924  24.795  1.00  0.00     0.019 C 
BRANCH   6   8
ATOM      8  C   UNL A   1      33.118  27.738  23.979  1.00  0.00     0.094 C 
ATOM      9  C   UNL A   1      33.815  28.901  23.279  1.00  0.00     0.023 C 
BRANCH   8  10
ATOM     10  S   UNL A   1      32.971  26.239  22.893  1.00  0.00     0.067 S 
ATOM     11  O   UNL A   1      33.786  26.534  21.666  1.00  0.00    -0.253 OA
BRANCH  10  12
ATOM     12  C   UNL A   1      33.862  25.058  23.811  1.00  0.00     0.091 A 
ATOM     13  C   UNL A   1      34.416  25.298  25.049  1.00  0.00     0.029 A 
ATOM     14  S   UNL A   1      34.226  23.501  23.226  1.00  0.00    -0.135 S 
ATOM     15  C   UNL A   1      35.071  24.141  25.566  1.00  0.00     0.013 A 
ATOM     16  C   UNL A   1      35.050  23.094  24.671  1.00  0.00     0.066 A 
ENDBRANCH  10  12
ENDBRANCH   8  10
ENDBRANCH   6   8
ENDBRANCH   3   6
ENDBRANCH   1   2
BRANCH   1  17
ATOM     17  C   UNL A   1      31.403  32.185  26.500  1.00  0.00     0.042 C 
BRANCH  17  18
ATOM     18  C   UNL A   1      32.615  32.808  27.176  1.00  0.00     0.118 C 
BRANCH  18  19
ATOM     19  N   UNL A   1      32.385  34.183  27.598  1.00  0.00    -0.352 N 
ATOM     20  C   UNL A   1      32.979  34.907  28.599  1.00  0.00     0.251 C 
ATOM     21  H   UNL A   1      31.696  34.667  27.086  1.00  0.00     0.163 HD
ATOM     22  O   UNL A   1      32.524  36.007  28.906  1.00  0.00    -0.269 OA
BRANCH  20  23
ATOM     23  C   UNL A   1      34.145  34.365  29.328  1.00  0.00     0.039 A 
ATOM     24  C   UNL A   1      33.926  33.671  30.521  1.00  0.00     0.014 A 
ATOM     25  C   UNL A   1      35.447  34.544  28.855  1.00  0.00     0.014 A 
ATOM     26  C   UNL A   1      35.005  33.106  31.202  1.00  0.00     0.010 A 
ATOM     27  C   UNL A   1      36.511  33.901  29.483  1.00  0.00     0.010 A 
ATOM     28  C   UNL A   1      36.302  33.184  30.669  1.00  0.00    -0.014 A 
BRANCH  28  29
ATOM     29  C   UNL A   1      37.442  32.516  31.347  1.00  0.00     0.031 A 
ATOM     30  C   UNL A   1      38.165  31.377  30.682  1.00  0.00     0.074 A 
ATOM     31  C   UNL A   1      37.803  32.913  32.583  1.00  0.00     0.049 A 
ATOM     32  N   UNL A   1      39.179  30.672  31.120  1.00  0.00    -0.248 NA
ATOM     33  C   UNL A   1      37.669  30.955  29.363  1.00  0.00     0.031 C 
ATOM     34  C   UNL A   1      37.138  33.962  33.360  1.00  0.00     0.029 A 
ATOM     35  N   UNL A   1      38.815  32.484  33.404  1.00  0.00    -0.354 N 
ATOM     36  C   UNL A   1      39.436  29.728  30.135  1.00  0.00     0.074 A 
ATOM     37  C   UNL A   1      38.432  29.902  29.109  1.00  0.00     0.031 C 
ATOM     38  C   UNL A   1      37.780  34.117  34.528  1.00  0.00     0.029 A 
ATOM     39  C   UNL A   1      38.877  33.157  34.599  1.00  0.00     0.049 A 
ATOM     40  H   UNL A   1      39.437  31.762  33.159  1.00  0.00     0.167 HD
ATOM     41  C   UNL A   1      40.438  28.818  30.076  1.00  0.00     0.037 A 
ATOM     42  C   UNL A   1      39.725  33.018  35.636  1.00  0.00     0.037 A 
ATOM     43  C   UNL A   1      41.445  28.655  31.094  1.00  0.00     0.049 A 
ATOM     44  C   UNL A   1      40.830  32.001  35.544  1.00  0.00     0.074 A 
ATOM     45  C   UNL A   1      42.529  27.797  31.107  1.00  0.00     0.029 A 
ATOM     46  N   UNL A   1      41.485  29.368  32.284  1.00  0.00    -0.354 N 
ATOM     47  N   UNL A   1      41.111  31.167  34.573  1.00  0.00    -0.248 NA
ATOM     48  C   UNL A   1      41.744  31.916  36.691  1.00  0.00     0.031 C 
ATOM     49  C   UNL A   1      43.197  27.952  32.325  1.00  0.00     0.029 A 
ATOM     50  C   UNL A   1      42.565  28.952  33.047  1.00  0.00     0.049 A 
ATOM     51  H   UNL A   1      40.843  30.065  32.547  1.00  0.00     0.167 HD
ATOM     52  C   UNL A   1      42.245  30.477  34.977  1.00  0.00     0.074 A 
ATOM     53  C   UNL A   1      42.615  31.009  36.273  1.00  0.00     0.031 C 
ATOM     54  C   UNL A   1      42.919  29.490  34.336  1.00  0.00     0.037 A 
BRANCH  41  55
ATOM     55  C   UNL A   1      40.502  27.934  28.862  1.00  0.00     0.064 A 
ATOM     56  C   UNL A   1      41.277  28.276  27.743  1.00  0.00     0.173 A 
ATOM     57  C   UNL A   1      39.808  26.716  28.828  1.00  0.00     0.173 A 
ATOM     58  F   UNL A   1      41.952  29.436  27.719  1.00  0.00    -0.203 F 
ATOM     59  C   UNL A   1      41.331  27.448  26.625  1.00  0.00     0.198 A 
ATOM     60  C   UNL A   1      39.890  25.874  27.721  1.00  0.00     0.198 A 
ATOM     61  F   UNL A   1      39.055  26.335  29.871  1.00  0.00    -0.203 F 
ATOM     62  F   UNL A   1      42.036  27.824  25.549  1.00  0.00    -0.200 F 
ATOM     63  C   UNL A   1      40.644  26.245  26.618  1.00  0.00     0.200 A 
ATOM     64  F   UNL A   1      39.237  24.703  27.722  1.00  0.00    -0.200 F 
ATOM     65  F   UNL A   1      40.704  25.444  25.545  1.00  0.00    -0.200 F 
ENDBRANCH  41  55
BRANCH  42  66
ATOM     66  C   UNL A   1      39.578  33.881  36.837  1.00  0.00     0.064 A 
ATOM     67  C   UNL A   1      38.846  33.450  37.953  1.00  0.00     0.173 A 
ATOM     68  C   UNL A   1      40.161  35.157  36.892  1.00  0.00     0.173 A 
ATOM     69  F   UNL A   1      38.256  32.247  37.940  1.00  0.00    -0.203 F 
ATOM     70  C   UNL A   1      38.681  34.271  39.067  1.00  0.00     0.198 A 
ATOM     71  C   UNL A   1      40.021  35.963  38.020  1.00  0.00     0.198 A 
ATOM     72  F   UNL A   1      40.876  35.614  35.855  1.00  0.00    -0.203 F 
ATOM     73  F   UNL A   1      37.935  33.854  40.098  1.00  0.00    -0.200 F 
ATOM     74  C   UNL A   1      39.274  35.524  39.102  1.00  0.00     0.200 A 
ATOM     75  F   UNL A   1      40.610  37.167  38.056  1.00  0.00    -0.200 F 
ATOM     76  F   UNL A   1      39.118  36.312  40.174  1.00  0.00    -0.200 F 
ENDBRANCH  42  66
BRANCH  54  77
ATOM     77  C   UNL A   1      44.143  28.944  35.015  1.00  0.00     0.064 A 
ATOM     78  C   UNL A   1      44.076  27.847  35.887  1.00  0.00     0.173 A 
ATOM     79  C   UNL A   1      45.403  29.516  34.775  1.00  0.00     0.173 A 
ATOM     80  F   UNL A   1      42.896  27.273  36.162  1.00  0.00    -0.203 F 
ATOM     81  C   UNL A   1      45.219  27.368  36.523  1.00  0.00     0.198 A 
ATOM     82  C   UNL A   1      46.548  29.011  35.386  1.00  0.00     0.198 A 
ATOM     83  F   UNL A   1      45.525  30.561  33.944  1.00  0.00    -0.203 F 
ATOM     84  F   UNL A   1      45.121  26.359  37.400  1.00  0.00    -0.200 F 
ATOM     85  C   UNL A   1      46.454  27.946  36.267  1.00  0.00     0.200 A 
ATOM     86  F   UNL A   1      47.742  29.561  35.124  1.00  0.00    -0.200 F 
ATOM     87  F   UNL A   1      47.552  27.481  36.878  1.00  0.00    -0.200 F 
ENDBRANCH  54  77
ENDBRANCH  28  29
ENDBRANCH  20  23
ENDBRANCH  18  19
ENDBRANCH  17  18
ENDBRANCH   1  17
TORSDOF 13
ENDMDL
MODEL 3
REMARK VINA RESULT:     -11.3      3.692      6.156
REMARK SMILES C[C@H](C(=O)NCCCNC(=O)c1ccc(-c2c3nc(c(-c4c(F)c(F)c(F)c(F)c4F)c4ccc([nH]4)c(-c4c(F)c(F)c(F)c(F)c4F)c4nc(c(-c5c(F)c(F)c(F)c(F)c5F)c5ccc2[nH]5)C=C4)C=C3)cc1)[C@H](C)[S@@](=O)c1cccs1
REMARK SMILES IDX 6 1 5 2 3 3 4 4 2 6 1 7 75 8 76 9 77 10 78 11 79 12 80 13
REMARK SMILES IDX 83 14 81 15 82 16 7 17 8 18 9 19 10 20 11 22 12 23 13 24
REMARK SMILES IDX 74 25 14 26 73 27 15 28 16 29 17 30 67 31 18 32 72 33 66 34
REMARK SMILES IDX 68 35 19 36 71 37 65 38 64 39 20 41 52 42 32 43 51 44 33 45
REMARK SMILES IDX 36 46 50 47 69 48 34 49 35 50 49 52 70 53 37 54 21 55 22 56
REMARK SMILES IDX 30 57 23 58 24 59 28 60 31 61 25 62 26 63 29 64 27 65 53 66
REMARK SMILES IDX 54 67 62 68 55 69 56 70 60 71 63 72 57 73 58 74 61 75 59 76
REMARK SMILES IDX 38 77 39 78 47 79 40 80 41 81 45 82 48 83 42 84 43 85 46 86
REMARK SMILES IDX 44 87
REMARK H PARENT 5 5 9 21 68 40 36 51
REMARK Flexibility Score: inf
ROOT
ATOM      1  C   UNL A   1      33.777  34.929  29.331  1.00  0.00     0.117 C 
ENDROOT
BRANCH   1   2
ATOM      2  N   UNL A   1      32.732  35.173  30.311  1.00  0.00    -0.356 N 
ATOM      3  C   UNL A   1      32.848  35.455  31.642  1.00  0.00     0.224 C 
ATOM      4  O   UNL A   1      31.816  35.585  32.299  1.00  0.00    -0.275 OA
ATOM      5  H   UNL A   1      31.811  35.130  29.966  1.00  0.00     0.163 HD
BRANCH   3   6
ATOM      6  C   UNL A   1      34.241  35.645  32.229  1.00  0.00     0.091 C 
ATOM      7  C   UNL A   1      34.121  36.575  33.446  1.00  0.00     0.019 C 
BRANCH   6   8
ATOM      8  C   UNL A   1      34.918  34.276  32.472  1.00  0.00     0.094 C 
ATOM      9  C   UNL A   1      34.165  33.281  33.349  1.00  0.00     0.023 C 
BRANCH   8  10
ATOM     10  S   UNL A   1      36.700  34.452  32.965  1.00  0.00     0.067 S 
ATOM     11  O   UNL A   1      37.001  33.281  33.857  1.00  0.00    -0.253 OA
BRANCH  10  12
ATOM     12  C   UNL A   1      37.509  34.148  31.454  1.00  0.00     0.091 A 
ATOM     13  C   UNL A   1      36.979  33.393  30.431  1.00  0.00     0.029 A 
ATOM     14  S   UNL A   1      39.093  34.677  31.119  1.00  0.00    -0.135 S 
ATOM     15  C   UNL A   1      37.861  33.332  29.310  1.00  0.00     0.013 A 
ATOM     16  C   UNL A   1      39.051  33.982  29.555  1.00  0.00     0.066 A 
ENDBRANCH  10  12
ENDBRANCH   8  10
ENDBRANCH   6   8
ENDBRANCH   3   6
ENDBRANCH   1   2
BRANCH   1  17
ATOM     17  C   UNL A   1      33.371  33.868  28.320  1.00  0.00     0.042 C 
BRANCH  17  18
ATOM     18  C   UNL A   1      34.432  32.805  28.079  1.00  0.00     0.118 C 
BRANCH  18  19
ATOM     19  N   UNL A   1      33.880  31.558  27.570  1.00  0.00    -0.352 N 
ATOM     20  C   UNL A   1      34.450  30.314  27.483  1.00  0.00     0.251 C 
ATOM     21  H   UNL A   1      32.956  31.616  27.234  1.00  0.00     0.163 HD
ATOM     22  O   UNL A   1      33.874  29.422  26.863  1.00  0.00    -0.269 OA
BRANCH  20  23
ATOM     23  C   UNL A   1      35.763  30.044  28.107  1.00  0.00     0.039 A 
ATOM     24  C   UNL A   1      35.796  29.572  29.421  1.00  0.00     0.014 A 
ATOM     25  C   UNL A   1      36.957  30.263  27.415  1.00  0.00     0.014 A 
ATOM     26  C   UNL A   1      37.020  29.262  30.016  1.00  0.00     0.010 A 
ATOM     27  C   UNL A   1      38.169  29.866  27.974  1.00  0.00     0.010 A 
ATOM     28  C   UNL A   1      38.214  29.371  29.284  1.00  0.00    -0.014 A 
BRANCH  28  29
ATOM     29  C   UNL A   1      39.511  28.965  29.884  1.00  0.00     0.031 A 
ATOM     30  C   UNL A   1      40.062  29.697  31.076  1.00  0.00     0.074 A 
ATOM     31  C   UNL A   1      40.213  27.959  29.326  1.00  0.00     0.049 A 
ATOM     32  N   UNL A   1      41.177  29.488  31.733  1.00  0.00    -0.248 NA
ATOM     33  C   UNL A   1      39.272  30.829  31.585  1.00  0.00     0.031 C 
ATOM     34  C   UNL A   1      39.816  27.215  28.128  1.00  0.00     0.029 A 
ATOM     35  N   UNL A   1      41.404  27.386  29.692  1.00  0.00    -0.354 N 
ATOM     36  C   UNL A   1      41.220  30.459  32.724  1.00  0.00     0.074 A 
ATOM     37  C   UNL A   1      40.058  31.301  32.542  1.00  0.00     0.031 C 
ATOM     38  C   UNL A   1      40.730  26.265  27.879  1.00  0.00     0.029 A 
ATOM     39  C   UNL A   1      41.793  26.354  28.875  1.00  0.00     0.049 A 
ATOM     40  H   UNL A   1      41.931  27.688  30.467  1.00  0.00     0.167 HD
ATOM     41  C   UNL A   1      42.129  30.617  33.716  1.00  0.00     0.037 A 
ATOM     42  C   UNL A   1      42.883  25.565  28.923  1.00  0.00     0.037 A 
ATOM     43  C   UNL A   1      43.278  29.769  33.902  1.00  0.00     0.049 A 
ATOM     44  C   UNL A   1      43.877  25.761  30.036  1.00  0.00     0.074 A 
ATOM     45  C   UNL A   1      44.232  29.815  34.903  1.00  0.00     0.029 A 
ATOM     46  N   UNL A   1      43.630  28.721  33.063  1.00  0.00    -0.354 N 
ATOM     47  N   UNL A   1      43.866  26.633  31.014  1.00  0.00    -0.248 NA
ATOM     48  C   UNL A   1      45.030  24.850  30.058  1.00  0.00     0.031 C 
ATOM     49  C   UNL A   1      45.189  28.829  34.642  1.00  0.00     0.029 A 
ATOM     50  C   UNL A   1      44.799  28.128  33.513  1.00  0.00     0.049 A 
ATOM     51  H   UNL A   1      43.124  28.442  32.267  1.00  0.00     0.167 HD
ATOM     52  C   UNL A   1      44.992  26.363  31.780  1.00  0.00     0.074 A 
ATOM     53  C   UNL A   1      45.650  25.227  31.167  1.00  0.00     0.031 C 
ATOM     54  C   UNL A   1      45.442  26.999  32.890  1.00  0.00     0.037 A 
BRANCH  41  55
ATOM     55  C   UNL A   1      41.910  31.745  34.685  1.00  0.00     0.064 A 
ATOM     56  C   UNL A   1      41.096  31.592  35.819  1.00  0.00     0.173 A 
ATOM     57  C   UNL A   1      42.544  32.981  34.498  1.00  0.00     0.173 A 
ATOM     58  F   UNL A   1      40.456  30.434  36.039  1.00  0.00    -0.203 F 
ATOM     59  C   UNL A   1      40.903  32.644  36.711  1.00  0.00     0.198 A 
ATOM     60  C   UNL A   1      42.375  34.020  35.410  1.00  0.00     0.198 A 
ATOM     61  F   UNL A   1      43.338  33.182  33.434  1.00  0.00    -0.203 F 
ATOM     62  F   UNL A   1      40.079  32.489  37.757  1.00  0.00    -0.200 F 
ATOM     63  C   UNL A   1      41.548  33.853  36.511  1.00  0.00     0.200 A 
ATOM     64  F   UNL A   1      43.012  35.185  35.223  1.00  0.00    -0.200 F 
ATOM     65  F   UNL A   1      41.368  34.862  37.375  1.00  0.00    -0.200 F 
ENDBRANCH  41  55
BRANCH  42  66
ATOM     66  C   UNL A   1      43.077  24.502  27.903  1.00  0.00     0.064 A 
ATOM     67  C   UNL A   1      43.680  24.786  26.669  1.00  0.00     0.173 A 
ATOM     68  C   UNL A   1      42.659  23.183  28.137  1.00  0.00     0.173 A 
ATOM     69  F   UNL A   1      44.080  26.034  26.391  1.00  0.00    -0.203 F 
ATOM     70  C   UNL A   1      43.834  23.797  25.698  1.00  0.00     0.198 A 
ATOM     71  C   UNL A   1      42.843  22.189  27.177  1.00  0.00     0.198 A 
ATOM     72  F   UNL A   1      42.083  22.858  29.303  1.00  0.00    -0.203 F 
ATOM     73  F   UNL A   1      44.367  24.107  24.509  1.00  0.00    -0.200 F 
ATOM     74  C   UNL A   1      43.421  22.499  25.956  1.00  0.00     0.200 A 
ATOM     75  F   UNL A   1      42.457  20.932  27.438  1.00  0.00    -0.200 F 
ATOM     76  F   UNL A   1      43.572  21.548  25.025  1.00  0.00    -0.200 F 
ENDBRANCH  42  66
BRANCH  54  77
ATOM     77  C   UNL A   1      46.690  26.459  33.528  1.00  0.00     0.064 A 
ATOM     78  C   UNL A   1      47.963  26.943  33.188  1.00  0.00     0.173 A 
ATOM     79  C   UNL A   1      46.611  25.456  34.508  1.00  0.00     0.173 A 
ATOM     80  F   UNL A   1      48.096  27.890  32.248  1.00  0.00    -0.203 F 
ATOM     81  C   UNL A   1      49.109  26.416  33.776  1.00  0.00     0.198 A 
ATOM     82  C   UNL A   1      47.758  24.957  35.118  1.00  0.00     0.198 A 
ATOM     83  F   UNL A   1      45.419  24.964  34.877  1.00  0.00    -0.203 F 
ATOM     84  F   UNL A   1      50.318  26.850  33.389  1.00  0.00    -0.200 F 
ATOM     85  C   UNL A   1      49.006  25.429  34.745  1.00  0.00     0.200 A 
ATOM     86  F   UNL A   1      47.654  24.014  36.065  1.00  0.00    -0.200 F 
ATOM     87  F   UNL A   1      50.112  24.925  35.310  1.00  0.00    -0.200 F 
ENDBRANCH  54  77
ENDBRANCH  28  29
ENDBRANCH  20  23
ENDBRANCH  18  19
ENDBRANCH  17  18
ENDBRANCH   1  17
TORSDOF 13
ENDMDL
