MODEL 1
REMARK VINA RESULT:     -11.7      0.000      0.000
REMARK SMILES CC(C)C[C@H](NC(=O)[C@H](C)NC(=O)[C@@H](NC(=O)CNC(=O)OCc1ccccc1)C(C)C)C(=O)NCCCNC(=O)c1ccc(-c2c3nc(c(-c4c(F)c(F)c(F)c(F)c4F)c4ccc([nH]4)c(-c4c(F)c(F)c(F)c(F)c4F)c4nc(c(-c5c(F)c(F)c(F)c(F)c5F)c5ccc2[nH]5)C=C4)C=C3)cc1
REMARK SMILES IDX 6 1 7 2 8 3 5 5 4 6 2 7 1 8 3 9 33 10 34 11 35 12 36 14
REMARK SMILES IDX 37 15 38 16 39 17 40 18 41 20 42 21 43 22 104 23 44 24
REMARK SMILES IDX 103 25 45 26 46 27 47 28 97 29 48 30 102 31 96 32 98 33
REMARK SMILES IDX 49 34 101 35 95 36 94 37 50 39 82 40 62 41 81 42 63 43 66 44
REMARK SMILES IDX 80 45 99 46 64 47 65 48 79 50 100 51 67 52 51 53 52 54 60 55
REMARK SMILES IDX 53 56 54 57 58 58 61 59 55 60 56 61 59 62 57 63 83 64 84 65
REMARK SMILES IDX 92 66 85 67 86 68 90 69 93 70 87 71 88 72 91 73 89 74 68 75
REMARK SMILES IDX 69 76 77 77 70 78 71 79 75 80 78 81 72 82 73 83 76 84 74 85
REMARK SMILES IDX 9 86 10 87 11 88 12 89 13 91 14 92 15 93 16 94 17 96 18 97
REMARK SMILES IDX 19 98 20 99 21 101 22 102 23 103 24 104 25 105 29 106 26 107
REMARK SMILES IDX 28 108 27 109 30 110 31 111 32 112
REMARK H PARENT 6 4 35 13 39 19 98 38 66 49 11 90 15 95 19 100
REMARK Flexibility Score: inf
ROOT
ATOM      1  N   UNL A   1      33.996  27.082  23.890  1.00  0.00    -0.343 N 
ATOM      2  C   UNL A   1      33.173  28.071  23.431  1.00  0.00     0.242 C 
ATOM      3  O   UNL A   1      33.708  28.987  22.796  1.00  0.00    -0.273 OA
ATOM      4  H   UNL A   1      34.865  27.365  24.254  1.00  0.00     0.164 HD
ENDROOT
BRANCH   1   5
ATOM      5  C   UNL A   1      33.720  25.647  23.896  1.00  0.00     0.171 C 
BRANCH   5   6
ATOM      6  C   UNL A   1      34.079  25.009  22.542  1.00  0.00     0.038 C 
BRANCH   6   7
ATOM      7  C   UNL A   1      32.846  24.590  21.717  1.00  0.00    -0.015 C 
ATOM      8  C   UNL A   1      32.567  25.542  20.550  1.00  0.00     0.007 C 
ATOM      9  C   UNL A   1      33.054  23.173  21.183  1.00  0.00     0.007 C 
ENDBRANCH   6   7
ENDBRANCH   5   6
BRANCH   5  10
ATOM     10  C   UNL A   1      34.287  24.924  25.123  1.00  0.00     0.242 C 
ATOM     11  O   UNL A   1      33.936  25.246  26.261  1.00  0.00    -0.273 OA
ATOM     12  N   UNL A   1      35.208  23.935  25.015  1.00  0.00    -0.354 N 
ATOM     13  H   UNL A   1      35.406  23.460  25.855  1.00  0.00     0.163 HD
BRANCH  12  14
ATOM     14  C   UNL A   1      35.944  23.464  23.861  1.00  0.00     0.117 C 
BRANCH  14  15
ATOM     15  C   UNL A   1      36.935  22.377  24.241  1.00  0.00     0.042 C 
BRANCH  15  16
ATOM     16  C   UNL A   1      37.347  22.404  25.707  1.00  0.00     0.118 C 
BRANCH  16  17
ATOM     17  N   UNL A   1      38.369  21.416  26.023  1.00  0.00    -0.352 N 
ATOM     18  C   UNL A   1      39.666  21.588  26.434  1.00  0.00     0.251 C 
ATOM     19  H   UNL A   1      38.086  20.478  25.924  1.00  0.00     0.163 HD
ATOM     20  O   UNL A   1      40.434  20.630  26.441  1.00  0.00    -0.269 OA
BRANCH  18  21
ATOM     21  C   UNL A   1      40.143  22.919  26.863  1.00  0.00     0.039 A 
ATOM     22  C   UNL A   1      39.746  24.044  26.137  1.00  0.00     0.014 A 
ATOM     23  C   UNL A   1      41.009  23.059  27.950  1.00  0.00     0.014 A 
ATOM     24  C   UNL A   1      40.189  25.309  26.528  1.00  0.00     0.010 A 
ATOM     25  C   UNL A   1      41.355  24.325  28.406  1.00  0.00     0.010 A 
ATOM     26  C   UNL A   1      40.979  25.462  27.678  1.00  0.00    -0.014 A 
BRANCH  26  27
ATOM     27  C   UNL A   1      41.474  26.797  28.094  1.00  0.00     0.031 A 
ATOM     28  C   UNL A   1      42.928  27.147  27.919  1.00  0.00     0.074 A 
ATOM     29  C   UNL A   1      40.625  27.682  28.649  1.00  0.00     0.049 A 
ATOM     30  N   UNL A   1      43.557  28.256  28.224  1.00  0.00    -0.248 NA
ATOM     31  C   UNL A   1      43.801  26.105  27.356  1.00  0.00     0.031 C 
ATOM     32  C   UNL A   1      39.207  27.439  28.919  1.00  0.00     0.029 A 
ATOM     33  N   UNL A   1      40.830  28.966  29.086  1.00  0.00    -0.354 N 
ATOM     34  C   UNL A   1      44.889  28.035  27.900  1.00  0.00     0.074 A 
ATOM     35  C   UNL A   1      44.996  26.667  27.448  1.00  0.00     0.031 C 
ATOM     36  C   UNL A   1      38.660  28.551  29.436  1.00  0.00     0.029 A 
ATOM     37  C   UNL A   1      39.697  29.570  29.571  1.00  0.00     0.049 A 
ATOM     38  H   UNL A   1      41.707  29.413  29.053  1.00  0.00     0.167 HD
ATOM     39  C   UNL A   1      45.926  28.904  27.942  1.00  0.00     0.037 A 
ATOM     40  C   UNL A   1      39.516  30.809  30.067  1.00  0.00     0.037 A 
ATOM     41  C   UNL A   1      45.810  30.272  28.373  1.00  0.00     0.049 A 
ATOM     42  C   UNL A   1      40.686  31.757  30.107  1.00  0.00     0.074 A 
ATOM     43  C   UNL A   1      46.785  31.252  28.410  1.00  0.00     0.029 A 
ATOM     44  N   UNL A   1      44.641  30.853  28.846  1.00  0.00    -0.354 N 
ATOM     45  N   UNL A   1      41.927  31.560  29.729  1.00  0.00    -0.248 NA
ATOM     46  C   UNL A   1      40.426  33.104  30.629  1.00  0.00     0.031 C 
ATOM     47  C   UNL A   1      46.223  32.409  28.960  1.00  0.00     0.029 A 
ATOM     48  C   UNL A   1      44.878  32.172  29.198  1.00  0.00     0.049 A 
ATOM     49  H   UNL A   1      43.773  30.395  28.921  1.00  0.00     0.167 HD
ATOM     50  C   UNL A   1      42.582  32.769  29.928  1.00  0.00     0.074 A 
ATOM     51  C   UNL A   1      41.597  33.694  30.448  1.00  0.00     0.031 C 
ATOM     52  C   UNL A   1      43.881  33.085  29.700  1.00  0.00     0.037 A 
BRANCH  39  53
ATOM     53  C   UNL A   1      47.275  28.401  27.509  1.00  0.00     0.064 A 
ATOM     54  C   UNL A   1      48.204  27.889  28.428  1.00  0.00     0.173 A 
ATOM     55  C   UNL A   1      47.634  28.408  26.152  1.00  0.00     0.173 A 
ATOM     56  F   UNL A   1      47.919  27.871  29.739  1.00  0.00    -0.203 F 
ATOM     57  C   UNL A   1      49.454  27.437  28.010  1.00  0.00     0.198 A 
ATOM     58  C   UNL A   1      48.870  27.920  25.734  1.00  0.00     0.198 A 
ATOM     59  F   UNL A   1      46.785  28.882  25.228  1.00  0.00    -0.203 F 
ATOM     60  F   UNL A   1      50.346  27.010  28.915  1.00  0.00    -0.200 F 
ATOM     61  C   UNL A   1      49.782  27.444  26.664  1.00  0.00     0.200 A 
ATOM     62  F   UNL A   1      49.180  27.914  24.430  1.00  0.00    -0.200 F 
ATOM     63  F   UNL A   1      50.982  27.002  26.263  1.00  0.00    -0.200 F 
ENDBRANCH  39  53
BRANCH  40  64
ATOM     64  C   UNL A   1      38.169  31.238  30.530  1.00  0.00     0.064 A 
ATOM     65  C   UNL A   1      37.850  31.272  31.896  1.00  0.00     0.173 A 
ATOM     66  C   UNL A   1      37.168  31.606  29.620  1.00  0.00     0.173 A 
ATOM     67  F   UNL A   1      38.768  30.912  32.806  1.00  0.00    -0.203 F 
ATOM     68  C   UNL A   1      36.575  31.627  32.330  1.00  0.00     0.198 A 
ATOM     69  C   UNL A   1      35.903  31.994  30.056  1.00  0.00     0.198 A 
ATOM     70  F   UNL A   1      37.422  31.601  28.302  1.00  0.00    -0.203 F 
ATOM     71  F   UNL A   1      36.282  31.594  33.637  1.00  0.00    -0.200 F 
ATOM     72  C   UNL A   1      35.604  31.992  31.411  1.00  0.00     0.200 A 
ATOM     73  F   UNL A   1      34.974  32.365  29.166  1.00  0.00    -0.200 F 
ATOM     74  F   UNL A   1      34.377  32.335  31.829  1.00  0.00    -0.200 F 
ENDBRANCH  40  64
BRANCH  52  75
ATOM     75  C   UNL A   1      44.298  34.506  29.949  1.00  0.00     0.064 A 
ATOM     76  C   UNL A   1      44.849  34.918  31.172  1.00  0.00     0.173 A 
ATOM     77  C   UNL A   1      44.166  35.467  28.934  1.00  0.00     0.173 A 
ATOM     78  F   UNL A   1      44.989  34.043  32.180  1.00  0.00    -0.203 F 
ATOM     79  C   UNL A   1      45.211  36.246  31.383  1.00  0.00     0.198 A 
ATOM     80  C   UNL A   1      44.566  36.785  29.134  1.00  0.00     0.198 A 
ATOM     81  F   UNL A   1      43.657  35.126  27.741  1.00  0.00    -0.203 F 
ATOM     82  F   UNL A   1      45.672  36.631  32.581  1.00  0.00    -0.200 F 
ATOM     83  C   UNL A   1      45.076  37.176  30.362  1.00  0.00     0.200 A 
ATOM     84  F   UNL A   1      44.454  37.676  28.141  1.00  0.00    -0.200 F 
ATOM     85  F   UNL A   1      45.428  38.453  30.566  1.00  0.00    -0.200 F 
ENDBRANCH  52  75
ENDBRANCH  26  27
ENDBRANCH  18  21
ENDBRANCH  16  17
ENDBRANCH  15  16
ENDBRANCH  14  15
ENDBRANCH  12  14
ENDBRANCH   5  10
ENDBRANCH   1   5
BRANCH   2  86
ATOM     86  C   UNL A   1      31.685  28.172  23.870  1.00  0.00     0.168 C 
ATOM     87  C   UNL A   1      30.843  29.353  23.425  1.00  0.00     0.041 C 
BRANCH  86  88
ATOM     88  N   UNL A   1      31.592  28.092  25.318  1.00  0.00    -0.343 N 
ATOM     89  C   UNL A   1      30.987  27.137  26.071  1.00  0.00     0.243 C 
ATOM     90  H   UNL A   1      32.025  28.822  25.817  1.00  0.00     0.164 HD
ATOM     91  O   UNL A   1      30.848  27.378  27.275  1.00  0.00    -0.273 OA
BRANCH  89  92
ATOM     92  C   UNL A   1      30.665  25.712  25.512  1.00  0.00     0.174 C 
BRANCH  92  93
ATOM     93  N   UNL A   1      30.017  24.769  26.465  1.00  0.00    -0.343 N 
ATOM     94  C   UNL A   1      30.108  23.469  26.862  1.00  0.00     0.240 C 
ATOM     95  H   UNL A   1      29.301  25.226  26.963  1.00  0.00     0.164 HD
ATOM     96  O   UNL A   1      29.197  23.088  27.609  1.00  0.00    -0.273 OA
BRANCH  94  97
ATOM     97  C   UNL A   1      31.213  22.464  26.472  1.00  0.00     0.219 C 
BRANCH  97  98
ATOM     98  N   UNL A   1      32.417  22.487  27.284  1.00  0.00    -0.312 N 
ATOM     99  C   UNL A   1      33.586  21.837  27.023  1.00  0.00     0.407 C 
ATOM    100  H   UNL A   1      32.384  23.027  28.107  1.00  0.00     0.167 HD
ATOM    101  O   UNL A   1      34.439  21.730  27.896  1.00  0.00    -0.225 OA
BRANCH  99 102
ATOM    102  O   UNL A   1      33.638  21.312  25.775  1.00  0.00    -0.445 OA
BRANCH 102 103
ATOM    103  C   UNL A   1      34.363  20.077  25.603  1.00  0.00     0.270 C 
BRANCH 103 104
ATOM    104  C   UNL A   1      33.763  19.166  24.573  1.00  0.00    -0.011 A 
ATOM    105  C   UNL A   1      34.388  17.948  24.272  1.00  0.00     0.007 A 
ATOM    106  C   UNL A   1      32.630  19.559  23.851  1.00  0.00     0.007 A 
ATOM    107  C   UNL A   1      33.934  17.173  23.209  1.00  0.00     0.000 A 
ATOM    108  C   UNL A   1      32.183  18.786  22.784  1.00  0.00     0.000 A 
ATOM    109  C   UNL A   1      32.845  17.603  22.454  1.00  0.00     0.000 A 
ENDBRANCH 103 104
ENDBRANCH 102 103
ENDBRANCH  99 102
ENDBRANCH  97  98
ENDBRANCH  94  97
ENDBRANCH  92  93
BRANCH  92 110
ATOM    110  C   UNL A   1      30.014  25.783  24.128  1.00  0.00     0.015 C 
ATOM    111  C   UNL A   1      30.083  24.495  23.299  1.00  0.00     0.010 C 
ATOM    112  C   UNL A   1      28.561  26.257  24.225  1.00  0.00     0.010 C 
ENDBRANCH  92 110
ENDBRANCH  89  92
ENDBRANCH  86  88
ENDBRANCH   2  86
TORSDOF 23
ENDMDL
MODEL 2
REMARK VINA RESULT:     -11.4      4.083      8.955
REMARK SMILES CC(C)C[C@H](NC(=O)[C@H](C)NC(=O)[C@@H](NC(=O)CNC(=O)OCc1ccccc1)C(C)C)C(=O)NCCCNC(=O)c1ccc(-c2c3nc(c(-c4c(F)c(F)c(F)c(F)c4F)c4ccc([nH]4)c(-c4c(F)c(F)c(F)c(F)c4F)c4nc(c(-c5c(F)c(F)c(F)c(F)c5F)c5ccc2[nH]5)C=C4)C=C3)cc1
REMARK SMILES IDX 6 1 7 2 8 3 5 5 4 6 2 7 1 8 3 9 33 10 34 11 35 12 36 14
REMARK SMILES IDX 37 15 38 16 39 17 40 18 41 20 42 21 43 22 104 23 44 24
REMARK SMILES IDX 103 25 45 26 46 27 47 28 97 29 48 30 102 31 96 32 98 33
REMARK SMILES IDX 49 34 101 35 95 36 94 37 50 39 82 40 62 41 81 42 63 43 66 44
REMARK SMILES IDX 80 45 99 46 64 47 65 48 79 50 100 51 67 52 51 53 52 54 60 55
REMARK SMILES IDX 53 56 54 57 58 58 61 59 55 60 56 61 59 62 57 63 83 64 84 65
REMARK SMILES IDX 92 66 85 67 86 68 90 69 93 70 87 71 88 72 91 73 89 74 68 75
REMARK SMILES IDX 69 76 77 77 70 78 71 79 75 80 78 81 72 82 73 83 76 84 74 85
REMARK SMILES IDX 9 86 10 87 11 88 12 89 13 91 14 92 15 93 16 94 17 96 18 97
REMARK SMILES IDX 19 98 20 99 21 101 22 102 23 103 24 104 25 105 29 106 26 107
REMARK SMILES IDX 28 108 27 109 30 110 31 111 32 112
REMARK H PARENT 6 4 35 13 39 19 98 38 66 49 11 90 15 95 19 100
REMARK Flexibility Score: inf
ROOT
ATOM      1  N   UNL A   1      31.658  27.533  25.423  1.00  0.00    -0.343 N 
ATOM      2  C   UNL A   1      30.675  26.615  25.664  1.00  0.00     0.242 C 
ATOM      3  O   UNL A   1      30.384  26.414  26.848  1.00  0.00    -0.273 OA
ATOM      4  H   UNL A   1      32.435  27.516  26.028  1.00  0.00     0.164 HD
ENDROOT
BRANCH   1   5
ATOM      5  C   UNL A   1      31.677  28.536  24.361  1.00  0.00     0.171 C 
BRANCH   5   6
ATOM      6  C   UNL A   1      30.580  29.593  24.580  1.00  0.00     0.038 C 
BRANCH   6   7
ATOM      7  C   UNL A   1      29.978  30.131  23.265  1.00  0.00    -0.015 C 
ATOM      8  C   UNL A   1      29.405  29.019  22.382  1.00  0.00     0.007 C 
ATOM      9  C   UNL A   1      28.881  31.143  23.590  1.00  0.00     0.007 C 
ENDBRANCH   6   7
ENDBRANCH   5   6
BRANCH   5  10
ATOM     10  C   UNL A   1      33.075  29.102  24.085  1.00  0.00     0.242 C 
ATOM     11  O   UNL A   1      33.591  28.988  22.970  1.00  0.00    -0.273 OA
ATOM     12  N   UNL A   1      33.807  29.717  25.046  1.00  0.00    -0.354 N 
ATOM     13  H   UNL A   1      34.632  30.148  24.726  1.00  0.00     0.163 HD
BRANCH  12  14
ATOM     14  C   UNL A   1      33.567  29.841  26.469  1.00  0.00     0.117 C 
BRANCH  14  15
ATOM     15  C   UNL A   1      33.753  31.273  26.940  1.00  0.00     0.042 C 
BRANCH  15  16
ATOM     16  C   UNL A   1      32.467  31.943  27.400  1.00  0.00     0.118 C 
BRANCH  16  17
ATOM     17  N   UNL A   1      32.605  33.384  27.553  1.00  0.00    -0.352 N 
ATOM     18  C   UNL A   1      33.482  34.111  28.315  1.00  0.00     0.251 C 
ATOM     19  H   UNL A   1      31.967  33.921  27.028  1.00  0.00     0.163 HD
ATOM     20  O   UNL A   1      33.297  35.315  28.474  1.00  0.00    -0.269 OA
BRANCH  18  21
ATOM     21  C   UNL A   1      34.643  33.454  28.949  1.00  0.00     0.039 A 
ATOM     22  C   UNL A   1      35.922  33.713  28.451  1.00  0.00     0.014 A 
ATOM     23  C   UNL A   1      34.475  32.554  30.004  1.00  0.00     0.014 A 
ATOM     24  C   UNL A   1      37.029  33.099  29.038  1.00  0.00     0.010 A 
ATOM     25  C   UNL A   1      35.584  32.035  30.661  1.00  0.00     0.010 A 
ATOM     26  C   UNL A   1      36.871  32.272  30.161  1.00  0.00    -0.014 A 
BRANCH  26  27
ATOM     27  C   UNL A   1      38.037  31.597  30.784  1.00  0.00     0.031 A 
ATOM     28  C   UNL A   1      38.435  31.937  32.195  1.00  0.00     0.074 A 
ATOM     29  C   UNL A   1      38.748  30.701  30.075  1.00  0.00     0.049 A 
ATOM     30  N   UNL A   1      39.422  31.465  32.916  1.00  0.00    -0.248 NA
ATOM     31  C   UNL A   1      37.640  32.968  32.882  1.00  0.00     0.031 C 
ATOM     32  C   UNL A   1      38.492  30.328  28.683  1.00  0.00     0.029 A 
ATOM     33  N   UNL A   1      39.832  29.937  30.429  1.00  0.00    -0.354 N 
ATOM     34  C   UNL A   1      39.368  32.147  34.124  1.00  0.00     0.074 A 
ATOM     35  C   UNL A   1      38.304  33.118  34.017  1.00  0.00     0.031 C 
ATOM     36  C   UNL A   1      39.367  29.377  28.315  1.00  0.00     0.029 A 
ATOM     37  C   UNL A   1      40.269  29.104  29.429  1.00  0.00     0.049 A 
ATOM     38  H   UNL A   1      40.255  29.982  31.317  1.00  0.00     0.167 HD
ATOM     39  C   UNL A   1      40.116  31.958  35.237  1.00  0.00     0.037 A 
ATOM     40  C   UNL A   1      41.282  28.218  29.417  1.00  0.00     0.037 A 
ATOM     41  C   UNL A   1      41.161  30.975  35.346  1.00  0.00     0.049 A 
ATOM     42  C   UNL A   1      42.102  28.029  30.666  1.00  0.00     0.074 A 
ATOM     43  C   UNL A   1      41.947  30.667  36.441  1.00  0.00     0.029 A 
ATOM     44  N   UNL A   1      41.566  30.139  34.314  1.00  0.00    -0.354 N 
ATOM     45  N   UNL A   1      41.994  28.628  31.828  1.00  0.00    -0.248 NA
ATOM     46  C   UNL A   1      43.175  27.029  30.605  1.00  0.00     0.031 C 
ATOM     47  C   UNL A   1      42.868  29.687  36.056  1.00  0.00     0.029 A 
ATOM     48  C   UNL A   1      42.607  29.331  34.742  1.00  0.00     0.049 A 
ATOM     49  H   UNL A   1      41.173  30.123  33.412  1.00  0.00     0.167 HD
ATOM     50  C   UNL A   1      42.955  28.049  32.646  1.00  0.00     0.074 A 
ATOM     51  C   UNL A   1      43.625  27.042  31.851  1.00  0.00     0.031 C 
ATOM     52  C   UNL A   1      43.254  28.323  33.941  1.00  0.00     0.037 A 
BRANCH  39  53
ATOM     53  C   UNL A   1      39.827  32.832  36.426  1.00  0.00     0.064 A 
ATOM     54  C   UNL A   1      40.547  34.012  36.669  1.00  0.00     0.173 A 
ATOM     55  C   UNL A   1      38.800  32.497  37.322  1.00  0.00     0.173 A 
ATOM     56  F   UNL A   1      41.549  34.373  35.853  1.00  0.00    -0.203 F 
ATOM     57  C   UNL A   1      40.274  34.804  37.782  1.00  0.00     0.198 A 
ATOM     58  C   UNL A   1      38.504  33.312  38.413  1.00  0.00     0.198 A 
ATOM     59  F   UNL A   1      38.076  31.383  37.138  1.00  0.00    -0.203 F 
ATOM     60  F   UNL A   1      41.016  35.894  38.025  1.00  0.00    -0.200 F 
ATOM     61  C   UNL A   1      39.248  34.459  38.647  1.00  0.00     0.200 A 
ATOM     62  F   UNL A   1      37.502  32.984  39.240  1.00  0.00    -0.200 F 
ATOM     63  F   UNL A   1      38.981  35.226  39.713  1.00  0.00    -0.200 F 
ENDBRANCH  39  53
BRANCH  40  64
ATOM     64  C   UNL A   1      41.556  27.416  28.194  1.00  0.00     0.064 A 
ATOM     65  C   UNL A   1      40.904  26.193  27.970  1.00  0.00     0.173 A 
ATOM     66  C   UNL A   1      42.484  27.843  27.234  1.00  0.00     0.173 A 
ATOM     67  F   UNL A   1      40.020  25.732  28.867  1.00  0.00    -0.203 F 
ATOM     68  C   UNL A   1      41.194  25.417  26.850  1.00  0.00     0.198 A 
ATOM     69  C   UNL A   1      42.748  27.082  26.097  1.00  0.00     0.198 A 
ATOM     70  F   UNL A   1      43.129  29.008  27.394  1.00  0.00    -0.203 F 
ATOM     71  F   UNL A   1      40.599  24.227  26.692  1.00  0.00    -0.200 F 
ATOM     72  C   UNL A   1      42.112  25.863  25.912  1.00  0.00     0.200 A 
ATOM     73  F   UNL A   1      43.621  27.527  25.184  1.00  0.00    -0.200 F 
ATOM     74  F   UNL A   1      42.389  25.117  24.834  1.00  0.00    -0.200 F 
ENDBRANCH  40  64
BRANCH  52  75
ATOM     75  C   UNL A   1      44.310  27.479  34.597  1.00  0.00     0.064 A 
ATOM     76  C   UNL A   1      44.010  26.250  35.204  1.00  0.00     0.173 A 
ATOM     77  C   UNL A   1      45.649  27.900  34.597  1.00  0.00     0.173 A 
ATOM     78  F   UNL A   1      42.745  25.805  35.242  1.00  0.00    -0.203 F 
ATOM     79  C   UNL A   1      45.005  25.496  35.822  1.00  0.00     0.198 A 
ATOM     80  C   UNL A   1      46.647  27.124  35.180  1.00  0.00     0.198 A 
ATOM     81  F   UNL A   1      45.993  29.062  34.021  1.00  0.00    -0.203 F 
ATOM     82  F   UNL A   1      44.685  24.358  36.453  1.00  0.00    -0.200 F 
ATOM     83  C   UNL A   1      46.322  25.930  35.803  1.00  0.00     0.200 A 
ATOM     84  F   UNL A   1      47.921  27.536  35.143  1.00  0.00    -0.200 F 
ATOM     85  F   UNL A   1      47.278  25.201  36.395  1.00  0.00    -0.200 F 
ENDBRANCH  52  75
ENDBRANCH  26  27
ENDBRANCH  18  21
ENDBRANCH  16  17
ENDBRANCH  15  16
ENDBRANCH  14  15
ENDBRANCH  12  14
ENDBRANCH   5  10
ENDBRANCH   1   5
BRANCH   2  86
ATOM     86  C   UNL A   1      30.108  25.703  24.540  1.00  0.00     0.168 C 
ATOM     87  C   UNL A   1      28.745  25.996  23.942  1.00  0.00     0.041 C 
BRANCH  86  88
ATOM     88  N   UNL A   1      30.101  24.320  24.985  1.00  0.00    -0.343 N 
ATOM     89  C   UNL A   1      31.157  23.480  25.140  1.00  0.00     0.243 C 
ATOM     90  H   UNL A   1      29.218  23.944  25.204  1.00  0.00     0.164 HD
ATOM     91  O   UNL A   1      30.900  22.286  25.327  1.00  0.00    -0.273 OA
BRANCH  89  92
ATOM     92  C   UNL A   1      32.624  24.001  25.289  1.00  0.00     0.174 C 
BRANCH  92  93
ATOM     93  N   UNL A   1      33.371  23.514  26.482  1.00  0.00    -0.343 N 
ATOM     94  C   UNL A   1      34.646  23.218  26.859  1.00  0.00     0.240 C 
ATOM     95  H   UNL A   1      32.751  23.358  27.231  1.00  0.00     0.164 HD
ATOM     96  O   UNL A   1      34.748  22.666  27.962  1.00  0.00    -0.273 OA
BRANCH  94  97
ATOM     97  C   UNL A   1      35.932  23.502  26.053  1.00  0.00     0.219 C 
BRANCH  97  98
ATOM     98  N   UNL A   1      36.785  22.357  25.784  1.00  0.00    -0.312 N 
ATOM     99  C   UNL A   1      36.402  21.168  25.239  1.00  0.00     0.407 C 
ATOM    100  H   UNL A   1      37.737  22.451  26.019  1.00  0.00     0.167 HD
ATOM    101  O   UNL A   1      37.149  20.198  25.289  1.00  0.00    -0.225 OA
BRANCH  99 102
ATOM    102  O   UNL A   1      35.146  21.193  24.730  1.00  0.00    -0.445 OA
BRANCH 102 103
ATOM    103  C   UNL A   1      34.165  20.327  25.336  1.00  0.00     0.270 C 
BRANCH 103 104
ATOM    104  C   UNL A   1      33.729  19.198  24.449  1.00  0.00    -0.011 A 
ATOM    105  C   UNL A   1      34.510  18.038  24.364  1.00  0.00     0.007 A 
ATOM    106  C   UNL A   1      32.592  19.328  23.644  1.00  0.00     0.007 A 
ATOM    107  C   UNL A   1      34.202  17.056  23.426  1.00  0.00     0.000 A 
ATOM    108  C   UNL A   1      32.291  18.349  22.702  1.00  0.00     0.000 A 
ATOM    109  C   UNL A   1      33.105  17.222  22.582  1.00  0.00     0.000 A 
ENDBRANCH 103 104
ENDBRANCH 102 103
ENDBRANCH  99 102
ENDBRANCH  97  98
ENDBRANCH  94  97
ENDBRANCH  92  93
BRANCH  92 110
ATOM    110  C   UNL A   1      33.390  23.917  23.966  1.00  0.00     0.015 C 
ATOM    111  C   UNL A   1      32.715  23.092  22.864  1.00  0.00     0.010 C 
ATOM    112  C   UNL A   1      33.726  25.312  23.433  1.00  0.00     0.010 C 
ENDBRANCH  92 110
ENDBRANCH  89  92
ENDBRANCH  86  88
ENDBRANCH   2  86
TORSDOF 23
ENDMDL
MODEL 3
REMARK VINA RESULT:     -11.0      1.202      2.422
REMARK SMILES CC(C)C[C@H](NC(=O)[C@H](C)NC(=O)[C@@H](NC(=O)CNC(=O)OCc1ccccc1)C(C)C)C(=O)NCCCNC(=O)c1ccc(-c2c3nc(c(-c4c(F)c(F)c(F)c(F)c4F)c4ccc([nH]4)c(-c4c(F)c(F)c(F)c(F)c4F)c4nc(c(-c5c(F)c(F)c(F)c(F)c5F)c5ccc2[nH]5)C=C4)C=C3)cc1
REMARK SMILES IDX 6 1 7 2 8 3 5 5 4 6 2 7 1 8 3 9 33 10 34 11 35 12 36 14
REMARK SMILES IDX 37 15 38 16 39 17 40 18 41 20 42 21 43 22 104 23 44 24
REMARK SMILES IDX 103 25 45 26 46 27 47 28 97 29 48 30 102 31 96 32 98 33
REMARK SMILES IDX 49 34 101 35 95 36 94 37 50 39 82 40 62 41 81 42 63 43 66 44
REMARK SMILES IDX 80 45 99 46 64 47 65 48 79 50 100 51 67 52 51 53 52 54 60 55
REMARK SMILES IDX 53 56 54 57 58 58 61 59 55 60 56 61 59 62 57 63 83 64 84 65
REMARK SMILES IDX 92 66 85 67 86 68 90 69 93 70 87 71 88 72 91 73 89 74 68 75
REMARK SMILES IDX 69 76 77 77 70 78 71 79 75 80 78 81 72 82 73 83 76 84 74 85
REMARK SMILES IDX 9 86 10 87 11 88 12 89 13 91 14 92 15 93 16 94 17 96 18 97
REMARK SMILES IDX 19 98 20 99 21 101 22 102 23 103 24 104 25 105 29 106 26 107
REMARK SMILES IDX 28 108 27 109 30 110 31 111 32 112
REMARK H PARENT 6 4 35 13 39 19 98 38 66 49 11 90 15 95 19 100
REMARK Flexibility Score: inf
ROOT
ATOM      1  N   UNL A   1      33.920  27.294  23.666  1.00  0.00    -0.343 N 
ATOM      2  C   UNL A   1      32.925  28.179  23.361  1.00  0.00     0.242 C 
ATOM      3  O   UNL A   1      33.210  29.078  22.562  1.00  0.00    -0.273 OA
ATOM      4  H   UNL A   1      34.821  27.668  23.791  1.00  0.00     0.164 HD
ENDROOT
BRANCH   1   5
ATOM      5  C   UNL A   1      33.784  25.847  23.824  1.00  0.00     0.171 C 
BRANCH   5   6
ATOM      6  C   UNL A   1      34.074  25.116  22.502  1.00  0.00     0.038 C 
BRANCH   6   7
ATOM      7  C   UNL A   1      32.831  24.432  21.896  1.00  0.00    -0.015 C 
ATOM      8  C   UNL A   1      33.010  22.920  21.739  1.00  0.00     0.007 C 
ATOM      9  C   UNL A   1      31.618  24.715  22.780  1.00  0.00     0.007 C 
ENDBRANCH   6   7
ENDBRANCH   5   6
BRANCH   5  10
ATOM     10  C   UNL A   1      34.531  25.297  25.046  1.00  0.00     0.242 C 
ATOM     11  O   UNL A   1      34.343  25.777  26.167  1.00  0.00    -0.273 OA
ATOM     12  N   UNL A   1      35.438  24.295  24.944  1.00  0.00    -0.354 N 
ATOM     13  H   UNL A   1      35.761  23.941  25.804  1.00  0.00     0.163 HD
BRANCH  12  14
ATOM     14  C   UNL A   1      36.007  23.663  23.773  1.00  0.00     0.117 C 
BRANCH  14  15
ATOM     15  C   UNL A   1      36.922  22.511  24.153  1.00  0.00     0.042 C 
BRANCH  15  16
ATOM     16  C   UNL A   1      37.093  22.330  25.655  1.00  0.00     0.118 C 
BRANCH  16  17
ATOM     17  N   UNL A   1      38.022  21.261  25.991  1.00  0.00    -0.352 N 
ATOM     18  C   UNL A   1      39.340  21.322  26.365  1.00  0.00     0.251 C 
ATOM     19  H   UNL A   1      37.647  20.352  25.940  1.00  0.00     0.163 HD
ATOM     20  O   UNL A   1      40.012  20.294  26.397  1.00  0.00    -0.269 OA
BRANCH  18  21
ATOM     21  C   UNL A   1      39.956  22.616  26.724  1.00  0.00     0.039 A 
ATOM     22  C   UNL A   1      40.946  22.643  27.708  1.00  0.00     0.014 A 
ATOM     23  C   UNL A   1      39.536  23.805  26.123  1.00  0.00     0.014 A 
ATOM     24  C   UNL A   1      41.537  23.858  28.059  1.00  0.00     0.010 A 
ATOM     25  C   UNL A   1      40.203  24.994  26.390  1.00  0.00     0.010 A 
ATOM     26  C   UNL A   1      41.186  25.040  27.388  1.00  0.00    -0.014 A 
BRANCH  26  27
ATOM     27  C   UNL A   1      41.791  26.342  27.763  1.00  0.00     0.031 A 
ATOM     28  C   UNL A   1      43.184  26.682  27.302  1.00  0.00     0.074 A 
ATOM     29  C   UNL A   1      41.102  27.202  28.534  1.00  0.00     0.049 A 
ATOM     30  N   UNL A   1      43.891  27.762  27.527  1.00  0.00    -0.248 NA
ATOM     31  C   UNL A   1      43.891  25.663  26.509  1.00  0.00     0.031 C 
ATOM     32  C   UNL A   1      39.768  26.963  29.085  1.00  0.00     0.029 A 
ATOM     33  N   UNL A   1      41.428  28.456  28.988  1.00  0.00    -0.354 N 
ATOM     34  C   UNL A   1      45.119  27.543  26.916  1.00  0.00     0.074 A 
ATOM     35  C   UNL A   1      45.093  26.203  26.376  1.00  0.00     0.031 C 
ATOM     36  C   UNL A   1      39.372  28.050  29.768  1.00  0.00     0.029 A 
ATOM     37  C   UNL A   1      40.439  29.045  29.736  1.00  0.00     0.049 A 
ATOM     38  H   UNL A   1      42.289  28.892  28.794  1.00  0.00     0.167 HD
ATOM     39  C   UNL A   1      46.164  28.395  26.784  1.00  0.00     0.037 A 
ATOM     40  C   UNL A   1      40.399  30.254  30.326  1.00  0.00     0.037 A 
ATOM     41  C   UNL A   1      46.176  29.736  27.305  1.00  0.00     0.049 A 
ATOM     42  C   UNL A   1      41.575  31.182  30.169  1.00  0.00     0.074 A 
ATOM     43  C   UNL A   1      47.162  30.699  27.188  1.00  0.00     0.029 A 
ATOM     44  N   UNL A   1      45.149  30.303  28.048  1.00  0.00    -0.354 N 
ATOM     45  N   UNL A   1      42.702  30.992  29.526  1.00  0.00    -0.248 NA
ATOM     46  C   UNL A   1      41.465  32.499  30.809  1.00  0.00     0.031 C 
ATOM     47  C   UNL A   1      46.758  31.828  27.909  1.00  0.00     0.029 A 
ATOM     48  C   UNL A   1      45.488  31.596  28.414  1.00  0.00     0.049 A 
ATOM     49  H   UNL A   1      44.305  29.853  28.280  1.00  0.00     0.167 HD
ATOM     50  C   UNL A   1      43.416  32.177  29.648  1.00  0.00     0.074 A 
ATOM     51  C   UNL A   1      42.587  33.083  30.416  1.00  0.00     0.031 C 
ATOM     52  C   UNL A   1      44.645  32.489  29.166  1.00  0.00     0.037 A 
BRANCH  39  53
ATOM     53  C   UNL A   1      47.376  27.900  26.047  1.00  0.00     0.064 A 
ATOM     54  C   UNL A   1      47.414  27.834  24.645  1.00  0.00     0.173 A 
ATOM     55  C   UNL A   1      48.526  27.509  26.750  1.00  0.00     0.173 A 
ATOM     56  F   UNL A   1      46.338  28.183  23.922  1.00  0.00    -0.203 F 
ATOM     57  C   UNL A   1      48.542  27.362  23.978  1.00  0.00     0.198 A 
ATOM     58  C   UNL A   1      49.666  27.073  26.077  1.00  0.00     0.198 A 
ATOM     59  F   UNL A   1      48.549  27.553  28.090  1.00  0.00    -0.203 F 
ATOM     60  F   UNL A   1      48.530  27.252  22.641  1.00  0.00    -0.200 F 
ATOM     61  C   UNL A   1      49.669  26.991  24.693  1.00  0.00     0.200 A 
ATOM     62  F   UNL A   1      50.760  26.729  26.771  1.00  0.00    -0.200 F 
ATOM     63  F   UNL A   1      50.757  26.544  24.049  1.00  0.00    -0.200 F 
ENDBRANCH  39  53
BRANCH  40  64
ATOM     64  C   UNL A   1      39.192  30.672  31.088  1.00  0.00     0.064 A 
ATOM     65  C   UNL A   1      38.138  31.352  30.459  1.00  0.00     0.173 A 
ATOM     66  C   UNL A   1      39.072  30.418  32.462  1.00  0.00     0.173 A 
ATOM     67  F   UNL A   1      38.212  31.635  29.150  1.00  0.00    -0.203 F 
ATOM     68  C   UNL A   1      37.028  31.787  31.180  1.00  0.00     0.198 A 
ATOM     69  C   UNL A   1      37.946  30.823  33.176  1.00  0.00     0.198 A 
ATOM     70  F   UNL A   1      40.046  29.763  33.112  1.00  0.00    -0.203 F 
ATOM     71  F   UNL A   1      36.064  32.484  30.564  1.00  0.00    -0.200 F 
ATOM     72  C   UNL A   1      36.931  31.518  32.536  1.00  0.00     0.200 A 
ATOM     73  F   UNL A   1      37.848  30.544  34.482  1.00  0.00    -0.200 F 
ATOM     74  F   UNL A   1      35.862  31.936  33.229  1.00  0.00    -0.200 F 
ENDBRANCH  40  64
BRANCH  52  75
ATOM     75  C   UNL A   1      45.141  33.888  29.399  1.00  0.00     0.064 A 
ATOM     76  C   UNL A   1      44.896  34.927  28.488  1.00  0.00     0.173 A 
ATOM     77  C   UNL A   1      45.854  34.197  30.569  1.00  0.00     0.173 A 
ATOM     78  F   UNL A   1      44.229  34.684  27.349  1.00  0.00    -0.203 F 
ATOM     79  C   UNL A   1      45.383  36.211  28.719  1.00  0.00     0.198 A 
ATOM     80  C   UNL A   1      46.304  35.491  30.816  1.00  0.00     0.198 A 
ATOM     81  F   UNL A   1      46.106  33.245  31.479  1.00  0.00    -0.203 F 
ATOM     82  F   UNL A   1      45.196  37.171  27.804  1.00  0.00    -0.200 F 
ATOM     83  C   UNL A   1      46.080  36.493  29.885  1.00  0.00     0.200 A 
ATOM     84  F   UNL A   1      46.959  35.765  31.951  1.00  0.00    -0.200 F 
ATOM     85  F   UNL A   1      46.545  37.730  30.107  1.00  0.00    -0.200 F 
ENDBRANCH  52  75
ENDBRANCH  26  27
ENDBRANCH  18  21
ENDBRANCH  16  17
ENDBRANCH  15  16
ENDBRANCH  14  15
ENDBRANCH  12  14
ENDBRANCH   5  10
ENDBRANCH   1   5
BRANCH   2  86
ATOM     86  C   UNL A   1      31.580  28.206  24.141  1.00  0.00     0.168 C 
ATOM     87  C   UNL A   1      30.559  29.290  23.852  1.00  0.00     0.041 C 
BRANCH  86  88
ATOM     88  N   UNL A   1      31.840  28.222  25.570  1.00  0.00    -0.343 N 
ATOM     89  C   UNL A   1      31.404  27.348  26.514  1.00  0.00     0.243 C 
ATOM     90  H   UNL A   1      32.405  28.959  25.895  1.00  0.00     0.164 HD
ATOM     91  O   UNL A   1      31.570  27.671  27.695  1.00  0.00    -0.273 OA
BRANCH  89  92
ATOM     92  C   UNL A   1      30.907  25.910  26.156  1.00  0.00     0.174 C 
BRANCH  92  93
ATOM     93  N   UNL A   1      31.457  24.803  26.986  1.00  0.00    -0.343 N 
ATOM     94  C   UNL A   1      31.785  23.486  26.875  1.00  0.00     0.240 C 
ATOM     95  H   UNL A   1      31.640  25.121  27.900  1.00  0.00     0.164 HD
ATOM     96  O   UNL A   1      32.070  22.928  27.943  1.00  0.00    -0.273 OA
BRANCH  94  97
ATOM     97  C   UNL A   1      31.830  22.657  25.573  1.00  0.00     0.219 C 
BRANCH  97  98
ATOM     98  N   UNL A   1      33.107  22.044  25.247  1.00  0.00    -0.312 N 
ATOM     99  C   UNL A   1      33.298  20.828  24.662  1.00  0.00     0.407 C 
ATOM    100  H   UNL A   1      33.914  22.561  25.470  1.00  0.00     0.167 HD
ATOM    101  O   UNL A   1      34.410  20.313  24.664  1.00  0.00    -0.225 OA
BRANCH  99 102
ATOM    102  O   UNL A   1      32.157  20.283  24.175  1.00  0.00    -0.445 OA
BRANCH 102 103
ATOM    103  C   UNL A   1      32.287  19.195  23.238  1.00  0.00     0.270 C 
BRANCH 103 104
ATOM    104  C   UNL A   1      32.786  17.923  23.858  1.00  0.00    -0.011 A 
ATOM    105  C   UNL A   1      32.250  17.486  25.077  1.00  0.00     0.007 A 
ATOM    106  C   UNL A   1      33.839  17.212  23.270  1.00  0.00     0.007 A 
ATOM    107  C   UNL A   1      32.816  16.400  25.740  1.00  0.00     0.000 A 
ATOM    108  C   UNL A   1      34.407  16.132  23.938  1.00  0.00     0.000 A 
ATOM    109  C   UNL A   1      33.906  15.737  25.179  1.00  0.00     0.000 A 
ENDBRANCH 103 104
ENDBRANCH 102 103
ENDBRANCH  99 102
ENDBRANCH  97  98
ENDBRANCH  94  97
ENDBRANCH  92  93
BRANCH  92 110
ATOM    110  C   UNL A   1      29.389  25.872  25.949  1.00  0.00     0.015 C 
ATOM    111  C   UNL A   1      28.920  25.942  24.492  1.00  0.00     0.010 C 
ATOM    112  C   UNL A   1      28.770  24.651  26.633  1.00  0.00     0.010 C 
ENDBRANCH  92 110
ENDBRANCH  89  92
ENDBRANCH  86  88
ENDBRANCH   2  86
TORSDOF 23
ENDMDL
