MODEL 1
REMARK VINA RESULT:     -11.6      0.000      0.000
REMARK SMILES CCOc1cccc(-c2ccc([C@@H](C)C(=O)NCCCNC(=O)c3ccc(-c4c5nc(c(-c6c(F)c(F)c(F)c(F)c6F)c6ccc([nH]6)c(-c6c(F)c(F)c(F)c(F)c6F)c6nc(c(-c7c(F)c(F)c(F)c(F)c7F)c7ccc4[nH]7)C=C6)C=C5)cc3)cc2F)c1
REMARK SMILES IDX 18 1 17 2 15 3 16 4 13 6 14 7 12 8 9 9 10 10 88 11 11 12
REMARK SMILES IDX 87 13 89 14 8 15 4 16 5 17 90 18 6 19 7 20 3 21 2 22 1 23
REMARK SMILES IDX 19 24 20 25 21 26 22 27 23 29 24 30 25 31 86 32 26 33 85 34
REMARK SMILES IDX 27 35 28 36 29 37 79 38 30 39 84 40 78 41 80 42 31 43 83 44
REMARK SMILES IDX 77 45 76 46 32 48 64 49 44 50 63 51 45 52 48 53 62 54 81 55
REMARK SMILES IDX 46 56 47 57 61 59 82 60 49 61 33 62 34 63 42 64 35 65 36 66
REMARK SMILES IDX 40 67 43 68 37 69 38 70 41 71 39 72 65 73 66 74 74 75 67 76
REMARK SMILES IDX 68 77 72 78 75 79 69 80 70 81 73 82 71 83 50 84 51 85 59 86
REMARK SMILES IDX 52 87 53 88 57 89 60 90 54 91 55 92 58 93 56 94
REMARK H PARENT 17 5 21 28 80 47 48 58
REMARK Flexibility Score: inf
ROOT
ATOM      1  C   UNL A   1      33.020  27.602  23.147  1.00  0.00     0.117 C 
ENDROOT
BRANCH   1   2
ATOM      2  N   UNL A   1      32.034  27.031  24.043  1.00  0.00    -0.356 N 
ATOM      3  C   UNL A   1      31.599  25.755  24.221  1.00  0.00     0.227 C 
ATOM      4  O   UNL A   1      30.661  25.606  25.015  1.00  0.00    -0.274 OA
ATOM      5  H   UNL A   1      31.598  27.689  24.630  1.00  0.00     0.163 HD
BRANCH   3   6
ATOM      6  C   UNL A   1      32.193  24.533  23.501  1.00  0.00     0.105 C 
ATOM      7  C   UNL A   1      31.181  23.453  23.125  1.00  0.00     0.023 C 
BRANCH   6   8
ATOM      8  C   UNL A   1      33.487  24.038  24.127  1.00  0.00    -0.033 A 
ATOM      9  C   UNL A   1      36.047  23.314  25.201  1.00  0.00     0.018 A 
ATOM     10  C   UNL A   1      34.964  23.652  26.030  1.00  0.00     0.012 A 
ATOM     11  C   UNL A   1      35.780  23.283  23.821  1.00  0.00     0.131 A 
ATOM     12  C   UNL A   1      33.702  23.976  25.505  1.00  0.00     0.005 A 
ATOM     13  C   UNL A   1      34.544  23.659  23.292  1.00  0.00     0.044 A 
ATOM     14  F   UNL A   1      36.721  22.896  22.946  1.00  0.00    -0.206 F 
BRANCH   9  15
ATOM     15  C   UNL A   1      37.401  23.067  25.761  1.00  0.00    -0.012 A 
ATOM     16  C   UNL A   1      39.299  21.560  26.128  1.00  0.00     0.119 A 
ATOM     17  C   UNL A   1      40.015  22.571  26.752  1.00  0.00     0.046 A 
ATOM     18  C   UNL A   1      38.008  21.802  25.655  1.00  0.00     0.055 A 
ATOM     19  C   UNL A   1      39.445  23.835  26.877  1.00  0.00     0.004 A 
ATOM     20  C   UNL A   1      38.154  24.078  26.389  1.00  0.00     0.009 A 
BRANCH  16  21
ATOM     21  O   UNL A   1      39.833  20.302  26.098  1.00  0.00    -0.494 OA
BRANCH  21  22
ATOM     22  C   UNL A   1      41.049  20.183  26.848  1.00  0.00     0.226 C 
ATOM     23  C   UNL A   1      42.182  19.609  26.010  1.00  0.00     0.049 C 
ENDBRANCH  21  22
ENDBRANCH  16  21
ENDBRANCH   9  15
ENDBRANCH   6   8
ENDBRANCH   3   6
ENDBRANCH   1   2
BRANCH   1  24
ATOM     24  C   UNL A   1      33.643  28.876  23.712  1.00  0.00     0.042 C 
BRANCH  24  25
ATOM     25  C   UNL A   1      33.710  28.911  25.233  1.00  0.00     0.118 C 
BRANCH  25  26
ATOM     26  N   UNL A   1      33.233  30.174  25.775  1.00  0.00    -0.352 N 
ATOM     27  C   UNL A   1      33.633  30.888  26.877  1.00  0.00     0.251 C 
ATOM     28  H   UNL A   1      32.500  30.588  25.265  1.00  0.00     0.163 HD
ATOM     29  O   UNL A   1      32.937  31.825  27.262  1.00  0.00    -0.269 OA
BRANCH  27  30
ATOM     30  C   UNL A   1      34.875  30.555  27.614  1.00  0.00     0.039 A 
ATOM     31  C   UNL A   1      34.933  29.339  28.306  1.00  0.00     0.014 A 
ATOM     32  C   UNL A   1      35.946  31.448  27.704  1.00  0.00     0.014 A 
ATOM     33  C   UNL A   1      36.069  29.007  29.052  1.00  0.00     0.010 A 
ATOM     34  C   UNL A   1      37.110  31.083  28.377  1.00  0.00     0.010 A 
ATOM     35  C   UNL A   1      37.177  29.868  29.077  1.00  0.00    -0.014 A 
BRANCH  35  36
ATOM     36  C   UNL A   1      38.392  29.536  29.864  1.00  0.00     0.031 A 
ATOM     37  C   UNL A   1      38.586  30.122  31.237  1.00  0.00     0.074 A 
ATOM     38  C   UNL A   1      39.345  28.748  29.327  1.00  0.00     0.049 A 
ATOM     39  N   UNL A   1      39.604  30.008  32.053  1.00  0.00    -0.248 NA
ATOM     40  C   UNL A   1      37.501  30.973  31.750  1.00  0.00     0.031 C 
ATOM     41  C   UNL A   1      39.297  28.157  27.990  1.00  0.00     0.029 A 
ATOM     42  N   UNL A   1      40.542  28.319  29.840  1.00  0.00    -0.354 N 
ATOM     43  C   UNL A   1      39.291  30.786  33.160  1.00  0.00     0.074 A 
ATOM     44  C   UNL A   1      38.014  31.409  32.891  1.00  0.00     0.031 C 
ATOM     45  C   UNL A   1      40.405  27.424  27.795  1.00  0.00     0.029 A 
ATOM     46  C   UNL A   1      41.254  27.520  28.978  1.00  0.00     0.049 A 
ATOM     47  H   UNL A   1      40.863  28.560  30.739  1.00  0.00     0.167 HD
ATOM     48  C   UNL A   1      39.993  30.948  34.308  1.00  0.00     0.037 A 
ATOM     49  C   UNL A   1      42.457  26.933  29.127  1.00  0.00     0.037 A 
ATOM     50  C   UNL A   1      41.248  30.301  34.587  1.00  0.00     0.049 A 
ATOM     51  C   UNL A   1      43.206  27.109  30.421  1.00  0.00     0.074 A 
ATOM     52  C   UNL A   1      42.015  30.362  35.737  1.00  0.00     0.029 A 
ATOM     53  N   UNL A   1      41.916  29.466  33.705  1.00  0.00    -0.354 N 
ATOM     54  N   UNL A   1      42.874  27.804  31.481  1.00  0.00    -0.248 NA
ATOM     55  C   UNL A   1      44.490  26.405  30.541  1.00  0.00     0.031 C 
ATOM     56  C   UNL A   1      43.164  29.590  35.538  1.00  0.00     0.029 A 
ATOM     57  C   UNL A   1      43.091  29.011  34.282  1.00  0.00     0.049 A 
ATOM     58  H   UNL A   1      41.602  29.230  32.801  1.00  0.00     0.167 HD
ATOM     59  C   UNL A   1      43.890  27.600  32.404  1.00  0.00     0.074 A 
ATOM     60  C   UNL A   1      44.844  26.704  31.784  1.00  0.00     0.031 C 
ATOM     61  C   UNL A   1      44.022  28.108  33.654  1.00  0.00     0.037 A 
BRANCH  48  62
ATOM     62  C   UNL A   1      39.413  31.859  35.351  1.00  0.00     0.064 A 
ATOM     63  C   UNL A   1      39.722  33.229  35.383  1.00  0.00     0.173 A 
ATOM     64  C   UNL A   1      38.516  31.368  36.311  1.00  0.00     0.173 A 
ATOM     65  F   UNL A   1      40.584  33.747  34.494  1.00  0.00    -0.203 F 
ATOM     66  C   UNL A   1      39.182  34.064  36.357  1.00  0.00     0.198 A 
ATOM     67  C   UNL A   1      37.954  32.213  37.265  1.00  0.00     0.198 A 
ATOM     68  F   UNL A   1      38.182  30.069  36.322  1.00  0.00    -0.203 F 
ATOM     69  F   UNL A   1      39.533  35.356  36.399  1.00  0.00    -0.200 F 
ATOM     70  C   UNL A   1      38.292  33.556  37.292  1.00  0.00     0.200 A 
ATOM     71  F   UNL A   1      37.085  31.723  38.161  1.00  0.00    -0.200 F 
ATOM     72  F   UNL A   1      37.769  34.363  38.227  1.00  0.00    -0.200 F 
ENDBRANCH  48  62
BRANCH  49  73
ATOM     73  C   UNL A   1      43.011  26.093  28.035  1.00  0.00     0.064 A 
ATOM     74  C   UNL A   1      43.697  26.673  26.959  1.00  0.00     0.173 A 
ATOM     75  C   UNL A   1      42.869  24.698  28.043  1.00  0.00     0.173 A 
ATOM     76  F   UNL A   1      43.841  28.005  26.898  1.00  0.00    -0.203 F 
ATOM     77  C   UNL A   1      44.204  25.892  25.922  1.00  0.00     0.198 A 
ATOM     78  C   UNL A   1      43.400  23.916  27.020  1.00  0.00     0.198 A 
ATOM     79  F   UNL A   1      42.227  24.093  29.053  1.00  0.00    -0.203 F 
ATOM     80  F   UNL A   1      44.818  26.478  24.885  1.00  0.00    -0.200 F 
ATOM     81  C   UNL A   1      44.060  24.514  25.956  1.00  0.00     0.200 A 
ATOM     82  F   UNL A   1      43.273  22.582  27.063  1.00  0.00    -0.200 F 
ATOM     83  F   UNL A   1      44.551  23.763  24.962  1.00  0.00    -0.200 F 
ENDBRANCH  49  73
BRANCH  61  84
ATOM     84  C   UNL A   1      45.217  27.673  34.450  1.00  0.00     0.064 A 
ATOM     85  C   UNL A   1      46.421  28.392  34.424  1.00  0.00     0.173 A 
ATOM     86  C   UNL A   1      45.145  26.538  35.271  1.00  0.00     0.173 A 
ATOM     87  F   UNL A   1      46.544  29.475  33.642  1.00  0.00    -0.203 F 
ATOM     88  C   UNL A   1      47.519  27.974  35.171  1.00  0.00     0.198 A 
ATOM     89  C   UNL A   1      46.235  26.139  36.039  1.00  0.00     0.198 A 
ATOM     90  F   UNL A   1      44.014  25.820  35.336  1.00  0.00    -0.203 F 
ATOM     91  F   UNL A   1      48.675  28.647  35.094  1.00  0.00    -0.200 F 
ATOM     92  C   UNL A   1      47.423  26.852  35.982  1.00  0.00     0.200 A 
ATOM     93  F   UNL A   1      46.138  25.062  36.831  1.00  0.00    -0.200 F 
ATOM     94  F   UNL A   1      48.480  26.454  36.704  1.00  0.00    -0.200 F 
ENDBRANCH  61  84
ENDBRANCH  35  36
ENDBRANCH  27  30
ENDBRANCH  25  26
ENDBRANCH  24  25
ENDBRANCH   1  24
TORSDOF 14
ENDMDL
MODEL 2
REMARK VINA RESULT:     -11.6      0.626      2.115
REMARK SMILES CCOc1cccc(-c2ccc([C@@H](C)C(=O)NCCCNC(=O)c3ccc(-c4c5nc(c(-c6c(F)c(F)c(F)c(F)c6F)c6ccc([nH]6)c(-c6c(F)c(F)c(F)c(F)c6F)c6nc(c(-c7c(F)c(F)c(F)c(F)c7F)c7ccc4[nH]7)C=C6)C=C5)cc3)cc2F)c1
REMARK SMILES IDX 18 1 17 2 15 3 16 4 13 6 14 7 12 8 9 9 10 10 88 11 11 12
REMARK SMILES IDX 87 13 89 14 8 15 4 16 5 17 90 18 6 19 7 20 3 21 2 22 1 23
REMARK SMILES IDX 19 24 20 25 21 26 22 27 23 29 24 30 25 31 86 32 26 33 85 34
REMARK SMILES IDX 27 35 28 36 29 37 79 38 30 39 84 40 78 41 80 42 31 43 83 44
REMARK SMILES IDX 77 45 76 46 32 48 64 49 44 50 63 51 45 52 48 53 62 54 81 55
REMARK SMILES IDX 46 56 47 57 61 59 82 60 49 61 33 62 34 63 42 64 35 65 36 66
REMARK SMILES IDX 40 67 43 68 37 69 38 70 41 71 39 72 65 73 66 74 74 75 67 76
REMARK SMILES IDX 68 77 72 78 75 79 69 80 70 81 73 82 71 83 50 84 51 85 59 86
REMARK SMILES IDX 52 87 53 88 57 89 60 90 54 91 55 92 58 93 56 94
REMARK H PARENT 17 5 21 28 80 47 48 58
REMARK Flexibility Score: inf
ROOT
ATOM      1  C   UNL A   1      31.932  27.118  24.958  1.00  0.00     0.117 C 
ENDROOT
BRANCH   1   2
ATOM      2  N   UNL A   1      32.197  26.994  23.539  1.00  0.00    -0.356 N 
ATOM      3  C   UNL A   1      32.431  25.912  22.749  1.00  0.00     0.227 C 
ATOM      4  O   UNL A   1      32.721  26.153  21.570  1.00  0.00    -0.274 OA
ATOM      5  H   UNL A   1      32.212  27.853  23.058  1.00  0.00     0.163 HD
BRANCH   3   6
ATOM      6  C   UNL A   1      32.361  24.456  23.237  1.00  0.00     0.105 C 
ATOM      7  C   UNL A   1      31.053  24.072  23.925  1.00  0.00     0.023 C 
BRANCH   6   8
ATOM      8  C   UNL A   1      33.634  23.992  23.927  1.00  0.00    -0.033 A 
ATOM      9  C   UNL A   1      36.154  23.328  25.127  1.00  0.00     0.018 A 
ATOM     10  C   UNL A   1      35.023  23.640  25.901  1.00  0.00     0.012 A 
ATOM     11  C   UNL A   1      35.956  23.292  23.736  1.00  0.00     0.131 A 
ATOM     12  C   UNL A   1      33.782  23.934  25.314  1.00  0.00     0.005 A 
ATOM     13  C   UNL A   1      34.740  23.639  23.146  1.00  0.00     0.044 A 
ATOM     14  F   UNL A   1      36.948  22.927  22.909  1.00  0.00    -0.206 F 
BRANCH   9  15
ATOM     15  C   UNL A   1      37.484  23.113  25.754  1.00  0.00    -0.012 A 
ATOM     16  C   UNL A   1      39.423  21.673  26.166  1.00  0.00     0.119 A 
ATOM     17  C   UNL A   1      40.057  22.683  26.874  1.00  0.00     0.046 A 
ATOM     18  C   UNL A   1      38.151  21.881  25.630  1.00  0.00     0.055 A 
ATOM     19  C   UNL A   1      39.425  23.915  27.019  1.00  0.00     0.004 A 
ATOM     20  C   UNL A   1      38.154  24.126  26.467  1.00  0.00     0.009 A 
BRANCH  16  21
ATOM     21  O   UNL A   1      40.013  20.440  26.114  1.00  0.00    -0.494 OA
BRANCH  21  22
ATOM     22  C   UNL A   1      41.311  20.406  26.722  1.00  0.00     0.226 C 
ATOM     23  C   UNL A   1      42.172  19.282  26.166  1.00  0.00     0.049 C 
ENDBRANCH  21  22
ENDBRANCH  16  21
ENDBRANCH   9  15
ENDBRANCH   6   8
ENDBRANCH   3   6
ENDBRANCH   1   2
BRANCH   1  24
ATOM     24  C   UNL A   1      33.153  27.608  25.733  1.00  0.00     0.042 C 
BRANCH  24  25
ATOM     25  C   UNL A   1      33.799  28.855  25.145  1.00  0.00     0.118 C 
BRANCH  25  26
ATOM     26  N   UNL A   1      33.231  30.078  25.691  1.00  0.00    -0.352 N 
ATOM     27  C   UNL A   1      33.533  30.779  26.832  1.00  0.00     0.251 C 
ATOM     28  H   UNL A   1      32.508  30.470  25.151  1.00  0.00     0.163 HD
ATOM     29  O   UNL A   1      32.771  31.669  27.201  1.00  0.00    -0.269 OA
BRANCH  27  30
ATOM     30  C   UNL A   1      34.746  30.484  27.630  1.00  0.00     0.039 A 
ATOM     31  C   UNL A   1      35.789  31.419  27.629  1.00  0.00     0.014 A 
ATOM     32  C   UNL A   1      34.911  29.274  28.310  1.00  0.00     0.014 A 
ATOM     33  C   UNL A   1      36.969  31.159  28.331  1.00  0.00     0.010 A 
ATOM     34  C   UNL A   1      36.052  29.050  29.078  1.00  0.00     0.010 A 
ATOM     35  C   UNL A   1      37.103  29.979  29.080  1.00  0.00    -0.014 A 
BRANCH  35  36
ATOM     36  C   UNL A   1      38.349  29.682  29.831  1.00  0.00     0.031 A 
ATOM     37  C   UNL A   1      38.549  30.242  31.214  1.00  0.00     0.074 A 
ATOM     38  C   UNL A   1      39.323  28.951  29.254  1.00  0.00     0.049 A 
ATOM     39  N   UNL A   1      39.589  30.153  32.004  1.00  0.00    -0.248 NA
ATOM     40  C   UNL A   1      37.440  31.032  31.772  1.00  0.00     0.031 C 
ATOM     41  C   UNL A   1      39.271  28.390  27.904  1.00  0.00     0.029 A 
ATOM     42  N   UNL A   1      40.550  28.563  29.729  1.00  0.00    -0.354 N 
ATOM     43  C   UNL A   1      39.268  30.890  33.137  1.00  0.00     0.074 A 
ATOM     44  C   UNL A   1      37.959  31.462  32.913  1.00  0.00     0.031 C 
ATOM     45  C   UNL A   1      40.405  27.712  27.666  1.00  0.00     0.029 A 
ATOM     46  C   UNL A   1      41.276  27.817  28.833  1.00  0.00     0.049 A 
ATOM     47  H   UNL A   1      40.880  28.796  30.628  1.00  0.00     0.167 HD
ATOM     48  C   UNL A   1      39.988  31.055  34.274  1.00  0.00     0.037 A 
ATOM     49  C   UNL A   1      42.506  27.281  28.940  1.00  0.00     0.037 A 
ATOM     50  C   UNL A   1      41.276  30.457  34.509  1.00  0.00     0.049 A 
ATOM     51  C   UNL A   1      43.276  27.458  30.221  1.00  0.00     0.074 A 
ATOM     52  C   UNL A   1      42.066  30.524  35.643  1.00  0.00     0.029 A 
ATOM     53  N   UNL A   1      41.960  29.674  33.591  1.00  0.00    -0.354 N 
ATOM     54  N   UNL A   1      42.939  28.112  31.306  1.00  0.00    -0.248 NA
ATOM     55  C   UNL A   1      44.593  26.809  30.296  1.00  0.00     0.031 C 
ATOM     56  C   UNL A   1      43.243  29.808  35.400  1.00  0.00     0.029 A 
ATOM     57  C   UNL A   1      43.167  29.258  34.131  1.00  0.00     0.049 A 
ATOM     58  H   UNL A   1      41.636  29.447  32.690  1.00  0.00     0.167 HD
ATOM     59  C   UNL A   1      43.984  27.930  32.202  1.00  0.00     0.074 A 
ATOM     60  C   UNL A   1      44.961  27.093  31.538  1.00  0.00     0.031 C 
ATOM     61  C   UNL A   1      44.121  28.413  33.461  1.00  0.00     0.037 A 
BRANCH  48  62
ATOM     62  C   UNL A   1      39.393  31.914  35.352  1.00  0.00     0.064 A 
ATOM     63  C   UNL A   1      38.535  31.380  36.326  1.00  0.00     0.173 A 
ATOM     64  C   UNL A   1      39.705  33.279  35.432  1.00  0.00     0.173 A 
ATOM     65  F   UNL A   1      38.194  30.082  36.288  1.00  0.00    -0.203 F 
ATOM     66  C   UNL A   1      37.985  32.186  37.320  1.00  0.00     0.198 A 
ATOM     67  C   UNL A   1      39.179  34.076  36.445  1.00  0.00     0.198 A 
ATOM     68  F   UNL A   1      40.525  33.840  34.530  1.00  0.00    -0.203 F 
ATOM     69  F   UNL A   1      37.128  31.664  38.206  1.00  0.00    -0.200 F 
ATOM     70  C   UNL A   1      38.314  33.532  37.382  1.00  0.00     0.200 A 
ATOM     71  F   UNL A   1      39.506  35.375  36.512  1.00  0.00    -0.200 F 
ATOM     72  F   UNL A   1      37.788  34.307  38.341  1.00  0.00    -0.200 F 
ENDBRANCH  48  62
BRANCH  49  73
ATOM     73  C   UNL A   1      43.071  26.493  27.815  1.00  0.00     0.064 A 
ATOM     74  C   UNL A   1      42.917  25.100  27.765  1.00  0.00     0.173 A 
ATOM     75  C   UNL A   1      43.772  27.110  26.770  1.00  0.00     0.173 A 
ATOM     76  F   UNL A   1      42.270  24.462  28.752  1.00  0.00    -0.203 F 
ATOM     77  C   UNL A   1      43.460  24.352  26.722  1.00  0.00     0.198 A 
ATOM     78  C   UNL A   1      44.291  26.365  25.713  1.00  0.00     0.198 A 
ATOM     79  F   UNL A   1      43.942  28.441  26.768  1.00  0.00    -0.203 F 
ATOM     80  F   UNL A   1      43.334  23.019  26.721  1.00  0.00    -0.200 F 
ATOM     81  C   UNL A   1      44.141  24.986  25.694  1.00  0.00     0.200 A 
ATOM     82  F   UNL A   1      44.936  26.981  24.713  1.00  0.00    -0.200 F 
ATOM     83  F   UNL A   1      44.659  24.267  24.689  1.00  0.00    -0.200 F 
ENDBRANCH  49  73
BRANCH  61  84
ATOM     84  C   UNL A   1      45.352  28.012  34.219  1.00  0.00     0.064 A 
ATOM     85  C   UNL A   1      45.373  26.879  35.046  1.00  0.00     0.173 A 
ATOM     86  C   UNL A   1      46.536  28.755  34.091  1.00  0.00     0.173 A 
ATOM     87  F   UNL A   1      44.262  26.146  35.213  1.00  0.00    -0.203 F 
ATOM     88  C   UNL A   1      46.526  26.522  35.739  1.00  0.00     0.198 A 
ATOM     89  C   UNL A   1      47.695  28.379  34.763  1.00  0.00     0.198 A 
ATOM     90  F   UNL A   1      46.570  29.843  33.306  1.00  0.00    -0.203 F 
ATOM     91  F   UNL A   1      46.509  25.465  36.562  1.00  0.00    -0.200 F 
ATOM     92  C   UNL A   1      47.687  27.267  35.592  1.00  0.00     0.200 A 
ATOM     93  F   UNL A   1      48.819  29.092  34.611  1.00  0.00    -0.200 F 
ATOM     94  F   UNL A   1      48.797  26.919  36.258  1.00  0.00    -0.200 F 
ENDBRANCH  61  84
ENDBRANCH  35  36
ENDBRANCH  27  30
ENDBRANCH  25  26
ENDBRANCH  24  25
ENDBRANCH   1  24
TORSDOF 14
ENDMDL
MODEL 3
REMARK VINA RESULT:     -11.6      3.416      6.736
REMARK SMILES CCOc1cccc(-c2ccc([C@@H](C)C(=O)NCCCNC(=O)c3ccc(-c4c5nc(c(-c6c(F)c(F)c(F)c(F)c6F)c6ccc([nH]6)c(-c6c(F)c(F)c(F)c(F)c6F)c6nc(c(-c7c(F)c(F)c(F)c(F)c7F)c7ccc4[nH]7)C=C6)C=C5)cc3)cc2F)c1
REMARK SMILES IDX 18 1 17 2 15 3 16 4 13 6 14 7 12 8 9 9 10 10 88 11 11 12
REMARK SMILES IDX 87 13 89 14 8 15 4 16 5 17 90 18 6 19 7 20 3 21 2 22 1 23
REMARK SMILES IDX 19 24 20 25 21 26 22 27 23 29 24 30 25 31 86 32 26 33 85 34
REMARK SMILES IDX 27 35 28 36 29 37 79 38 30 39 84 40 78 41 80 42 31 43 83 44
REMARK SMILES IDX 77 45 76 46 32 48 64 49 44 50 63 51 45 52 48 53 62 54 81 55
REMARK SMILES IDX 46 56 47 57 61 59 82 60 49 61 33 62 34 63 42 64 35 65 36 66
REMARK SMILES IDX 40 67 43 68 37 69 38 70 41 71 39 72 65 73 66 74 74 75 67 76
REMARK SMILES IDX 68 77 72 78 75 79 69 80 70 81 73 82 71 83 50 84 51 85 59 86
REMARK SMILES IDX 52 87 53 88 57 89 60 90 54 91 55 92 58 93 56 94
REMARK H PARENT 17 5 21 28 80 47 48 58
REMARK Flexibility Score: inf
ROOT
ATOM      1  C   UNL A   1      33.941  35.347  29.062  1.00  0.00     0.117 C 
ENDROOT
BRANCH   1   2
ATOM      2  N   UNL A   1      33.917  35.482  30.504  1.00  0.00    -0.356 N 
ATOM      3  C   UNL A   1      34.417  34.700  31.498  1.00  0.00     0.227 C 
ATOM      4  O   UNL A   1      34.143  35.049  32.653  1.00  0.00    -0.274 OA
ATOM      5  H   UNL A   1      33.453  36.288  30.823  1.00  0.00     0.163 HD
BRANCH   3   6
ATOM      6  C   UNL A   1      35.271  33.444  31.261  1.00  0.00     0.105 C 
ATOM      7  C   UNL A   1      35.125  32.357  32.324  1.00  0.00     0.023 C 
BRANCH   6   8
ATOM      8  C   UNL A   1      36.693  33.758  30.825  1.00  0.00    -0.033 A 
ATOM      9  C   UNL A   1      39.457  34.161  30.168  1.00  0.00     0.018 A 
ATOM     10  C   UNL A   1      38.526  33.712  29.216  1.00  0.00     0.012 A 
ATOM     11  C   UNL A   1      38.938  34.468  31.437  1.00  0.00     0.131 A 
ATOM     12  C   UNL A   1      37.167  33.545  29.529  1.00  0.00     0.005 A 
ATOM     13  C   UNL A   1      37.600  34.249  31.771  1.00  0.00     0.044 A 
ATOM     14  F   UNL A   1      39.725  34.980  32.397  1.00  0.00    -0.206 F 
BRANCH   9  15
ATOM     15  C   UNL A   1      40.906  34.243  29.852  1.00  0.00    -0.012 A 
ATOM     16  C   UNL A   1      43.158  33.283  29.973  1.00  0.00     0.119 A 
ATOM     17  C   UNL A   1      43.671  34.323  29.211  1.00  0.00     0.046 A 
ATOM     18  C   UNL A   1      41.801  33.254  30.300  1.00  0.00     0.055 A 
ATOM     19  C   UNL A   1      42.815  35.321  28.753  1.00  0.00     0.004 A 
ATOM     20  C   UNL A   1      41.451  35.281  29.072  1.00  0.00     0.009 A 
BRANCH  16  21
ATOM     21  O   UNL A   1      44.025  32.364  30.495  1.00  0.00    -0.494 OA
BRANCH  21  22
ATOM     22  C   UNL A   1      43.854  31.049  29.949  1.00  0.00     0.226 C 
ATOM     23  C   UNL A   1      45.063  30.163  30.207  1.00  0.00     0.049 C 
ENDBRANCH  21  22
ENDBRANCH  16  21
ENDBRANCH   9  15
ENDBRANCH   6   8
ENDBRANCH   3   6
ENDBRANCH   1   2
BRANCH   1  24
ATOM     24  C   UNL A   1      33.327  34.029  28.595  1.00  0.00     0.042 C 
BRANCH  24  25
ATOM     25  C   UNL A   1      34.334  33.056  27.996  1.00  0.00     0.118 C 
BRANCH  25  26
ATOM     26  N   UNL A   1      33.710  31.812  27.572  1.00  0.00    -0.352 N 
ATOM     27  C   UNL A   1      34.201  30.531  27.518  1.00  0.00     0.251 C 
ATOM     28  H   UNL A   1      32.777  31.904  27.273  1.00  0.00     0.163 HD
ATOM     29  O   UNL A   1      33.558  29.673  26.920  1.00  0.00    -0.269 OA
BRANCH  27  30
ATOM     30  C   UNL A   1      35.487  30.162  28.157  1.00  0.00     0.039 A 
ATOM     31  C   UNL A   1      36.652  30.203  27.382  1.00  0.00     0.014 A 
ATOM     32  C   UNL A   1      35.554  29.699  29.474  1.00  0.00     0.014 A 
ATOM     33  C   UNL A   1      37.878  29.818  27.934  1.00  0.00     0.010 A 
ATOM     34  C   UNL A   1      36.786  29.395  30.050  1.00  0.00     0.010 A 
ATOM     35  C   UNL A   1      37.959  29.430  29.280  1.00  0.00    -0.014 A 
BRANCH  35  36
ATOM     36  C   UNL A   1      39.250  29.015  29.885  1.00  0.00     0.031 A 
ATOM     37  C   UNL A   1      39.783  29.735  31.095  1.00  0.00     0.074 A 
ATOM     38  C   UNL A   1      39.969  28.025  29.320  1.00  0.00     0.049 A 
ATOM     39  N   UNL A   1      40.917  29.569  31.728  1.00  0.00    -0.248 NA
ATOM     40  C   UNL A   1      38.940  30.806  31.650  1.00  0.00     0.031 C 
ATOM     41  C   UNL A   1      39.585  27.281  28.121  1.00  0.00     0.029 A 
ATOM     42  N   UNL A   1      41.178  27.483  29.677  1.00  0.00    -0.354 N 
ATOM     43  C   UNL A   1      40.931  30.523  32.738  1.00  0.00     0.074 A 
ATOM     44  C   UNL A   1      39.718  31.299  32.602  1.00  0.00     0.031 C 
ATOM     45  C   UNL A   1      40.528  26.364  27.852  1.00  0.00     0.029 A 
ATOM     46  C   UNL A   1      41.598  26.478  28.840  1.00  0.00     0.049 A 
ATOM     47  H   UNL A   1      41.696  27.784  30.458  1.00  0.00     0.167 HD
ATOM     48  C   UNL A   1      41.858  30.719  33.706  1.00  0.00     0.037 A 
ATOM     49  C   UNL A   1      42.719  25.733  28.866  1.00  0.00     0.037 A 
ATOM     50  C   UNL A   1      43.048  29.925  33.860  1.00  0.00     0.049 A 
ATOM     51  C   UNL A   1      43.723  25.954  29.966  1.00  0.00     0.074 A 
ATOM     52  C   UNL A   1      44.026  30.012  34.835  1.00  0.00     0.029 A 
ATOM     53  N   UNL A   1      43.417  28.888  33.016  1.00  0.00    -0.354 N 
ATOM     54  N   UNL A   1      43.698  26.824  30.946  1.00  0.00    -0.248 NA
ATOM     55  C   UNL A   1      44.903  25.079  29.969  1.00  0.00     0.031 C 
ATOM     56  C   UNL A   1      45.004  29.050  34.562  1.00  0.00     0.029 A 
ATOM     57  C   UNL A   1      44.613  28.333  33.443  1.00  0.00     0.049 A 
ATOM     58  H   UNL A   1      42.905  28.590  32.229  1.00  0.00     0.167 HD
ATOM     59  C   UNL A   1      44.839  26.583  31.699  1.00  0.00     0.074 A 
ATOM     60  C   UNL A   1      45.529  25.477  31.069  1.00  0.00     0.031 C 
ATOM     61  C   UNL A   1      45.277  27.222  32.812  1.00  0.00     0.037 A 
BRANCH  48  62
ATOM     62  C   UNL A   1      41.617  31.837  34.679  1.00  0.00     0.064 A 
ATOM     63  C   UNL A   1      40.822  31.657  35.822  1.00  0.00     0.173 A 
ATOM     64  C   UNL A   1      42.208  33.094  34.485  1.00  0.00     0.173 A 
ATOM     65  F   UNL A   1      40.222  30.477  36.049  1.00  0.00    -0.203 F 
ATOM     66  C   UNL A   1      40.601  32.702  36.716  1.00  0.00     0.198 A 
ATOM     67  C   UNL A   1      42.011  34.128  35.397  1.00  0.00     0.198 A 
ATOM     68  F   UNL A   1      42.982  33.319  33.413  1.00  0.00    -0.203 F 
ATOM     69  F   UNL A   1      39.796  32.520  37.771  1.00  0.00    -0.200 F 
ATOM     70  C   UNL A   1      41.202  33.934  36.506  1.00  0.00     0.200 A 
ATOM     71  F   UNL A   1      42.602  35.315  35.200  1.00  0.00    -0.200 F 
ATOM     72  F   UNL A   1      40.993  34.938  37.370  1.00  0.00    -0.200 F 
ENDBRANCH  48  62
BRANCH  49  73
ATOM     73  C   UNL A   1      42.935  24.682  27.839  1.00  0.00     0.064 A 
ATOM     74  C   UNL A   1      42.561  23.354  28.081  1.00  0.00     0.173 A 
ATOM     75  C   UNL A   1      43.515  24.982  26.598  1.00  0.00     0.173 A 
ATOM     76  F   UNL A   1      42.020  23.015  29.261  1.00  0.00    -0.203 F 
ATOM     77  C   UNL A   1      42.777  22.359  27.129  1.00  0.00     0.198 A 
ATOM     78  C   UNL A   1      43.705  23.992  25.636  1.00  0.00     0.198 A 
ATOM     79  F   UNL A   1      43.884  26.240  26.314  1.00  0.00    -0.203 F 
ATOM     80  F   UNL A   1      42.449  21.090  27.404  1.00  0.00    -0.200 F 
ATOM     81  C   UNL A   1      43.343  22.680  25.905  1.00  0.00     0.200 A 
ATOM     82  F   UNL A   1      44.238  24.309  24.448  1.00  0.00    -0.200 F 
ATOM     83  F   UNL A   1      43.546  21.725  24.988  1.00  0.00    -0.200 F 
ENDBRANCH  49  73
BRANCH  61  84
ATOM     84  C   UNL A   1      46.538  26.711  33.445  1.00  0.00     0.064 A 
ATOM     85  C   UNL A   1      46.518  25.690  34.406  1.00  0.00     0.173 A 
ATOM     86  C   UNL A   1      47.783  27.230  33.060  1.00  0.00     0.173 A 
ATOM     87  F   UNL A   1      45.351  25.173  34.818  1.00  0.00    -0.203 F 
ATOM     88  C   UNL A   1      47.699  25.227  34.981  1.00  0.00     0.198 A 
ATOM     89  C   UNL A   1      48.964  26.745  33.615  1.00  0.00     0.198 A 
ATOM     90  F   UNL A   1      47.856  28.202  32.139  1.00  0.00    -0.203 F 
ATOM     91  F   UNL A   1      47.654  24.286  35.933  1.00  0.00    -0.200 F 
ATOM     92  C   UNL A   1      48.920  25.750  34.580  1.00  0.00     0.200 A 
ATOM     93  F   UNL A   1      50.144  27.242  33.219  1.00  0.00    -0.200 F 
ATOM     94  F   UNL A   1      50.056  25.300  35.132  1.00  0.00    -0.200 F 
ENDBRANCH  61  84
ENDBRANCH  35  36
ENDBRANCH  27  30
ENDBRANCH  25  26
ENDBRANCH  24  25
ENDBRANCH   1  24
TORSDOF 14
ENDMDL
