MODEL 1
REMARK VINA RESULT:     -13.7      0.000      0.000
REMARK SMILES Cc1cccc2c1N=CN1C2=[NH+]NC(=O)[C@@H]1CC(=O)NCCCNC(=O)c1ccc(-c2c3nc(c(-c4c(F)c(F)c(F)c(F)c4F)c4ccc([nH]4)c(-c4c(F)c(F)c(F)c(F)c4F)c4nc(c(-c5c(F)c(F)c(F)c(F)c5F)c5ccc2[nH]5)C=C4)C=C3)cc1
REMARK SMILES IDX 22 1 21 2 20 3 18 4 19 5 17 7 16 8 1 9 2 10 3 11 7 12 4 13
REMARK SMILES IDX 6 14 8 15 5 16 11 17 9 18 10 19 12 20 13 21 14 23 15 25
REMARK SMILES IDX 23 26 24 27 25 28 26 30 27 31 28 32 89 33 29 34 88 35 30 36
REMARK SMILES IDX 31 37 32 38 82 39 33 40 87 41 81 42 83 43 34 44 86 45 80 46
REMARK SMILES IDX 79 47 35 49 67 50 47 51 66 52 48 53 51 54 65 55 84 56 49 57
REMARK SMILES IDX 50 58 64 60 85 61 52 62 36 63 37 64 45 65 38 66 39 67 43 68
REMARK SMILES IDX 46 69 40 70 41 71 44 72 42 73 68 74 69 75 77 76 70 77 71 78
REMARK SMILES IDX 75 79 78 80 72 81 73 82 76 83 74 84 53 85 54 86 62 87 55 88
REMARK SMILES IDX 56 89 60 90 63 91 57 92 58 93 61 94 59 95
REMARK H PARENT 20 6 12 22 13 24 24 29 83 48 51 59
REMARK Flexibility Score: inf
ROOT
ATOM      1  C   UNL A   1      33.743  31.674  27.251  1.00  0.00     0.042 C 
ENDROOT
BRANCH   1   2
ATOM      2  C   UNL A   1      33.814  30.164  27.101  1.00  0.00     0.117 C 
BRANCH   2   3
ATOM      3  N   UNL A   1      32.602  29.521  27.570  1.00  0.00    -0.356 N 
ATOM      4  C   UNL A   1      32.123  28.264  27.375  1.00  0.00     0.224 C 
ATOM      5  O   UNL A   1      31.123  27.941  28.017  1.00  0.00    -0.275 OA
ATOM      6  H   UNL A   1      32.026  30.094  28.126  1.00  0.00     0.163 HD
BRANCH   4   7
ATOM      7  C   UNL A   1      32.846  27.259  26.497  1.00  0.00     0.160 C 
BRANCH   7   8
ATOM      8  C   UNL A   1      32.045  26.446  25.467  1.00  0.00     0.284 C 
ATOM      9  C   UNL A   1      29.154  31.553  23.048  1.00  0.00     0.047 C 
ATOM     10  C   UNL A   1      28.704  30.119  23.093  1.00  0.00    -0.024 A 
ATOM     11  C   UNL A   1      27.327  29.863  23.165  1.00  0.00     0.006 A 
ATOM     12  C   UNL A   1      29.612  29.059  23.274  1.00  0.00     0.085 A 
ATOM     13  C   UNL A   1      26.859  28.570  23.380  1.00  0.00     0.001 A 
ATOM     14  C   UNL A   1      29.094  27.765  23.501  1.00  0.00     0.092 A 
ATOM     15  N   UNL A   1      30.999  29.327  23.373  1.00  0.00    -0.215 NA
ATOM     16  C   UNL A   1      27.728  27.506  23.501  1.00  0.00     0.019 A 
ATOM     17  C   UNL A   1      29.982  26.782  24.180  1.00  0.00     0.309 C 
ATOM     18  C   UNL A   1      31.705  28.433  23.990  1.00  0.00     0.317 C 
ATOM     19  N   UNL A   1      31.232  27.264  24.543  1.00  0.00    -0.203 N 
ATOM     20  N   UNL A   1      29.471  25.630  24.493  1.00  0.00    -0.169 N 
ATOM     21  N   UNL A   1      30.140  24.877  25.389  1.00  0.00    -0.193 N 
ATOM     22  H   UNL A   1      28.627  25.318  24.091  1.00  0.00     0.340 HD
ATOM     23  C   UNL A   1      31.236  25.303  26.096  1.00  0.00     0.300 C 
ATOM     24  H   UNL A   1      29.821  23.959  25.547  1.00  0.00     0.216 HD
ATOM     25  O   UNL A   1      31.576  24.697  27.107  1.00  0.00    -0.267 OA
ENDBRANCH   7   8
ENDBRANCH   4   7
ENDBRANCH   2   3
ENDBRANCH   1   2
BRANCH   1  26
ATOM     26  C   UNL A   1      32.356  32.249  27.486  1.00  0.00     0.118 C 
BRANCH  26  27
ATOM     27  N   UNL A   1      32.376  33.700  27.560  1.00  0.00    -0.352 N 
ATOM     28  C   UNL A   1      33.078  34.548  28.380  1.00  0.00     0.251 C 
ATOM     29  H   UNL A   1      31.787  34.151  26.914  1.00  0.00     0.163 HD
ATOM     30  O   UNL A   1      32.737  35.733  28.426  1.00  0.00    -0.269 OA
BRANCH  28  31
ATOM     31  C   UNL A   1      34.226  34.100  29.212  1.00  0.00     0.039 A 
ATOM     32  C   UNL A   1      35.526  34.343  28.741  1.00  0.00     0.014 A 
ATOM     33  C   UNL A   1      34.062  33.351  30.378  1.00  0.00     0.014 A 
ATOM     34  C   UNL A   1      36.646  33.880  29.445  1.00  0.00     0.010 A 
ATOM     35  C   UNL A   1      35.177  32.940  31.117  1.00  0.00     0.010 A 
ATOM     36  C   UNL A   1      36.480  33.177  30.643  1.00  0.00    -0.014 A 
BRANCH  36  37
ATOM     37  C   UNL A   1      37.626  32.540  31.346  1.00  0.00     0.031 A 
ATOM     38  C   UNL A   1      38.269  31.337  30.716  1.00  0.00     0.074 A 
ATOM     39  C   UNL A   1      38.060  32.974  32.545  1.00  0.00     0.049 A 
ATOM     40  N   UNL A   1      39.239  30.586  31.168  1.00  0.00    -0.248 NA
ATOM     41  C   UNL A   1      37.767  30.940  29.390  1.00  0.00     0.031 C 
ATOM     42  C   UNL A   1      37.603  34.174  33.231  1.00  0.00     0.029 A 
ATOM     43  N   UNL A   1      38.967  32.430  33.423  1.00  0.00    -0.354 N 
ATOM     44  C   UNL A   1      39.488  29.657  30.170  1.00  0.00     0.074 A 
ATOM     45  C   UNL A   1      38.514  29.879  29.125  1.00  0.00     0.031 C 
ATOM     46  C   UNL A   1      38.122  34.218  34.467  1.00  0.00     0.029 A 
ATOM     47  C   UNL A   1      39.024  33.086  34.632  1.00  0.00     0.049 A 
ATOM     48  H   UNL A   1      39.522  31.647  33.208  1.00  0.00     0.167 HD
ATOM     49  C   UNL A   1      40.474  28.735  30.110  1.00  0.00     0.037 A 
ATOM     50  C   UNL A   1      39.747  32.832  35.737  1.00  0.00     0.037 A 
ATOM     51  C   UNL A   1      41.437  28.512  31.154  1.00  0.00     0.049 A 
ATOM     52  C   UNL A   1      40.763  31.727  35.694  1.00  0.00     0.074 A 
ATOM     53  C   UNL A   1      42.497  27.624  31.175  1.00  0.00     0.029 A 
ATOM     54  N   UNL A   1      41.445  29.177  32.373  1.00  0.00    -0.354 N 
ATOM     55  N   UNL A   1      41.045  30.909  34.712  1.00  0.00    -0.248 NA
ATOM     56  C   UNL A   1      41.592  31.543  36.892  1.00  0.00     0.031 C 
ATOM     57  C   UNL A   1      43.113  27.711  32.428  1.00  0.00     0.029 A 
ATOM     58  C   UNL A   1      42.469  28.690  33.169  1.00  0.00     0.049 A 
ATOM     59  H   UNL A   1      40.818  29.890  32.632  1.00  0.00     0.167 HD
ATOM     60  C   UNL A   1      42.107  30.134  35.155  1.00  0.00     0.074 A 
ATOM     61  C   UNL A   1      42.425  30.591  36.493  1.00  0.00     0.031 C 
ATOM     62  C   UNL A   1      42.762  29.141  34.506  1.00  0.00     0.037 A 
BRANCH  49  63
ATOM     63  C   UNL A   1      40.566  27.909  28.862  1.00  0.00     0.064 A 
ATOM     64  C   UNL A   1      39.830  26.721  28.717  1.00  0.00     0.173 A 
ATOM     65  C   UNL A   1      41.369  28.319  27.790  1.00  0.00     0.173 A 
ATOM     66  F   UNL A   1      39.060  26.277  29.723  1.00  0.00    -0.203 F 
ATOM     67  C   UNL A   1      39.914  25.963  27.554  1.00  0.00     0.198 A 
ATOM     68  C   UNL A   1      41.428  27.573  26.615  1.00  0.00     0.198 A 
ATOM     69  F   UNL A   1      42.092  29.445  27.877  1.00  0.00    -0.203 F 
ATOM     70  F   UNL A   1      39.238  24.810  27.456  1.00  0.00    -0.200 F 
ATOM     71  C   UNL A   1      40.706  26.394  26.501  1.00  0.00     0.200 A 
ATOM     72  F   UNL A   1      42.187  27.994  25.594  1.00  0.00    -0.200 F 
ATOM     73  F   UNL A   1      40.779  25.668  25.376  1.00  0.00    -0.200 F 
ENDBRANCH  49  63
BRANCH  50  74
ATOM     74  C   UNL A   1      39.593  33.696  36.936  1.00  0.00     0.064 A 
ATOM     75  C   UNL A   1      40.298  34.902  37.050  1.00  0.00     0.173 A 
ATOM     76  C   UNL A   1      38.722  33.347  37.979  1.00  0.00     0.173 A 
ATOM     77  F   UNL A   1      41.151  35.270  36.083  1.00  0.00    -0.203 F 
ATOM     78  C   UNL A   1      40.150  35.719  38.168  1.00  0.00     0.198 A 
ATOM     79  C   UNL A   1      38.562  34.175  39.089  1.00  0.00     0.198 A 
ATOM     80  F   UNL A   1      38.020  32.206  37.915  1.00  0.00    -0.203 F 
ATOM     81  F   UNL A   1      40.860  36.851  38.265  1.00  0.00    -0.200 F 
ATOM     82  C   UNL A   1      39.279  35.358  39.185  1.00  0.00     0.200 A 
ATOM     83  F   UNL A   1      37.712  33.828  40.066  1.00  0.00    -0.200 F 
ATOM     84  F   UNL A   1      39.135  36.148  40.258  1.00  0.00    -0.200 F 
ENDBRANCH  50  74
BRANCH  62  85
ATOM     85  C   UNL A   1      43.885  28.467  35.238  1.00  0.00     0.064 A 
ATOM     86  C   UNL A   1      45.194  28.969  35.183  1.00  0.00     0.173 A 
ATOM     87  C   UNL A   1      43.641  27.349  36.048  1.00  0.00     0.173 A 
ATOM     88  F   UNL A   1      45.479  30.027  34.409  1.00  0.00    -0.203 F 
ATOM     89  C   UNL A   1      46.221  28.364  35.899  1.00  0.00     0.198 A 
ATOM     90  C   UNL A   1      44.665  26.767  36.789  1.00  0.00     0.198 A 
ATOM     91  F   UNL A   1      42.406  26.834  36.139  1.00  0.00    -0.203 F 
ATOM     92  F   UNL A   1      47.471  28.835  35.798  1.00  0.00    -0.200 F 
ATOM     93  C   UNL A   1      45.955  27.271  36.710  1.00  0.00     0.200 A 
ATOM     94  F   UNL A   1      44.403  25.721  37.585  1.00  0.00    -0.200 F 
ATOM     95  F   UNL A   1      46.942  26.700  37.412  1.00  0.00    -0.200 F 
ENDBRANCH  62  85
ENDBRANCH  36  37
ENDBRANCH  28  31
ENDBRANCH  26  27
ENDBRANCH   1  26
TORSDOF 11
ENDMDL
MODEL 2
REMARK VINA RESULT:     -13.7      0.080      1.594
REMARK SMILES Cc1cccc2c1N=CN1C2=[NH+]NC(=O)[C@@H]1CC(=O)NCCCNC(=O)c1ccc(-c2c3nc(c(-c4c(F)c(F)c(F)c(F)c4F)c4ccc([nH]4)c(-c4c(F)c(F)c(F)c(F)c4F)c4nc(c(-c5c(F)c(F)c(F)c(F)c5F)c5ccc2[nH]5)C=C4)C=C3)cc1
REMARK SMILES IDX 22 1 21 2 20 3 18 4 19 5 17 7 16 8 1 9 2 10 3 11 7 12 4 13
REMARK SMILES IDX 6 14 8 15 5 16 11 17 9 18 10 19 12 20 13 21 14 23 15 25
REMARK SMILES IDX 23 26 24 27 25 28 26 30 27 31 28 32 89 33 29 34 88 35 30 36
REMARK SMILES IDX 31 37 32 38 82 39 33 40 87 41 81 42 83 43 34 44 86 45 80 46
REMARK SMILES IDX 79 47 35 49 67 50 47 51 66 52 48 53 51 54 65 55 84 56 49 57
REMARK SMILES IDX 50 58 64 60 85 61 52 62 36 63 37 64 45 65 38 66 39 67 43 68
REMARK SMILES IDX 46 69 40 70 41 71 44 72 42 73 68 74 69 75 77 76 70 77 71 78
REMARK SMILES IDX 75 79 78 80 72 81 73 82 76 83 74 84 53 85 54 86 62 87 55 88
REMARK SMILES IDX 56 89 60 90 63 91 57 92 58 93 61 94 59 95
REMARK H PARENT 20 6 12 22 13 24 24 29 83 48 51 59
REMARK Flexibility Score: inf
ROOT
ATOM      1  C   UNL A   1      33.745  31.623  27.251  1.00  0.00     0.042 C 
ENDROOT
BRANCH   1   2
ATOM      2  C   UNL A   1      33.843  30.111  27.151  1.00  0.00     0.117 C 
BRANCH   2   3
ATOM      3  N   UNL A   1      32.625  29.464  27.599  1.00  0.00    -0.356 N 
ATOM      4  C   UNL A   1      32.144  28.212  27.378  1.00  0.00     0.224 C 
ATOM      5  O   UNL A   1      31.137  27.881  28.006  1.00  0.00    -0.275 OA
ATOM      6  H   UNL A   1      32.046  30.030  28.158  1.00  0.00     0.163 HD
BRANCH   4   7
ATOM      7  C   UNL A   1      32.872  27.220  26.490  1.00  0.00     0.160 C 
BRANCH   7   8
ATOM      8  C   UNL A   1      32.074  26.410  25.455  1.00  0.00     0.284 C 
ATOM      9  C   UNL A   1      29.154  31.521  23.078  1.00  0.00     0.047 C 
ATOM     10  C   UNL A   1      28.712  30.084  23.112  1.00  0.00    -0.024 A 
ATOM     11  C   UNL A   1      27.337  29.820  23.183  1.00  0.00     0.006 A 
ATOM     12  C   UNL A   1      29.626  29.027  23.284  1.00  0.00     0.085 A 
ATOM     13  C   UNL A   1      26.876  28.523  23.389  1.00  0.00     0.001 A 
ATOM     14  C   UNL A   1      29.115  27.729  23.502  1.00  0.00     0.092 A 
ATOM     15  N   UNL A   1      31.011  29.302  23.384  1.00  0.00    -0.215 NA
ATOM     16  C   UNL A   1      27.750  27.463  23.501  1.00  0.00     0.019 A 
ATOM     17  C   UNL A   1      30.009  26.745  24.172  1.00  0.00     0.309 C 
ATOM     18  C   UNL A   1      31.723  28.407  23.993  1.00  0.00     0.317 C 
ATOM     19  N   UNL A   1      31.256  27.231  24.538  1.00  0.00    -0.203 N 
ATOM     20  N   UNL A   1      29.504  25.588  24.476  1.00  0.00    -0.169 N 
ATOM     21  N   UNL A   1      30.178  24.832  25.366  1.00  0.00    -0.193 N 
ATOM     22  H   UNL A   1      28.661  25.275  24.073  1.00  0.00     0.340 HD
ATOM     23  C   UNL A   1      31.272  25.258  26.075  1.00  0.00     0.300 C 
ATOM     24  H   UNL A   1      29.864  23.911  25.516  1.00  0.00     0.216 HD
ATOM     25  O   UNL A   1      31.616  24.646  27.081  1.00  0.00    -0.267 OA
ENDBRANCH   7   8
ENDBRANCH   4   7
ENDBRANCH   2   3
ENDBRANCH   1   2
BRANCH   1  26
ATOM     26  C   UNL A   1      32.344  32.184  27.430  1.00  0.00     0.118 C 
BRANCH  26  27
ATOM     27  N   UNL A   1      32.346  33.634  27.509  1.00  0.00    -0.352 N 
ATOM     28  C   UNL A   1      33.035  34.488  28.333  1.00  0.00     0.251 C 
ATOM     29  H   UNL A   1      31.752  34.080  26.863  1.00  0.00     0.163 HD
ATOM     30  O   UNL A   1      32.679  35.669  28.383  1.00  0.00    -0.269 OA
BRANCH  28  31
ATOM     31  C   UNL A   1      34.186  34.052  29.167  1.00  0.00     0.039 A 
ATOM     32  C   UNL A   1      35.485  34.289  28.688  1.00  0.00     0.014 A 
ATOM     33  C   UNL A   1      34.028  33.319  30.344  1.00  0.00     0.014 A 
ATOM     34  C   UNL A   1      36.608  33.835  29.393  1.00  0.00     0.010 A 
ATOM     35  C   UNL A   1      35.146  32.918  31.084  1.00  0.00     0.010 A 
ATOM     36  C   UNL A   1      36.447  33.149  30.601  1.00  0.00    -0.014 A 
BRANCH  36  37
ATOM     37  C   UNL A   1      37.596  32.522  31.308  1.00  0.00     0.031 A 
ATOM     38  C   UNL A   1      38.245  31.318  30.686  1.00  0.00     0.074 A 
ATOM     39  C   UNL A   1      38.028  32.965  32.504  1.00  0.00     0.049 A 
ATOM     40  N   UNL A   1      39.218  30.574  31.143  1.00  0.00    -0.248 NA
ATOM     41  C   UNL A   1      37.744  30.909  29.362  1.00  0.00     0.031 C 
ATOM     42  C   UNL A   1      37.566  34.168  33.182  1.00  0.00     0.029 A 
ATOM     43  N   UNL A   1      38.938  32.432  33.386  1.00  0.00    -0.354 N 
ATOM     44  C   UNL A   1      39.471  29.640  30.150  1.00  0.00     0.074 A 
ATOM     45  C   UNL A   1      38.496  29.851  29.104  1.00  0.00     0.031 C 
ATOM     46  C   UNL A   1      38.085  34.222  34.418  1.00  0.00     0.029 A 
ATOM     47  C   UNL A   1      38.992  33.096  34.589  1.00  0.00     0.049 A 
ATOM     48  H   UNL A   1      39.497  31.649  33.176  1.00  0.00     0.167 HD
ATOM     49  C   UNL A   1      40.462  28.722  30.096  1.00  0.00     0.037 A 
ATOM     50  C   UNL A   1      39.717  32.852  35.696  1.00  0.00     0.037 A 
ATOM     51  C   UNL A   1      41.425  28.511  31.141  1.00  0.00     0.049 A 
ATOM     52  C   UNL A   1      40.737  31.752  35.661  1.00  0.00     0.074 A 
ATOM     53  C   UNL A   1      42.490  27.628  31.167  1.00  0.00     0.029 A 
ATOM     54  N   UNL A   1      41.431  29.184  32.356  1.00  0.00    -0.354 N 
ATOM     55  N   UNL A   1      41.023  30.928  34.683  1.00  0.00    -0.248 NA
ATOM     56  C   UNL A   1      41.568  31.580  36.859  1.00  0.00     0.031 C 
ATOM     57  C   UNL A   1      43.105  27.726  32.420  1.00  0.00     0.029 A 
ATOM     58  C   UNL A   1      42.457  28.706  33.154  1.00  0.00     0.049 A 
ATOM     59  H   UNL A   1      40.801  29.895  32.610  1.00  0.00     0.167 HD
ATOM     60  C   UNL A   1      42.089  30.162  35.131  1.00  0.00     0.074 A 
ATOM     61  C   UNL A   1      42.405  30.628  36.466  1.00  0.00     0.031 C 
ATOM     62  C   UNL A   1      42.749  29.167  34.489  1.00  0.00     0.037 A 
BRANCH  49  63
ATOM     63  C   UNL A   1      40.557  27.888  28.854  1.00  0.00     0.064 A 
ATOM     64  C   UNL A   1      39.846  26.683  28.727  1.00  0.00     0.173 A 
ATOM     65  C   UNL A   1      41.337  28.307  27.768  1.00  0.00     0.173 A 
ATOM     66  F   UNL A   1      39.098  26.230  29.745  1.00  0.00    -0.203 F 
ATOM     67  C   UNL A   1      39.933  25.918  27.568  1.00  0.00     0.198 A 
ATOM     68  C   UNL A   1      41.399  27.554  26.598  1.00  0.00     0.198 A 
ATOM     69  F   UNL A   1      42.036  29.450  27.838  1.00  0.00    -0.203 F 
ATOM     70  F   UNL A   1      39.282  24.749  27.488  1.00  0.00    -0.200 F 
ATOM     71  C   UNL A   1      40.703  26.358  26.502  1.00  0.00     0.200 A 
ATOM     72  F   UNL A   1      42.136  27.984  25.565  1.00  0.00    -0.200 F 
ATOM     73  F   UNL A   1      40.779  25.625  25.382  1.00  0.00    -0.200 F 
ENDBRANCH  49  63
BRANCH  50  74
ATOM     74  C   UNL A   1      39.559  33.723  36.889  1.00  0.00     0.064 A 
ATOM     75  C   UNL A   1      38.708  33.358  37.941  1.00  0.00     0.173 A 
ATOM     76  C   UNL A   1      40.273  34.925  37.014  1.00  0.00     0.173 A 
ATOM     77  F   UNL A   1      37.996  32.224  37.859  1.00  0.00    -0.203 F 
ATOM     78  C   UNL A   1      38.563  34.168  39.065  1.00  0.00     0.198 A 
ATOM     79  C   UNL A   1      40.141  35.725  38.148  1.00  0.00     0.198 A 
ATOM     80  F   UNL A   1      41.106  35.316  36.038  1.00  0.00    -0.203 F 
ATOM     81  F   UNL A   1      37.718  33.809  40.041  1.00  0.00    -0.200 F 
ATOM     82  C   UNL A   1      39.283  35.348  39.170  1.00  0.00     0.200 A 
ATOM     83  F   UNL A   1      40.846  36.860  38.252  1.00  0.00    -0.200 F 
ATOM     84  F   UNL A   1      39.146  36.123  40.255  1.00  0.00    -0.200 F 
ENDBRANCH  50  74
BRANCH  62  85
ATOM     85  C   UNL A   1      43.874  28.504  35.224  1.00  0.00     0.064 A 
ATOM     86  C   UNL A   1      43.661  27.354  35.999  1.00  0.00     0.173 A 
ATOM     87  C   UNL A   1      45.187  28.984  35.106  1.00  0.00     0.173 A 
ATOM     88  F   UNL A   1      42.421  26.866  36.155  1.00  0.00    -0.203 F 
ATOM     89  C   UNL A   1      44.718  26.719  36.643  1.00  0.00     0.198 A 
ATOM     90  C   UNL A   1      46.247  28.327  35.725  1.00  0.00     0.198 A 
ATOM     91  F   UNL A   1      45.446  30.077  34.372  1.00  0.00    -0.203 F 
ATOM     92  F   UNL A   1      44.484  25.647  37.411  1.00  0.00    -0.200 F 
ATOM     93  C   UNL A   1      46.011  27.199  36.497  1.00  0.00     0.200 A 
ATOM     94  F   UNL A   1      47.498  28.782  35.569  1.00  0.00    -0.200 F 
ATOM     95  F   UNL A   1      47.030  26.577  37.104  1.00  0.00    -0.200 F 
ENDBRANCH  62  85
ENDBRANCH  36  37
ENDBRANCH  28  31
ENDBRANCH  26  27
ENDBRANCH   1  26
TORSDOF 11
ENDMDL
MODEL 3
REMARK VINA RESULT:     -13.6      6.294     11.467
REMARK SMILES Cc1cccc2c1N=CN1C2=[NH+]NC(=O)[C@@H]1CC(=O)NCCCNC(=O)c1ccc(-c2c3nc(c(-c4c(F)c(F)c(F)c(F)c4F)c4ccc([nH]4)c(-c4c(F)c(F)c(F)c(F)c4F)c4nc(c(-c5c(F)c(F)c(F)c(F)c5F)c5ccc2[nH]5)C=C4)C=C3)cc1
REMARK SMILES IDX 22 1 21 2 20 3 18 4 19 5 17 7 16 8 1 9 2 10 3 11 7 12 4 13
REMARK SMILES IDX 6 14 8 15 5 16 11 17 9 18 10 19 12 20 13 21 14 23 15 25
REMARK SMILES IDX 23 26 24 27 25 28 26 30 27 31 28 32 89 33 29 34 88 35 30 36
REMARK SMILES IDX 31 37 32 38 82 39 33 40 87 41 81 42 83 43 34 44 86 45 80 46
REMARK SMILES IDX 79 47 35 49 67 50 47 51 66 52 48 53 51 54 65 55 84 56 49 57
REMARK SMILES IDX 50 58 64 60 85 61 52 62 36 63 37 64 45 65 38 66 39 67 43 68
REMARK SMILES IDX 46 69 40 70 41 71 44 72 42 73 68 74 69 75 77 76 70 77 71 78
REMARK SMILES IDX 75 79 78 80 72 81 73 82 76 83 74 84 53 85 54 86 62 87 55 88
REMARK SMILES IDX 56 89 60 90 63 91 57 92 58 93 61 94 59 95
REMARK H PARENT 20 6 12 22 13 24 24 29 83 48 51 59
REMARK Flexibility Score: inf
ROOT
ATOM      1  C   UNL A   1      39.070  21.394  26.201  1.00  0.00     0.042 C 
ENDROOT
BRANCH   1   2
ATOM      2  C   UNL A   1      37.979  22.402  25.887  1.00  0.00     0.117 C 
BRANCH   2   3
ATOM      3  N   UNL A   1      37.637  22.401  24.478  1.00  0.00    -0.356 N 
ATOM      4  C   UNL A   1      36.607  22.981  23.807  1.00  0.00     0.224 C 
ATOM      5  O   UNL A   1      36.643  22.932  22.577  1.00  0.00    -0.275 OA
ATOM      6  H   UNL A   1      38.258  21.892  23.909  1.00  0.00     0.163 HD
BRANCH   4   7
ATOM      7  C   UNL A   1      35.518  23.756  24.526  1.00  0.00     0.160 C 
BRANCH   7   8
ATOM      8  C   UNL A   1      34.044  23.450  24.212  1.00  0.00     0.284 C 
ATOM      9  C   UNL A   1      34.733  17.189  25.001  1.00  0.00     0.047 C 
ATOM     10  C   UNL A   1      33.748  17.955  24.162  1.00  0.00    -0.024 A 
ATOM     11  C   UNL A   1      33.284  17.356  22.981  1.00  0.00     0.006 A 
ATOM     12  C   UNL A   1      33.449  19.308  24.411  1.00  0.00     0.085 A 
ATOM     13  C   UNL A   1      32.509  18.078  22.080  1.00  0.00     0.001 A 
ATOM     14  C   UNL A   1      32.669  20.006  23.464  1.00  0.00     0.092 A 
ATOM     15  N   UNL A   1      34.049  19.971  25.508  1.00  0.00    -0.215 NA
ATOM     16  C   UNL A   1      32.153  19.386  22.331  1.00  0.00     0.019 A 
ATOM     17  C   UNL A   1      32.779  21.491  23.449  1.00  0.00     0.309 C 
ATOM     18  C   UNL A   1      34.122  21.262  25.418  1.00  0.00     0.317 C 
ATOM     19  N   UNL A   1      33.670  22.028  24.366  1.00  0.00    -0.203 N 
ATOM     20  N   UNL A   1      32.151  22.128  22.506  1.00  0.00    -0.169 N 
ATOM     21  N   UNL A   1      32.509  23.407  22.280  1.00  0.00    -0.193 N 
ATOM     22  H   UNL A   1      31.443  21.693  21.978  1.00  0.00     0.340 HD
ATOM     23  C   UNL A   1      33.578  24.031  22.870  1.00  0.00     0.300 C 
ATOM     24  H   UNL A   1      31.965  23.930  21.647  1.00  0.00     0.216 HD
ATOM     25  O   UNL A   1      34.027  25.060  22.375  1.00  0.00    -0.267 OA
ENDBRANCH   7   8
ENDBRANCH   4   7
ENDBRANCH   2   3
ENDBRANCH   1   2
BRANCH   1  26
ATOM     26  C   UNL A   1      39.156  20.201  25.263  1.00  0.00     0.118 C 
BRANCH  26  27
ATOM     27  N   UNL A   1      40.081  19.193  25.751  1.00  0.00    -0.352 N 
ATOM     28  C   UNL A   1      41.394  19.290  26.138  1.00  0.00     0.251 C 
ATOM     29  H   UNL A   1      39.702  18.287  25.815  1.00  0.00     0.163 HD
ATOM     30  O   UNL A   1      42.044  18.249  26.273  1.00  0.00    -0.269 OA
BRANCH  28  31
ATOM     31  C   UNL A   1      42.065  20.591  26.398  1.00  0.00     0.039 A 
ATOM     32  C   UNL A   1      42.183  21.027  27.727  1.00  0.00     0.014 A 
ATOM     33  C   UNL A   1      42.477  21.443  25.372  1.00  0.00     0.014 A 
ATOM     34  C   UNL A   1      42.738  22.278  28.030  1.00  0.00     0.010 A 
ATOM     35  C   UNL A   1      43.089  22.665  25.671  1.00  0.00     0.010 A 
ATOM     36  C   UNL A   1      43.202  23.106  27.002  1.00  0.00    -0.014 A 
BRANCH  36  37
ATOM     37  C   UNL A   1      43.661  24.497  27.261  1.00  0.00     0.031 A 
ATOM     38  C   UNL A   1      42.641  25.521  27.670  1.00  0.00     0.074 A 
ATOM     39  C   UNL A   1      44.943  24.871  27.085  1.00  0.00     0.049 A 
ATOM     40  N   UNL A   1      42.796  26.800  27.892  1.00  0.00    -0.248 NA
ATOM     41  C   UNL A   1      41.265  25.036  27.876  1.00  0.00     0.031 C 
ATOM     42  C   UNL A   1      46.055  23.980  26.786  1.00  0.00     0.029 A 
ATOM     43  N   UNL A   1      45.527  26.115  27.099  1.00  0.00    -0.354 N 
ATOM     44  C   UNL A   1      41.553  27.261  28.301  1.00  0.00     0.074 A 
ATOM     45  C   UNL A   1      40.633  26.149  28.213  1.00  0.00     0.031 C 
ATOM     46  C   UNL A   1      47.155  24.697  26.517  1.00  0.00     0.029 A 
ATOM     47  C   UNL A   1      46.847  26.107  26.711  1.00  0.00     0.049 A 
ATOM     48  H   UNL A   1      45.047  26.933  27.362  1.00  0.00     0.167 HD
ATOM     49  C   UNL A   1      41.223  28.490  28.756  1.00  0.00     0.037 A 
ATOM     50  C   UNL A   1      47.726  27.116  26.564  1.00  0.00     0.037 A 
ATOM     51  C   UNL A   1      42.139  29.595  28.834  1.00  0.00     0.049 A 
ATOM     52  C   UNL A   1      47.308  28.500  26.967  1.00  0.00     0.074 A 
ATOM     53  C   UNL A   1      41.911  30.872  29.313  1.00  0.00     0.029 A 
ATOM     54  N   UNL A   1      43.460  29.556  28.407  1.00  0.00    -0.354 N 
ATOM     55  N   UNL A   1      46.153  28.906  27.432  1.00  0.00    -0.248 NA
ATOM     56  C   UNL A   1      48.327  29.553  26.875  1.00  0.00     0.031 C 
ATOM     57  C   UNL A   1      43.076  31.623  29.124  1.00  0.00     0.029 A 
ATOM     58  C   UNL A   1      44.046  30.800  28.574  1.00  0.00     0.049 A 
ATOM     59  H   UNL A   1      43.912  28.763  28.041  1.00  0.00     0.167 HD
ATOM     60  C   UNL A   1      46.312  30.253  27.721  1.00  0.00     0.074 A 
ATOM     61  C   UNL A   1      47.682  30.592  27.389  1.00  0.00     0.031 C 
ATOM     62  C   UNL A   1      45.406  31.127  28.222  1.00  0.00     0.037 A 
BRANCH  49  63
ATOM     63  C   UNL A   1      39.812  28.694  29.218  1.00  0.00     0.064 A 
ATOM     64  C   UNL A   1      39.435  28.440  30.547  1.00  0.00     0.173 A 
ATOM     65  C   UNL A   1      38.834  29.176  28.338  1.00  0.00     0.173 A 
ATOM     66  F   UNL A   1      40.332  27.962  31.424  1.00  0.00    -0.203 F 
ATOM     67  C   UNL A   1      38.124  28.639  30.971  1.00  0.00     0.198 A 
ATOM     68  C   UNL A   1      37.530  29.402  28.773  1.00  0.00     0.198 A 
ATOM     69  F   UNL A   1      39.142  29.434  27.058  1.00  0.00    -0.203 F 
ATOM     70  F   UNL A   1      37.778  28.346  32.231  1.00  0.00    -0.200 F 
ATOM     71  C   UNL A   1      37.176  29.127  30.086  1.00  0.00     0.200 A 
ATOM     72  F   UNL A   1      36.615  29.882  27.919  1.00  0.00    -0.200 F 
ATOM     73  F   UNL A   1      35.916  29.327  30.497  1.00  0.00    -0.200 F 
ENDBRANCH  49  63
BRANCH  50  74
ATOM     74  C   UNL A   1      49.106  26.830  26.094  1.00  0.00     0.064 A 
ATOM     75  C   UNL A   1      49.450  26.962  24.743  1.00  0.00     0.173 A 
ATOM     76  C   UNL A   1      50.115  26.441  26.990  1.00  0.00     0.173 A 
ATOM     77  F   UNL A   1      48.515  27.320  23.849  1.00  0.00    -0.203 F 
ATOM     78  C   UNL A   1      50.745  26.704  24.299  1.00  0.00     0.198 A 
ATOM     79  C   UNL A   1      51.415  26.200  26.547  1.00  0.00     0.198 A 
ATOM     80  F   UNL A   1      49.839  26.305  28.295  1.00  0.00    -0.203 F 
ATOM     81  F   UNL A   1      51.038  26.809  22.996  1.00  0.00    -0.200 F 
ATOM     82  C   UNL A   1      51.727  26.327  25.202  1.00  0.00     0.200 A 
ATOM     83  F   UNL A   1      52.365  25.845  27.424  1.00  0.00    -0.200 F 
ATOM     84  F   UNL A   1      52.974  26.083  24.775  1.00  0.00    -0.200 F 
ENDBRANCH  50  74
BRANCH  62  85
ATOM     85  C   UNL A   1      45.859  32.540  28.435  1.00  0.00     0.064 A 
ATOM     86  C   UNL A   1      45.687  33.517  27.443  1.00  0.00     0.173 A 
ATOM     87  C   UNL A   1      46.415  32.937  29.660  1.00  0.00     0.173 A 
ATOM     88  F   UNL A   1      45.175  33.183  26.249  1.00  0.00    -0.203 F 
ATOM     89  C   UNL A   1      46.071  34.836  27.664  1.00  0.00     0.198 A 
ATOM     90  C   UNL A   1      46.766  34.264  29.890  1.00  0.00     0.198 A 
ATOM     91  F   UNL A   1      46.595  32.042  30.644  1.00  0.00    -0.203 F 
ATOM     92  F   UNL A   1      45.935  35.743  26.688  1.00  0.00    -0.200 F 
ATOM     93  C   UNL A   1      46.600  35.211  28.891  1.00  0.00     0.200 A 
ATOM     94  F   UNL A   1      47.262  34.627  31.081  1.00  0.00    -0.200 F 
ATOM     95  F   UNL A   1      46.953  36.484  29.108  1.00  0.00    -0.200 F 
ENDBRANCH  62  85
ENDBRANCH  36  37
ENDBRANCH  28  31
ENDBRANCH  26  27
ENDBRANCH   1  26
TORSDOF 11
ENDMDL
