MODEL 1
REMARK VINA RESULT:     -13.1      0.000      0.000
REMARK SMILES O=C(/C=C/C(=O)N1CCn2c1nc1ccccc12)NCCCNC(=O)c1ccc(-c2c3nc(c(-c4c(F)c(F)c(F)c(F)c4F)c4ccc([nH]4)c(-c4c(F)c(F)c(F)c(F)c4F)c4nc(c(-c5c(F)c(F)c(F)c(F)c5F)c5ccc2[nH]5)C=C4)C=C3)cc1
REMARK SMILES IDX 21 1 20 2 19 3 1 4 2 5 3 7 4 8 5 9 6 10 7 11 8 12 11 13 9 14
REMARK SMILES IDX 10 15 12 16 18 17 13 18 17 19 14 20 16 21 15 22 22 23 23 24
REMARK SMILES IDX 24 25 25 27 26 28 27 29 88 30 28 31 87 32 29 33 30 34 31 35
REMARK SMILES IDX 81 36 32 37 86 38 80 39 82 40 33 41 85 42 79 43 78 44 34 46
REMARK SMILES IDX 66 47 46 48 65 49 47 50 50 51 64 52 83 53 48 54 49 55 63 57
REMARK SMILES IDX 84 58 51 59 35 60 36 61 44 62 37 63 38 64 42 65 45 66 39 67
REMARK SMILES IDX 40 68 43 69 41 70 67 71 68 72 76 73 69 74 70 75 74 76 77 77
REMARK SMILES IDX 71 78 72 79 75 80 73 81 52 82 53 83 61 84 54 85 55 86 59 87
REMARK SMILES IDX 62 88 56 89 57 90 60 91 58 92
REMARK H PARENT 19 6 23 26 82 45 50 56
REMARK Flexibility Score: inf
ROOT
ATOM      1  C   UNL A   1      36.338  23.717  26.130  1.00  0.00     0.042 C 
ENDROOT
BRANCH   1   2
ATOM      2  C   UNL A   1      35.437  22.647  25.510  1.00  0.00     0.118 C 
BRANCH   2   3
ATOM      3  N   UNL A   1      34.401  23.233  24.677  1.00  0.00    -0.352 N 
ATOM      4  O   UNL A   1      35.644  23.285  22.754  1.00  0.00    -0.270 OA
ATOM      5  C   UNL A   1      34.628  23.585  23.371  1.00  0.00     0.244 C 
ATOM      6  H   UNL A   1      33.508  23.384  25.062  1.00  0.00     0.163 HD
BRANCH   5   7
ATOM      7  C   UNL A   1      33.617  24.462  22.724  1.00  0.00     0.077 C 
ATOM      8  C   UNL A   1      32.740  25.257  23.353  1.00  0.00     0.077 C 
BRANCH   8   9
ATOM      9  C   UNL A   1      32.034  26.347  22.638  1.00  0.00     0.253 C 
ATOM     10  O   UNL A   1      31.803  26.158  21.439  1.00  0.00    -0.269 OA
BRANCH   9  11
ATOM     11  N   UNL A   1      31.639  27.489  23.266  1.00  0.00    -0.277 N 
ATOM     12  C   UNL A   1      32.167  27.887  24.583  1.00  0.00     0.151 C 
ATOM     13  C   UNL A   1      30.690  28.383  22.858  1.00  0.00     0.213 A 
ATOM     14  C   UNL A   1      31.406  29.171  24.954  1.00  0.00     0.148 C 
ATOM     15  N   UNL A   1      30.557  29.362  23.795  1.00  0.00    -0.308 N 
ATOM     16  N   UNL A   1      29.869  28.551  21.860  1.00  0.00    -0.212 NA
ATOM     17  C   UNL A   1      29.635  30.261  23.400  1.00  0.00     0.070 A 
ATOM     18  C   UNL A   1      29.202  29.730  22.176  1.00  0.00     0.091 A 
ATOM     19  C   UNL A   1      29.137  31.444  23.949  1.00  0.00     0.028 A 
ATOM     20  C   UNL A   1      28.208  30.414  21.461  1.00  0.00     0.031 A 
ATOM     21  C   UNL A   1      28.153  32.110  23.210  1.00  0.00     0.002 A 
ATOM     22  C   UNL A   1      27.693  31.606  21.990  1.00  0.00     0.002 A 
ENDBRANCH   9  11
ENDBRANCH   8   9
ENDBRANCH   5   7
ENDBRANCH   2   3
ENDBRANCH   1   2
BRANCH   1  23
ATOM     23  C   UNL A   1      37.792  23.626  25.662  1.00  0.00     0.118 C 
BRANCH  23  24
ATOM     24  N   UNL A   1      38.499  22.436  26.121  1.00  0.00    -0.352 N 
ATOM     25  C   UNL A   1      39.628  22.332  26.908  1.00  0.00     0.251 C 
ATOM     26  H   UNL A   1      38.114  21.580  25.825  1.00  0.00     0.163 HD
ATOM     27  O   UNL A   1      40.114  21.248  27.178  1.00  0.00    -0.269 OA
BRANCH  25  28
ATOM     28  C   UNL A   1      40.284  23.574  27.359  1.00  0.00     0.039 A 
ATOM     29  C   UNL A   1      39.590  24.492  28.146  1.00  0.00     0.014 A 
ATOM     30  C   UNL A   1      41.567  23.857  26.878  1.00  0.00     0.014 A 
ATOM     31  C   UNL A   1      40.096  25.775  28.291  1.00  0.00     0.010 A 
ATOM     32  C   UNL A   1      42.096  25.130  27.066  1.00  0.00     0.010 A 
ATOM     33  C   UNL A   1      41.327  26.106  27.710  1.00  0.00    -0.014 A 
BRANCH  33  34
ATOM     34  C   UNL A   1      41.730  27.514  27.760  1.00  0.00     0.031 A 
ATOM     35  C   UNL A   1      40.630  28.505  27.666  1.00  0.00     0.074 A 
ATOM     36  C   UNL A   1      42.872  27.885  28.377  1.00  0.00     0.049 A 
ATOM     37  N   UNL A   1      39.934  28.879  28.699  1.00  0.00    -0.248 NA
ATOM     38  C   UNL A   1      40.100  28.968  26.385  1.00  0.00     0.031 C 
ATOM     39  C   UNL A   1      43.496  27.149  29.484  1.00  0.00     0.029 A 
ATOM     40  N   UNL A   1      43.570  29.064  28.315  1.00  0.00    -0.354 N 
ATOM     41  C   UNL A   1      38.835  29.559  28.216  1.00  0.00     0.074 A 
ATOM     42  C   UNL A   1      38.992  29.614  26.778  1.00  0.00     0.031 C 
ATOM     43  C   UNL A   1      44.354  27.973  30.119  1.00  0.00     0.029 A 
ATOM     44  C   UNL A   1      44.470  29.214  29.364  1.00  0.00     0.049 A 
ATOM     45  H   UNL A   1      43.448  29.735  27.604  1.00  0.00     0.167 HD
ATOM     46  C   UNL A   1      37.840  30.018  29.016  1.00  0.00     0.037 A 
ATOM     47  C   UNL A   1      44.882  30.399  29.886  1.00  0.00     0.037 A 
ATOM     48  C   UNL A   1      37.996  29.781  30.419  1.00  0.00     0.049 A 
ATOM     49  C   UNL A   1      43.603  30.907  30.502  1.00  0.00     0.074 A 
ATOM     50  C   UNL A   1      37.616  28.807  31.317  1.00  0.00     0.029 A 
ATOM     51  N   UNL A   1      38.785  30.644  31.141  1.00  0.00    -0.354 N 
ATOM     52  N   UNL A   1      43.124  30.554  31.667  1.00  0.00    -0.248 NA
ATOM     53  C   UNL A   1      42.640  31.587  29.630  1.00  0.00     0.031 C 
ATOM     54  C   UNL A   1      38.545  28.898  32.399  1.00  0.00     0.029 A 
ATOM     55  C   UNL A   1      39.467  29.885  32.059  1.00  0.00     0.049 A 
ATOM     56  H   UNL A   1      38.849  31.620  31.023  1.00  0.00     0.167 HD
ATOM     57  C   UNL A   1      41.740  30.716  31.559  1.00  0.00     0.074 A 
ATOM     58  C   UNL A   1      41.512  31.385  30.296  1.00  0.00     0.031 C 
ATOM     59  C   UNL A   1      40.849  30.127  32.405  1.00  0.00     0.037 A 
BRANCH  46  60
ATOM     60  C   UNL A   1      36.705  30.817  28.533  1.00  0.00     0.064 A 
ATOM     61  C   UNL A   1      36.790  32.212  28.605  1.00  0.00     0.173 A 
ATOM     62  C   UNL A   1      35.487  30.237  28.171  1.00  0.00     0.173 A 
ATOM     63  F   UNL A   1      37.946  32.795  28.962  1.00  0.00    -0.203 F 
ATOM     64  C   UNL A   1      35.680  33.008  28.353  1.00  0.00     0.198 A 
ATOM     65  C   UNL A   1      34.375  31.036  27.915  1.00  0.00     0.198 A 
ATOM     66  F   UNL A   1      35.365  28.904  28.101  1.00  0.00    -0.203 F 
ATOM     67  F   UNL A   1      35.777  34.340  28.460  1.00  0.00    -0.200 F 
ATOM     68  C   UNL A   1      34.471  32.419  28.017  1.00  0.00     0.200 A 
ATOM     69  F   UNL A   1      33.203  30.471  27.594  1.00  0.00    -0.200 F 
ATOM     70  F   UNL A   1      33.392  33.185  27.802  1.00  0.00    -0.200 F 
ENDBRANCH  46  60
BRANCH  47  71
ATOM     71  C   UNL A   1      45.752  31.196  28.963  1.00  0.00     0.064 A 
ATOM     72  C   UNL A   1      47.125  31.325  29.282  1.00  0.00     0.173 A 
ATOM     73  C   UNL A   1      45.336  31.834  27.788  1.00  0.00     0.173 A 
ATOM     74  F   UNL A   1      47.596  30.845  30.444  1.00  0.00    -0.203 F 
ATOM     75  C   UNL A   1      48.034  31.932  28.417  1.00  0.00     0.198 A 
ATOM     76  C   UNL A   1      46.250  32.422  26.909  1.00  0.00     0.198 A 
ATOM     77  F   UNL A   1      44.041  31.889  27.452  1.00  0.00    -0.203 F 
ATOM     78  F   UNL A   1      49.332  31.993  28.744  1.00  0.00    -0.200 F 
ATOM     79  C   UNL A   1      47.600  32.455  27.214  1.00  0.00     0.200 A 
ATOM     80  F   UNL A   1      45.816  32.938  25.751  1.00  0.00    -0.200 F 
ATOM     81  F   UNL A   1      48.475  32.994  26.354  1.00  0.00    -0.200 F 
ENDBRANCH  47  71
BRANCH  59  82
ATOM     82  C   UNL A   1      41.436  29.485  33.611  1.00  0.00     0.064 A 
ATOM     83  C   UNL A   1      41.570  30.219  34.796  1.00  0.00     0.173 A 
ATOM     84  C   UNL A   1      41.827  28.138  33.615  1.00  0.00     0.173 A 
ATOM     85  F   UNL A   1      41.199  31.509  34.839  1.00  0.00    -0.203 F 
ATOM     86  C   UNL A   1      42.054  29.619  35.954  1.00  0.00     0.198 A 
ATOM     87  C   UNL A   1      42.290  27.536  34.781  1.00  0.00     0.198 A 
ATOM     88  F   UNL A   1      41.734  27.393  32.503  1.00  0.00    -0.203 F 
ATOM     89  F   UNL A   1      42.161  30.333  37.083  1.00  0.00    -0.200 F 
ATOM     90  C   UNL A   1      42.401  28.275  35.949  1.00  0.00     0.200 A 
ATOM     91  F   UNL A   1      42.606  26.233  34.781  1.00  0.00    -0.200 F 
ATOM     92  F   UNL A   1      42.829  27.688  37.076  1.00  0.00    -0.200 F 
ENDBRANCH  59  82
ENDBRANCH  33  34
ENDBRANCH  25  28
ENDBRANCH  23  24
ENDBRANCH   1  23
TORSDOF 12
ENDMDL
MODEL 2
REMARK VINA RESULT:     -12.7      0.916      1.920
REMARK SMILES O=C(/C=C/C(=O)N1CCn2c1nc1ccccc12)NCCCNC(=O)c1ccc(-c2c3nc(c(-c4c(F)c(F)c(F)c(F)c4F)c4ccc([nH]4)c(-c4c(F)c(F)c(F)c(F)c4F)c4nc(c(-c5c(F)c(F)c(F)c(F)c5F)c5ccc2[nH]5)C=C4)C=C3)cc1
REMARK SMILES IDX 21 1 20 2 19 3 1 4 2 5 3 7 4 8 5 9 6 10 7 11 8 12 11 13 9 14
REMARK SMILES IDX 10 15 12 16 18 17 13 18 17 19 14 20 16 21 15 22 22 23 23 24
REMARK SMILES IDX 24 25 25 27 26 28 27 29 88 30 28 31 87 32 29 33 30 34 31 35
REMARK SMILES IDX 81 36 32 37 86 38 80 39 82 40 33 41 85 42 79 43 78 44 34 46
REMARK SMILES IDX 66 47 46 48 65 49 47 50 50 51 64 52 83 53 48 54 49 55 63 57
REMARK SMILES IDX 84 58 51 59 35 60 36 61 44 62 37 63 38 64 42 65 45 66 39 67
REMARK SMILES IDX 40 68 43 69 41 70 67 71 68 72 76 73 69 74 70 75 74 76 77 77
REMARK SMILES IDX 71 78 72 79 75 80 73 81 52 82 53 83 61 84 54 85 55 86 59 87
REMARK SMILES IDX 62 88 56 89 57 90 60 91 58 92
REMARK H PARENT 19 6 23 26 82 45 50 56
REMARK Flexibility Score: inf
ROOT
ATOM      1  C   UNL A   1      37.599  20.901  24.914  1.00  0.00     0.042 C 
ENDROOT
BRANCH   1   2
ATOM      2  C   UNL A   1      36.092  21.139  24.803  1.00  0.00     0.118 C 
BRANCH   2   3
ATOM      3  N   UNL A   1      35.794  22.403  24.151  1.00  0.00    -0.352 N 
ATOM      4  O   UNL A   1      33.831  22.789  25.266  1.00  0.00    -0.270 OA
ATOM      5  C   UNL A   1      34.629  23.087  24.383  1.00  0.00     0.244 C 
ATOM      6  H   UNL A   1      36.451  22.780  23.523  1.00  0.00     0.163 HD
BRANCH   5   7
ATOM      7  C   UNL A   1      34.288  24.179  23.434  1.00  0.00     0.077 C 
ATOM      8  C   UNL A   1      33.330  25.101  23.598  1.00  0.00     0.077 C 
BRANCH   8   9
ATOM      9  C   UNL A   1      33.306  26.344  22.790  1.00  0.00     0.253 C 
ATOM     10  O   UNL A   1      33.759  26.263  21.644  1.00  0.00    -0.269 OA
BRANCH   9  11
ATOM     11  N   UNL A   1      32.795  27.512  23.271  1.00  0.00    -0.277 N 
ATOM     12  C   UNL A   1      33.540  28.371  24.208  1.00  0.00     0.151 C 
ATOM     13  C   UNL A   1      31.553  28.035  23.051  1.00  0.00     0.213 A 
ATOM     14  C   UNL A   1      32.580  29.522  24.555  1.00  0.00     0.148 C 
ATOM     15  N   UNL A   1      31.417  29.192  23.755  1.00  0.00    -0.308 N 
ATOM     16  N   UNL A   1      30.467  27.735  22.395  1.00  0.00    -0.212 NA
ATOM     17  C   UNL A   1      30.201  29.729  23.537  1.00  0.00     0.070 A 
ATOM     18  C   UNL A   1      29.608  28.791  22.678  1.00  0.00     0.091 A 
ATOM     19  C   UNL A   1      29.561  30.890  23.973  1.00  0.00     0.028 A 
ATOM     20  C   UNL A   1      28.297  29.020  22.236  1.00  0.00     0.031 A 
ATOM     21  C   UNL A   1      28.258  31.098  23.509  1.00  0.00     0.002 A 
ATOM     22  C   UNL A   1      27.633  30.181  22.659  1.00  0.00     0.002 A 
ENDBRANCH   9  11
ENDBRANCH   8   9
ENDBRANCH   5   7
ENDBRANCH   2   3
ENDBRANCH   1   2
BRANCH   1  23
ATOM     23  C   UNL A   1      38.320  21.977  25.730  1.00  0.00     0.118 C 
BRANCH  23  24
ATOM     24  N   UNL A   1      39.360  21.466  26.616  1.00  0.00    -0.352 N 
ATOM     25  C   UNL A   1      40.312  22.151  27.343  1.00  0.00     0.251 C 
ATOM     26  H   UNL A   1      39.386  20.486  26.708  1.00  0.00     0.163 HD
ATOM     27  O   UNL A   1      41.136  21.562  28.018  1.00  0.00    -0.269 OA
BRANCH  25  28
ATOM     28  C   UNL A   1      40.359  23.620  27.225  1.00  0.00     0.039 A 
ATOM     29  C   UNL A   1      41.165  24.225  26.261  1.00  0.00     0.014 A 
ATOM     30  C   UNL A   1      39.673  24.383  28.177  1.00  0.00     0.014 A 
ATOM     31  C   UNL A   1      41.445  25.579  26.368  1.00  0.00     0.010 A 
ATOM     32  C   UNL A   1      39.917  25.751  28.252  1.00  0.00     0.010 A 
ATOM     33  C   UNL A   1      40.857  26.331  27.393  1.00  0.00    -0.014 A 
BRANCH  33  34
ATOM     34  C   UNL A   1      41.315  27.713  27.552  1.00  0.00     0.031 A 
ATOM     35  C   UNL A   1      40.248  28.738  27.673  1.00  0.00     0.074 A 
ATOM     36  C   UNL A   1      42.523  27.985  28.090  1.00  0.00     0.049 A 
ATOM     37  N   UNL A   1      39.667  29.015  28.802  1.00  0.00    -0.248 NA
ATOM     38  C   UNL A   1      39.617  29.352  26.506  1.00  0.00     0.031 C 
ATOM     39  C   UNL A   1      43.221  27.115  29.046  1.00  0.00     0.029 A 
ATOM     40  N   UNL A   1      43.255  29.145  28.087  1.00  0.00    -0.354 N 
ATOM     41  C   UNL A   1      38.553  29.773  28.504  1.00  0.00     0.074 A 
ATOM     42  C   UNL A   1      38.576  29.980  27.072  1.00  0.00     0.031 C 
ATOM     43  C   UNL A   1      44.164  27.842  29.678  1.00  0.00     0.029 A 
ATOM     44  C   UNL A   1      44.255  29.155  29.053  1.00  0.00     0.049 A 
ATOM     45  H   UNL A   1      43.091  29.892  27.466  1.00  0.00     0.167 HD
ATOM     46  C   UNL A   1      37.656  30.168  29.442  1.00  0.00     0.037 A 
ATOM     47  C   UNL A   1      44.758  30.264  29.655  1.00  0.00     0.037 A 
ATOM     48  C   UNL A   1      37.935  29.774  30.789  1.00  0.00     0.049 A 
ATOM     49  C   UNL A   1      43.562  30.735  30.444  1.00  0.00     0.074 A 
ATOM     50  C   UNL A   1      37.605  28.718  31.612  1.00  0.00     0.029 A 
ATOM     51  N   UNL A   1      38.820  30.532  31.519  1.00  0.00    -0.354 N 
ATOM     52  N   UNL A   1      43.182  30.270  31.605  1.00  0.00    -0.248 NA
ATOM     53  C   UNL A   1      42.547  31.532  29.747  1.00  0.00     0.031 C 
ATOM     54  C   UNL A   1      38.635  28.666  32.601  1.00  0.00     0.029 A 
ATOM     55  C   UNL A   1      39.557  29.659  32.280  1.00  0.00     0.049 A 
ATOM     56  H   UNL A   1      38.909  31.512  31.499  1.00  0.00     0.167 HD
ATOM     57  C   UNL A   1      41.801  30.479  31.651  1.00  0.00     0.074 A 
ATOM     58  C   UNL A   1      41.481  31.288  30.495  1.00  0.00     0.031 C 
ATOM     59  C   UNL A   1      40.973  29.825  32.513  1.00  0.00     0.037 A 
BRANCH  46  60
ATOM     60  C   UNL A   1      36.511  31.044  29.160  1.00  0.00     0.064 A 
ATOM     61  C   UNL A   1      35.362  30.483  28.590  1.00  0.00     0.173 A 
ATOM     62  C   UNL A   1      36.589  32.435  29.278  1.00  0.00     0.173 A 
ATOM     63  F   UNL A   1      35.267  29.149  28.455  1.00  0.00    -0.203 F 
ATOM     64  C   UNL A   1      34.333  31.287  28.120  1.00  0.00     0.198 A 
ATOM     65  C   UNL A   1      35.555  33.240  28.808  1.00  0.00     0.198 A 
ATOM     66  F   UNL A   1      37.678  33.009  29.810  1.00  0.00    -0.203 F 
ATOM     67  F   UNL A   1      33.258  30.728  27.548  1.00  0.00    -0.200 F 
ATOM     68  C   UNL A   1      34.434  32.667  28.222  1.00  0.00     0.200 A 
ATOM     69  F   UNL A   1      35.649  34.574  28.901  1.00  0.00    -0.200 F 
ATOM     70  F   UNL A   1      33.454  33.444  27.741  1.00  0.00    -0.200 F 
ENDBRANCH  46  60
BRANCH  47  71
ATOM     71  C   UNL A   1      45.566  31.133  28.741  1.00  0.00     0.064 A 
ATOM     72  C   UNL A   1      46.950  31.271  29.000  1.00  0.00     0.173 A 
ATOM     73  C   UNL A   1      45.079  31.833  27.630  1.00  0.00     0.173 A 
ATOM     74  F   UNL A   1      47.488  30.731  30.104  1.00  0.00    -0.203 F 
ATOM     75  C   UNL A   1      47.804  31.949  28.130  1.00  0.00     0.198 A 
ATOM     76  C   UNL A   1      45.938  32.493  26.746  1.00  0.00     0.198 A 
ATOM     77  F   UNL A   1      43.768  31.882  27.363  1.00  0.00    -0.203 F 
ATOM     78  F   UNL A   1      49.116  32.016  28.395  1.00  0.00    -0.200 F 
ATOM     79  C   UNL A   1      47.300  32.536  26.985  1.00  0.00     0.200 A 
ATOM     80  F   UNL A   1      45.437  33.070  25.644  1.00  0.00    -0.200 F 
ATOM     81  F   UNL A   1      48.121  33.144  26.118  1.00  0.00    -0.200 F 
ENDBRANCH  47  71
BRANCH  59  82
ATOM     82  C   UNL A   1      41.647  29.040  33.580  1.00  0.00     0.064 A 
ATOM     83  C   UNL A   1      42.166  27.772  33.292  1.00  0.00     0.173 A 
ATOM     84  C   UNL A   1      41.822  29.550  34.875  1.00  0.00     0.173 A 
ATOM     85  F   UNL A   1      42.029  27.249  32.062  1.00  0.00    -0.203 F 
ATOM     86  C   UNL A   1      42.859  27.049  34.257  1.00  0.00     0.198 A 
ATOM     87  C   UNL A   1      42.536  28.834  35.831  1.00  0.00     0.198 A 
ATOM     88  F   UNL A   1      41.333  30.754  35.210  1.00  0.00    -0.203 F 
ATOM     89  F   UNL A   1      43.361  25.843  33.958  1.00  0.00    -0.200 F 
ATOM     90  C   UNL A   1      43.055  27.587  35.521  1.00  0.00     0.200 A 
ATOM     91  F   UNL A   1      42.741  29.362  37.046  1.00  0.00    -0.200 F 
ATOM     92  F   UNL A   1      43.758  26.906  36.438  1.00  0.00    -0.200 F 
ENDBRANCH  59  82
ENDBRANCH  33  34
ENDBRANCH  25  28
ENDBRANCH  23  24
ENDBRANCH   1  23
TORSDOF 12
ENDMDL
MODEL 3
REMARK VINA RESULT:     -12.5      7.467     11.552
REMARK SMILES O=C(/C=C/C(=O)N1CCn2c1nc1ccccc12)NCCCNC(=O)c1ccc(-c2c3nc(c(-c4c(F)c(F)c(F)c(F)c4F)c4ccc([nH]4)c(-c4c(F)c(F)c(F)c(F)c4F)c4nc(c(-c5c(F)c(F)c(F)c(F)c5F)c5ccc2[nH]5)C=C4)C=C3)cc1
REMARK SMILES IDX 21 1 20 2 19 3 1 4 2 5 3 7 4 8 5 9 6 10 7 11 8 12 11 13 9 14
REMARK SMILES IDX 10 15 12 16 18 17 13 18 17 19 14 20 16 21 15 22 22 23 23 24
REMARK SMILES IDX 24 25 25 27 26 28 27 29 88 30 28 31 87 32 29 33 30 34 31 35
REMARK SMILES IDX 81 36 32 37 86 38 80 39 82 40 33 41 85 42 79 43 78 44 34 46
REMARK SMILES IDX 66 47 46 48 65 49 47 50 50 51 64 52 83 53 48 54 49 55 63 57
REMARK SMILES IDX 84 58 51 59 35 60 36 61 44 62 37 63 38 64 42 65 45 66 39 67
REMARK SMILES IDX 40 68 43 69 41 70 67 71 68 72 76 73 69 74 70 75 74 76 77 77
REMARK SMILES IDX 71 78 72 79 75 80 73 81 52 82 53 83 61 84 54 85 55 86 59 87
REMARK SMILES IDX 62 88 56 89 57 90 60 91 58 92
REMARK H PARENT 19 6 23 26 82 45 50 56
REMARK Flexibility Score: inf
ROOT
ATOM      1  C   UNL A   1      44.964  38.809  26.903  1.00  0.00     0.042 C 
ENDROOT
BRANCH   1   2
ATOM      2  C   UNL A   1      43.866  39.531  27.688  1.00  0.00     0.118 C 
BRANCH   2   3
ATOM      3  N   UNL A   1      43.220  40.557  26.888  1.00  0.00    -0.352 N 
ATOM      4  O   UNL A   1      41.321  39.354  26.447  1.00  0.00    -0.270 OA
ATOM      5  C   UNL A   1      42.021  40.343  26.257  1.00  0.00     0.244 C 
ATOM      6  H   UNL A   1      43.657  41.434  26.795  1.00  0.00     0.163 HD
BRANCH   5   7
ATOM      7  C   UNL A   1      41.622  41.328  25.218  1.00  0.00     0.077 C 
ATOM      8  C   UNL A   1      42.429  41.889  24.306  1.00  0.00     0.077 C 
BRANCH   8   9
ATOM      9  C   UNL A   1      41.885  42.564  23.104  1.00  0.00     0.253 C 
ATOM     10  O   UNL A   1      40.678  42.828  23.120  1.00  0.00    -0.269 OA
BRANCH   9  11
ATOM     11  N   UNL A   1      42.671  42.898  22.042  1.00  0.00    -0.277 N 
ATOM     12  C   UNL A   1      44.142  42.828  22.097  1.00  0.00     0.151 C 
ATOM     13  C   UNL A   1      42.276  43.398  20.833  1.00  0.00     0.213 A 
ATOM     14  C   UNL A   1      44.625  43.363  20.738  1.00  0.00     0.148 C 
ATOM     15  N   UNL A   1      43.373  43.649  20.067  1.00  0.00    -0.308 N 
ATOM     16  N   UNL A   1      41.172  43.725  20.224  1.00  0.00    -0.212 NA
ATOM     17  C   UNL A   1      42.999  44.128  18.865  1.00  0.00     0.070 A 
ATOM     18  C   UNL A   1      41.602  44.178  18.981  1.00  0.00     0.091 A 
ATOM     19  C   UNL A   1      43.694  44.516  17.718  1.00  0.00     0.028 A 
ATOM     20  C   UNL A   1      40.854  44.650  17.893  1.00  0.00     0.031 A 
ATOM     21  C   UNL A   1      42.921  44.974  16.645  1.00  0.00     0.002 A 
ATOM     22  C   UNL A   1      41.528  45.044  16.728  1.00  0.00     0.002 A 
ENDBRANCH   9  11
ENDBRANCH   8   9
ENDBRANCH   5   7
ENDBRANCH   2   3
ENDBRANCH   1   2
BRANCH   1  23
ATOM     23  C   UNL A   1      44.986  37.298  27.149  1.00  0.00     0.118 C 
BRANCH  23  24
ATOM     24  N   UNL A   1      44.308  36.511  26.126  1.00  0.00    -0.352 N 
ATOM     25  C   UNL A   1      43.497  35.403  26.262  1.00  0.00     0.251 C 
ATOM     26  H   UNL A   1      44.451  36.815  25.201  1.00  0.00     0.163 HD
ATOM     27  O   UNL A   1      43.028  34.839  25.290  1.00  0.00    -0.269 OA
BRANCH  25  28
ATOM     28  C   UNL A   1      43.266  34.865  27.616  1.00  0.00     0.039 A 
ATOM     29  C   UNL A   1      44.117  33.893  28.142  1.00  0.00     0.014 A 
ATOM     30  C   UNL A   1      42.114  35.266  28.301  1.00  0.00     0.014 A 
ATOM     31  C   UNL A   1      43.714  33.177  29.260  1.00  0.00     0.010 A 
ATOM     32  C   UNL A   1      41.736  34.580  29.451  1.00  0.00     0.010 A 
ATOM     33  C   UNL A   1      42.500  33.491  29.884  1.00  0.00    -0.014 A 
BRANCH  33  34
ATOM     34  C   UNL A   1      42.053  32.598  30.957  1.00  0.00     0.031 A 
ATOM     35  C   UNL A   1      40.636  32.747  31.373  1.00  0.00     0.074 A 
ATOM     36  C   UNL A   1      42.656  31.409  31.164  1.00  0.00     0.049 A 
ATOM     37  N   UNL A   1      39.658  32.158  30.751  1.00  0.00    -0.248 NA
ATOM     38  C   UNL A   1      40.211  33.732  32.365  1.00  0.00     0.031 C 
ATOM     39  C   UNL A   1      43.342  30.632  30.123  1.00  0.00     0.029 A 
ATOM     40  N   UNL A   1      42.596  30.558  32.239  1.00  0.00    -0.354 N 
ATOM     41  C   UNL A   1      38.490  32.738  31.204  1.00  0.00     0.074 A 
ATOM     42  C   UNL A   1      38.878  33.689  32.222  1.00  0.00     0.031 C 
ATOM     43  C   UNL A   1      43.464  29.358  30.546  1.00  0.00     0.029 A 
ATOM     44  C   UNL A   1      43.036  29.274  31.937  1.00  0.00     0.049 A 
ATOM     45  H   UNL A   1      42.275  30.828  33.130  1.00  0.00     0.167 HD
ATOM     46  C   UNL A   1      37.269  32.427  30.701  1.00  0.00     0.037 A 
ATOM     47  C   UNL A   1      42.621  28.135  32.550  1.00  0.00     0.037 A 
ATOM     48  C   UNL A   1      37.242  31.432  29.673  1.00  0.00     0.049 A 
ATOM     49  C   UNL A   1      41.178  28.077  32.114  1.00  0.00     0.074 A 
ATOM     50  C   UNL A   1      37.281  31.415  28.295  1.00  0.00     0.029 A 
ATOM     51  N   UNL A   1      37.269  30.109  30.047  1.00  0.00    -0.354 N 
ATOM     52  N   UNL A   1      40.746  27.624  30.966  1.00  0.00    -0.248 NA
ATOM     53  C   UNL A   1      40.201  28.875  32.860  1.00  0.00     0.031 C 
ATOM     54  C   UNL A   1      37.770  30.120  27.940  1.00  0.00     0.029 A 
ATOM     55  C   UNL A   1      38.053  29.453  29.130  1.00  0.00     0.049 A 
ATOM     56  H   UNL A   1      36.815  29.709  30.823  1.00  0.00     0.167 HD
ATOM     57  C   UNL A   1      39.553  28.311  30.727  1.00  0.00     0.074 A 
ATOM     58  C   UNL A   1      39.258  29.037  31.943  1.00  0.00     0.031 C 
ATOM     59  C   UNL A   1      38.976  28.405  29.496  1.00  0.00     0.037 A 
BRANCH  46  60
ATOM     60  C   UNL A   1      36.007  32.969  31.225  1.00  0.00     0.064 A 
ATOM     61  C   UNL A   1      35.342  33.952  30.483  1.00  0.00     0.173 A 
ATOM     62  C   UNL A   1      35.542  32.667  32.507  1.00  0.00     0.173 A 
ATOM     63  F   UNL A   1      35.776  34.270  29.252  1.00  0.00    -0.203 F 
ATOM     64  C   UNL A   1      34.261  34.640  31.019  1.00  0.00     0.198 A 
ATOM     65  C   UNL A   1      34.455  33.355  33.042  1.00  0.00     0.198 A 
ATOM     66  F   UNL A   1      36.159  31.737  33.251  1.00  0.00    -0.203 F 
ATOM     67  F   UNL A   1      33.661  35.600  30.302  1.00  0.00    -0.200 F 
ATOM     68  C   UNL A   1      33.823  34.347  32.302  1.00  0.00     0.200 A 
ATOM     69  F   UNL A   1      34.032  33.078  34.283  1.00  0.00    -0.200 F 
ATOM     70  F   UNL A   1      32.799  35.031  32.829  1.00  0.00    -0.200 F 
ENDBRANCH  46  60
BRANCH  47  71
ATOM     71  C   UNL A   1      43.082  28.011  33.970  1.00  0.00     0.064 A 
ATOM     72  C   UNL A   1      44.311  28.614  34.329  1.00  0.00     0.173 A 
ATOM     73  C   UNL A   1      42.402  27.349  34.999  1.00  0.00     0.173 A 
ATOM     74  F   UNL A   1      45.089  29.173  33.390  1.00  0.00    -0.203 F 
ATOM     75  C   UNL A   1      44.754  28.664  35.651  1.00  0.00     0.198 A 
ATOM     76  C   UNL A   1      42.833  27.419  36.327  1.00  0.00     0.198 A 
ATOM     77  F   UNL A   1      41.297  26.635  34.751  1.00  0.00    -0.203 F 
ATOM     78  F   UNL A   1      45.904  29.284  35.949  1.00  0.00    -0.200 F 
ATOM     79  C   UNL A   1      43.998  28.092  36.656  1.00  0.00     0.200 A 
ATOM     80  F   UNL A   1      42.099  26.849  37.293  1.00  0.00    -0.200 F 
ATOM     81  F   UNL A   1      44.390  28.181  37.933  1.00  0.00    -0.200 F 
ENDBRANCH  47  71
BRANCH  59  82
ATOM     82  C   UNL A   1      39.561  27.530  28.445  1.00  0.00     0.064 A 
ATOM     83  C   UNL A   1      40.398  28.078  27.466  1.00  0.00     0.173 A 
ATOM     84  C   UNL A   1      39.333  26.146  28.424  1.00  0.00     0.173 A 
ATOM     85  F   UNL A   1      40.651  29.397  27.455  1.00  0.00    -0.203 F 
ATOM     86  C   UNL A   1      41.009  27.268  26.515  1.00  0.00     0.198 A 
ATOM     87  C   UNL A   1      39.963  25.335  27.485  1.00  0.00     0.198 A 
ATOM     88  F   UNL A   1      38.527  25.569  29.330  1.00  0.00    -0.203 F 
ATOM     89  F   UNL A   1      41.819  27.809  25.596  1.00  0.00    -0.200 F 
ATOM     90  C   UNL A   1      40.801  25.896  26.534  1.00  0.00     0.200 A 
ATOM     91  F   UNL A   1      39.778  24.008  27.515  1.00  0.00    -0.200 F 
ATOM     92  F   UNL A   1      41.423  25.111  25.641  1.00  0.00    -0.200 F 
ENDBRANCH  59  82
ENDBRANCH  33  34
ENDBRANCH  25  28
ENDBRANCH  23  24
ENDBRANCH   1  23
TORSDOF 12
ENDMDL
