MODEL 1
REMARK VINA RESULT:     -14.2      0.000      0.000
REMARK SMILES CC(C)(C)[NH2+]CC(=O)N1Cc2nc[nH]c2C[C@@H]1C(=O)NCCCNC(=O)c1ccc(-c2c3nc(c(-c4c(F)c(F)c(F)c(F)c4F)c4ccc([nH]4)c(-c4c(F)c(F)c(F)c(F)c4F)c4nc(c(-c5c(F)c(F)c(F)c(F)c5F)c5ccc2[nH]5)C=C4)C=C3)cc1
REMARK SMILES IDX 21 1 20 2 18 3 19 4 17 6 9 7 10 8 11 9 16 10 12 11 15 12
REMARK SMILES IDX 13 13 14 14 7 16 8 17 6 18 5 19 2 22 1 23 3 24 4 25 22 26
REMARK SMILES IDX 23 27 24 28 25 29 26 31 27 32 28 33 89 34 29 35 88 36 30 37
REMARK SMILES IDX 31 38 32 39 82 40 33 41 87 42 81 43 83 44 34 45 86 46 80 47
REMARK SMILES IDX 79 48 35 50 67 51 47 52 66 53 48 54 51 55 65 56 84 57 49 58
REMARK SMILES IDX 50 59 64 61 85 62 52 63 36 64 37 65 45 66 38 67 39 68 43 69
REMARK SMILES IDX 46 70 40 71 41 72 44 73 42 74 68 75 69 76 77 77 70 78 71 79
REMARK SMILES IDX 75 80 78 81 72 82 73 83 76 84 74 85 53 86 54 87 62 88 55 89
REMARK SMILES IDX 56 90 60 91 63 92 57 93 58 94 61 95 59 96
REMARK H PARENT 20 5 14 15 5 20 5 21 24 30 83 49 51 60
REMARK Flexibility Score: inf
ROOT
ATOM      1  C   UNL A   1      39.594  21.704  26.175  1.00  0.00     0.117 C 
ENDROOT
BRANCH   1   2
ATOM      2  N   UNL A   1      38.227  21.770  25.254  1.00  0.00    -0.354 N 
ATOM      3  C   UNL A   1      36.865  21.950  25.020  1.00  0.00     0.243 C 
ATOM      4  O   UNL A   1      36.761  22.179  23.785  1.00  0.00    -0.273 OA
ATOM      5  H   UNL A   1      38.569  21.565  24.355  1.00  0.00     0.163 HD
BRANCH   3   6
ATOM      6  C   UNL A   1      35.267  22.101  25.879  1.00  0.00     0.181 C 
ATOM      7  N   UNL A   1      33.749  21.289  26.097  1.00  0.00    -0.319 N 
ATOM      8  C   UNL A   1      32.810  21.917  27.054  1.00  0.00     0.178 C 
ATOM      9  C   UNL A   1      32.668  23.345  26.749  1.00  0.00     0.081 A 
ATOM     10  C   UNL A   1      34.961  23.653  25.665  1.00  0.00     0.091 C 
ATOM     11  N   UNL A   1      31.558  24.095  27.034  1.00  0.00    -0.240 NA
ATOM     12  C   UNL A   1      33.642  24.105  26.161  1.00  0.00     0.042 A 
ATOM     13  C   UNL A   1      31.847  25.301  26.600  1.00  0.00     0.197 A 
ATOM     14  N   UNL A   1      33.118  25.366  26.092  1.00  0.00    -0.348 N 
ATOM     15  H   UNL A   1      33.567  26.169  25.741  1.00  0.00     0.167 HD
BRANCH   7  16
ATOM     16  C   UNL A   1      33.018  20.281  25.359  1.00  0.00     0.278 C 
ATOM     17  O   UNL A   1      31.799  20.417  25.182  1.00  0.00    -0.268 OA
BRANCH  16  18
ATOM     18  C   UNL A   1      33.666  18.765  24.959  1.00  0.00     0.362 C 
BRANCH  18  19
ATOM     19  N   UNL A   1      33.350  17.531  25.839  1.00  0.00    -0.334 N 
ATOM     20  H   UNL A   1      33.767  17.634  26.764  1.00  0.00     0.347 HD
ATOM     21  H   UNL A   1      32.348  17.409  25.981  1.00  0.00     0.347 HD
BRANCH  19  22
ATOM     22  C   UNL A   1      33.941  16.403  25.136  1.00  0.00     0.088 C 
ATOM     23  C   UNL A   1      34.392  17.321  23.906  1.00  0.00     0.078 C 
ATOM     24  C   UNL A   1      32.662  15.408  25.563  1.00  0.00     0.078 C 
ATOM     25  C   UNL A   1      35.365  15.808  25.347  1.00  0.00     0.078 C 
ENDBRANCH  19  22
ENDBRANCH  18  19
ENDBRANCH  16  18
ENDBRANCH   7  16
ENDBRANCH   3   6
ENDBRANCH   1   2
BRANCH   1  26
ATOM     26  C   UNL A   1      40.549  20.447  26.295  1.00  0.00     0.042 C 
BRANCH  26  27
ATOM     27  C   UNL A   1      41.908  20.494  27.025  1.00  0.00     0.118 C 
BRANCH  27  28
ATOM     28  N   UNL A   1      43.012  19.690  26.475  1.00  0.00    -0.352 N 
ATOM     29  C   UNL A   1      43.899  20.100  25.480  1.00  0.00     0.251 C 
ATOM     30  H   UNL A   1      43.135  18.785  26.841  1.00  0.00     0.163 HD
ATOM     31  O   UNL A   1      44.493  19.320  24.745  1.00  0.00    -0.269 OA
BRANCH  29  32
ATOM     32  C   UNL A   1      44.134  21.547  25.400  1.00  0.00     0.039 A 
ATOM     33  C   UNL A   1      43.389  22.395  24.579  1.00  0.00     0.014 A 
ATOM     34  C   UNL A   1      44.872  22.023  26.472  1.00  0.00     0.014 A 
ATOM     35  C   UNL A   1      43.279  23.735  24.952  1.00  0.00     0.010 A 
ATOM     36  C   UNL A   1      44.537  23.254  26.955  1.00  0.00     0.010 A 
ATOM     37  C   UNL A   1      43.799  24.146  26.191  1.00  0.00    -0.014 A 
BRANCH  37  38
ATOM     38  C   UNL A   1      43.522  25.454  26.775  1.00  0.00     0.031 A 
ATOM     39  C   UNL A   1      44.493  26.535  26.458  1.00  0.00     0.074 A 
ATOM     40  C   UNL A   1      42.407  25.733  27.489  1.00  0.00     0.049 A 
ATOM     41  N   UNL A   1      45.463  26.929  27.213  1.00  0.00    -0.248 NA
ATOM     42  C   UNL A   1      44.481  27.165  25.133  1.00  0.00     0.031 C 
ATOM     43  C   UNL A   1      41.207  24.918  27.746  1.00  0.00     0.029 A 
ATOM     44  N   UNL A   1      42.121  26.883  28.157  1.00  0.00    -0.354 N 
ATOM     45  C   UNL A   1      46.079  27.986  26.554  1.00  0.00     0.074 A 
ATOM     46  C   UNL A   1      45.538  27.981  25.217  1.00  0.00     0.031 C 
ATOM     47  C   UNL A   1      40.251  25.661  28.338  1.00  0.00     0.029 A 
ATOM     48  C   UNL A   1      40.853  26.923  28.710  1.00  0.00     0.049 A 
ATOM     49  H   UNL A   1      42.763  27.625  28.240  1.00  0.00     0.167 HD
ATOM     50  C   UNL A   1      46.820  28.896  27.249  1.00  0.00     0.037 A 
ATOM     51  C   UNL A   1      40.340  27.869  29.526  1.00  0.00     0.037 A 
ATOM     52  C   UNL A   1      47.114  28.408  28.577  1.00  0.00     0.049 A 
ATOM     53  C   UNL A   1      41.492  28.529  30.184  1.00  0.00     0.074 A 
ATOM     54  C   UNL A   1      47.812  27.328  29.082  1.00  0.00     0.029 A 
ATOM     55  N   UNL A   1      46.310  28.837  29.608  1.00  0.00    -0.354 N 
ATOM     56  N   UNL A   1      42.275  27.918  31.032  1.00  0.00    -0.248 NA
ATOM     57  C   UNL A   1      42.066  29.693  29.529  1.00  0.00     0.031 C 
ATOM     58  C   UNL A   1      47.027  26.865  30.183  1.00  0.00     0.029 A 
ATOM     59  C   UNL A   1      45.941  27.731  30.331  1.00  0.00     0.049 A 
ATOM     60  H   UNL A   1      46.049  29.768  29.793  1.00  0.00     0.167 HD
ATOM     61  C   UNL A   1      43.554  28.351  30.711  1.00  0.00     0.074 A 
ATOM     62  C   UNL A   1      43.353  29.503  29.833  1.00  0.00     0.031 C 
ATOM     63  C   UNL A   1      44.652  27.579  30.968  1.00  0.00     0.037 A 
BRANCH  50  64
ATOM     64  C   UNL A   1      46.974  30.356  26.895  1.00  0.00     0.064 A 
ATOM     65  C   UNL A   1      48.257  30.942  26.948  1.00  0.00     0.173 A 
ATOM     66  C   UNL A   1      45.897  31.263  26.815  1.00  0.00     0.173 A 
ATOM     67  F   UNL A   1      49.357  30.176  27.024  1.00  0.00    -0.203 F 
ATOM     68  C   UNL A   1      48.437  32.325  27.022  1.00  0.00     0.198 A 
ATOM     69  C   UNL A   1      46.083  32.645  26.839  1.00  0.00     0.198 A 
ATOM     70  F   UNL A   1      44.623  30.858  26.826  1.00  0.00    -0.203 F 
ATOM     71  F   UNL A   1      49.665  32.829  27.209  1.00  0.00    -0.200 F 
ATOM     72  C   UNL A   1      47.349  33.176  26.980  1.00  0.00     0.200 A 
ATOM     73  F   UNL A   1      45.014  33.452  26.812  1.00  0.00    -0.200 F 
ATOM     74  F   UNL A   1      47.509  34.497  27.126  1.00  0.00    -0.200 F 
ENDBRANCH  50  64
BRANCH  51  75
ATOM     75  C   UNL A   1      38.969  28.411  29.485  1.00  0.00     0.064 A 
ATOM     76  C   UNL A   1      38.210  28.565  30.653  1.00  0.00     0.173 A 
ATOM     77  C   UNL A   1      38.477  29.037  28.322  1.00  0.00     0.173 A 
ATOM     78  F   UNL A   1      38.634  28.029  31.806  1.00  0.00    -0.203 F 
ATOM     79  C   UNL A   1      37.040  29.331  30.664  1.00  0.00     0.198 A 
ATOM     80  C   UNL A   1      37.310  29.800  28.334  1.00  0.00     0.198 A 
ATOM     81  F   UNL A   1      39.170  28.996  27.174  1.00  0.00    -0.203 F 
ATOM     82  F   UNL A   1      36.370  29.508  31.811  1.00  0.00    -0.200 F 
ATOM     83  C   UNL A   1      36.599  29.958  29.509  1.00  0.00     0.200 A 
ATOM     84  F   UNL A   1      36.916  30.431  27.219  1.00  0.00    -0.200 F 
ATOM     85  F   UNL A   1      35.514  30.744  29.537  1.00  0.00    -0.200 F 
ENDBRANCH  51  75
BRANCH  63  86
ATOM     86  C   UNL A   1      44.453  26.347  31.812  1.00  0.00     0.064 A 
ATOM     87  C   UNL A   1      44.261  25.058  31.284  1.00  0.00     0.173 A 
ATOM     88  C   UNL A   1      44.605  26.451  33.199  1.00  0.00     0.173 A 
ATOM     89  F   UNL A   1      44.199  24.858  29.965  1.00  0.00    -0.203 F 
ATOM     90  C   UNL A   1      44.189  23.935  32.108  1.00  0.00     0.198 A 
ATOM     91  C   UNL A   1      44.562  25.327  34.020  1.00  0.00     0.198 A 
ATOM     92  F   UNL A   1      44.846  27.648  33.758  1.00  0.00    -0.203 F 
ATOM     93  F   UNL A   1      44.001  22.718  31.574  1.00  0.00    -0.200 F 
ATOM     94  C   UNL A   1      44.346  24.070  33.477  1.00  0.00     0.200 A 
ATOM     95  F   UNL A   1      44.760  25.456  35.339  1.00  0.00    -0.200 F 
ATOM     96  F   UNL A   1      44.314  22.989  34.268  1.00  0.00    -0.200 F 
ENDBRANCH  63  86
ENDBRANCH  37  38
ENDBRANCH  29  32
ENDBRANCH  27  28
ENDBRANCH  26  27
ENDBRANCH   1  26
TORSDOF 14
ENDMDL
MODEL 2
REMARK VINA RESULT:     -13.8      1.275      3.509
REMARK SMILES CC(C)(C)[NH2+]CC(=O)N1Cc2nc[nH]c2C[C@@H]1C(=O)NCCCNC(=O)c1ccc(-c2c3nc(c(-c4c(F)c(F)c(F)c(F)c4F)c4ccc([nH]4)c(-c4c(F)c(F)c(F)c(F)c4F)c4nc(c(-c5c(F)c(F)c(F)c(F)c5F)c5ccc2[nH]5)C=C4)C=C3)cc1
REMARK SMILES IDX 21 1 20 2 18 3 19 4 17 6 9 7 10 8 11 9 16 10 12 11 15 12
REMARK SMILES IDX 13 13 14 14 7 16 8 17 6 18 5 19 2 22 1 23 3 24 4 25 22 26
REMARK SMILES IDX 23 27 24 28 25 29 26 31 27 32 28 33 89 34 29 35 88 36 30 37
REMARK SMILES IDX 31 38 32 39 82 40 33 41 87 42 81 43 83 44 34 45 86 46 80 47
REMARK SMILES IDX 79 48 35 50 67 51 47 52 66 53 48 54 51 55 65 56 84 57 49 58
REMARK SMILES IDX 50 59 64 61 85 62 52 63 36 64 37 65 45 66 38 67 39 68 43 69
REMARK SMILES IDX 46 70 40 71 41 72 44 73 42 74 68 75 69 76 77 77 70 78 71 79
REMARK SMILES IDX 75 80 78 81 72 82 73 83 76 84 74 85 53 86 54 87 62 88 55 89
REMARK SMILES IDX 56 90 60 91 63 92 57 93 58 94 61 95 59 96
REMARK H PARENT 20 5 14 15 5 20 5 21 24 30 83 49 51 60
REMARK Flexibility Score: inf
ROOT
ATOM      1  C   UNL A   1      39.940  20.966  26.453  1.00  0.00     0.117 C 
ENDROOT
BRANCH   1   2
ATOM      2  N   UNL A   1      38.988  22.265  26.098  1.00  0.00    -0.354 N 
ATOM      3  C   UNL A   1      37.811  22.907  25.718  1.00  0.00     0.243 C 
ATOM      4  O   UNL A   1      37.936  24.100  26.105  1.00  0.00    -0.273 OA
ATOM      5  H   UNL A   1      39.606  23.021  26.229  1.00  0.00     0.163 HD
BRANCH   3   6
ATOM      6  C   UNL A   1      36.165  22.587  25.009  1.00  0.00     0.181 C 
ATOM      7  N   UNL A   1      34.573  23.265  24.887  1.00  0.00    -0.319 N 
ATOM      8  C   UNL A   1      33.612  22.517  24.047  1.00  0.00     0.178 C 
ATOM      9  C   UNL A   1      33.613  21.100  24.429  1.00  0.00     0.081 A 
ATOM     10  C   UNL A   1      36.006  21.029  25.322  1.00  0.00     0.091 C 
ATOM     11  N   UNL A   1      32.548  20.252  24.276  1.00  0.00    -0.240 NA
ATOM     12  C   UNL A   1      34.692  20.450  24.964  1.00  0.00     0.042 A 
ATOM     13  C   UNL A   1      32.970  19.097  24.739  1.00  0.00     0.197 A 
ATOM     14  N   UNL A   1      34.280  19.158  25.137  1.00  0.00    -0.348 N 
ATOM     15  H   UNL A   1      34.822  18.413  25.484  1.00  0.00     0.167 HD
BRANCH   7  16
ATOM     16  C   UNL A   1      33.826  24.251  25.639  1.00  0.00     0.278 C 
ATOM     17  O   UNL A   1      33.058  23.882  26.539  1.00  0.00    -0.268 OA
BRANCH  16  18
ATOM     18  C   UNL A   1      33.707  25.881  25.180  1.00  0.00     0.362 C 
BRANCH  18  19
ATOM     19  N   UNL A   1      33.598  26.985  26.260  1.00  0.00    -0.334 N 
ATOM     20  H   UNL A   1      32.812  26.799  26.884  1.00  0.00     0.347 HD
ATOM     21  H   UNL A   1      34.432  27.031  26.845  1.00  0.00     0.347 HD
BRANCH  19  22
ATOM     22  C   UNL A   1      33.382  28.218  25.521  1.00  0.00     0.088 C 
ATOM     23  C   UNL A   1      33.669  27.505  24.118  1.00  0.00     0.078 C 
ATOM     24  C   UNL A   1      34.210  29.107  26.675  1.00  0.00     0.078 C 
ATOM     25  C   UNL A   1      32.017  28.809  25.059  1.00  0.00     0.078 C 
ENDBRANCH  19  22
ENDBRANCH  18  19
ENDBRANCH  16  18
ENDBRANCH   7  16
ENDBRANCH   3   6
ENDBRANCH   1   2
BRANCH   1  26
ATOM     26  C   UNL A   1      41.353  20.669  25.803  1.00  0.00     0.042 C 
BRANCH  26  27
ATOM     27  C   UNL A   1      42.631  20.446  26.639  1.00  0.00     0.118 C 
BRANCH  27  28
ATOM     28  N   UNL A   1      43.734  19.691  26.021  1.00  0.00    -0.352 N 
ATOM     29  C   UNL A   1      44.597  20.174  25.038  1.00  0.00     0.251 C 
ATOM     30  H   UNL A   1      43.874  18.767  26.329  1.00  0.00     0.163 HD
ATOM     31  O   UNL A   1      45.187  19.448  24.246  1.00  0.00    -0.269 OA
BRANCH  29  32
ATOM     32  C   UNL A   1      44.814  21.626  25.044  1.00  0.00     0.039 A 
ATOM     33  C   UNL A   1      44.104  22.505  24.225  1.00  0.00     0.014 A 
ATOM     34  C   UNL A   1      45.483  22.056  26.179  1.00  0.00     0.014 A 
ATOM     35  C   UNL A   1      43.952  23.823  24.658  1.00  0.00     0.010 A 
ATOM     36  C   UNL A   1      45.102  23.257  26.703  1.00  0.00     0.010 A 
ATOM     37  C   UNL A   1      44.395  24.177  25.944  1.00  0.00    -0.014 A 
BRANCH  37  38
ATOM     38  C   UNL A   1      44.065  25.450  26.575  1.00  0.00     0.031 A 
ATOM     39  C   UNL A   1      45.018  26.567  26.340  1.00  0.00     0.074 A 
ATOM     40  C   UNL A   1      42.920  25.669  27.262  1.00  0.00     0.049 A 
ATOM     41  N   UNL A   1      45.952  26.950  27.145  1.00  0.00    -0.248 NA
ATOM     42  C   UNL A   1      45.034  27.256  25.044  1.00  0.00     0.031 C 
ATOM     43  C   UNL A   1      41.734  24.814  27.440  1.00  0.00     0.029 A 
ATOM     44  N   UNL A   1      42.583  26.780  27.970  1.00  0.00    -0.354 N 
ATOM     45  C   UNL A   1      46.562  28.051  26.554  1.00  0.00     0.074 A 
ATOM     46  C   UNL A   1      46.067  28.093  25.201  1.00  0.00     0.031 C 
ATOM     47  C   UNL A   1      40.740  25.507  28.031  1.00  0.00     0.029 A 
ATOM     48  C   UNL A   1      41.296  26.765  28.480  1.00  0.00     0.049 A 
ATOM     49  H   UNL A   1      43.202  27.533  28.108  1.00  0.00     0.167 HD
ATOM     50  C   UNL A   1      47.256  28.946  27.314  1.00  0.00     0.037 A 
ATOM     51  C   UNL A   1      40.732  27.660  29.319  1.00  0.00     0.037 A 
ATOM     52  C   UNL A   1      47.518  28.405  28.630  1.00  0.00     0.049 A 
ATOM     53  C   UNL A   1      41.844  28.318  30.044  1.00  0.00     0.074 A 
ATOM     54  C   UNL A   1      48.226  27.321  29.110  1.00  0.00     0.029 A 
ATOM     55  N   UNL A   1      46.669  28.767  29.649  1.00  0.00    -0.354 N 
ATOM     56  N   UNL A   1      42.614  27.688  30.891  1.00  0.00    -0.248 NA
ATOM     57  C   UNL A   1      42.409  29.524  29.463  1.00  0.00     0.031 C 
ATOM     58  C   UNL A   1      47.417  26.790  30.161  1.00  0.00     0.029 A 
ATOM     59  C   UNL A   1      46.305  27.622  30.310  1.00  0.00     0.049 A 
ATOM     60  H   UNL A   1      46.378  29.683  29.867  1.00  0.00     0.167 HD
ATOM     61  C   UNL A   1      43.891  28.166  30.634  1.00  0.00     0.074 A 
ATOM     62  C   UNL A   1      43.690  29.351  29.802  1.00  0.00     0.031 C 
ATOM     63  C   UNL A   1      44.999  27.409  30.894  1.00  0.00     0.037 A 
BRANCH  50  64
ATOM     64  C   UNL A   1      47.384  30.423  27.031  1.00  0.00     0.064 A 
ATOM     65  C   UNL A   1      48.651  31.034  27.144  1.00  0.00     0.173 A 
ATOM     66  C   UNL A   1      46.288  31.309  26.965  1.00  0.00     0.173 A 
ATOM     67  F   UNL A   1      49.767  30.291  27.212  1.00  0.00    -0.203 F 
ATOM     68  C   UNL A   1      48.796  32.417  27.285  1.00  0.00     0.198 A 
ATOM     69  C   UNL A   1      46.441  32.692  27.057  1.00  0.00     0.198 A 
ATOM     70  F   UNL A   1      45.024  30.875  26.926  1.00  0.00    -0.203 F 
ATOM     71  F   UNL A   1      50.007  32.939  27.526  1.00  0.00    -0.200 F 
ATOM     72  C   UNL A   1      47.690  33.244  27.254  1.00  0.00     0.200 A 
ATOM     73  F   UNL A   1      45.354  33.475  27.040  1.00  0.00    -0.200 F 
ATOM     74  F   UNL A   1      47.815  34.560  27.464  1.00  0.00    -0.200 F 
ENDBRANCH  50  64
BRANCH  51  75
ATOM     75  C   UNL A   1      39.349  28.170  29.255  1.00  0.00     0.064 A 
ATOM     76  C   UNL A   1      38.547  28.249  30.401  1.00  0.00     0.173 A 
ATOM     77  C   UNL A   1      38.882  28.841  28.106  1.00  0.00     0.173 A 
ATOM     78  F   UNL A   1      38.944  27.666  31.541  1.00  0.00    -0.203 F 
ATOM     79  C   UNL A   1      37.358  28.984  30.406  1.00  0.00     0.198 A 
ATOM     80  C   UNL A   1      37.696  29.573  28.113  1.00  0.00     0.198 A 
ATOM     81  F   UNL A   1      39.616  28.872  26.984  1.00  0.00    -0.203 F 
ATOM     82  F   UNL A   1      36.643  29.089  31.535  1.00  0.00    -0.200 F 
ATOM     83  C   UNL A   1      36.940  29.656  29.268  1.00  0.00     0.200 A 
ATOM     84  F   UNL A   1      37.324  30.248  27.016  1.00  0.00    -0.200 F 
ATOM     85  F   UNL A   1      35.836  30.414  29.294  1.00  0.00    -0.200 F 
ENDBRANCH  51  75
BRANCH  63  86
ATOM     86  C   UNL A   1      44.804  26.136  31.675  1.00  0.00     0.064 A 
ATOM     87  C   UNL A   1      44.704  26.084  33.077  1.00  0.00     0.173 A 
ATOM     88  C   UNL A   1      44.567  24.948  30.976  1.00  0.00     0.173 A 
ATOM     89  F   UNL A   1      44.825  27.190  33.816  1.00  0.00    -0.203 F 
ATOM     90  C   UNL A   1      44.416  24.894  33.745  1.00  0.00     0.198 A 
ATOM     91  C   UNL A   1      44.251  23.765  31.640  1.00  0.00     0.198 A 
ATOM     92  F   UNL A   1      44.593  24.945  29.633  1.00  0.00    -0.203 F 
ATOM     93  F   UNL A   1      44.332  24.876  35.084  1.00  0.00    -0.200 F 
ATOM     94  C   UNL A   1      44.184  23.736  33.025  1.00  0.00     0.200 A 
ATOM     95  F   UNL A   1      43.981  22.657  30.937  1.00  0.00    -0.200 F 
ATOM     96  F   UNL A   1      43.871  22.598  33.661  1.00  0.00    -0.200 F 
ENDBRANCH  63  86
ENDBRANCH  37  38
ENDBRANCH  29  32
ENDBRANCH  27  28
ENDBRANCH  26  27
ENDBRANCH   1  26
TORSDOF 14
ENDMDL
MODEL 3
REMARK VINA RESULT:     -13.5      0.737      1.761
REMARK SMILES CC(C)(C)[NH2+]CC(=O)N1Cc2nc[nH]c2C[C@@H]1C(=O)NCCCNC(=O)c1ccc(-c2c3nc(c(-c4c(F)c(F)c(F)c(F)c4F)c4ccc([nH]4)c(-c4c(F)c(F)c(F)c(F)c4F)c4nc(c(-c5c(F)c(F)c(F)c(F)c5F)c5ccc2[nH]5)C=C4)C=C3)cc1
REMARK SMILES IDX 21 1 20 2 18 3 19 4 17 6 9 7 10 8 11 9 16 10 12 11 15 12
REMARK SMILES IDX 13 13 14 14 7 16 8 17 6 18 5 19 2 22 1 23 3 24 4 25 22 26
REMARK SMILES IDX 23 27 24 28 25 29 26 31 27 32 28 33 89 34 29 35 88 36 30 37
REMARK SMILES IDX 31 38 32 39 82 40 33 41 87 42 81 43 83 44 34 45 86 46 80 47
REMARK SMILES IDX 79 48 35 50 67 51 47 52 66 53 48 54 51 55 65 56 84 57 49 58
REMARK SMILES IDX 50 59 64 61 85 62 52 63 36 64 37 65 45 66 38 67 39 68 43 69
REMARK SMILES IDX 46 70 40 71 41 72 44 73 42 74 68 75 69 76 77 77 70 78 71 79
REMARK SMILES IDX 75 80 78 81 72 82 73 83 76 84 74 85 53 86 54 87 62 88 55 89
REMARK SMILES IDX 56 90 60 91 63 92 57 93 58 94 61 95 59 96
REMARK H PARENT 20 5 14 15 5 20 5 21 24 30 83 49 51 60
REMARK Flexibility Score: inf
ROOT
ATOM      1  C   UNL A   1      39.989  21.888  26.401  1.00  0.00     0.117 C 
ENDROOT
BRANCH   1   2
ATOM      2  N   UNL A   1      38.613  21.330  25.685  1.00  0.00    -0.354 N 
ATOM      3  C   UNL A   1      37.246  21.307  25.414  1.00  0.00     0.243 C 
ATOM      4  O   UNL A   1      37.127  20.672  24.331  1.00  0.00    -0.273 OA
ATOM      5  H   UNL A   1      38.949  20.589  25.132  1.00  0.00     0.163 HD
BRANCH   3   6
ATOM      6  C   UNL A   1      35.655  21.975  25.993  1.00  0.00     0.181 C 
ATOM      7  N   UNL A   1      33.964  21.597  26.082  1.00  0.00    -0.319 N 
ATOM      8  C   UNL A   1      33.117  22.579  26.794  1.00  0.00     0.178 C 
ATOM      9  C   UNL A   1      33.385  23.930  26.286  1.00  0.00     0.081 A 
ATOM     10  C   UNL A   1      35.787  23.498  25.532  1.00  0.00     0.091 C 
ATOM     11  N   UNL A   1      32.482  24.959  26.299  1.00  0.00    -0.240 NA
ATOM     12  C   UNL A   1      34.583  24.327  25.758  1.00  0.00     0.042 A 
ATOM     13  C   UNL A   1      33.121  25.973  25.759  1.00  0.00     0.197 A 
ATOM     14  N   UNL A   1      34.415  25.647  25.445  1.00  0.00    -0.348 N 
ATOM     15  H   UNL A   1      35.094  26.250  25.065  1.00  0.00     0.167 HD
BRANCH   7  16
ATOM     16  C   UNL A   1      33.086  20.685  25.380  1.00  0.00     0.278 C 
ATOM     17  O   UNL A   1      31.859  20.849  25.439  1.00  0.00    -0.268 OA
BRANCH  16  18
ATOM     18  C   UNL A   1      33.610  19.217  24.709  1.00  0.00     0.362 C 
BRANCH  18  19
ATOM     19  N   UNL A   1      33.202  17.875  25.364  1.00  0.00    -0.334 N 
ATOM     20  H   UNL A   1      33.886  17.598  26.068  1.00  0.00     0.347 HD
ATOM     21  H   UNL A   1      32.302  17.939  25.839  1.00  0.00     0.347 HD
BRANCH  19  22
ATOM     22  C   UNL A   1      33.174  16.914  24.274  1.00  0.00     0.088 C 
ATOM     23  C   UNL A   1      32.424  17.939  23.301  1.00  0.00     0.078 C 
ATOM     24  C   UNL A   1      32.793  15.665  25.324  1.00  0.00     0.078 C 
ATOM     25  C   UNL A   1      34.313  16.619  23.252  1.00  0.00     0.078 C 
ENDBRANCH  19  22
ENDBRANCH  18  19
ENDBRANCH  16  18
ENDBRANCH   7  16
ENDBRANCH   3   6
ENDBRANCH   1   2
BRANCH   1  26
ATOM     26  C   UNL A   1      41.461  21.596  25.895  1.00  0.00     0.042 C 
BRANCH  26  27
ATOM     27  C   UNL A   1      42.507  20.846  26.746  1.00  0.00     0.118 C 
BRANCH  27  28
ATOM     28  N   UNL A   1      43.568  20.109  26.038  1.00  0.00    -0.352 N 
ATOM     29  C   UNL A   1      44.432  20.645  25.084  1.00  0.00     0.251 C 
ATOM     30  H   UNL A   1      43.676  19.155  26.258  1.00  0.00     0.163 HD
ATOM     31  O   UNL A   1      44.978  19.972  24.218  1.00  0.00    -0.269 OA
BRANCH  29  32
ATOM     32  C   UNL A   1      44.708  22.080  25.218  1.00  0.00     0.039 A 
ATOM     33  C   UNL A   1      44.132  23.046  24.389  1.00  0.00     0.014 A 
ATOM     34  C   UNL A   1      45.262  22.402  26.446  1.00  0.00     0.014 A 
ATOM     35  C   UNL A   1      43.988  24.338  24.895  1.00  0.00     0.010 A 
ATOM     36  C   UNL A   1      44.875  23.583  27.009  1.00  0.00     0.010 A 
ATOM     37  C   UNL A   1      44.298  24.584  26.244  1.00  0.00    -0.014 A 
BRANCH  37  38
ATOM     38  C   UNL A   1      43.953  25.829  26.924  1.00  0.00     0.031 A 
ATOM     39  C   UNL A   1      44.900  26.960  26.746  1.00  0.00     0.074 A 
ATOM     40  C   UNL A   1      42.798  26.011  27.606  1.00  0.00     0.049 A 
ATOM     41  N   UNL A   1      45.823  27.315  27.577  1.00  0.00    -0.248 NA
ATOM     42  C   UNL A   1      44.927  27.702  25.480  1.00  0.00     0.031 C 
ATOM     43  C   UNL A   1      41.616  25.143  27.736  1.00  0.00     0.029 A 
ATOM     44  N   UNL A   1      42.446  27.090  28.355  1.00  0.00    -0.354 N 
ATOM     45  C   UNL A   1      46.432  28.443  27.039  1.00  0.00     0.074 A 
ATOM     46  C   UNL A   1      45.951  28.538  25.683  1.00  0.00     0.031 C 
ATOM     47  C   UNL A   1      40.611  25.805  28.344  1.00  0.00     0.029 A 
ATOM     48  C   UNL A   1      41.154  27.046  28.850  1.00  0.00     0.049 A 
ATOM     49  H   UNL A   1      43.059  27.841  28.532  1.00  0.00     0.167 HD
ATOM     50  C   UNL A   1      47.112  29.310  27.843  1.00  0.00     0.037 A 
ATOM     51  C   UNL A   1      40.575  27.902  29.720  1.00  0.00     0.037 A 
ATOM     52  C   UNL A   1      47.363  28.717  29.138  1.00  0.00     0.049 A 
ATOM     53  C   UNL A   1      41.675  28.536  30.484  1.00  0.00     0.074 A 
ATOM     54  C   UNL A   1      48.073  27.618  29.580  1.00  0.00     0.029 A 
ATOM     55  N   UNL A   1      46.501  29.031  30.162  1.00  0.00    -0.354 N 
ATOM     56  N   UNL A   1      42.439  27.876  31.313  1.00  0.00    -0.248 NA
ATOM     57  C   UNL A   1      42.238  29.768  29.959  1.00  0.00     0.031 C 
ATOM     58  C   UNL A   1      47.256  27.038  30.599  1.00  0.00     0.029 A 
ATOM     59  C   UNL A   1      46.137  27.856  30.771  1.00  0.00     0.049 A 
ATOM     60  H   UNL A   1      46.202  29.935  30.414  1.00  0.00     0.167 HD
ATOM     61  C   UNL A   1      43.716  28.372  31.090  1.00  0.00     0.074 A 
ATOM     62  C   UNL A   1      43.516  29.589  30.306  1.00  0.00     0.031 C 
ATOM     63  C   UNL A   1      44.826  27.612  31.331  1.00  0.00     0.037 A 
BRANCH  50  64
ATOM     64  C   UNL A   1      47.234  30.798  27.623  1.00  0.00     0.064 A 
ATOM     65  C   UNL A   1      46.059  31.569  27.486  1.00  0.00     0.173 A 
ATOM     66  C   UNL A   1      48.428  31.440  27.232  1.00  0.00     0.173 A 
ATOM     67  F   UNL A   1      44.865  31.064  27.830  1.00  0.00    -0.203 F 
ATOM     68  C   UNL A   1      46.071  32.840  26.906  1.00  0.00     0.198 A 
ATOM     69  C   UNL A   1      48.441  32.728  26.699  1.00  0.00     0.198 A 
ATOM     70  F   UNL A   1      49.608  30.812  27.240  1.00  0.00    -0.203 F 
ATOM     71  F   UNL A   1      44.915  33.477  26.672  1.00  0.00    -0.200 F 
ATOM     72  C   UNL A   1      47.261  33.414  26.500  1.00  0.00     0.200 A 
ATOM     73  F   UNL A   1      49.604  33.260  26.298  1.00  0.00    -0.200 F 
ATOM     74  F   UNL A   1      47.270  34.598  25.876  1.00  0.00    -0.200 F 
ENDBRANCH  50  64
BRANCH  51  75
ATOM     75  C   UNL A   1      39.190  28.406  29.661  1.00  0.00     0.064 A 
ATOM     76  C   UNL A   1      38.411  28.536  30.819  1.00  0.00     0.173 A 
ATOM     77  C   UNL A   1      38.696  29.022  28.492  1.00  0.00     0.173 A 
ATOM     78  F   UNL A   1      38.835  28.008  31.976  1.00  0.00    -0.203 F 
ATOM     79  C   UNL A   1      37.220  29.269  30.816  1.00  0.00     0.198 A 
ATOM     80  C   UNL A   1      37.508  29.751  28.490  1.00  0.00     0.198 A 
ATOM     81  F   UNL A   1      39.406  29.002  27.355  1.00  0.00    -0.203 F 
ATOM     82  F   UNL A   1      36.530  29.424  31.953  1.00  0.00    -0.200 F 
ATOM     83  C   UNL A   1      36.778  29.886  29.656  1.00  0.00     0.200 A 
ATOM     84  F   UNL A   1      37.112  30.374  27.372  1.00  0.00    -0.200 F 
ATOM     85  F   UNL A   1      35.671  30.642  29.671  1.00  0.00    -0.200 F 
ENDBRANCH  51  75
BRANCH  63  86
ATOM     86  C   UNL A   1      44.631  26.307  32.056  1.00  0.00     0.064 A 
ATOM     87  C   UNL A   1      44.459  26.201  33.448  1.00  0.00     0.173 A 
ATOM     88  C   UNL A   1      44.468  25.138  31.304  1.00  0.00     0.173 A 
ATOM     89  F   UNL A   1      44.506  27.283  34.230  1.00  0.00    -0.203 F 
ATOM     90  C   UNL A   1      44.175  24.979  34.058  1.00  0.00     0.198 A 
ATOM     91  C   UNL A   1      44.156  23.923  31.910  1.00  0.00     0.198 A 
ATOM     92  F   UNL A   1      44.566  25.184  29.966  1.00  0.00    -0.203 F 
ATOM     93  F   UNL A   1      44.021  24.911  35.389  1.00  0.00    -0.200 F 
ATOM     94  C   UNL A   1      44.018  23.841  33.287  1.00  0.00     0.200 A 
ATOM     95  F   UNL A   1      43.959  22.833  31.156  1.00  0.00    -0.200 F 
ATOM     96  F   UNL A   1      43.707  22.673  33.866  1.00  0.00    -0.200 F 
ENDBRANCH  63  86
ENDBRANCH  37  38
ENDBRANCH  29  32
ENDBRANCH  27  28
ENDBRANCH  26  27
ENDBRANCH   1  26
TORSDOF 14
ENDMDL
