MODEL 1
REMARK VINA RESULT:     -13.5      0.000      0.000
REMARK SMILES Cc1ccc(F)cc1NS(=O)(=O)c1ccc(C(=O)NCCCNC(=O)c2ccc(-c3c4nc(c(-c5c(F)c(F)c(F)c(F)c5F)c5ccc([nH]5)c(-c5c(F)c(F)c(F)c(F)c5F)c5nc(c(-c6c(F)c(F)c(F)c(F)c6F)c6ccc3[nH]6)C=C5)C=C4)cc2)cc1
REMARK SMILES IDX 20 1 19 2 17 3 18 4 16 6 13 7 14 8 90 9 15 10 89 11 10 12
REMARK SMILES IDX 11 13 12 14 9 15 8 17 1 18 2 19 3 20 4 21 7 22 5 23 6 24
REMARK SMILES IDX 21 25 22 26 23 27 24 28 25 30 26 31 27 32 88 33 28 34 87 35
REMARK SMILES IDX 29 36 30 37 31 38 81 39 32 40 86 41 80 42 82 43 33 44 85 45
REMARK SMILES IDX 79 46 78 47 34 49 66 50 46 51 65 52 47 53 50 54 64 55 83 56
REMARK SMILES IDX 48 57 49 58 63 60 84 61 51 62 35 63 36 64 44 65 37 66 38 67
REMARK SMILES IDX 42 68 45 69 39 70 40 71 43 72 41 73 67 74 68 75 76 76 69 77
REMARK SMILES IDX 70 78 74 79 77 80 71 81 72 82 75 83 73 84 52 85 53 86 61 87
REMARK SMILES IDX 54 88 55 89 59 90 62 91 56 92 57 93 60 94 58 95
REMARK H PARENT 19 5 9 16 23 29 82 48 50 59
REMARK Flexibility Score: inf
ROOT
ATOM      1  C   UNL A   1      32.344  29.478  24.833  1.00  0.00     0.118 C 
ENDROOT
BRANCH   1   2
ATOM      2  N   UNL A   1      31.032  29.701  24.253  1.00  0.00    -0.352 N 
ATOM      3  C   UNL A   1      30.266  28.801  23.564  1.00  0.00     0.251 C 
ATOM      4  O   UNL A   1      29.168  29.113  23.122  1.00  0.00    -0.269 OA
ATOM      5  H   UNL A   1      30.651  30.601  24.368  1.00  0.00     0.163 HD
BRANCH   3   6
ATOM      6  C   UNL A   1      30.764  27.421  23.436  1.00  0.00     0.039 A 
ATOM      7  C   UNL A   1      31.712  24.843  23.114  1.00  0.00     0.087 A 
ATOM      8  C   UNL A   1      32.055  25.828  22.176  1.00  0.00     0.023 A 
ATOM      9  C   UNL A   1      30.808  25.111  24.141  1.00  0.00     0.023 A 
ATOM     10  C   UNL A   1      31.607  27.134  22.364  1.00  0.00     0.015 A 
ATOM     11  C   UNL A   1      30.362  26.412  24.321  1.00  0.00     0.015 A 
BRANCH   7  12
ATOM     12  S   UNL A   1      32.476  23.253  23.045  1.00  0.00     0.261 S 
ATOM     13  O   UNL A   1      33.622  23.363  22.174  1.00  0.00    -0.201 OA
ATOM     14  O   UNL A   1      31.438  22.276  22.760  1.00  0.00    -0.201 OA
BRANCH  12  15
ATOM     15  N   UNL A   1      33.067  22.843  24.599  1.00  0.00    -0.279 N 
ATOM     16  H   UNL A   1      32.420  22.614  25.305  1.00  0.00     0.180 HD
BRANCH  15  17
ATOM     17  C   UNL A   1      34.477  22.820  24.918  1.00  0.00     0.055 A 
ATOM     18  C   UNL A   1      34.563  25.358  25.379  1.00  0.00     0.046 C 
ATOM     19  C   UNL A   1      35.153  23.972  25.370  1.00  0.00    -0.027 A 
ATOM     20  C   UNL A   1      36.521  23.881  25.714  1.00  0.00     0.008 A 
ATOM     21  C   UNL A   1      37.222  22.690  25.559  1.00  0.00     0.039 A 
ATOM     22  C   UNL A   1      35.241  21.690  24.609  1.00  0.00     0.066 A 
ATOM     23  C   UNL A   1      36.581  21.613  24.976  1.00  0.00     0.125 A 
ATOM     24  F   UNL A   1      37.258  20.479  24.760  1.00  0.00    -0.207 F 
ENDBRANCH  15  17
ENDBRANCH  12  15
ENDBRANCH   7  12
ENDBRANCH   3   6
ENDBRANCH   1   2
BRANCH   1  25
ATOM     25  C   UNL A   1      32.258  29.454  26.358  1.00  0.00     0.042 C 
BRANCH  25  26
ATOM     26  C   UNL A   1      33.642  29.395  26.934  1.00  0.00     0.118 C 
BRANCH  26  27
ATOM     27  N   UNL A   1      34.245  30.720  26.901  1.00  0.00    -0.352 N 
ATOM     28  C   UNL A   1      35.310  31.178  27.626  1.00  0.00     0.251 C 
ATOM     29  H   UNL A   1      33.835  31.365  26.281  1.00  0.00     0.163 HD
ATOM     30  O   UNL A   1      35.459  32.372  27.826  1.00  0.00    -0.269 OA
BRANCH  28  31
ATOM     31  C   UNL A   1      36.329  30.212  28.043  1.00  0.00     0.039 A 
ATOM     32  C   UNL A   1      36.252  29.606  29.304  1.00  0.00     0.014 A 
ATOM     33  C   UNL A   1      37.462  30.080  27.242  1.00  0.00     0.014 A 
ATOM     34  C   UNL A   1      37.367  28.953  29.801  1.00  0.00     0.010 A 
ATOM     35  C   UNL A   1      38.492  29.319  27.655  1.00  0.00     0.010 A 
ATOM     36  C   UNL A   1      38.483  28.893  28.981  1.00  0.00    -0.014 A 
BRANCH  36  37
ATOM     37  C   UNL A   1      39.801  28.463  29.355  1.00  0.00     0.031 A 
ATOM     38  C   UNL A   1      40.132  27.081  29.016  1.00  0.00     0.074 A 
ATOM     39  C   UNL A   1      40.643  29.518  29.456  1.00  0.00     0.049 A 
ATOM     40  N   UNL A   1      41.233  26.509  29.316  1.00  0.00    -0.248 NA
ATOM     41  C   UNL A   1      39.219  26.211  28.273  1.00  0.00     0.031 C 
ATOM     42  C   UNL A   1      42.062  29.649  29.163  1.00  0.00     0.029 A 
ATOM     43  N   UNL A   1      40.291  30.804  29.916  1.00  0.00    -0.354 N 
ATOM     44  C   UNL A   1      41.344  25.411  28.489  1.00  0.00     0.074 A 
ATOM     45  C   UNL A   1      40.014  25.175  27.990  1.00  0.00     0.031 C 
ATOM     46  C   UNL A   1      42.526  30.757  29.780  1.00  0.00     0.029 A 
ATOM     47  C   UNL A   1      41.433  31.277  30.591  1.00  0.00     0.049 A 
ATOM     48  H   UNL A   1      39.433  31.270  29.791  1.00  0.00     0.167 HD
ATOM     49  C   UNL A   1      42.603  24.980  28.189  1.00  0.00     0.037 A 
ATOM     50  C   UNL A   1      41.394  31.274  31.959  1.00  0.00     0.037 A 
ATOM     51  C   UNL A   1      43.573  25.848  28.866  1.00  0.00     0.049 A 
ATOM     52  C   UNL A   1      42.337  30.226  32.510  1.00  0.00     0.074 A 
ATOM     53  C   UNL A   1      44.313  26.936  28.433  1.00  0.00     0.029 A 
ATOM     54  N   UNL A   1      43.551  25.914  30.254  1.00  0.00    -0.354 N 
ATOM     55  N   UNL A   1      42.628  29.101  31.909  1.00  0.00    -0.248 NA
ATOM     56  C   UNL A   1      43.116  30.436  33.722  1.00  0.00     0.031 C 
ATOM     57  C   UNL A   1      44.685  27.692  29.581  1.00  0.00     0.029 A 
ATOM     58  C   UNL A   1      44.162  27.069  30.703  1.00  0.00     0.049 A 
ATOM     59  H   UNL A   1      43.152  25.231  30.839  1.00  0.00     0.167 HD
ATOM     60  C   UNL A   1      43.658  28.485  32.572  1.00  0.00     0.074 A 
ATOM     61  C   UNL A   1      43.913  29.354  33.709  1.00  0.00     0.031 C 
ATOM     62  C   UNL A   1      44.256  27.336  32.131  1.00  0.00     0.037 A 
BRANCH  49  63
ATOM     63  C   UNL A   1      42.995  23.992  27.114  1.00  0.00     0.064 A 
ATOM     64  C   UNL A   1      42.684  22.621  27.267  1.00  0.00     0.173 A 
ATOM     65  C   UNL A   1      43.658  24.307  25.911  1.00  0.00     0.173 A 
ATOM     66  F   UNL A   1      42.007  22.169  28.330  1.00  0.00    -0.203 F 
ATOM     67  C   UNL A   1      43.047  21.651  26.330  1.00  0.00     0.198 A 
ATOM     68  C   UNL A   1      44.047  23.331  24.985  1.00  0.00     0.198 A 
ATOM     69  F   UNL A   1      43.906  25.568  25.550  1.00  0.00    -0.203 F 
ATOM     70  F   UNL A   1      42.714  20.370  26.539  1.00  0.00    -0.200 F 
ATOM     71  C   UNL A   1      43.741  22.004  25.193  1.00  0.00     0.200 A 
ATOM     72  F   UNL A   1      44.708  23.696  23.877  1.00  0.00    -0.200 F 
ATOM     73  F   UNL A   1      44.089  21.075  24.293  1.00  0.00    -0.200 F 
ENDBRANCH  49  63
BRANCH  50  74
ATOM     74  C   UNL A   1      40.009  31.600  32.452  1.00  0.00     0.064 A 
ATOM     75  C   UNL A   1      39.496  32.871  32.097  1.00  0.00     0.173 A 
ATOM     76  C   UNL A   1      39.074  30.600  32.751  1.00  0.00     0.173 A 
ATOM     77  F   UNL A   1      40.342  33.877  31.815  1.00  0.00    -0.203 F 
ATOM     78  C   UNL A   1      38.136  33.068  31.855  1.00  0.00     0.198 A 
ATOM     79  C   UNL A   1      37.705  30.817  32.548  1.00  0.00     0.198 A 
ATOM     80  F   UNL A   1      39.481  29.375  33.112  1.00  0.00    -0.203 F 
ATOM     81  F   UNL A   1      37.710  34.233  31.345  1.00  0.00    -0.200 F 
ATOM     82  C   UNL A   1      37.246  32.028  32.047  1.00  0.00     0.200 A 
ATOM     83  F   UNL A   1      36.834  29.815  32.740  1.00  0.00    -0.200 F 
ATOM     84  F   UNL A   1      35.955  32.177  31.715  1.00  0.00    -0.200 F 
ENDBRANCH  50  74
BRANCH  62  85
ATOM     85  C   UNL A   1      45.059  26.370  32.980  1.00  0.00     0.064 A 
ATOM     86  C   UNL A   1      44.489  25.476  33.900  1.00  0.00     0.173 A 
ATOM     87  C   UNL A   1      46.450  26.184  32.751  1.00  0.00     0.173 A 
ATOM     88  F   UNL A   1      43.170  25.434  34.120  1.00  0.00    -0.203 F 
ATOM     89  C   UNL A   1      45.253  24.531  34.587  1.00  0.00     0.198 A 
ATOM     90  C   UNL A   1      47.188  25.176  33.366  1.00  0.00     0.198 A 
ATOM     91  F   UNL A   1      47.142  26.947  31.893  1.00  0.00    -0.203 F 
ATOM     92  F   UNL A   1      44.665  23.751  35.504  1.00  0.00    -0.200 F 
ATOM     93  C   UNL A   1      46.595  24.366  34.305  1.00  0.00     0.200 A 
ATOM     94  F   UNL A   1      48.468  24.985  33.018  1.00  0.00    -0.200 F 
ATOM     95  F   UNL A   1      47.308  23.415  34.922  1.00  0.00    -0.200 F 
ENDBRANCH  62  85
ENDBRANCH  36  37
ENDBRANCH  28  31
ENDBRANCH  26  27
ENDBRANCH  25  26
ENDBRANCH   1  25
TORSDOF 13
ENDMDL
MODEL 2
REMARK VINA RESULT:     -13.5      2.861      9.003
REMARK SMILES Cc1ccc(F)cc1NS(=O)(=O)c1ccc(C(=O)NCCCNC(=O)c2ccc(-c3c4nc(c(-c5c(F)c(F)c(F)c(F)c5F)c5ccc([nH]5)c(-c5c(F)c(F)c(F)c(F)c5F)c5nc(c(-c6c(F)c(F)c(F)c(F)c6F)c6ccc3[nH]6)C=C5)C=C4)cc2)cc1
REMARK SMILES IDX 20 1 19 2 17 3 18 4 16 6 13 7 14 8 90 9 15 10 89 11 10 12
REMARK SMILES IDX 11 13 12 14 9 15 8 17 1 18 2 19 3 20 4 21 7 22 5 23 6 24
REMARK SMILES IDX 21 25 22 26 23 27 24 28 25 30 26 31 27 32 88 33 28 34 87 35
REMARK SMILES IDX 29 36 30 37 31 38 81 39 32 40 86 41 80 42 82 43 33 44 85 45
REMARK SMILES IDX 79 46 78 47 34 49 66 50 46 51 65 52 47 53 50 54 64 55 83 56
REMARK SMILES IDX 48 57 49 58 63 60 84 61 51 62 35 63 36 64 44 65 37 66 38 67
REMARK SMILES IDX 42 68 45 69 39 70 40 71 43 72 41 73 67 74 68 75 76 76 69 77
REMARK SMILES IDX 70 78 74 79 77 80 71 81 72 82 75 83 73 84 52 85 53 86 61 87
REMARK SMILES IDX 54 88 55 89 59 90 62 91 56 92 57 93 60 94 58 95
REMARK H PARENT 19 5 9 16 23 29 82 48 50 59
REMARK Flexibility Score: inf
ROOT
ATOM      1  C   UNL A   1      35.288  21.803  25.438  1.00  0.00     0.118 C 
ENDROOT
BRANCH   1   2
ATOM      2  N   UNL A   1      34.531  20.713  24.850  1.00  0.00    -0.352 N 
ATOM      3  C   UNL A   1      33.221  20.730  24.456  1.00  0.00     0.251 C 
ATOM      4  O   UNL A   1      32.694  19.738  23.969  1.00  0.00    -0.269 OA
ATOM      5  H   UNL A   1      35.015  19.866  24.721  1.00  0.00     0.163 HD
BRANCH   3   6
ATOM      6  C   UNL A   1      32.482  22.000  24.559  1.00  0.00     0.039 A 
ATOM      7  C   UNL A   1      31.046  24.349  24.815  1.00  0.00     0.087 A 
ATOM      8  C   UNL A   1      31.049  23.423  25.869  1.00  0.00     0.023 A 
ATOM      9  C   UNL A   1      31.658  24.056  23.596  1.00  0.00     0.023 A 
ATOM     10  C   UNL A   1      31.805  22.259  25.751  1.00  0.00     0.015 A 
ATOM     11  C   UNL A   1      32.406  22.893  23.484  1.00  0.00     0.015 A 
BRANCH   7  12
ATOM     12  S   UNL A   1      30.316  25.941  25.040  1.00  0.00     0.261 S 
ATOM     13  O   UNL A   1      30.190  26.160  26.461  1.00  0.00    -0.201 OA
ATOM     14  O   UNL A   1      29.141  26.012  24.187  1.00  0.00    -0.201 OA
BRANCH  12  15
ATOM     15  N   UNL A   1      31.382  27.141  24.441  1.00  0.00    -0.279 N 
ATOM     16  H   UNL A   1      31.464  27.254  23.466  1.00  0.00     0.180 HD
BRANCH  15  17
ATOM     17  C   UNL A   1      32.166  27.992  25.307  1.00  0.00     0.055 A 
ATOM     18  C   UNL A   1      33.962  26.180  25.702  1.00  0.00     0.046 C 
ATOM     19  C   UNL A   1      33.413  27.577  25.821  1.00  0.00    -0.027 A 
ATOM     20  C   UNL A   1      34.160  28.469  26.623  1.00  0.00     0.008 A 
ATOM     21  C   UNL A   1      33.661  29.722  26.960  1.00  0.00     0.039 A 
ATOM     22  C   UNL A   1      31.615  29.178  25.801  1.00  0.00     0.066 A 
ATOM     23  C   UNL A   1      32.376  30.051  26.572  1.00  0.00     0.125 A 
ATOM     24  F   UNL A   1      31.855  31.227  26.942  1.00  0.00    -0.207 F 
ENDBRANCH  15  17
ENDBRANCH  12  15
ENDBRANCH   7  12
ENDBRANCH   3   6
ENDBRANCH   1   2
BRANCH   1  25
ATOM     25  C   UNL A   1      36.696  21.855  24.851  1.00  0.00     0.042 C 
BRANCH  25  26
ATOM     26  C   UNL A   1      37.495  22.907  25.564  1.00  0.00     0.118 C 
BRANCH  26  27
ATOM     27  N   UNL A   1      38.498  22.275  26.409  1.00  0.00    -0.352 N 
ATOM     28  C   UNL A   1      39.641  22.827  26.915  1.00  0.00     0.251 C 
ATOM     29  H   UNL A   1      38.332  21.334  26.645  1.00  0.00     0.163 HD
ATOM     30  O   UNL A   1      40.581  22.122  27.243  1.00  0.00    -0.269 OA
BRANCH  28  31
ATOM     31  C   UNL A   1      39.658  24.270  27.171  1.00  0.00     0.039 A 
ATOM     32  C   UNL A   1      40.181  25.150  26.214  1.00  0.00     0.014 A 
ATOM     33  C   UNL A   1      39.332  24.703  28.455  1.00  0.00     0.014 A 
ATOM     34  C   UNL A   1      40.477  26.449  26.592  1.00  0.00     0.010 A 
ATOM     35  C   UNL A   1      39.475  26.000  28.784  1.00  0.00     0.010 A 
ATOM     36  C   UNL A   1      40.177  26.812  27.896  1.00  0.00    -0.014 A 
BRANCH  36  37
ATOM     37  C   UNL A   1      40.581  28.017  28.566  1.00  0.00     0.031 A 
ATOM     38  C   UNL A   1      39.627  29.121  28.505  1.00  0.00     0.074 A 
ATOM     39  C   UNL A   1      41.479  27.748  29.543  1.00  0.00     0.049 A 
ATOM     40  N   UNL A   1      39.835  30.282  28.994  1.00  0.00    -0.248 NA
ATOM     41  C   UNL A   1      38.312  28.993  27.874  1.00  0.00     0.031 C 
ATOM     42  C   UNL A   1      41.704  28.365  30.841  1.00  0.00     0.029 A 
ATOM     43  N   UNL A   1      42.467  26.743  29.491  1.00  0.00    -0.354 N 
ATOM     44  C   UNL A   1      38.600  30.883  29.119  1.00  0.00     0.074 A 
ATOM     45  C   UNL A   1      37.721  30.126  28.267  1.00  0.00     0.031 C 
ATOM     46  C   UNL A   1      42.934  28.016  31.274  1.00  0.00     0.029 A 
ATOM     47  C   UNL A   1      43.568  27.275  30.190  1.00  0.00     0.049 A 
ATOM     48  H   UNL A   1      42.402  25.861  29.059  1.00  0.00     0.167 HD
ATOM     49  C   UNL A   1      38.460  31.826  30.095  1.00  0.00     0.037 A 
ATOM     50  C   UNL A   1      44.625  27.719  29.444  1.00  0.00     0.037 A 
ATOM     51  C   UNL A   1      39.739  31.966  30.803  1.00  0.00     0.049 A 
ATOM     52  C   UNL A   1      44.720  29.229  29.510  1.00  0.00     0.074 A 
ATOM     53  C   UNL A   1      40.211  31.433  31.991  1.00  0.00     0.029 A 
ATOM     54  N   UNL A   1      40.856  32.374  30.083  1.00  0.00    -0.354 N 
ATOM     55  N   UNL A   1      43.695  30.030  29.647  1.00  0.00    -0.248 NA
ATOM     56  C   UNL A   1      45.995  29.930  29.554  1.00  0.00     0.031 C 
ATOM     57  C   UNL A   1      41.634  31.472  31.950  1.00  0.00     0.029 A 
ATOM     58  C   UNL A   1      42.020  32.016  30.735  1.00  0.00     0.049 A 
ATOM     59  H   UNL A   1      40.822  32.852  29.225  1.00  0.00     0.167 HD
ATOM     60  C   UNL A   1      44.144  31.305  29.876  1.00  0.00     0.074 A 
ATOM     61  C   UNL A   1      45.590  31.190  29.790  1.00  0.00     0.031 C 
ATOM     62  C   UNL A   1      43.313  32.356  30.157  1.00  0.00     0.037 A 
BRANCH  49  63
ATOM     63  C   UNL A   1      37.169  32.422  30.606  1.00  0.00     0.064 A 
ATOM     64  C   UNL A   1      36.445  33.333  29.802  1.00  0.00     0.173 A 
ATOM     65  C   UNL A   1      36.573  32.146  31.853  1.00  0.00     0.173 A 
ATOM     66  F   UNL A   1      36.851  33.656  28.568  1.00  0.00    -0.203 F 
ATOM     67  C   UNL A   1      35.264  33.947  30.227  1.00  0.00     0.198 A 
ATOM     68  C   UNL A   1      35.406  32.783  32.291  1.00  0.00     0.198 A 
ATOM     69  F   UNL A   1      37.057  31.212  32.676  1.00  0.00    -0.203 F 
ATOM     70  F   UNL A   1      34.627  34.796  29.409  1.00  0.00    -0.200 F 
ATOM     71  C   UNL A   1      34.750  33.682  31.478  1.00  0.00     0.200 A 
ATOM     72  F   UNL A   1      34.912  32.501  33.505  1.00  0.00    -0.200 F 
ATOM     73  F   UNL A   1      33.618  34.270  31.885  1.00  0.00    -0.200 F 
ENDBRANCH  49  63
BRANCH  50  74
ATOM     74  C   UNL A   1      44.823  26.848  28.232  1.00  0.00     0.064 A 
ATOM     75  C   UNL A   1      45.155  25.493  28.476  1.00  0.00     0.173 A 
ATOM     76  C   UNL A   1      44.219  27.142  27.002  1.00  0.00     0.173 A 
ATOM     77  F   UNL A   1      45.751  25.150  29.630  1.00  0.00    -0.203 F 
ATOM     78  C   UNL A   1      44.720  24.472  27.630  1.00  0.00     0.198 A 
ATOM     79  C   UNL A   1      43.824  26.113  26.136  1.00  0.00     0.198 A 
ATOM     80  F   UNL A   1      43.891  28.403  26.689  1.00  0.00    -0.203 F 
ATOM     81  F   UNL A   1      44.894  23.190  27.988  1.00  0.00    -0.200 F 
ATOM     82  C   UNL A   1      44.023  24.782  26.478  1.00  0.00     0.200 A 
ATOM     83  F   UNL A   1      43.154  26.407  25.011  1.00  0.00    -0.200 F 
ATOM     84  F   UNL A   1      43.509  23.804  25.718  1.00  0.00    -0.200 F 
ENDBRANCH  50  74
BRANCH  62  85
ATOM     85  C   UNL A   1      43.649  33.825  29.988  1.00  0.00     0.064 A 
ATOM     86  C   UNL A   1      43.753  34.466  28.744  1.00  0.00     0.173 A 
ATOM     87  C   UNL A   1      43.695  34.693  31.113  1.00  0.00     0.173 A 
ATOM     88  F   UNL A   1      43.590  33.804  27.593  1.00  0.00    -0.203 F 
ATOM     89  C   UNL A   1      43.962  35.842  28.633  1.00  0.00     0.198 A 
ATOM     90  C   UNL A   1      43.805  36.076  30.994  1.00  0.00     0.198 A 
ATOM     91  F   UNL A   1      43.597  34.241  32.371  1.00  0.00    -0.203 F 
ATOM     92  F   UNL A   1      44.123  36.387  27.421  1.00  0.00    -0.200 F 
ATOM     93  C   UNL A   1      43.966  36.648  29.754  1.00  0.00     0.200 A 
ATOM     94  F   UNL A   1      43.728  36.844  32.090  1.00  0.00    -0.200 F 
ATOM     95  F   UNL A   1      44.104  37.975  29.637  1.00  0.00    -0.200 F 
ENDBRANCH  62  85
ENDBRANCH  36  37
ENDBRANCH  28  31
ENDBRANCH  26  27
ENDBRANCH  25  26
ENDBRANCH   1  25
TORSDOF 13
ENDMDL
MODEL 3
REMARK VINA RESULT:     -13.5      3.172      9.041
REMARK SMILES Cc1ccc(F)cc1NS(=O)(=O)c1ccc(C(=O)NCCCNC(=O)c2ccc(-c3c4nc(c(-c5c(F)c(F)c(F)c(F)c5F)c5ccc([nH]5)c(-c5c(F)c(F)c(F)c(F)c5F)c5nc(c(-c6c(F)c(F)c(F)c(F)c6F)c6ccc3[nH]6)C=C5)C=C4)cc2)cc1
REMARK SMILES IDX 20 1 19 2 17 3 18 4 16 6 13 7 14 8 90 9 15 10 89 11 10 12
REMARK SMILES IDX 11 13 12 14 9 15 8 17 1 18 2 19 3 20 4 21 7 22 5 23 6 24
REMARK SMILES IDX 21 25 22 26 23 27 24 28 25 30 26 31 27 32 88 33 28 34 87 35
REMARK SMILES IDX 29 36 30 37 31 38 81 39 32 40 86 41 80 42 82 43 33 44 85 45
REMARK SMILES IDX 79 46 78 47 34 49 66 50 46 51 65 52 47 53 50 54 64 55 83 56
REMARK SMILES IDX 48 57 49 58 63 60 84 61 51 62 35 63 36 64 44 65 37 66 38 67
REMARK SMILES IDX 42 68 45 69 39 70 40 71 43 72 41 73 67 74 68 75 76 76 69 77
REMARK SMILES IDX 70 78 74 79 77 80 71 81 72 82 75 83 73 84 52 85 53 86 61 87
REMARK SMILES IDX 54 88 55 89 59 90 62 91 56 92 57 93 60 94 58 95
REMARK H PARENT 19 5 9 16 23 29 82 48 50 59
REMARK Flexibility Score: inf
ROOT
ATOM      1  C   UNL A   1      35.765  21.252  25.737  1.00  0.00     0.118 C 
ENDROOT
BRANCH   1   2
ATOM      2  N   UNL A   1      35.030  20.182  25.085  1.00  0.00    -0.352 N 
ATOM      3  C   UNL A   1      33.755  20.233  24.591  1.00  0.00     0.251 C 
ATOM      4  O   UNL A   1      33.244  19.256  24.060  1.00  0.00    -0.269 OA
ATOM      5  H   UNL A   1      35.502  19.324  24.988  1.00  0.00     0.163 HD
BRANCH   3   6
ATOM      6  C   UNL A   1      33.041  21.520  24.645  1.00  0.00     0.039 A 
ATOM      7  C   UNL A   1      31.641  23.900  24.796  1.00  0.00     0.087 A 
ATOM      8  C   UNL A   1      31.433  22.913  25.771  1.00  0.00     0.023 A 
ATOM      9  C   UNL A   1      32.453  23.658  23.688  1.00  0.00     0.023 A 
ATOM     10  C   UNL A   1      32.169  21.732  25.713  1.00  0.00     0.015 A 
ATOM     11  C   UNL A   1      33.181  22.478  23.634  1.00  0.00     0.015 A 
BRANCH   7  12
ATOM     12  S   UNL A   1      30.922  25.501  24.992  1.00  0.00     0.261 S 
ATOM     13  O   UNL A   1      30.636  25.675  26.396  1.00  0.00    -0.201 OA
ATOM     14  O   UNL A   1      29.855  25.628  24.012  1.00  0.00    -0.201 OA
BRANCH  12  15
ATOM     15  N   UNL A   1      32.074  26.693  24.563  1.00  0.00    -0.279 N 
ATOM     16  H   UNL A   1      32.593  26.571  23.736  1.00  0.00     0.180 HD
BRANCH  15  17
ATOM     17  C   UNL A   1      32.315  27.870  25.366  1.00  0.00     0.055 A 
ATOM     18  C   UNL A   1      30.618  29.297  24.044  1.00  0.00     0.046 C 
ATOM     19  C   UNL A   1      31.573  29.056  25.184  1.00  0.00    -0.027 A 
ATOM     20  C   UNL A   1      31.817  30.161  26.030  1.00  0.00     0.008 A 
ATOM     21  C   UNL A   1      32.815  30.118  26.997  1.00  0.00     0.039 A 
ATOM     22  C   UNL A   1      33.421  27.914  26.221  1.00  0.00     0.066 A 
ATOM     23  C   UNL A   1      33.631  29.004  27.060  1.00  0.00     0.125 A 
ATOM     24  F   UNL A   1      34.637  28.971  27.942  1.00  0.00    -0.207 F 
ENDBRANCH  15  17
ENDBRANCH  12  15
ENDBRANCH   7  12
ENDBRANCH   3   6
ENDBRANCH   1   2
BRANCH   1  25
ATOM     25  C   UNL A   1      36.702  21.938  24.745  1.00  0.00     0.042 C 
BRANCH  25  26
ATOM     26  C   UNL A   1      37.520  22.969  25.466  1.00  0.00     0.118 C 
BRANCH  26  27
ATOM     27  N   UNL A   1      38.462  22.312  26.361  1.00  0.00    -0.352 N 
ATOM     28  C   UNL A   1      39.599  22.830  26.915  1.00  0.00     0.251 C 
ATOM     29  H   UNL A   1      38.253  21.380  26.597  1.00  0.00     0.163 HD
ATOM     30  O   UNL A   1      40.498  22.097  27.291  1.00  0.00    -0.269 OA
BRANCH  28  31
ATOM     31  C   UNL A   1      39.653  24.274  27.160  1.00  0.00     0.039 A 
ATOM     32  C   UNL A   1      40.279  25.123  26.237  1.00  0.00     0.014 A 
ATOM     33  C   UNL A   1      39.251  24.733  28.413  1.00  0.00     0.014 A 
ATOM     34  C   UNL A   1      40.596  26.413  26.625  1.00  0.00     0.010 A 
ATOM     35  C   UNL A   1      39.420  26.027  28.740  1.00  0.00     0.010 A 
ATOM     36  C   UNL A   1      40.216  26.802  27.900  1.00  0.00    -0.014 A 
BRANCH  36  37
ATOM     37  C   UNL A   1      40.617  27.998  28.589  1.00  0.00     0.031 A 
ATOM     38  C   UNL A   1      39.677  29.114  28.511  1.00  0.00     0.074 A 
ATOM     39  C   UNL A   1      41.487  27.713  29.585  1.00  0.00     0.049 A 
ATOM     40  N   UNL A   1      39.885  30.268  29.014  1.00  0.00    -0.248 NA
ATOM     41  C   UNL A   1      38.376  29.004  27.847  1.00  0.00     0.031 C 
ATOM     42  C   UNL A   1      41.686  28.319  30.893  1.00  0.00     0.029 A 
ATOM     43  N   UNL A   1      42.465  26.697  29.551  1.00  0.00    -0.354 N 
ATOM     44  C   UNL A   1      38.654  30.883  29.112  1.00  0.00     0.074 A 
ATOM     45  C   UNL A   1      37.789  30.141  28.233  1.00  0.00     0.031 C 
ATOM     46  C   UNL A   1      42.901  27.953  31.354  1.00  0.00     0.029 A 
ATOM     47  C   UNL A   1      43.553  27.212  30.281  1.00  0.00     0.049 A 
ATOM     48  H   UNL A   1      42.401  25.819  29.112  1.00  0.00     0.167 HD
ATOM     49  C   UNL A   1      38.501  31.820  30.091  1.00  0.00     0.037 A 
ATOM     50  C   UNL A   1      44.634  27.649  29.565  1.00  0.00     0.037 A 
ATOM     51  C   UNL A   1      39.763  31.941  30.831  1.00  0.00     0.049 A 
ATOM     52  C   UNL A   1      44.744  29.157  29.644  1.00  0.00     0.074 A 
ATOM     53  C   UNL A   1      40.199  31.395  32.027  1.00  0.00     0.029 A 
ATOM     54  N   UNL A   1      40.902  32.342  30.142  1.00  0.00    -0.354 N 
ATOM     55  N   UNL A   1      43.725  29.969  29.760  1.00  0.00    -0.248 NA
ATOM     56  C   UNL A   1      46.025  29.844  29.725  1.00  0.00     0.031 C 
ATOM     57  C   UNL A   1      41.623  31.419  32.021  1.00  0.00     0.029 A 
ATOM     58  C   UNL A   1      42.045  31.967  30.820  1.00  0.00     0.049 A 
ATOM     59  H   UNL A   1      40.894  32.826  29.286  1.00  0.00     0.167 HD
ATOM     60  C   UNL A   1      44.182  31.238  30.009  1.00  0.00     0.074 A 
ATOM     61  C   UNL A   1      45.629  31.107  29.958  1.00  0.00     0.031 C 
ATOM     62  C   UNL A   1      43.356  32.295  30.277  1.00  0.00     0.037 A 
BRANCH  49  63
ATOM     63  C   UNL A   1      37.204  32.428  30.574  1.00  0.00     0.064 A 
ATOM     64  C   UNL A   1      36.510  33.353  29.759  1.00  0.00     0.173 A 
ATOM     65  C   UNL A   1      36.574  32.150  31.803  1.00  0.00     0.173 A 
ATOM     66  F   UNL A   1      36.951  33.680  28.537  1.00  0.00    -0.203 F 
ATOM     67  C   UNL A   1      35.327  33.977  30.158  1.00  0.00     0.198 A 
ATOM     68  C   UNL A   1      35.402  32.796  32.216  1.00  0.00     0.198 A 
ATOM     69  F   UNL A   1      37.026  31.204  32.631  1.00  0.00    -0.203 F 
ATOM     70  F   UNL A   1      34.720  34.839  29.330  1.00  0.00    -0.200 F 
ATOM     71  C   UNL A   1      34.777  33.709  31.393  1.00  0.00     0.200 A 
ATOM     72  F   UNL A   1      34.875  32.511  33.415  1.00  0.00    -0.200 F 
ATOM     73  F   UNL A   1      33.642  34.307  31.777  1.00  0.00    -0.200 F 
ENDBRANCH  49  63
BRANCH  50  74
ATOM     74  C   UNL A   1      44.853  26.784  28.352  1.00  0.00     0.064 A 
ATOM     75  C   UNL A   1      44.543  27.364  27.099  1.00  0.00     0.173 A 
ATOM     76  C   UNL A   1      45.774  25.727  28.352  1.00  0.00     0.173 A 
ATOM     77  F   UNL A   1      43.654  28.369  27.030  1.00  0.00    -0.203 F 
ATOM     78  C   UNL A   1      45.266  27.044  25.948  1.00  0.00     0.198 A 
ATOM     79  C   UNL A   1      46.466  25.382  27.184  1.00  0.00     0.198 A 
ATOM     80  F   UNL A   1      46.107  25.115  29.497  1.00  0.00    -0.203 F 
ATOM     81  F   UNL A   1      45.068  27.744  24.820  1.00  0.00    -0.200 F 
ATOM     82  C   UNL A   1      46.252  26.078  26.001  1.00  0.00     0.200 A 
ATOM     83  F   UNL A   1      47.419  24.439  27.226  1.00  0.00    -0.200 F 
ATOM     84  F   UNL A   1      47.022  25.843  24.929  1.00  0.00    -0.200 F 
ENDBRANCH  50  74
BRANCH  62  85
ATOM     85  C   UNL A   1      43.712  33.762  30.126  1.00  0.00     0.064 A 
ATOM     86  C   UNL A   1      43.798  34.423  28.892  1.00  0.00     0.173 A 
ATOM     87  C   UNL A   1      43.798  34.609  31.265  1.00  0.00     0.173 A 
ATOM     88  F   UNL A   1      43.599  33.786  27.733  1.00  0.00    -0.203 F 
ATOM     89  C   UNL A   1      44.028  35.798  28.801  1.00  0.00     0.198 A 
ATOM     90  C   UNL A   1      43.928  35.991  31.169  1.00  0.00     0.198 A 
ATOM     91  F   UNL A   1      43.721  34.135  32.517  1.00  0.00    -0.203 F 
ATOM     92  F   UNL A   1      44.170  36.362  27.595  1.00  0.00    -0.200 F 
ATOM     93  C   UNL A   1      44.071  36.584  29.936  1.00  0.00     0.200 A 
ATOM     94  F   UNL A   1      43.889  36.740  32.279  1.00  0.00    -0.200 F 
ATOM     95  F   UNL A   1      44.227  37.910  29.839  1.00  0.00    -0.200 F 
ENDBRANCH  62  85
ENDBRANCH  36  37
ENDBRANCH  28  31
ENDBRANCH  26  27
ENDBRANCH  25  26
ENDBRANCH   1  25
TORSDOF 13
ENDMDL
