MODEL 1
REMARK VINA RESULT:     -12.5      0.000      0.000
REMARK SMILES CC[C@@](C)(NC(=O)N1CCC[C@H]1C1CCCC1)C(=O)NCCCNC(=O)c1ccc(-c2c3nc(c(-c4c(F)c(F)c(F)c(F)c4F)c4ccc([nH]4)c(-c4c(F)c(F)c(F)c(F)c4F)c4nc(c(-c5c(F)c(F)c(F)c(F)c5F)c5ccc2[nH]5)C=C4)C=C3)cc1
REMARK SMILES IDX 21 1 20 2 18 3 19 4 3 6 4 7 2 8 1 9 5 10 6 11 7 13 8 14 9 15
REMARK SMILES IDX 12 16 10 17 11 18 13 19 14 20 17 21 15 22 16 23 22 24 23 25
REMARK SMILES IDX 24 26 25 27 26 29 27 30 28 31 89 32 29 33 88 34 30 35 31 36
REMARK SMILES IDX 32 37 82 38 33 39 87 40 81 41 83 42 34 43 86 44 80 45 79 46
REMARK SMILES IDX 35 48 67 49 47 50 66 51 48 52 51 53 65 54 84 55 49 56 50 57
REMARK SMILES IDX 64 59 85 60 52 61 36 62 37 63 45 64 38 65 39 66 43 67 46 68
REMARK SMILES IDX 40 69 41 70 44 71 42 72 68 73 69 74 77 75 70 76 71 77 75 78
REMARK SMILES IDX 78 79 72 80 73 81 76 82 74 83 53 84 54 85 62 86 55 87 56 88
REMARK SMILES IDX 60 89 63 90 57 91 58 92 61 93 59 94
REMARK H PARENT 20 5 5 12 24 28 83 47 51 58
REMARK Flexibility Score: inf
ROOT
ATOM      1  C   UNL A   1      31.499  29.982  25.799  1.00  0.00     0.117 C 
ENDROOT
BRANCH   1   2
ATOM      2  N   UNL A   1      32.587  29.603  24.914  1.00  0.00    -0.354 N 
ATOM      3  C   UNL A   1      32.627  28.991  23.691  1.00  0.00     0.245 C 
ATOM      4  O   UNL A   1      33.689  29.138  23.075  1.00  0.00    -0.272 OA
ATOM      5  H   UNL A   1      33.477  29.833  25.267  1.00  0.00     0.163 HD
BRANCH   3   6
ATOM      6  C   UNL A   1      31.415  28.241  23.053  1.00  0.00     0.117 C 
ATOM      7  C   UNL A   1      30.691  27.539  24.234  1.00  0.00     0.045 C 
BRANCH   6   8
ATOM      8  C   UNL A   1      30.368  29.187  22.376  1.00  0.00     0.035 C 
ATOM      9  C   UNL A   1      28.905  29.067  22.799  1.00  0.00     0.007 C 
ENDBRANCH   6   8
BRANCH   6  10
ATOM     10  N   UNL A   1      31.784  27.193  22.049  1.00  0.00    -0.324 N 
ATOM     11  C   UNL A   1      32.589  26.104  22.105  1.00  0.00     0.318 C 
ATOM     12  H   UNL A   1      31.355  27.323  21.172  1.00  0.00     0.166 HD
ATOM     13  O   UNL A   1      33.408  26.030  21.184  1.00  0.00    -0.249 OA
BRANCH  11  14
ATOM     14  N   UNL A   1      32.481  25.123  23.042  1.00  0.00    -0.322 N 
ATOM     15  C   UNL A   1      31.554  24.023  23.130  1.00  0.00     0.122 C 
ATOM     16  C   UNL A   1      33.330  25.115  24.254  1.00  0.00     0.090 C 
ATOM     17  C   UNL A   1      31.235  23.907  24.599  1.00  0.00     0.024 C 
ATOM     18  C   UNL A   1      32.564  24.214  25.259  1.00  0.00     0.027 C 
BRANCH  16  19
ATOM     19  C   UNL A   1      34.775  24.562  24.098  1.00  0.00     0.012 C 
ATOM     20  C   UNL A   1      35.451  24.080  25.380  1.00  0.00     0.006 C 
ATOM     21  C   UNL A   1      34.969  23.353  23.186  1.00  0.00     0.006 C 
ATOM     22  C   UNL A   1      36.710  23.370  24.896  1.00  0.00     0.000 C 
ATOM     23  C   UNL A   1      36.383  22.860  23.496  1.00  0.00     0.000 C 
ENDBRANCH  16  19
ENDBRANCH  11  14
ENDBRANCH   6  10
ENDBRANCH   3   6
ENDBRANCH   1   2
BRANCH   1  24
ATOM     24  C   UNL A   1      31.355  31.465  26.124  1.00  0.00     0.042 C 
BRANCH  24  25
ATOM     25  C   UNL A   1      32.499  32.142  26.876  1.00  0.00     0.118 C 
BRANCH  25  26
ATOM     26  N   UNL A   1      32.210  33.448  27.426  1.00  0.00    -0.352 N 
ATOM     27  C   UNL A   1      32.955  34.237  28.272  1.00  0.00     0.251 C 
ATOM     28  H   UNL A   1      31.345  33.831  27.153  1.00  0.00     0.163 HD
ATOM     29  O   UNL A   1      32.527  35.350  28.565  1.00  0.00    -0.269 OA
BRANCH  27  30
ATOM     30  C   UNL A   1      34.227  33.773  28.892  1.00  0.00     0.039 A 
ATOM     31  C   UNL A   1      34.136  32.739  29.829  1.00  0.00     0.014 A 
ATOM     32  C   UNL A   1      35.478  34.349  28.645  1.00  0.00     0.014 A 
ATOM     33  C   UNL A   1      35.282  32.254  30.472  1.00  0.00     0.010 A 
ATOM     34  C   UNL A   1      36.634  33.821  29.250  1.00  0.00     0.010 A 
ATOM     35  C   UNL A   1      36.556  32.761  30.167  1.00  0.00    -0.014 A 
BRANCH  35  36
ATOM     36  C   UNL A   1      37.765  32.142  30.799  1.00  0.00     0.031 A 
ATOM     37  C   UNL A   1      38.217  32.509  32.191  1.00  0.00     0.074 A 
ATOM     38  C   UNL A   1      38.462  31.202  30.124  1.00  0.00     0.049 A 
ATOM     39  N   UNL A   1      39.163  31.969  32.925  1.00  0.00    -0.248 NA
ATOM     40  C   UNL A   1      37.539  33.640  32.838  1.00  0.00     0.031 C 
ATOM     41  C   UNL A   1      38.198  30.788  28.745  1.00  0.00     0.029 A 
ATOM     42  N   UNL A   1      39.519  30.409  30.509  1.00  0.00    -0.354 N 
ATOM     43  C   UNL A   1      39.187  32.687  34.114  1.00  0.00     0.074 A 
ATOM     44  C   UNL A   1      38.206  33.744  33.978  1.00  0.00     0.031 C 
ATOM     45  C   UNL A   1      39.025  29.782  28.421  1.00  0.00     0.029 A 
ATOM     46  C   UNL A   1      39.905  29.499  29.552  1.00  0.00     0.049 A 
ATOM     47  H   UNL A   1      39.959  30.487  31.386  1.00  0.00     0.167 HD
ATOM     48  C   UNL A   1      39.934  32.476  35.227  1.00  0.00     0.037 A 
ATOM     49  C   UNL A   1      40.845  28.534  29.579  1.00  0.00     0.037 A 
ATOM     50  C   UNL A   1      40.910  31.423  35.379  1.00  0.00     0.049 A 
ATOM     51  C   UNL A   1      41.655  28.314  30.830  1.00  0.00     0.074 A 
ATOM     52  C   UNL A   1      41.668  31.103  36.494  1.00  0.00     0.029 A 
ATOM     53  N   UNL A   1      41.273  30.527  34.385  1.00  0.00    -0.354 N 
ATOM     54  N   UNL A   1      41.594  28.938  31.979  1.00  0.00    -0.248 NA
ATOM     55  C   UNL A   1      42.656  27.237  30.787  1.00  0.00     0.031 C 
ATOM     56  C   UNL A   1      42.530  30.053  36.157  1.00  0.00     0.029 A 
ATOM     57  C   UNL A   1      42.261  29.672  34.853  1.00  0.00     0.049 A 
ATOM     58  H   UNL A   1      40.887  30.502  33.479  1.00  0.00     0.167 HD
ATOM     59  C   UNL A   1      42.523  28.314  32.804  1.00  0.00     0.074 A 
ATOM     60  C   UNL A   1      43.116  27.244  32.030  1.00  0.00     0.031 C 
ATOM     61  C   UNL A   1      42.854  28.605  34.086  1.00  0.00     0.037 A 
BRANCH  48  62
ATOM     62  C   UNL A   1      39.724  33.405  36.393  1.00  0.00     0.064 A 
ATOM     63  C   UNL A   1      40.373  34.649  36.469  1.00  0.00     0.173 A 
ATOM     64  C   UNL A   1      38.823  33.077  37.418  1.00  0.00     0.173 A 
ATOM     65  F   UNL A   1      41.245  35.014  35.518  1.00  0.00    -0.203 F 
ATOM     66  C   UNL A   1      40.155  35.509  37.542  1.00  0.00     0.198 A 
ATOM     67  C   UNL A   1      38.581  33.955  38.472  1.00  0.00     0.198 A 
ATOM     68  F   UNL A   1      38.164  31.909  37.391  1.00  0.00    -0.203 F 
ATOM     69  F   UNL A   1      40.826  36.667  37.617  1.00  0.00    -0.200 F 
ATOM     70  C   UNL A   1      39.254  35.165  38.538  1.00  0.00     0.200 A 
ATOM     71  F   UNL A   1      37.695  33.630  39.423  1.00  0.00    -0.200 F 
ATOM     72  F   UNL A   1      39.037  35.999  39.565  1.00  0.00    -0.200 F 
ENDBRANCH  48  62
BRANCH  49  73
ATOM     73  C   UNL A   1      41.058  27.666  28.387  1.00  0.00     0.064 A 
ATOM     74  C   UNL A   1      41.970  28.024  27.385  1.00  0.00     0.173 A 
ATOM     75  C   UNL A   1      40.334  26.477  28.215  1.00  0.00     0.173 A 
ATOM     76  F   UNL A   1      42.668  29.164  27.489  1.00  0.00    -0.203 F 
ATOM     77  C   UNL A   1      42.130  27.241  26.242  1.00  0.00     0.198 A 
ATOM     78  C   UNL A   1      40.520  25.678  27.089  1.00  0.00     0.198 A 
ATOM     79  F   UNL A   1      39.450  26.088  29.145  1.00  0.00    -0.203 F 
ATOM     80  F   UNL A   1      42.964  27.638  25.272  1.00  0.00    -0.200 F 
ATOM     81  C   UNL A   1      41.410  26.066  26.099  1.00  0.00     0.200 A 
ATOM     82  F   UNL A   1      39.833  24.535  26.962  1.00  0.00    -0.200 F 
ATOM     83  F   UNL A   1      41.564  25.312  25.001  1.00  0.00    -0.200 F 
ENDBRANCH  49  73
BRANCH  61  84
ATOM     84  C   UNL A   1      43.878  27.726  34.752  1.00  0.00     0.064 A 
ATOM     85  C   UNL A   1      45.243  28.055  34.769  1.00  0.00     0.173 A 
ATOM     86  C   UNL A   1      43.489  26.534  35.384  1.00  0.00     0.173 A 
ATOM     87  F   UNL A   1      45.675  29.176  34.171  1.00  0.00    -0.203 F 
ATOM     88  C   UNL A   1      46.181  27.203  35.348  1.00  0.00     0.198 A 
ATOM     89  C   UNL A   1      44.425  25.703  35.995  1.00  0.00     0.198 A 
ATOM     90  F   UNL A   1      42.197  26.171  35.408  1.00  0.00    -0.203 F 
ATOM     91  F   UNL A   1      47.486  27.505  35.286  1.00  0.00    -0.200 F 
ATOM     92  C   UNL A   1      45.771  26.031  35.965  1.00  0.00     0.200 A 
ATOM     93  F   UNL A   1      44.024  24.579  36.605  1.00  0.00    -0.200 F 
ATOM     94  F   UNL A   1      46.675  25.211  36.518  1.00  0.00    -0.200 F 
ENDBRANCH  61  84
ENDBRANCH  35  36
ENDBRANCH  27  30
ENDBRANCH  25  26
ENDBRANCH  24  25
ENDBRANCH   1  24
TORSDOF 14
ENDMDL
MODEL 2
REMARK VINA RESULT:     -12.4      5.256     10.591
REMARK SMILES CC[C@@](C)(NC(=O)N1CCC[C@H]1C1CCCC1)C(=O)NCCCNC(=O)c1ccc(-c2c3nc(c(-c4c(F)c(F)c(F)c(F)c4F)c4ccc([nH]4)c(-c4c(F)c(F)c(F)c(F)c4F)c4nc(c(-c5c(F)c(F)c(F)c(F)c5F)c5ccc2[nH]5)C=C4)C=C3)cc1
REMARK SMILES IDX 21 1 20 2 18 3 19 4 3 6 4 7 2 8 1 9 5 10 6 11 7 13 8 14 9 15
REMARK SMILES IDX 12 16 10 17 11 18 13 19 14 20 17 21 15 22 16 23 22 24 23 25
REMARK SMILES IDX 24 26 25 27 26 29 27 30 28 31 89 32 29 33 88 34 30 35 31 36
REMARK SMILES IDX 32 37 82 38 33 39 87 40 81 41 83 42 34 43 86 44 80 45 79 46
REMARK SMILES IDX 35 48 67 49 47 50 66 51 48 52 51 53 65 54 84 55 49 56 50 57
REMARK SMILES IDX 64 59 85 60 52 61 36 62 37 63 45 64 38 65 39 66 43 67 46 68
REMARK SMILES IDX 40 69 41 70 44 71 42 72 68 73 69 74 77 75 70 76 71 77 75 78
REMARK SMILES IDX 78 79 72 80 73 81 76 82 74 83 53 84 54 85 62 86 55 87 56 88
REMARK SMILES IDX 60 89 63 90 57 91 58 92 61 93 59 94
REMARK H PARENT 20 5 5 12 24 28 83 47 51 58
REMARK Flexibility Score: inf
ROOT
ATOM      1  C   UNL A   1      36.591  20.626  24.916  1.00  0.00     0.117 C 
ENDROOT
BRANCH   1   2
ATOM      2  N   UNL A   1      35.311  20.139  25.402  1.00  0.00    -0.354 N 
ATOM      3  C   UNL A   1      34.066  20.700  25.478  1.00  0.00     0.245 C 
ATOM      4  O   UNL A   1      33.143  19.889  25.620  1.00  0.00    -0.272 OA
ATOM      5  H   UNL A   1      35.348  19.218  25.746  1.00  0.00     0.163 HD
BRANCH   3   6
ATOM      6  C   UNL A   1      33.787  22.227  25.307  1.00  0.00     0.117 C 
ATOM      7  C   UNL A   1      34.899  22.947  26.118  1.00  0.00     0.045 C 
BRANCH   6   8
ATOM      8  C   UNL A   1      33.902  22.732  23.830  1.00  0.00     0.035 C 
ATOM      9  C   UNL A   1      35.100  23.603  23.454  1.00  0.00     0.007 C 
ENDBRANCH   6   8
BRANCH   6  10
ATOM     10  N   UNL A   1      32.462  22.685  25.832  1.00  0.00    -0.324 N 
ATOM     11  C   UNL A   1      31.963  23.909  26.134  1.00  0.00     0.318 C 
ATOM     12  H   UNL A   1      31.826  21.950  25.989  1.00  0.00     0.166 HD
ATOM     13  O   UNL A   1      31.449  23.987  27.253  1.00  0.00    -0.249 OA
BRANCH  11  14
ATOM     14  N   UNL A   1      31.950  24.962  25.271  1.00  0.00    -0.322 N 
ATOM     15  C   UNL A   1      31.048  25.264  24.189  1.00  0.00     0.122 C 
ATOM     16  C   UNL A   1      33.022  25.983  25.283  1.00  0.00     0.090 C 
ATOM     17  C   UNL A   1      31.926  25.834  23.104  1.00  0.00     0.024 C 
ATOM     18  C   UNL A   1      32.939  26.649  23.883  1.00  0.00     0.027 C 
BRANCH  16  19
ATOM     19  C   UNL A   1      32.923  27.096  26.364  1.00  0.00     0.012 C 
ATOM     20  C   UNL A   1      33.702  28.379  26.081  1.00  0.00     0.006 C 
ATOM     21  C   UNL A   1      31.534  27.653  26.672  1.00  0.00     0.006 C 
ATOM     22  C   UNL A   1      33.218  29.355  27.146  1.00  0.00     0.000 C 
ATOM     23  C   UNL A   1      31.800  28.914  27.496  1.00  0.00     0.000 C 
ENDBRANCH  16  19
ENDBRANCH  11  14
ENDBRANCH   6  10
ENDBRANCH   3   6
ENDBRANCH   1   2
BRANCH   1  24
ATOM     24  C   UNL A   1      37.759  19.645  24.936  1.00  0.00     0.042 C 
BRANCH  24  25
ATOM     25  C   UNL A   1      38.971  20.000  25.794  1.00  0.00     0.118 C 
BRANCH  25  26
ATOM     26  N   UNL A   1      40.117  19.129  25.662  1.00  0.00    -0.352 N 
ATOM     27  C   UNL A   1      41.427  19.326  26.035  1.00  0.00     0.251 C 
ATOM     28  H   UNL A   1      39.931  18.259  25.240  1.00  0.00     0.163 HD
ATOM     29  O   UNL A   1      42.228  18.409  25.874  1.00  0.00    -0.269 OA
BRANCH  27  30
ATOM     30  C   UNL A   1      41.923  20.624  26.570  1.00  0.00     0.039 A 
ATOM     31  C   UNL A   1      42.199  21.630  25.639  1.00  0.00     0.014 A 
ATOM     32  C   UNL A   1      42.191  20.867  27.921  1.00  0.00     0.014 A 
ATOM     33  C   UNL A   1      42.685  22.876  26.055  1.00  0.00     0.010 A 
ATOM     34  C   UNL A   1      42.625  22.138  28.342  1.00  0.00     0.010 A 
ATOM     35  C   UNL A   1      42.872  23.164  27.417  1.00  0.00    -0.014 A 
BRANCH  35  36
ATOM     36  C   UNL A   1      43.293  24.544  27.826  1.00  0.00     0.031 A 
ATOM     37  C   UNL A   1      44.737  24.980  27.802  1.00  0.00     0.074 A 
ATOM     38  C   UNL A   1      42.355  25.442  28.200  1.00  0.00     0.049 A 
ATOM     39  N   UNL A   1      45.244  26.175  27.999  1.00  0.00    -0.248 NA
ATOM     40  C   UNL A   1      45.744  23.944  27.543  1.00  0.00     0.031 C 
ATOM     41  C   UNL A   1      40.927  25.157  28.345  1.00  0.00     0.029 A 
ATOM     42  N   UNL A   1      42.457  26.780  28.506  1.00  0.00    -0.354 N 
ATOM     43  C   UNL A   1      46.622  26.033  27.884  1.00  0.00     0.074 A 
ATOM     44  C   UNL A   1      46.875  24.624  27.664  1.00  0.00     0.031 C 
ATOM     45  C   UNL A   1      40.280  26.292  28.651  1.00  0.00     0.029 A 
ATOM     46  C   UNL A   1      41.246  27.382  28.760  1.00  0.00     0.049 A 
ATOM     47  H   UNL A   1      43.315  27.261  28.540  1.00  0.00     0.167 HD
ATOM     48  C   UNL A   1      47.588  26.985  27.930  1.00  0.00     0.037 A 
ATOM     49  C   UNL A   1      40.938  28.665  29.035  1.00  0.00     0.037 A 
ATOM     50  C   UNL A   1      47.350  28.393  28.142  1.00  0.00     0.049 A 
ATOM     51  C   UNL A   1      42.027  29.705  29.072  1.00  0.00     0.074 A 
ATOM     52  C   UNL A   1      48.266  29.433  28.144  1.00  0.00     0.029 A 
ATOM     53  N   UNL A   1      46.111  28.959  28.400  1.00  0.00    -0.354 N 
ATOM     54  N   UNL A   1      43.313  29.568  28.861  1.00  0.00    -0.248 NA
ATOM     55  C   UNL A   1      41.614  31.084  29.370  1.00  0.00     0.031 C 
ATOM     56  C   UNL A   1      47.591  30.617  28.462  1.00  0.00     0.029 A 
ATOM     57  C   UNL A   1      46.243  30.328  28.590  1.00  0.00     0.049 A 
ATOM     58  H   UNL A   1      45.262  28.462  28.445  1.00  0.00     0.167 HD
ATOM     59  C   UNL A   1      43.856  30.843  28.970  1.00  0.00     0.074 A 
ATOM     60  C   UNL A   1      42.756  31.744  29.240  1.00  0.00     0.031 C 
ATOM     61  C   UNL A   1      45.151  31.228  28.858  1.00  0.00     0.037 A 
BRANCH  48  62
ATOM     62  C   UNL A   1      49.014  26.540  27.739  1.00  0.00     0.064 A 
ATOM     63  C   UNL A   1      49.563  26.359  26.460  1.00  0.00     0.173 A 
ATOM     64  C   UNL A   1      49.858  26.346  28.844  1.00  0.00     0.173 A 
ATOM     65  F   UNL A   1      48.802  26.529  25.368  1.00  0.00    -0.203 F 
ATOM     66  C   UNL A   1      50.890  25.968  26.295  1.00  0.00     0.198 A 
ATOM     67  C   UNL A   1      51.193  25.989  28.675  1.00  0.00     0.198 A 
ATOM     68  F   UNL A   1      49.392  26.518  30.090  1.00  0.00    -0.203 F 
ATOM     69  F   UNL A   1      51.375  25.751  25.065  1.00  0.00    -0.200 F 
ATOM     70  C   UNL A   1      51.705  25.790  27.402  1.00  0.00     0.200 A 
ATOM     71  F   UNL A   1      51.986  25.837  29.746  1.00  0.00    -0.200 F 
ATOM     72  F   UNL A   1      52.985  25.423  27.242  1.00  0.00    -0.200 F 
ENDBRANCH  48  62
BRANCH  49  73
ATOM     73  C   UNL A   1      39.520  29.058  29.268  1.00  0.00     0.064 A 
ATOM     74  C   UNL A   1      38.708  29.499  28.213  1.00  0.00     0.173 A 
ATOM     75  C   UNL A   1      38.958  29.025  30.552  1.00  0.00     0.173 A 
ATOM     76  F   UNL A   1      39.206  29.574  26.970  1.00  0.00    -0.203 F 
ATOM     77  C   UNL A   1      37.398  29.919  28.438  1.00  0.00     0.198 A 
ATOM     78  C   UNL A   1      37.637  29.412  30.770  1.00  0.00     0.198 A 
ATOM     79  F   UNL A   1      39.690  28.610  31.595  1.00  0.00    -0.203 F 
ATOM     80  F   UNL A   1      36.665  30.393  27.422  1.00  0.00    -0.200 F 
ATOM     81  C   UNL A   1      36.862  29.870  29.715  1.00  0.00     0.200 A 
ATOM     82  F   UNL A   1      37.118  29.348  32.004  1.00  0.00    -0.200 F 
ATOM     83  F   UNL A   1      35.602  30.272  29.932  1.00  0.00    -0.200 F 
ENDBRANCH  49  73
BRANCH  61  84
ATOM     84  C   UNL A   1      45.448  32.699  28.986  1.00  0.00     0.064 A 
ATOM     85  C   UNL A   1      45.389  33.568  27.885  1.00  0.00     0.173 A 
ATOM     86  C   UNL A   1      45.798  33.248  30.230  1.00  0.00     0.173 A 
ATOM     87  F   UNL A   1      45.071  33.097  26.669  1.00  0.00    -0.203 F 
ATOM     88  C   UNL A   1      45.715  34.916  28.015  1.00  0.00     0.198 A 
ATOM     89  C   UNL A   1      46.086  34.604  30.364  1.00  0.00     0.198 A 
ATOM     90  F   UNL A   1      45.862  32.469  31.320  1.00  0.00    -0.203 F 
ATOM     91  F   UNL A   1      45.721  35.709  26.933  1.00  0.00    -0.200 F 
ATOM     92  C   UNL A   1      46.058  35.434  29.254  1.00  0.00     0.200 A 
ATOM     93  F   UNL A   1      46.402  35.106  31.566  1.00  0.00    -0.200 F 
ATOM     94  F   UNL A   1      46.376  36.731  29.377  1.00  0.00    -0.200 F 
ENDBRANCH  61  84
ENDBRANCH  35  36
ENDBRANCH  27  30
ENDBRANCH  25  26
ENDBRANCH  24  25
ENDBRANCH   1  24
TORSDOF 14
ENDMDL
MODEL 3
REMARK VINA RESULT:     -12.2      1.740      2.966
REMARK SMILES CC[C@@](C)(NC(=O)N1CCC[C@H]1C1CCCC1)C(=O)NCCCNC(=O)c1ccc(-c2c3nc(c(-c4c(F)c(F)c(F)c(F)c4F)c4ccc([nH]4)c(-c4c(F)c(F)c(F)c(F)c4F)c4nc(c(-c5c(F)c(F)c(F)c(F)c5F)c5ccc2[nH]5)C=C4)C=C3)cc1
REMARK SMILES IDX 21 1 20 2 18 3 19 4 3 6 4 7 2 8 1 9 5 10 6 11 7 13 8 14 9 15
REMARK SMILES IDX 12 16 10 17 11 18 13 19 14 20 17 21 15 22 16 23 22 24 23 25
REMARK SMILES IDX 24 26 25 27 26 29 27 30 28 31 89 32 29 33 88 34 30 35 31 36
REMARK SMILES IDX 32 37 82 38 33 39 87 40 81 41 83 42 34 43 86 44 80 45 79 46
REMARK SMILES IDX 35 48 67 49 47 50 66 51 48 52 51 53 65 54 84 55 49 56 50 57
REMARK SMILES IDX 64 59 85 60 52 61 36 62 37 63 45 64 38 65 39 66 43 67 46 68
REMARK SMILES IDX 40 69 41 70 44 71 42 72 68 73 69 74 77 75 70 76 71 77 75 78
REMARK SMILES IDX 78 79 72 80 73 81 76 82 74 83 53 84 54 85 62 86 55 87 56 88
REMARK SMILES IDX 60 89 63 90 57 91 58 92 61 93 59 94
REMARK H PARENT 20 5 5 12 24 28 83 47 51 58
REMARK Flexibility Score: inf
ROOT
ATOM      1  C   UNL A   1      31.472  27.734  26.592  1.00  0.00     0.117 C 
ENDROOT
BRANCH   1   2
ATOM      2  N   UNL A   1      30.994  26.363  26.626  1.00  0.00    -0.354 N 
ATOM      3  C   UNL A   1      30.758  25.430  25.652  1.00  0.00     0.245 C 
ATOM      4  O   UNL A   1      30.690  24.265  26.060  1.00  0.00    -0.272 OA
ATOM      5  H   UNL A   1      30.800  26.038  27.535  1.00  0.00     0.163 HD
BRANCH   3   6
ATOM      6  C   UNL A   1      30.671  25.765  24.130  1.00  0.00     0.117 C 
ATOM      7  C   UNL A   1      29.957  24.551  23.476  1.00  0.00     0.045 C 
BRANCH   6   8
ATOM      8  C   UNL A   1      29.808  27.030  23.806  1.00  0.00     0.035 C 
ATOM      9  C   UNL A   1      30.415  28.110  22.911  1.00  0.00     0.007 C 
ENDBRANCH   6   8
BRANCH   6  10
ATOM     10  N   UNL A   1      31.993  25.943  23.450  1.00  0.00    -0.324 N 
ATOM     11  C   UNL A   1      33.162  25.259  23.512  1.00  0.00     0.318 C 
ATOM     12  H   UNL A   1      32.019  26.712  22.836  1.00  0.00     0.166 HD
ATOM     13  O   UNL A   1      34.155  25.965  23.710  1.00  0.00    -0.249 OA
BRANCH  11  14
ATOM     14  N   UNL A   1      33.273  23.918  23.306  1.00  0.00    -0.322 N 
ATOM     15  C   UNL A   1      33.100  23.147  22.101  1.00  0.00     0.122 C 
ATOM     16  C   UNL A   1      33.520  22.982  24.427  1.00  0.00     0.090 C 
ATOM     17  C   UNL A   1      32.409  21.884  22.548  1.00  0.00     0.024 C 
ATOM     18  C   UNL A   1      33.054  21.602  23.890  1.00  0.00     0.027 C 
BRANCH  16  19
ATOM     19  C   UNL A   1      34.989  22.848  24.920  1.00  0.00     0.012 C 
ATOM     20  C   UNL A   1      36.072  23.002  23.855  1.00  0.00     0.006 C 
ATOM     21  C   UNL A   1      35.467  23.841  25.977  1.00  0.00     0.006 C 
ATOM     22  C   UNL A   1      37.370  23.087  24.649  1.00  0.00     0.000 C 
ATOM     23  C   UNL A   1      36.987  23.672  26.005  1.00  0.00     0.000 C 
ENDBRANCH  16  19
ENDBRANCH  11  14
ENDBRANCH   6  10
ENDBRANCH   3   6
ENDBRANCH   1   2
BRANCH   1  24
ATOM     24  C   UNL A   1      32.933  27.949  26.210  1.00  0.00     0.042 C 
BRANCH  24  25
ATOM     25  C   UNL A   1      33.296  29.245  25.488  1.00  0.00     0.118 C 
BRANCH  25  26
ATOM     26  N   UNL A   1      32.684  30.449  26.003  1.00  0.00    -0.352 N 
ATOM     27  C   UNL A   1      33.156  31.358  26.922  1.00  0.00     0.251 C 
ATOM     28  H   UNL A   1      31.791  30.650  25.640  1.00  0.00     0.163 HD
ATOM     29  O   UNL A   1      32.476  32.352  27.167  1.00  0.00    -0.269 OA
BRANCH  27  30
ATOM     30  C   UNL A   1      34.426  31.157  27.673  1.00  0.00     0.039 A 
ATOM     31  C   UNL A   1      34.563  29.956  28.375  1.00  0.00     0.014 A 
ATOM     32  C   UNL A   1      35.442  32.113  27.770  1.00  0.00     0.014 A 
ATOM     33  C   UNL A   1      35.719  29.692  29.121  1.00  0.00     0.010 A 
ATOM     34  C   UNL A   1      36.626  31.822  28.474  1.00  0.00     0.010 A 
ATOM     35  C   UNL A   1      36.786  30.605  29.154  1.00  0.00    -0.014 A 
BRANCH  35  36
ATOM     36  C   UNL A   1      38.047  30.238  29.878  1.00  0.00     0.031 A 
ATOM     37  C   UNL A   1      38.321  30.696  31.289  1.00  0.00     0.074 A 
ATOM     38  C   UNL A   1      38.958  29.448  29.269  1.00  0.00     0.049 A 
ATOM     39  N   UNL A   1      39.301  30.355  32.094  1.00  0.00    -0.248 NA
ATOM     40  C   UNL A   1      37.393  31.676  31.866  1.00  0.00     0.031 C 
ATOM     41  C   UNL A   1      38.875  28.981  27.885  1.00  0.00     0.029 A 
ATOM     42  N   UNL A   1      40.120  28.880  29.739  1.00  0.00    -0.354 N 
ATOM     43  C   UNL A   1      39.103  31.072  33.268  1.00  0.00     0.074 A 
ATOM     44  C   UNL A   1      37.947  31.916  33.046  1.00  0.00     0.031 C 
ATOM     45  C   UNL A   1      39.902  28.154  27.636  1.00  0.00     0.029 A 
ATOM     46  C   UNL A   1      40.740  28.056  28.828  1.00  0.00     0.049 A 
ATOM     47  H   UNL A   1      40.474  29.048  30.642  1.00  0.00     0.167 HD
ATOM     48  C   UNL A   1      39.798  31.018  34.432  1.00  0.00     0.037 A 
ATOM     49  C   UNL A   1      41.846  27.293  28.937  1.00  0.00     0.037 A 
ATOM     50  C   UNL A   1      40.947  30.178  34.669  1.00  0.00     0.049 A 
ATOM     51  C   UNL A   1      42.595  27.243  30.243  1.00  0.00     0.074 A 
ATOM     52  C   UNL A   1      41.675  30.018  35.839  1.00  0.00     0.029 A 
ATOM     53  N   UNL A   1      41.545  29.363  33.720  1.00  0.00    -0.354 N 
ATOM     54  N   UNL A   1      42.334  27.852  31.373  1.00  0.00    -0.248 NA
ATOM     55  C   UNL A   1      43.787  26.383  30.288  1.00  0.00     0.031 C 
ATOM     56  C   UNL A   1      42.745  29.155  35.580  1.00  0.00     0.029 A 
ATOM     57  C   UNL A   1      42.646  28.721  34.269  1.00  0.00     0.049 A 
ATOM     58  H   UNL A   1      41.235  29.257  32.791  1.00  0.00     0.167 HD
ATOM     59  C   UNL A   1      43.308  27.427  32.270  1.00  0.00     0.074 A 
ATOM     60  C   UNL A   1      44.149  26.488  31.558  1.00  0.00     0.031 C 
ATOM     61  C   UNL A   1      43.486  27.785  33.565  1.00  0.00     0.037 A 
BRANCH  48  62
ATOM     62  C   UNL A   1      39.331  31.896  35.563  1.00  0.00     0.064 A 
ATOM     63  C   UNL A   1      38.409  31.439  36.517  1.00  0.00     0.173 A 
ATOM     64  C   UNL A   1      39.854  33.189  35.728  1.00  0.00     0.173 A 
ATOM     65  F   UNL A   1      37.876  30.213  36.408  1.00  0.00    -0.203 F 
ATOM     66  C   UNL A   1      38.001  32.253  37.571  1.00  0.00     0.198 A 
ATOM     67  C   UNL A   1      39.470  33.988  36.803  1.00  0.00     0.198 A 
ATOM     68  F   UNL A   1      40.749  33.674  34.856  1.00  0.00    -0.203 F 
ATOM     69  F   UNL A   1      37.079  31.812  38.439  1.00  0.00    -0.200 F 
ATOM     70  C   UNL A   1      38.537  33.523  37.717  1.00  0.00     0.200 A 
ATOM     71  F   UNL A   1      40.004  35.208  36.954  1.00  0.00    -0.200 F 
ATOM     72  F   UNL A   1      38.150  34.302  38.738  1.00  0.00    -0.200 F 
ENDBRANCH  48  62
BRANCH  49  73
ATOM     73  C   UNL A   1      42.305  26.476  27.779  1.00  0.00     0.064 A 
ATOM     74  C   UNL A   1      41.779  25.198  27.541  1.00  0.00     0.173 A 
ATOM     75  C   UNL A   1      43.296  26.946  26.905  1.00  0.00     0.173 A 
ATOM     76  F   UNL A   1      40.848  24.692  28.362  1.00  0.00    -0.203 F 
ATOM     77  C   UNL A   1      42.247  24.410  26.490  1.00  0.00     0.198 A 
ATOM     78  C   UNL A   1      43.738  26.171  25.835  1.00  0.00     0.198 A 
ATOM     79  F   UNL A   1      43.831  28.162  27.088  1.00  0.00    -0.203 F 
ATOM     80  F   UNL A   1      41.770  23.170  26.322  1.00  0.00    -0.200 F 
ATOM     81  C   UNL A   1      43.222  24.900  25.635  1.00  0.00     0.200 A 
ATOM     82  F   UNL A   1      44.669  26.655  25.001  1.00  0.00    -0.200 F 
ATOM     83  F   UNL A   1      43.671  24.144  24.623  1.00  0.00    -0.200 F 
ENDBRANCH  49  73
BRANCH  61  84
ATOM     84  C   UNL A   1      44.614  27.127  34.315  1.00  0.00     0.064 A 
ATOM     85  C   UNL A   1      44.445  25.914  34.999  1.00  0.00     0.173 A 
ATOM     86  C   UNL A   1      45.885  27.722  34.352  1.00  0.00     0.173 A 
ATOM     87  F   UNL A   1      43.248  25.305  35.009  1.00  0.00    -0.203 F 
ATOM     88  C   UNL A   1      45.488  25.346  35.727  1.00  0.00     0.198 A 
ATOM     89  C   UNL A   1      46.937  27.133  35.050  1.00  0.00     0.198 A 
ATOM     90  F   UNL A   1      46.111  28.879  33.709  1.00  0.00    -0.203 F 
ATOM     91  F   UNL A   1      45.279  24.224  36.431  1.00  0.00    -0.200 F 
ATOM     92  C   UNL A   1      46.734  25.953  35.749  1.00  0.00     0.200 A 
ATOM     93  F   UNL A   1      48.145  27.714  35.055  1.00  0.00    -0.200 F 
ATOM     94  F   UNL A   1      47.735  25.409  36.453  1.00  0.00    -0.200 F 
ENDBRANCH  61  84
ENDBRANCH  35  36
ENDBRANCH  27  30
ENDBRANCH  25  26
ENDBRANCH  24  25
ENDBRANCH   1  24
TORSDOF 14
ENDMDL
