MODEL 1
REMARK VINA RESULT:     -12.3      0.000      0.000
REMARK SMILES C[C@H](C(=O)NCCCNC(=O)c1ccc(-c2c3nc(c(-c4c(F)c(F)c(F)c(F)c4F)c4ccc([nH]4)c(-c4c(F)c(F)c(F)c(F)c4F)c4nc(c(-c5c(F)c(F)c(F)c(F)c5F)c5ccc2[nH]5)C=C4)C=C3)cc1)c1ccc(C[C@H]2CCC[C@@H]2O)cc1
REMARK SMILES IDX 6 1 5 2 3 3 4 4 2 6 1 7 75 8 76 9 87 10 77 11 86 12 78 13
REMARK SMILES IDX 79 14 80 15 81 16 84 17 82 18 83 19 85 20 7 22 8 23 9 24
REMARK SMILES IDX 10 25 11 27 12 28 13 29 74 30 14 31 73 32 15 33 16 34 17 35
REMARK SMILES IDX 67 36 18 37 72 38 66 39 68 40 19 41 71 42 65 43 64 44 20 46
REMARK SMILES IDX 52 47 32 48 51 49 33 50 36 51 50 52 69 53 34 54 35 55 49 57
REMARK SMILES IDX 70 58 37 59 21 60 22 61 30 62 23 63 24 64 28 65 31 66 25 67
REMARK SMILES IDX 26 68 29 69 27 70 53 71 54 72 62 73 55 74 56 75 60 76 63 77
REMARK SMILES IDX 57 78 58 79 61 80 59 81 38 82 39 83 47 84 40 85 41 86 45 87
REMARK SMILES IDX 48 88 42 89 43 90 46 91 44 92
REMARK H PARENT 5 5 85 21 9 26 68 45 36 56
REMARK Flexibility Score: inf
ROOT
ATOM      1  C   UNL A   1      32.762  27.388  26.572  1.00  0.00     0.117 C 
ENDROOT
BRANCH   1   2
ATOM      2  N   UNL A   1      31.890  26.304  26.983  1.00  0.00    -0.356 N 
ATOM      3  C   UNL A   1      31.459  25.208  26.297  1.00  0.00     0.227 C 
ATOM      4  O   UNL A   1      30.998  24.295  26.998  1.00  0.00    -0.274 OA
ATOM      5  H   UNL A   1      31.555  26.372  27.907  1.00  0.00     0.163 HD
BRANCH   3   6
ATOM      6  C   UNL A   1      31.348  25.106  24.766  1.00  0.00     0.105 C 
ATOM      7  C   UNL A   1      31.121  23.607  24.482  1.00  0.00     0.023 C 
BRANCH   6   8
ATOM      8  C   UNL A   1      30.379  26.033  24.039  1.00  0.00    -0.036 A 
ATOM      9  C   UNL A   1      30.835  27.031  23.166  1.00  0.00     0.005 A 
ATOM     10  C   UNL A   1      28.993  25.942  24.242  1.00  0.00     0.005 A 
ATOM     11  C   UNL A   1      29.985  28.072  22.770  1.00  0.00     0.004 A 
ATOM     12  C   UNL A   1      28.133  26.942  23.791  1.00  0.00     0.004 A 
ATOM     13  C   UNL A   1      28.638  28.070  23.146  1.00  0.00    -0.048 A 
BRANCH  13  14
ATOM     14  C   UNL A   1      27.753  29.271  22.921  1.00  0.00     0.041 C 
BRANCH  14  15
ATOM     15  C   UNL A   1      28.446  30.518  22.330  1.00  0.00     0.022 C 
ATOM     16  C   UNL A   1      27.849  31.106  21.038  1.00  0.00     0.007 C 
ATOM     17  C   UNL A   1      28.545  31.727  23.264  1.00  0.00     0.117 C 
ATOM     18  C   UNL A   1      28.117  32.615  21.089  1.00  0.00     0.003 C 
ATOM     19  C   UNL A   1      28.977  32.843  22.321  1.00  0.00     0.032 C 
BRANCH  17  20
ATOM     20  O   UNL A   1      29.486  31.525  24.300  1.00  0.00    -0.393 OA
ATOM     21  H   UNL A   1      29.863  32.379  24.565  1.00  0.00     0.210 HD
ENDBRANCH  17  20
ENDBRANCH  14  15
ENDBRANCH  13  14
ENDBRANCH   6   8
ENDBRANCH   3   6
ENDBRANCH   1   2
BRANCH   1  22
ATOM     22  C   UNL A   1      32.075  28.707  26.286  1.00  0.00     0.042 C 
BRANCH  22  23
ATOM     23  C   UNL A   1      32.957  29.818  25.747  1.00  0.00     0.118 C 
BRANCH  23  24
ATOM     24  N   UNL A   1      32.650  31.143  26.264  1.00  0.00    -0.352 N 
ATOM     25  C   UNL A   1      33.294  31.909  27.212  1.00  0.00     0.251 C 
ATOM     26  H   UNL A   1      31.850  31.562  25.871  1.00  0.00     0.163 HD
ATOM     27  O   UNL A   1      32.817  32.988  27.545  1.00  0.00    -0.269 OA
BRANCH  25  28
ATOM     28  C   UNL A   1      34.539  31.431  27.862  1.00  0.00     0.039 A 
ATOM     29  C   UNL A   1      35.615  32.315  27.996  1.00  0.00     0.014 A 
ATOM     30  C   UNL A   1      34.667  30.125  28.332  1.00  0.00     0.014 A 
ATOM     31  C   UNL A   1      36.779  31.907  28.655  1.00  0.00     0.010 A 
ATOM     32  C   UNL A   1      35.763  29.765  29.110  1.00  0.00     0.010 A 
ATOM     33  C   UNL A   1      36.850  30.638  29.252  1.00  0.00    -0.014 A 
BRANCH  33  34
ATOM     34  C   UNL A   1      38.071  30.176  29.964  1.00  0.00     0.031 A 
ATOM     35  C   UNL A   1      38.346  30.649  31.370  1.00  0.00     0.074 A 
ATOM     36  C   UNL A   1      38.957  29.375  29.341  1.00  0.00     0.049 A 
ATOM     37  N   UNL A   1      39.376  30.409  32.142  1.00  0.00    -0.248 NA
ATOM     38  C   UNL A   1      37.350  31.550  31.973  1.00  0.00     0.031 C 
ATOM     39  C   UNL A   1      38.847  28.899  27.963  1.00  0.00     0.029 A 
ATOM     40  N   UNL A   1      40.134  28.825  29.788  1.00  0.00    -0.354 N 
ATOM     41  C   UNL A   1      39.154  31.135  33.305  1.00  0.00     0.074 A 
ATOM     42  C   UNL A   1      37.942  31.896  33.104  1.00  0.00     0.031 C 
ATOM     43  C   UNL A   1      39.892  28.103  27.685  1.00  0.00     0.029 A 
ATOM     44  C   UNL A   1      40.767  28.043  28.853  1.00  0.00     0.049 A 
ATOM     45  H   UNL A   1      40.491  28.979  30.692  1.00  0.00     0.167 HD
ATOM     46  C   UNL A   1      39.867  31.139  34.457  1.00  0.00     0.037 A 
ATOM     47  C   UNL A   1      41.922  27.354  28.930  1.00  0.00     0.037 A 
ATOM     48  C   UNL A   1      41.060  30.362  34.666  1.00  0.00     0.049 A 
ATOM     49  C   UNL A   1      42.695  27.363  30.222  1.00  0.00     0.074 A 
ATOM     50  C   UNL A   1      41.836  30.259  35.806  1.00  0.00     0.029 A 
ATOM     51  N   UNL A   1      41.648  29.551  33.706  1.00  0.00    -0.354 N 
ATOM     52  N   UNL A   1      42.439  28.000  31.338  1.00  0.00    -0.248 NA
ATOM     53  C   UNL A   1      43.911  26.539  30.269  1.00  0.00     0.031 C 
ATOM     54  C   UNL A   1      42.922  29.425  35.521  1.00  0.00     0.029 A 
ATOM     55  C   UNL A   1      42.786  28.955  34.224  1.00  0.00     0.049 A 
ATOM     56  H   UNL A   1      41.307  29.418  32.792  1.00  0.00     0.167 HD
ATOM     57  C   UNL A   1      43.438  27.630  32.230  1.00  0.00     0.074 A 
ATOM     58  C   UNL A   1      44.295  26.699  31.527  1.00  0.00     0.031 C 
ATOM     59  C   UNL A   1      43.626  28.023  33.514  1.00  0.00     0.037 A 
BRANCH  46  60
ATOM     60  C   UNL A   1      39.362  32.006  35.579  1.00  0.00     0.064 A 
ATOM     61  C   UNL A   1      39.758  33.348  35.709  1.00  0.00     0.173 A 
ATOM     62  C   UNL A   1      38.468  31.495  36.531  1.00  0.00     0.173 A 
ATOM     63  F   UNL A   1      40.621  33.885  34.833  1.00  0.00    -0.203 F 
ATOM     64  C   UNL A   1      39.317  34.128  36.774  1.00  0.00     0.198 A 
ATOM     65  C   UNL A   1      37.998  32.291  37.573  1.00  0.00     0.198 A 
ATOM     66  F   UNL A   1      38.050  30.223  36.454  1.00  0.00    -0.203 F 
ATOM     67  F   UNL A   1      39.768  35.382  36.915  1.00  0.00    -0.200 F 
ATOM     68  C   UNL A   1      38.432  33.601  37.701  1.00  0.00     0.200 A 
ATOM     69  F   UNL A   1      37.129  31.785  38.460  1.00  0.00    -0.200 F 
ATOM     70  F   UNL A   1      38.005  34.354  38.725  1.00  0.00    -0.200 F 
ENDBRANCH  46  60
BRANCH  47  71
ATOM     71  C   UNL A   1      42.396  26.570  27.757  1.00  0.00     0.064 A 
ATOM     72  C   UNL A   1      43.316  27.112  26.849  1.00  0.00     0.173 A 
ATOM     73  C   UNL A   1      41.942  25.264  27.523  1.00  0.00     0.173 A 
ATOM     74  F   UNL A   1      43.767  28.364  27.018  1.00  0.00    -0.203 F 
ATOM     75  C   UNL A   1      43.746  26.387  25.738  1.00  0.00     0.198 A 
ATOM     76  C   UNL A   1      42.397  24.528  26.431  1.00  0.00     0.198 A 
ATOM     77  F   UNL A   1      41.069  24.694  28.367  1.00  0.00    -0.203 F 
ATOM     78  F   UNL A   1      44.588  26.948  24.859  1.00  0.00    -0.200 F 
ATOM     79  C   UNL A   1      43.290  25.093  25.534  1.00  0.00     0.200 A 
ATOM     80  F   UNL A   1      41.969  23.271  26.247  1.00  0.00    -0.200 F 
ATOM     81  F   UNL A   1      43.710  24.393  24.471  1.00  0.00    -0.200 F 
ENDBRANCH  47  71
BRANCH  59  82
ATOM     82  C   UNL A   1      44.774  27.406  34.262  1.00  0.00     0.064 A 
ATOM     83  C   UNL A   1      46.031  28.025  34.336  1.00  0.00     0.173 A 
ATOM     84  C   UNL A   1      44.602  26.188  34.938  1.00  0.00     0.173 A 
ATOM     85  F   UNL A   1      46.252  29.184  33.700  1.00  0.00    -0.203 F 
ATOM     86  C   UNL A   1      47.084  27.426  35.025  1.00  0.00     0.198 A 
ATOM     87  C   UNL A   1      45.646  25.611  35.656  1.00  0.00     0.198 A 
ATOM     88  F   UNL A   1      43.418  25.558  34.909  1.00  0.00    -0.203 F 
ATOM     89  F   UNL A   1      48.293  28.003  35.028  1.00  0.00    -0.200 F 
ATOM     90  C   UNL A   1      46.889  26.224  35.689  1.00  0.00     0.200 A 
ATOM     91  F   UNL A   1      45.450  24.459  36.313  1.00  0.00    -0.200 F 
ATOM     92  F   UNL A   1      47.902  25.652  36.353  1.00  0.00    -0.200 F 
ENDBRANCH  59  82
ENDBRANCH  33  34
ENDBRANCH  25  28
ENDBRANCH  23  24
ENDBRANCH  22  23
ENDBRANCH   1  22
TORSDOF 14
ENDMDL
MODEL 2
REMARK VINA RESULT:     -12.3      1.989      7.797
REMARK SMILES C[C@H](C(=O)NCCCNC(=O)c1ccc(-c2c3nc(c(-c4c(F)c(F)c(F)c(F)c4F)c4ccc([nH]4)c(-c4c(F)c(F)c(F)c(F)c4F)c4nc(c(-c5c(F)c(F)c(F)c(F)c5F)c5ccc2[nH]5)C=C4)C=C3)cc1)c1ccc(C[C@H]2CCC[C@@H]2O)cc1
REMARK SMILES IDX 6 1 5 2 3 3 4 4 2 6 1 7 75 8 76 9 87 10 77 11 86 12 78 13
REMARK SMILES IDX 79 14 80 15 81 16 84 17 82 18 83 19 85 20 7 22 8 23 9 24
REMARK SMILES IDX 10 25 11 27 12 28 13 29 74 30 14 31 73 32 15 33 16 34 17 35
REMARK SMILES IDX 67 36 18 37 72 38 66 39 68 40 19 41 71 42 65 43 64 44 20 46
REMARK SMILES IDX 52 47 32 48 51 49 33 50 36 51 50 52 69 53 34 54 35 55 49 57
REMARK SMILES IDX 70 58 37 59 21 60 22 61 30 62 23 63 24 64 28 65 31 66 25 67
REMARK SMILES IDX 26 68 29 69 27 70 53 71 54 72 62 73 55 74 56 75 60 76 63 77
REMARK SMILES IDX 57 78 58 79 61 80 59 81 38 82 39 83 47 84 40 85 41 86 45 87
REMARK SMILES IDX 48 88 42 89 43 90 46 91 44 92
REMARK H PARENT 5 5 85 21 9 26 68 45 36 56
REMARK Flexibility Score: inf
ROOT
ATOM      1  C   UNL A   1      31.528  30.856  25.994  1.00  0.00     0.117 C 
ENDROOT
BRANCH   1   2
ATOM      2  N   UNL A   1      32.223  29.956  26.894  1.00  0.00    -0.356 N 
ATOM      3  C   UNL A   1      33.119  28.961  26.633  1.00  0.00     0.227 C 
ATOM      4  O   UNL A   1      33.790  28.588  27.606  1.00  0.00    -0.274 OA
ATOM      5  H   UNL A   1      32.015  30.084  27.848  1.00  0.00     0.163 HD
BRANCH   3   6
ATOM      6  C   UNL A   1      33.221  28.184  25.309  1.00  0.00     0.105 C 
ATOM      7  C   UNL A   1      33.763  26.795  25.704  1.00  0.00     0.023 C 
BRANCH   6   8
ATOM      8  C   UNL A   1      32.005  28.142  24.390  1.00  0.00    -0.036 A 
ATOM      9  C   UNL A   1      31.991  28.820  23.161  1.00  0.00     0.005 A 
ATOM     10  C   UNL A   1      30.840  27.449  24.753  1.00  0.00     0.005 A 
ATOM     11  C   UNL A   1      30.783  29.050  22.491  1.00  0.00     0.004 A 
ATOM     12  C   UNL A   1      29.650  27.622  24.049  1.00  0.00     0.004 A 
ATOM     13  C   UNL A   1      29.587  28.511  22.977  1.00  0.00    -0.048 A 
BRANCH  13  14
ATOM     14  C   UNL A   1      28.250  28.913  22.406  1.00  0.00     0.041 C 
BRANCH  14  15
ATOM     15  C   UNL A   1      27.915  30.419  22.469  1.00  0.00     0.022 C 
ATOM     16  C   UNL A   1      28.493  31.217  23.652  1.00  0.00     0.007 C 
ATOM     17  C   UNL A   1      28.325  31.241  21.244  1.00  0.00     0.117 C 
ATOM     18  C   UNL A   1      28.724  32.644  23.137  1.00  0.00     0.003 C 
ATOM     19  C   UNL A   1      28.148  32.675  21.731  1.00  0.00     0.032 C 
BRANCH  17  20
ATOM     20  O   UNL A   1      27.512  30.967  20.120  1.00  0.00    -0.393 OA
ATOM     21  H   UNL A   1      26.892  30.254  20.336  1.00  0.00     0.210 HD
ENDBRANCH  17  20
ENDBRANCH  14  15
ENDBRANCH  13  14
ENDBRANCH   6   8
ENDBRANCH   3   6
ENDBRANCH   1   2
BRANCH   1  22
ATOM     22  C   UNL A   1      31.341  32.271  26.500  1.00  0.00     0.042 C 
BRANCH  22  23
ATOM     23  C   UNL A   1      32.532  32.892  27.204  1.00  0.00     0.118 C 
BRANCH  23  24
ATOM     24  N   UNL A   1      32.318  34.251  27.678  1.00  0.00    -0.352 N 
ATOM     25  C   UNL A   1      32.972  34.977  28.651  1.00  0.00     0.251 C 
ATOM     26  H   UNL A   1      31.585  34.732  27.229  1.00  0.00     0.163 HD
ATOM     27  O   UNL A   1      32.577  36.102  28.935  1.00  0.00    -0.269 OA
BRANCH  25  28
ATOM     28  C   UNL A   1      34.126  34.402  29.385  1.00  0.00     0.039 A 
ATOM     29  C   UNL A   1      33.888  33.673  30.555  1.00  0.00     0.014 A 
ATOM     30  C   UNL A   1      35.437  34.579  28.946  1.00  0.00     0.014 A 
ATOM     31  C   UNL A   1      34.954  33.075  31.236  1.00  0.00     0.010 A 
ATOM     32  C   UNL A   1      36.476  33.868  29.539  1.00  0.00     0.010 A 
ATOM     33  C   UNL A   1      36.255  33.135  30.712  1.00  0.00    -0.014 A 
BRANCH  33  34
ATOM     34  C   UNL A   1      37.408  32.505  31.409  1.00  0.00     0.031 A 
ATOM     35  C   UNL A   1      38.145  31.360  30.759  1.00  0.00     0.074 A 
ATOM     36  C   UNL A   1      37.766  32.920  32.640  1.00  0.00     0.049 A 
ATOM     37  N   UNL A   1      39.137  30.640  31.220  1.00  0.00    -0.248 NA
ATOM     38  C   UNL A   1      37.675  30.939  29.429  1.00  0.00     0.031 C 
ATOM     39  C   UNL A   1      37.098  33.970  33.408  1.00  0.00     0.029 A 
ATOM     40  N   UNL A   1      38.781  32.500  33.465  1.00  0.00    -0.354 N 
ATOM     41  C   UNL A   1      39.394  29.684  30.246  1.00  0.00     0.074 A 
ATOM     42  C   UNL A   1      38.398  29.853  29.213  1.00  0.00     0.031 C 
ATOM     43  C   UNL A   1      37.738  34.136  34.577  1.00  0.00     0.029 A 
ATOM     44  C   UNL A   1      38.838  33.180  34.657  1.00  0.00     0.049 A 
ATOM     45  H   UNL A   1      39.407  31.780  33.225  1.00  0.00     0.167 HD
ATOM     46  C   UNL A   1      40.395  28.772  30.191  1.00  0.00     0.037 A 
ATOM     47  C   UNL A   1      39.684  33.046  35.698  1.00  0.00     0.037 A 
ATOM     48  C   UNL A   1      41.400  28.619  31.208  1.00  0.00     0.049 A 
ATOM     49  C   UNL A   1      40.794  32.033  35.613  1.00  0.00     0.074 A 
ATOM     50  C   UNL A   1      42.481  27.757  31.233  1.00  0.00     0.029 A 
ATOM     51  N   UNL A   1      41.446  29.354  32.385  1.00  0.00    -0.354 N 
ATOM     52  N   UNL A   1      41.068  31.180  34.657  1.00  0.00    -0.248 NA
ATOM     53  C   UNL A   1      41.727  31.980  36.748  1.00  0.00     0.031 C 
ATOM     54  C   UNL A   1      43.153  27.934  32.448  1.00  0.00     0.029 A 
ATOM     55  C   UNL A   1      42.530  28.953  33.150  1.00  0.00     0.049 A 
ATOM     56  H   UNL A   1      40.804  30.055  32.639  1.00  0.00     0.167 HD
ATOM     57  C   UNL A   1      42.220  30.513  35.055  1.00  0.00     0.074 A 
ATOM     58  C   UNL A   1      42.601  31.074  36.334  1.00  0.00     0.031 C 
ATOM     59  C   UNL A   1      42.901  29.528  34.419  1.00  0.00     0.037 A 
BRANCH  46  60
ATOM     60  C   UNL A   1      40.447  27.879  28.981  1.00  0.00     0.064 A 
ATOM     61  C   UNL A   1      41.212  28.214  27.850  1.00  0.00     0.173 A 
ATOM     62  C   UNL A   1      39.733  26.672  28.950  1.00  0.00     0.173 A 
ATOM     63  F   UNL A   1      41.905  29.361  27.820  1.00  0.00    -0.203 F 
ATOM     64  C   UNL A   1      41.219  27.400  26.720  1.00  0.00     0.198 A 
ATOM     65  C   UNL A   1      39.775  25.841  27.833  1.00  0.00     0.198 A 
ATOM     66  F   UNL A   1      38.991  26.297  30.003  1.00  0.00    -0.203 F 
ATOM     67  F   UNL A   1      41.898  27.780  25.629  1.00  0.00    -0.200 F 
ATOM     68  C   UNL A   1      40.507  26.212  26.715  1.00  0.00     0.200 A 
ATOM     69  F   UNL A   1      39.098  24.684  27.835  1.00  0.00    -0.200 F 
ATOM     70  F   UNL A   1      40.517  25.428  25.628  1.00  0.00    -0.200 F 
ENDBRANCH  46  60
BRANCH  47  71
ATOM     71  C   UNL A   1      39.531  33.920  36.892  1.00  0.00     0.064 A 
ATOM     72  C   UNL A   1      40.101  35.201  36.930  1.00  0.00     0.173 A 
ATOM     73  C   UNL A   1      38.812  33.494  38.019  1.00  0.00     0.173 A 
ATOM     74  F   UNL A   1      40.814  35.648  35.885  1.00  0.00    -0.203 F 
ATOM     75  C   UNL A   1      39.977  36.012  38.056  1.00  0.00     0.198 A 
ATOM     76  C   UNL A   1      38.662  34.319  39.132  1.00  0.00     0.198 A 
ATOM     77  F   UNL A   1      38.240  32.281  38.031  1.00  0.00    -0.203 F 
ATOM     78  F   UNL A   1      40.574  37.212  38.084  1.00  0.00    -0.200 F 
ATOM     79  C   UNL A   1      39.252  35.573  39.154  1.00  0.00     0.200 A 
ATOM     80  F   UNL A   1      37.944  33.898  40.183  1.00  0.00    -0.200 F 
ATOM     81  F   UNL A   1      39.127  36.356  40.234  1.00  0.00    -0.200 F 
ENDBRANCH  47  71
BRANCH  59  82
ATOM     82  C   UNL A   1      44.160  29.029  35.070  1.00  0.00     0.064 A 
ATOM     83  C   UNL A   1      44.155  27.953  35.970  1.00  0.00     0.173 A 
ATOM     84  C   UNL A   1      45.395  29.623  34.765  1.00  0.00     0.173 A 
ATOM     85  F   UNL A   1      43.002  27.356  36.304  1.00  0.00    -0.203 F 
ATOM     86  C   UNL A   1      45.334  27.517  36.571  1.00  0.00     0.198 A 
ATOM     87  C   UNL A   1      46.575  29.161  35.340  1.00  0.00     0.198 A 
ATOM     88  F   UNL A   1      45.459  30.648  33.903  1.00  0.00    -0.203 F 
ATOM     89  F   UNL A   1      45.297  26.530  37.476  1.00  0.00    -0.200 F 
ATOM     90  C   UNL A   1      46.543  28.117  36.251  1.00  0.00     0.200 A 
ATOM     91  F   UNL A   1      47.745  29.730  35.015  1.00  0.00    -0.200 F 
ATOM     92  F   UNL A   1      47.676  27.694  36.828  1.00  0.00    -0.200 F 
ENDBRANCH  59  82
ENDBRANCH  33  34
ENDBRANCH  25  28
ENDBRANCH  23  24
ENDBRANCH  22  23
ENDBRANCH   1  22
TORSDOF 14
ENDMDL
MODEL 3
REMARK VINA RESULT:     -12.2      4.452      7.863
REMARK SMILES C[C@H](C(=O)NCCCNC(=O)c1ccc(-c2c3nc(c(-c4c(F)c(F)c(F)c(F)c4F)c4ccc([nH]4)c(-c4c(F)c(F)c(F)c(F)c4F)c4nc(c(-c5c(F)c(F)c(F)c(F)c5F)c5ccc2[nH]5)C=C4)C=C3)cc1)c1ccc(C[C@H]2CCC[C@@H]2O)cc1
REMARK SMILES IDX 6 1 5 2 3 3 4 4 2 6 1 7 75 8 76 9 87 10 77 11 86 12 78 13
REMARK SMILES IDX 79 14 80 15 81 16 84 17 82 18 83 19 85 20 7 22 8 23 9 24
REMARK SMILES IDX 10 25 11 27 12 28 13 29 74 30 14 31 73 32 15 33 16 34 17 35
REMARK SMILES IDX 67 36 18 37 72 38 66 39 68 40 19 41 71 42 65 43 64 44 20 46
REMARK SMILES IDX 52 47 32 48 51 49 33 50 36 51 50 52 69 53 34 54 35 55 49 57
REMARK SMILES IDX 70 58 37 59 21 60 22 61 30 62 23 63 24 64 28 65 31 66 25 67
REMARK SMILES IDX 26 68 29 69 27 70 53 71 54 72 62 73 55 74 56 75 60 76 63 77
REMARK SMILES IDX 57 78 58 79 61 80 59 81 38 82 39 83 47 84 40 85 41 86 45 87
REMARK SMILES IDX 48 88 42 89 43 90 46 91 44 92
REMARK H PARENT 5 5 85 21 9 26 68 45 36 56
REMARK Flexibility Score: inf
ROOT
ATOM      1  C   UNL A   1      34.001  34.983  29.097  1.00  0.00     0.117 C 
ENDROOT
BRANCH   1   2
ATOM      2  N   UNL A   1      33.250  34.662  30.297  1.00  0.00    -0.356 N 
ATOM      3  C   UNL A   1      33.329  35.182  31.555  1.00  0.00     0.227 C 
ATOM      4  O   UNL A   1      32.352  34.953  32.282  1.00  0.00    -0.274 OA
ATOM      5  H   UNL A   1      32.575  33.955  30.184  1.00  0.00     0.163 HD
BRANCH   3   6
ATOM      6  C   UNL A   1      34.574  35.853  32.162  1.00  0.00     0.105 C 
ATOM      7  C   UNL A   1      34.028  37.047  32.970  1.00  0.00     0.023 C 
BRANCH   6   8
ATOM      8  C   UNL A   1      35.574  34.988  32.923  1.00  0.00    -0.036 A 
ATOM      9  C   UNL A   1      36.761  34.541  32.324  1.00  0.00     0.005 A 
ATOM     10  C   UNL A   1      35.328  34.581  34.243  1.00  0.00     0.005 A 
ATOM     11  C   UNL A   1      37.497  33.496  32.898  1.00  0.00     0.004 A 
ATOM     12  C   UNL A   1      36.100  33.588  34.846  1.00  0.00     0.004 A 
ATOM     13  C   UNL A   1      37.122  32.961  34.136  1.00  0.00    -0.048 A 
BRANCH  13  14
ATOM     14  C   UNL A   1      37.758  31.704  34.677  1.00  0.00     0.041 C 
BRANCH  14  15
ATOM     15  C   UNL A   1      38.548  30.854  33.658  1.00  0.00     0.022 C 
ATOM     16  C   UNL A   1      40.081  30.979  33.679  1.00  0.00     0.007 C 
ATOM     17  C   UNL A   1      38.308  29.343  33.730  1.00  0.00     0.117 C 
ATOM     18  C   UNL A   1      40.630  29.615  33.242  1.00  0.00     0.003 C 
ATOM     19  C   UNL A   1      39.419  28.788  32.846  1.00  0.00     0.032 C 
BRANCH  17  20
ATOM     20  O   UNL A   1      37.028  28.982  33.248  1.00  0.00    -0.393 OA
ATOM     21  H   UNL A   1      36.803  28.093  33.563  1.00  0.00     0.210 HD
ENDBRANCH  17  20
ENDBRANCH  14  15
ENDBRANCH  13  14
ENDBRANCH   6   8
ENDBRANCH   3   6
ENDBRANCH   1   2
BRANCH   1  22
ATOM     22  C   UNL A   1      34.537  33.795  28.326  1.00  0.00     0.042 C 
BRANCH  22  23
ATOM     23  C   UNL A   1      34.603  32.482  29.081  1.00  0.00     0.118 C 
BRANCH  23  24
ATOM     24  N   UNL A   1      34.029  31.346  28.377  1.00  0.00    -0.352 N 
ATOM     25  C   UNL A   1      34.608  30.174  27.939  1.00  0.00     0.251 C 
ATOM     26  H   UNL A   1      33.067  31.427  28.181  1.00  0.00     0.163 HD
ATOM     27  O   UNL A   1      33.939  29.369  27.300  1.00  0.00    -0.269 OA
BRANCH  25  28
ATOM     28  C   UNL A   1      36.040  29.887  28.197  1.00  0.00     0.039 A 
ATOM     29  C   UNL A   1      36.409  29.334  29.428  1.00  0.00     0.014 A 
ATOM     30  C   UNL A   1      37.027  30.163  27.251  1.00  0.00     0.014 A 
ATOM     31  C   UNL A   1      37.744  29.002  29.675  1.00  0.00     0.010 A 
ATOM     32  C   UNL A   1      38.326  29.703  27.440  1.00  0.00     0.010 A 
ATOM     33  C   UNL A   1      38.712  29.149  28.668  1.00  0.00    -0.014 A 
BRANCH  33  34
ATOM     34  C   UNL A   1      40.139  28.801  28.897  1.00  0.00     0.031 A 
ATOM     35  C   UNL A   1      41.057  29.793  29.567  1.00  0.00     0.074 A 
ATOM     36  C   UNL A   1      40.628  27.622  28.465  1.00  0.00     0.049 A 
ATOM     37  N   UNL A   1      42.341  29.706  29.810  1.00  0.00    -0.248 NA
ATOM     38  C   UNL A   1      40.460  31.073  29.981  1.00  0.00     0.031 C 
ATOM     39  C   UNL A   1      39.866  26.602  27.745  1.00  0.00     0.029 A 
ATOM     40  N   UNL A   1      41.888  27.086  28.564  1.00  0.00    -0.354 N 
ATOM     41  C   UNL A   1      42.698  30.918  30.388  1.00  0.00     0.074 A 
ATOM     42  C   UNL A   1      41.521  31.757  30.376  1.00  0.00     0.031 C 
ATOM     43  C   UNL A   1      40.663  25.551  27.495  1.00  0.00     0.029 A 
ATOM     44  C   UNL A   1      42.002  25.837  28.003  1.00  0.00     0.049 A 
ATOM     45  H   UNL A   1      42.640  27.553  28.994  1.00  0.00     0.167 HD
ATOM     46  C   UNL A   1      43.887  31.289  30.923  1.00  0.00     0.037 A 
ATOM     47  C   UNL A   1      43.065  25.015  27.912  1.00  0.00     0.037 A 
ATOM     48  C   UNL A   1      45.051  30.445  30.957  1.00  0.00     0.049 A 
ATOM     49  C   UNL A   1      44.375  25.442  28.521  1.00  0.00     0.074 A 
ATOM     50  C   UNL A   1      46.291  30.705  31.511  1.00  0.00     0.029 A 
ATOM     51  N   UNL A   1      45.114  29.170  30.413  1.00  0.00    -0.354 N 
ATOM     52  N   UNL A   1      44.683  26.564  29.125  1.00  0.00    -0.248 NA
ATOM     53  C   UNL A   1      45.481  24.478  28.451  1.00  0.00     0.031 C 
ATOM     54  C   UNL A   1      47.121  29.608  31.257  1.00  0.00     0.029 A 
ATOM     55  C   UNL A   1      46.379  28.637  30.605  1.00  0.00     0.049 A 
ATOM     56  H   UNL A   1      44.371  28.713  29.958  1.00  0.00     0.167 HD
ATOM     57  C   UNL A   1      46.003  26.429  29.537  1.00  0.00     0.074 A 
ATOM     58  C   UNL A   1      46.431  25.108  29.127  1.00  0.00     0.031 C 
ATOM     59  C   UNL A   1      46.787  27.316  30.198  1.00  0.00     0.037 A 
BRANCH  46  60
ATOM     60  C   UNL A   1      43.973  32.667  31.521  1.00  0.00     0.064 A 
ATOM     61  C   UNL A   1      44.315  33.788  30.745  1.00  0.00     0.173 A 
ATOM     62  C   UNL A   1      43.707  32.875  32.883  1.00  0.00     0.173 A 
ATOM     63  F   UNL A   1      44.592  33.646  29.440  1.00  0.00    -0.203 F 
ATOM     64  C   UNL A   1      44.433  35.051  31.318  1.00  0.00     0.198 A 
ATOM     65  C   UNL A   1      43.787  34.147  33.444  1.00  0.00     0.198 A 
ATOM     66  F   UNL A   1      43.370  31.844  33.672  1.00  0.00    -0.203 F 
ATOM     67  F   UNL A   1      44.831  36.090  30.570  1.00  0.00    -0.200 F 
ATOM     68  C   UNL A   1      44.162  35.231  32.665  1.00  0.00     0.200 A 
ATOM     69  F   UNL A   1      43.509  34.323  34.744  1.00  0.00    -0.200 F 
ATOM     70  F   UNL A   1      44.273  36.448  33.215  1.00  0.00    -0.200 F 
ENDBRANCH  46  60
BRANCH  47  71
ATOM     71  C   UNL A   1      42.924  23.692  27.247  1.00  0.00     0.064 A 
ATOM     72  C   UNL A   1      43.372  23.490  25.934  1.00  0.00     0.173 A 
ATOM     73  C   UNL A   1      42.342  22.602  27.910  1.00  0.00     0.173 A 
ATOM     74  F   UNL A   1      43.920  24.506  25.249  1.00  0.00    -0.203 F 
ATOM     75  C   UNL A   1      43.222  22.258  25.302  1.00  0.00     0.198 A 
ATOM     76  C   UNL A   1      42.221  21.361  27.289  1.00  0.00     0.198 A 
ATOM     77  F   UNL A   1      41.905  22.739  29.171  1.00  0.00    -0.203 F 
ATOM     78  F   UNL A   1      43.614  22.107  24.029  1.00  0.00    -0.200 F 
ATOM     79  C   UNL A   1      42.652  21.192  25.982  1.00  0.00     0.200 A 
ATOM     80  F   UNL A   1      41.688  20.329  27.957  1.00  0.00    -0.200 F 
ATOM     81  F   UNL A   1      42.515  20.004  25.377  1.00  0.00    -0.200 F 
ENDBRANCH  47  71
BRANCH  59  82
ATOM     82  C   UNL A   1      48.174  26.869  30.566  1.00  0.00     0.064 A 
ATOM     83  C   UNL A   1      49.287  27.161  29.763  1.00  0.00     0.173 A 
ATOM     84  C   UNL A   1      48.393  26.159  31.757  1.00  0.00     0.173 A 
ATOM     85  F   UNL A   1      49.132  27.827  28.609  1.00  0.00    -0.203 F 
ATOM     86  C   UNL A   1      50.560  26.723  30.119  1.00  0.00     0.198 A 
ATOM     87  C   UNL A   1      49.672  25.755  32.127  1.00  0.00     0.198 A 
ATOM     88  F   UNL A   1      47.366  25.862  32.567  1.00  0.00    -0.203 F 
ATOM     89  F   UNL A   1      51.599  26.959  29.305  1.00  0.00    -0.200 F 
ATOM     90  C   UNL A   1      50.753  26.028  31.303  1.00  0.00     0.200 A 
ATOM     91  F   UNL A   1      49.859  25.100  33.282  1.00  0.00    -0.200 F 
ATOM     92  F   UNL A   1      51.980  25.611  31.645  1.00  0.00    -0.200 F 
ENDBRANCH  59  82
ENDBRANCH  33  34
ENDBRANCH  25  28
ENDBRANCH  23  24
ENDBRANCH  22  23
ENDBRANCH   1  22
TORSDOF 14
ENDMDL
