MODEL 1
REMARK VINA RESULT:     -13.2      0.000      0.000
REMARK SMILES C[C@@H]1[C@H](C(=O)NCCCNC(=O)c2ccc(-c3c4nc(c(-c5c(F)c(F)c(F)c(F)c5F)c5ccc([nH]5)c(-c5c(F)c(F)c(F)c(F)c5F)c5nc(c(-c6c(F)c(F)c(F)c(F)c6F)c6ccc3[nH]6)C=C5)C=C4)cc2)CCN1S(=O)(=O)c1cc(F)cc(F)c1
REMARK SMILES IDX 8 1 7 2 6 3 4 4 5 5 3 7 1 8 2 9 78 10 76 11 77 12 79 13
REMARK SMILES IDX 80 14 81 15 82 16 83 17 89 18 84 19 87 20 85 21 86 22 88 23
REMARK SMILES IDX 9 24 10 25 11 26 12 28 13 29 14 30 75 31 15 32 74 33 16 34
REMARK SMILES IDX 17 35 18 36 68 37 19 38 73 39 67 40 69 41 20 42 72 43 66 44
REMARK SMILES IDX 65 45 21 47 53 48 33 49 52 50 34 51 37 52 51 53 70 54 35 55
REMARK SMILES IDX 36 56 50 58 71 59 38 60 22 61 23 62 31 63 24 64 25 65 29 66
REMARK SMILES IDX 32 67 26 68 27 69 30 70 28 71 54 72 55 73 63 74 56 75 57 76
REMARK SMILES IDX 61 77 64 78 58 79 59 80 62 81 60 82 39 83 40 84 48 85 41 86
REMARK SMILES IDX 42 87 46 88 49 89 43 90 44 91 47 92 45 93
REMARK H PARENT 6 6 10 27 69 46 37 57
REMARK Flexibility Score: inf
ROOT
ATOM      1  C   UNL A   1      31.418  32.380  26.724  1.00  0.00     0.042 C 
ENDROOT
BRANCH   1   2
ATOM      2  C   UNL A   1      31.487  30.892  26.359  1.00  0.00     0.117 C 
BRANCH   2   3
ATOM      3  N   UNL A   1      32.561  30.170  27.030  1.00  0.00    -0.356 N 
ATOM      4  C   UNL A   1      33.419  29.178  26.691  1.00  0.00     0.224 C 
ATOM      5  O   UNL A   1      34.217  28.849  27.579  1.00  0.00    -0.275 OA
ATOM      6  H   UNL A   1      32.698  30.479  27.955  1.00  0.00     0.163 HD
BRANCH   4   7
ATOM      7  C   UNL A   1      33.452  28.409  25.375  1.00  0.00     0.098 C 
ATOM      8  C   UNL A   1      31.145  27.419  25.862  1.00  0.00     0.026 C 
ATOM      9  C   UNL A   1      32.500  27.208  25.230  1.00  0.00     0.082 C 
ATOM     10  N   UNL A   1      32.475  26.908  23.749  1.00  0.00    -0.194 NA
ATOM     11  C   UNL A   1      33.328  29.151  24.065  1.00  0.00     0.032 C 
ATOM     12  C   UNL A   1      33.246  28.008  23.063  1.00  0.00     0.104 C 
BRANCH  10  13
ATOM     13  S   UNL A   1      31.088  26.469  22.868  1.00  0.00     0.243 S 
ATOM     14  O   UNL A   1      31.504  26.257  21.494  1.00  0.00    -0.207 OA
ATOM     15  O   UNL A   1      30.448  25.404  23.609  1.00  0.00    -0.207 OA
BRANCH  13  16
ATOM     16  C   UNL A   1      29.911  27.796  22.839  1.00  0.00     0.088 A 
ATOM     17  C   UNL A   1      28.646  27.504  23.368  1.00  0.00     0.061 A 
ATOM     18  C   UNL A   1      30.153  29.043  22.269  1.00  0.00     0.061 A 
ATOM     19  C   UNL A   1      27.620  28.435  23.256  1.00  0.00     0.127 A 
ATOM     20  C   UNL A   1      29.093  29.937  22.126  1.00  0.00     0.127 A 
ATOM     21  F   UNL A   1      26.412  28.147  23.755  1.00  0.00    -0.207 F 
ATOM     22  C   UNL A   1      27.825  29.645  22.611  1.00  0.00     0.078 A 
ATOM     23  F   UNL A   1      29.297  31.091  21.479  1.00  0.00    -0.207 F 
ENDBRANCH  13  16
ENDBRANCH  10  13
ENDBRANCH   4   7
ENDBRANCH   2   3
ENDBRANCH   1   2
BRANCH   1  24
ATOM     24  C   UNL A   1      32.725  32.988  27.216  1.00  0.00     0.118 C 
BRANCH  24  25
ATOM     25  N   UNL A   1      32.545  34.361  27.648  1.00  0.00    -0.352 N 
ATOM     26  C   UNL A   1      33.055  35.035  28.731  1.00  0.00     0.251 C 
ATOM     27  H   UNL A   1      31.958  34.900  27.069  1.00  0.00     0.163 HD
ATOM     28  O   UNL A   1      32.539  36.106  29.049  1.00  0.00    -0.269 OA
BRANCH  26  29
ATOM     29  C   UNL A   1      34.200  34.522  29.530  1.00  0.00     0.039 A 
ATOM     30  C   UNL A   1      35.481  34.583  28.964  1.00  0.00     0.014 A 
ATOM     31  C   UNL A   1      34.032  33.868  30.753  1.00  0.00     0.014 A 
ATOM     32  C   UNL A   1      36.578  34.010  29.620  1.00  0.00     0.010 A 
ATOM     33  C   UNL A   1      35.140  33.363  31.445  1.00  0.00     0.010 A 
ATOM     34  C   UNL A   1      36.420  33.400  30.872  1.00  0.00    -0.014 A 
BRANCH  34  35
ATOM     35  C   UNL A   1      37.563  32.735  31.558  1.00  0.00     0.031 A 
ATOM     36  C   UNL A   1      38.281  31.587  30.892  1.00  0.00     0.074 A 
ATOM     37  C   UNL A   1      37.942  33.128  32.789  1.00  0.00     0.049 A 
ATOM     38  N   UNL A   1      39.244  30.828  31.354  1.00  0.00    -0.248 NA
ATOM     39  C   UNL A   1      37.840  31.231  29.535  1.00  0.00     0.031 C 
ATOM     40  C   UNL A   1      37.323  34.204  33.562  1.00  0.00     0.029 A 
ATOM     41  N   UNL A   1      38.939  32.659  33.611  1.00  0.00    -0.354 N 
ATOM     42  C   UNL A   1      39.501  29.892  30.359  1.00  0.00     0.074 A 
ATOM     43  C   UNL A   1      38.568  30.153  29.285  1.00  0.00     0.031 C 
ATOM     44  C   UNL A   1      37.965  34.327  34.735  1.00  0.00     0.029 A 
ATOM     45  C   UNL A   1      39.018  33.319  34.813  1.00  0.00     0.049 A 
ATOM     46  H   UNL A   1      39.539  31.919  33.363  1.00  0.00     0.167 HD
ATOM     47  C   UNL A   1      40.441  28.917  30.332  1.00  0.00     0.037 A 
ATOM     48  C   UNL A   1      39.842  33.130  35.861  1.00  0.00     0.037 A 
ATOM     49  C   UNL A   1      41.406  28.683  31.374  1.00  0.00     0.049 A 
ATOM     50  C   UNL A   1      40.890  32.052  35.800  1.00  0.00     0.074 A 
ATOM     51  C   UNL A   1      42.433  27.756  31.408  1.00  0.00     0.029 A 
ATOM     52  N   UNL A   1      41.466  29.391  32.564  1.00  0.00    -0.354 N 
ATOM     53  N   UNL A   1      41.147  31.202  34.837  1.00  0.00    -0.248 NA
ATOM     54  C   UNL A   1      41.767  31.912  36.972  1.00  0.00     0.031 C 
ATOM     55  C   UNL A   1      43.099  27.884  32.632  1.00  0.00     0.029 A 
ATOM     56  C   UNL A   1      42.506  28.913  33.346  1.00  0.00     0.049 A 
ATOM     57  H   UNL A   1      40.859  30.123  32.817  1.00  0.00     0.167 HD
ATOM     58  C   UNL A   1      42.225  30.444  35.273  1.00  0.00     0.074 A 
ATOM     59  C   UNL A   1      42.584  30.942  36.585  1.00  0.00     0.031 C 
ATOM     60  C   UNL A   1      42.860  29.426  34.643  1.00  0.00     0.037 A 
BRANCH  47  61
ATOM     61  C   UNL A   1      40.480  28.026  29.124  1.00  0.00     0.064 A 
ATOM     62  C   UNL A   1      39.717  26.851  29.055  1.00  0.00     0.173 A 
ATOM     63  C   UNL A   1      41.260  28.370  28.010  1.00  0.00     0.173 A 
ATOM     64  F   UNL A   1      38.964  26.473  30.098  1.00  0.00    -0.203 F 
ATOM     65  C   UNL A   1      39.755  26.038  27.924  1.00  0.00     0.198 A 
ATOM     66  C   UNL A   1      41.275  27.569  26.871  1.00  0.00     0.198 A 
ATOM     67  F   UNL A   1      42.002  29.487  28.022  1.00  0.00    -0.203 F 
ATOM     68  F   UNL A   1      39.053  24.897  27.899  1.00  0.00    -0.200 F 
ATOM     69  C   UNL A   1      40.528  26.400  26.832  1.00  0.00     0.200 A 
ATOM     70  F   UNL A   1      42.014  27.925  25.812  1.00  0.00    -0.200 F 
ATOM     71  F   UNL A   1      40.561  25.619  25.743  1.00  0.00    -0.200 F 
ENDBRANCH  47  61
BRANCH  48  72
ATOM     72  C   UNL A   1      39.729  34.005  37.056  1.00  0.00     0.064 A 
ATOM     73  C   UNL A   1      38.949  33.618  38.155  1.00  0.00     0.173 A 
ATOM     74  C   UNL A   1      40.390  35.239  37.123  1.00  0.00     0.173 A 
ATOM     75  F   UNL A   1      38.279  32.458  38.124  1.00  0.00    -0.203 F 
ATOM     76  C   UNL A   1      38.824  34.441  39.273  1.00  0.00     0.198 A 
ATOM     77  C   UNL A   1      40.283  36.050  38.251  1.00  0.00     0.198 A 
ATOM     78  F   UNL A   1      41.148  35.653  36.097  1.00  0.00    -0.203 F 
ATOM     79  F   UNL A   1      38.042  34.066  40.293  1.00  0.00    -0.200 F 
ATOM     80  C   UNL A   1      39.496  35.653  39.322  1.00  0.00     0.200 A 
ATOM     81  F   UNL A   1      40.940  37.217  38.299  1.00  0.00    -0.200 F 
ATOM     82  F   UNL A   1      39.378  36.443  40.398  1.00  0.00    -0.200 F 
ENDBRANCH  48  72
BRANCH  60  83
ATOM     83  C   UNL A   1      44.029  28.803  35.346  1.00  0.00     0.064 A 
ATOM     84  C   UNL A   1      43.860  27.746  36.251  1.00  0.00     0.173 A 
ATOM     85  C   UNL A   1      45.334  29.242  35.078  1.00  0.00     0.173 A 
ATOM     86  F   UNL A   1      42.630  27.302  36.550  1.00  0.00    -0.203 F 
ATOM     87  C   UNL A   1      44.958  27.162  36.878  1.00  0.00     0.198 A 
ATOM     88  C   UNL A   1      46.430  28.641  35.689  1.00  0.00     0.198 A 
ATOM     89  F   UNL A   1      45.546  30.247  34.216  1.00  0.00    -0.203 F 
ATOM     90  F   UNL A   1      44.773  26.177  37.768  1.00  0.00    -0.200 F 
ATOM     91  C   UNL A   1      46.241  27.604  36.593  1.00  0.00     0.200 A 
ATOM     92  F   UNL A   1      47.671  29.063  35.406  1.00  0.00    -0.200 F 
ATOM     93  F   UNL A   1      47.297  27.037  37.193  1.00  0.00    -0.200 F 
ENDBRANCH  60  83
ENDBRANCH  34  35
ENDBRANCH  26  29
ENDBRANCH  24  25
ENDBRANCH   1  24
TORSDOF 12
ENDMDL
MODEL 2
REMARK VINA RESULT:     -13.1      3.034      4.972
REMARK SMILES C[C@@H]1[C@H](C(=O)NCCCNC(=O)c2ccc(-c3c4nc(c(-c5c(F)c(F)c(F)c(F)c5F)c5ccc([nH]5)c(-c5c(F)c(F)c(F)c(F)c5F)c5nc(c(-c6c(F)c(F)c(F)c(F)c6F)c6ccc3[nH]6)C=C5)C=C4)cc2)CCN1S(=O)(=O)c1cc(F)cc(F)c1
REMARK SMILES IDX 8 1 7 2 6 3 4 4 5 5 3 7 1 8 2 9 78 10 76 11 77 12 79 13
REMARK SMILES IDX 80 14 81 15 82 16 83 17 89 18 84 19 87 20 85 21 86 22 88 23
REMARK SMILES IDX 9 24 10 25 11 26 12 28 13 29 14 30 75 31 15 32 74 33 16 34
REMARK SMILES IDX 17 35 18 36 68 37 19 38 73 39 67 40 69 41 20 42 72 43 66 44
REMARK SMILES IDX 65 45 21 47 53 48 33 49 52 50 34 51 37 52 51 53 70 54 35 55
REMARK SMILES IDX 36 56 50 58 71 59 38 60 22 61 23 62 31 63 24 64 25 65 29 66
REMARK SMILES IDX 32 67 26 68 27 69 30 70 28 71 54 72 55 73 63 74 56 75 57 76
REMARK SMILES IDX 61 77 64 78 58 79 59 80 62 81 60 82 39 83 40 84 48 85 41 86
REMARK SMILES IDX 42 87 46 88 49 89 43 90 44 91 47 92 45 93
REMARK H PARENT 6 6 10 27 69 46 37 57
REMARK Flexibility Score: inf
ROOT
ATOM      1  C   UNL A   1      33.418  28.761  23.330  1.00  0.00     0.042 C 
ENDROOT
BRANCH   1   2
ATOM      2  C   UNL A   1      32.300  27.819  22.865  1.00  0.00     0.117 C 
BRANCH   2   3
ATOM      3  N   UNL A   1      32.631  27.060  21.664  1.00  0.00    -0.356 N 
ATOM      4  C   UNL A   1      32.669  25.748  21.330  1.00  0.00     0.224 C 
ATOM      5  O   UNL A   1      33.000  25.516  20.159  1.00  0.00    -0.275 OA
ATOM      6  H   UNL A   1      32.887  27.643  20.913  1.00  0.00     0.163 HD
BRANCH   4   7
ATOM      7  C   UNL A   1      32.409  24.563  22.252  1.00  0.00     0.098 C 
ATOM      8  C   UNL A   1      34.613  24.995  23.475  1.00  0.00     0.026 C 
ATOM      9  C   UNL A   1      33.616  23.966  22.998  1.00  0.00     0.082 C 
ATOM     10  N   UNL A   1      33.015  23.106  24.086  1.00  0.00    -0.194 NA
ATOM     11  C   UNL A   1      31.321  24.643  23.296  1.00  0.00     0.032 C 
ATOM     12  C   UNL A   1      31.526  23.346  24.065  1.00  0.00     0.104 C 
BRANCH  10  13
ATOM     13  S   UNL A   1      33.611  22.987  25.674  1.00  0.00     0.243 S 
ATOM     14  O   UNL A   1      33.554  24.318  26.252  1.00  0.00    -0.207 OA
ATOM     15  O   UNL A   1      32.904  21.891  26.300  1.00  0.00    -0.207 OA
BRANCH  13  16
ATOM     16  C   UNL A   1      35.319  22.510  25.675  1.00  0.00     0.088 A 
ATOM     17  C   UNL A   1      36.230  23.501  26.067  1.00  0.00     0.061 A 
ATOM     18  C   UNL A   1      35.784  21.269  25.251  1.00  0.00     0.061 A 
ATOM     19  C   UNL A   1      37.596  23.262  25.961  1.00  0.00     0.127 A 
ATOM     20  C   UNL A   1      37.157  21.075  25.108  1.00  0.00     0.127 A 
ATOM     21  F   UNL A   1      38.461  24.215  26.327  1.00  0.00    -0.207 F 
ATOM     22  C   UNL A   1      38.071  22.061  25.455  1.00  0.00     0.078 A 
ATOM     23  F   UNL A   1      37.603  19.922  24.594  1.00  0.00    -0.207 F 
ENDBRANCH  13  16
ENDBRANCH  10  13
ENDBRANCH   4   7
ENDBRANCH   2   3
ENDBRANCH   1   2
BRANCH   1  24
ATOM     24  C   UNL A   1      33.559  28.905  24.839  1.00  0.00     0.118 C 
BRANCH  24  25
ATOM     25  N   UNL A   1      32.929  30.121  25.320  1.00  0.00    -0.352 N 
ATOM     26  C   UNL A   1      33.085  30.805  26.500  1.00  0.00     0.251 C 
ATOM     27  H   UNL A   1      32.281  30.521  24.696  1.00  0.00     0.163 HD
ATOM     28  O   UNL A   1      32.241  31.647  26.803  1.00  0.00    -0.269 OA
BRANCH  26  29
ATOM     29  C   UNL A   1      34.228  30.568  27.422  1.00  0.00     0.039 A 
ATOM     30  C   UNL A   1      35.148  31.608  27.615  1.00  0.00     0.014 A 
ATOM     31  C   UNL A   1      34.492  29.320  27.990  1.00  0.00     0.014 A 
ATOM     32  C   UNL A   1      36.305  31.404  28.378  1.00  0.00     0.010 A 
ATOM     33  C   UNL A   1      35.607  29.137  28.816  1.00  0.00     0.010 A 
ATOM     34  C   UNL A   1      36.543  30.167  28.994  1.00  0.00    -0.014 A 
BRANCH  34  35
ATOM     35  C   UNL A   1      37.795  29.913  29.760  1.00  0.00     0.031 A 
ATOM     36  C   UNL A   1      38.854  28.998  29.197  1.00  0.00     0.074 A 
ATOM     37  C   UNL A   1      37.976  30.468  30.973  1.00  0.00     0.049 A 
ATOM     38  N   UNL A   1      39.974  28.589  29.740  1.00  0.00    -0.248 NA
ATOM     39  C   UNL A   1      38.609  28.453  27.853  1.00  0.00     0.031 C 
ATOM     40  C   UNL A   1      37.027  31.350  31.651  1.00  0.00     0.029 A 
ATOM     41  N   UNL A   1      39.024  30.365  31.857  1.00  0.00    -0.354 N 
ATOM     42  C   UNL A   1      40.549  27.720  28.820  1.00  0.00     0.074 A 
ATOM     43  C   UNL A   1      39.637  27.630  27.700  1.00  0.00     0.031 C 
ATOM     44  C   UNL A   1      37.542  31.723  32.833  1.00  0.00     0.029 A 
ATOM     45  C   UNL A   1      38.842  31.082  33.014  1.00  0.00     0.049 A 
ATOM     46  H   UNL A   1      39.829  29.826  31.679  1.00  0.00     0.167 HD
ATOM     47  C   UNL A   1      41.736  27.072  28.889  1.00  0.00     0.037 A 
ATOM     48  C   UNL A   1      39.630  31.207  34.099  1.00  0.00     0.037 A 
ATOM     49  C   UNL A   1      42.671  27.194  29.975  1.00  0.00     0.049 A 
ATOM     50  C   UNL A   1      40.953  30.490  34.145  1.00  0.00     0.074 A 
ATOM     51  C   UNL A   1      43.925  26.621  30.106  1.00  0.00     0.029 A 
ATOM     52  N   UNL A   1      42.457  27.951  31.117  1.00  0.00    -0.354 N 
ATOM     53  N   UNL A   1      41.499  29.705  33.250  1.00  0.00    -0.248 NA
ATOM     54  C   UNL A   1      41.770  30.683  35.351  1.00  0.00     0.031 C 
ATOM     55  C   UNL A   1      44.459  27.008  31.340  1.00  0.00     0.029 A 
ATOM     56  C   UNL A   1      43.551  27.851  31.962  1.00  0.00     0.049 A 
ATOM     57  H   UNL A   1      41.648  28.481  31.300  1.00  0.00     0.167 HD
ATOM     58  C   UNL A   1      42.729  29.330  33.771  1.00  0.00     0.074 A 
ATOM     59  C   UNL A   1      42.857  29.983  35.058  1.00  0.00     0.031 C 
ATOM     60  C   UNL A   1      43.669  28.516  33.232  1.00  0.00     0.037 A 
BRANCH  47  61
ATOM     61  C   UNL A   1      42.099  26.167  27.746  1.00  0.00     0.064 A 
ATOM     62  C   UNL A   1      43.033  26.552  26.774  1.00  0.00     0.173 A 
ATOM     63  C   UNL A   1      41.534  24.888  27.644  1.00  0.00     0.173 A 
ATOM     64  F   UNL A   1      43.594  27.770  26.822  1.00  0.00    -0.203 F 
ATOM     65  C   UNL A   1      43.368  25.699  25.725  1.00  0.00     0.198 A 
ATOM     66  C   UNL A   1      41.890  24.027  26.609  1.00  0.00     0.198 A 
ATOM     67  F   UNL A   1      40.640  24.468  28.552  1.00  0.00    -0.203 F 
ATOM     68  F   UNL A   1      44.229  26.107  24.781  1.00  0.00    -0.200 F 
ATOM     69  C   UNL A   1      42.801  24.436  25.646  1.00  0.00     0.200 A 
ATOM     70  F   UNL A   1      41.350  22.803  26.540  1.00  0.00    -0.200 F 
ATOM     71  F   UNL A   1      43.127  23.616  24.638  1.00  0.00    -0.200 F 
ENDBRANCH  47  61
BRANCH  48  72
ATOM     72  C   UNL A   1      39.201  32.071  35.227  1.00  0.00     0.064 A 
ATOM     73  C   UNL A   1      38.451  31.544  36.288  1.00  0.00     0.173 A 
ATOM     74  C   UNL A   1      39.526  33.435  35.268  1.00  0.00     0.173 A 
ATOM     75  F   UNL A   1      38.096  30.252  36.278  1.00  0.00    -0.203 F 
ATOM     76  C   UNL A   1      38.030  32.352  37.343  1.00  0.00     0.198 A 
ATOM     77  C   UNL A   1      39.124  34.236  36.335  1.00  0.00     0.198 A 
ATOM     78  F   UNL A   1      40.241  33.985  34.277  1.00  0.00    -0.203 F 
ATOM     79  F   UNL A   1      37.282  31.833  38.324  1.00  0.00    -0.200 F 
ATOM     80  C   UNL A   1      38.372  33.696  37.367  1.00  0.00     0.200 A 
ATOM     81  F   UNL A   1      39.464  35.532  36.360  1.00  0.00    -0.200 F 
ATOM     82  F   UNL A   1      37.970  34.472  38.383  1.00  0.00    -0.200 F 
ENDBRANCH  48  72
BRANCH  60  83
ATOM     83  C   UNL A   1      44.933  28.311  34.014  1.00  0.00     0.064 A 
ATOM     84  C   UNL A   1      45.071  27.247  34.917  1.00  0.00     0.173 A 
ATOM     85  C   UNL A   1      46.030  29.164  33.825  1.00  0.00     0.173 A 
ATOM     86  F   UNL A   1      44.044  26.414  35.141  1.00  0.00    -0.203 F 
ATOM     87  C   UNL A   1      46.259  27.055  35.617  1.00  0.00     0.198 A 
ATOM     88  C   UNL A   1      47.224  28.956  34.510  1.00  0.00     0.198 A 
ATOM     89  F   UNL A   1      45.948  30.192  32.968  1.00  0.00    -0.203 F 
ATOM     90  F   UNL A   1      46.359  26.055  36.503  1.00  0.00    -0.200 F 
ATOM     91  C   UNL A   1      47.336  27.905  35.410  1.00  0.00     0.200 A 
ATOM     92  F   UNL A   1      48.267  29.772  34.302  1.00  0.00    -0.200 F 
ATOM     93  F   UNL A   1      48.480  27.716  36.081  1.00  0.00    -0.200 F 
ENDBRANCH  60  83
ENDBRANCH  34  35
ENDBRANCH  26  29
ENDBRANCH  24  25
ENDBRANCH   1  24
TORSDOF 12
ENDMDL
MODEL 3
REMARK VINA RESULT:     -13.0      2.064      3.244
REMARK SMILES C[C@@H]1[C@H](C(=O)NCCCNC(=O)c2ccc(-c3c4nc(c(-c5c(F)c(F)c(F)c(F)c5F)c5ccc([nH]5)c(-c5c(F)c(F)c(F)c(F)c5F)c5nc(c(-c6c(F)c(F)c(F)c(F)c6F)c6ccc3[nH]6)C=C5)C=C4)cc2)CCN1S(=O)(=O)c1cc(F)cc(F)c1
REMARK SMILES IDX 8 1 7 2 6 3 4 4 5 5 3 7 1 8 2 9 78 10 76 11 77 12 79 13
REMARK SMILES IDX 80 14 81 15 82 16 83 17 89 18 84 19 87 20 85 21 86 22 88 23
REMARK SMILES IDX 9 24 10 25 11 26 12 28 13 29 14 30 75 31 15 32 74 33 16 34
REMARK SMILES IDX 17 35 18 36 68 37 19 38 73 39 67 40 69 41 20 42 72 43 66 44
REMARK SMILES IDX 65 45 21 47 53 48 33 49 52 50 34 51 37 52 51 53 70 54 35 55
REMARK SMILES IDX 36 56 50 58 71 59 38 60 22 61 23 62 31 63 24 64 25 65 29 66
REMARK SMILES IDX 32 67 26 68 27 69 30 70 28 71 54 72 55 73 63 74 56 75 57 76
REMARK SMILES IDX 61 77 64 78 58 79 59 80 62 81 60 82 39 83 40 84 48 85 41 86
REMARK SMILES IDX 42 87 46 88 49 89 43 90 44 91 47 92 45 93
REMARK H PARENT 6 6 10 27 69 46 37 57
REMARK Flexibility Score: inf
ROOT
ATOM      1  C   UNL A   1      31.351  32.263  26.500  1.00  0.00     0.042 C 
ENDROOT
BRANCH   1   2
ATOM      2  C   UNL A   1      31.474  30.853  25.906  1.00  0.00     0.117 C 
BRANCH   2   3
ATOM      3  N   UNL A   1      31.609  29.802  26.907  1.00  0.00    -0.356 N 
ATOM      4  C   UNL A   1      31.559  28.448  26.901  1.00  0.00     0.224 C 
ATOM      5  O   UNL A   1      31.745  27.912  28.001  1.00  0.00    -0.275 OA
ATOM      6  H   UNL A   1      31.779  30.163  27.807  1.00  0.00     0.163 HD
BRANCH   4   7
ATOM      7  C   UNL A   1      31.244  27.552  25.709  1.00  0.00     0.098 C 
ATOM      8  C   UNL A   1      33.740  27.206  25.273  1.00  0.00     0.026 C 
ATOM      9  C   UNL A   1      32.360  27.331  24.672  1.00  0.00     0.082 C 
ATOM     10  N   UNL A   1      31.907  26.139  23.860  1.00  0.00    -0.194 NA
ATOM     11  C   UNL A   1      30.658  26.178  25.933  1.00  0.00     0.032 C 
ATOM     12  C   UNL A   1      30.665  25.599  24.526  1.00  0.00     0.104 C 
BRANCH  10  13
ATOM     13  S   UNL A   1      32.923  24.889  23.316  1.00  0.00     0.243 S 
ATOM     14  O   UNL A   1      32.066  23.817  22.844  1.00  0.00    -0.207 OA
ATOM     15  O   UNL A   1      33.886  25.497  22.425  1.00  0.00    -0.207 OA
BRANCH  13  16
ATOM     16  C   UNL A   1      33.875  24.219  24.654  1.00  0.00     0.088 A 
ATOM     17  C   UNL A   1      35.268  24.281  24.505  1.00  0.00     0.061 A 
ATOM     18  C   UNL A   1      33.325  23.593  25.769  1.00  0.00     0.061 A 
ATOM     19  C   UNL A   1      36.089  23.654  25.435  1.00  0.00     0.127 A 
ATOM     20  C   UNL A   1      34.170  22.930  26.657  1.00  0.00     0.127 A 
ATOM     21  F   UNL A   1      37.418  23.708  25.282  1.00  0.00    -0.207 F 
ATOM     22  C   UNL A   1      35.550  22.950  26.501  1.00  0.00     0.078 A 
ATOM     23  F   UNL A   1      33.636  22.233  27.668  1.00  0.00    -0.207 F 
ENDBRANCH  13  16
ENDBRANCH  10  13
ENDBRANCH   4   7
ENDBRANCH   2   3
ENDBRANCH   1   2
BRANCH   1  24
ATOM     24  C   UNL A   1      32.579  32.758  27.253  1.00  0.00     0.118 C 
BRANCH  24  25
ATOM     25  N   UNL A   1      32.449  34.154  27.625  1.00  0.00    -0.352 N 
ATOM     26  C   UNL A   1      33.007  34.862  28.661  1.00  0.00     0.251 C 
ATOM     27  H   UNL A   1      31.861  34.682  27.038  1.00  0.00     0.163 HD
ATOM     28  O   UNL A   1      32.530  35.961  28.942  1.00  0.00    -0.269 OA
BRANCH  26  29
ATOM     29  C   UNL A   1      34.160  34.354  29.452  1.00  0.00     0.039 A 
ATOM     30  C   UNL A   1      35.437  34.425  28.880  1.00  0.00     0.014 A 
ATOM     31  C   UNL A   1      34.002  33.694  30.673  1.00  0.00     0.014 A 
ATOM     32  C   UNL A   1      36.541  33.857  29.529  1.00  0.00     0.010 A 
ATOM     33  C   UNL A   1      35.116  33.194  31.358  1.00  0.00     0.010 A 
ATOM     34  C   UNL A   1      36.394  33.242  30.780  1.00  0.00    -0.014 A 
BRANCH  34  35
ATOM     35  C   UNL A   1      37.544  32.581  31.457  1.00  0.00     0.031 A 
ATOM     36  C   UNL A   1      38.253  31.427  30.793  1.00  0.00     0.074 A 
ATOM     37  C   UNL A   1      37.939  32.985  32.680  1.00  0.00     0.049 A 
ATOM     38  N   UNL A   1      39.221  30.671  31.250  1.00  0.00    -0.248 NA
ATOM     39  C   UNL A   1      37.794  31.059  29.445  1.00  0.00     0.031 C 
ATOM     40  C   UNL A   1      37.331  34.070  33.450  1.00  0.00     0.029 A 
ATOM     41  N   UNL A   1      38.946  32.523  33.494  1.00  0.00    -0.354 N 
ATOM     42  C   UNL A   1      39.465  29.726  30.261  1.00  0.00     0.074 A 
ATOM     43  C   UNL A   1      38.519  29.978  29.196  1.00  0.00     0.031 C 
ATOM     44  C   UNL A   1      37.987  34.202  34.614  1.00  0.00     0.029 A 
ATOM     45  C   UNL A   1      39.040  33.194  34.688  1.00  0.00     0.049 A 
ATOM     46  H   UNL A   1      39.542  31.780  33.244  1.00  0.00     0.167 HD
ATOM     47  C   UNL A   1      40.403  28.750  30.230  1.00  0.00     0.037 A 
ATOM     48  C   UNL A   1      39.878  33.014  35.728  1.00  0.00     0.037 A 
ATOM     49  C   UNL A   1      41.380  28.524  31.263  1.00  0.00     0.049 A 
ATOM     50  C   UNL A   1      40.924  31.934  35.663  1.00  0.00     0.074 A 
ATOM     51  C   UNL A   1      42.407  27.596  31.293  1.00  0.00     0.029 A 
ATOM     52  N   UNL A   1      41.456  29.243  32.446  1.00  0.00    -0.354 N 
ATOM     53  N   UNL A   1      41.167  31.075  34.705  1.00  0.00    -0.248 NA
ATOM     54  C   UNL A   1      41.815  31.804  36.826  1.00  0.00     0.031 C 
ATOM     55  C   UNL A   1      43.088  27.734  32.507  1.00  0.00     0.029 A 
ATOM     56  C   UNL A   1      42.506  28.771  33.218  1.00  0.00     0.049 A 
ATOM     57  H   UNL A   1      40.853  29.978  32.699  1.00  0.00     0.167 HD
ATOM     58  C   UNL A   1      42.250  30.320  35.135  1.00  0.00     0.074 A 
ATOM     59  C   UNL A   1      42.626  30.830  36.437  1.00  0.00     0.031 C 
ATOM     60  C   UNL A   1      42.876  29.295  34.506  1.00  0.00     0.037 A 
BRANCH  47  61
ATOM     61  C   UNL A   1      40.426  27.847  29.031  1.00  0.00     0.064 A 
ATOM     62  C   UNL A   1      41.219  28.133  27.911  1.00  0.00     0.173 A 
ATOM     63  C   UNL A   1      39.673  26.663  29.017  1.00  0.00     0.173 A 
ATOM     64  F   UNL A   1      41.949  29.258  27.871  1.00  0.00    -0.203 F 
ATOM     65  C   UNL A   1      41.237  27.281  26.809  1.00  0.00     0.198 A 
ATOM     66  C   UNL A   1      39.714  25.800  27.925  1.00  0.00     0.198 A 
ATOM     67  F   UNL A   1      38.903  26.339  30.067  1.00  0.00    -0.203 F 
ATOM     68  F   UNL A   1      41.969  27.599  25.731  1.00  0.00    -0.200 F 
ATOM     69  C   UNL A   1      40.491  26.113  26.819  1.00  0.00     0.200 A 
ATOM     70  F   UNL A   1      38.999  24.667  27.941  1.00  0.00    -0.200 F 
ATOM     71  F   UNL A   1      40.512  25.293  25.760  1.00  0.00    -0.200 F 
ENDBRANCH  47  61
BRANCH  48  72
ATOM     72  C   UNL A   1      39.780  33.900  36.916  1.00  0.00     0.064 A 
ATOM     73  C   UNL A   1      39.012  33.525  38.027  1.00  0.00     0.173 A 
ATOM     74  C   UNL A   1      40.445  35.133  36.964  1.00  0.00     0.173 A 
ATOM     75  F   UNL A   1      38.339  32.366  38.014  1.00  0.00    -0.203 F 
ATOM     76  C   UNL A   1      38.902  34.358  39.139  1.00  0.00     0.198 A 
ATOM     77  C   UNL A   1      40.353  35.954  38.086  1.00  0.00     0.198 A 
ATOM     78  F   UNL A   1      41.192  35.535  35.926  1.00  0.00    -0.203 F 
ATOM     79  F   UNL A   1      38.131  33.994  40.171  1.00  0.00    -0.200 F 
ATOM     80  C   UNL A   1      39.577  35.569  39.169  1.00  0.00     0.200 A 
ATOM     81  F   UNL A   1      41.013  37.120  38.116  1.00  0.00    -0.200 F 
ATOM     82  F   UNL A   1      39.473  36.369  40.240  1.00  0.00    -0.200 F 
ENDBRANCH  48  72
BRANCH  60  83
ATOM     83  C   UNL A   1      44.053  28.678  35.201  1.00  0.00     0.064 A 
ATOM     84  C   UNL A   1      43.901  27.588  36.070  1.00  0.00     0.173 A 
ATOM     85  C   UNL A   1      45.350  29.155  34.959  1.00  0.00     0.173 A 
ATOM     86  F   UNL A   1      42.679  27.107  36.343  1.00  0.00    -0.203 F 
ATOM     87  C   UNL A   1      45.006  27.010  36.689  1.00  0.00     0.198 A 
ATOM     88  C   UNL A   1      46.454  28.560  35.562  1.00  0.00     0.198 A 
ATOM     89  F   UNL A   1      45.546  30.192  34.131  1.00  0.00    -0.203 F 
ATOM     90  F   UNL A   1      44.837  25.994  37.545  1.00  0.00    -0.200 F 
ATOM     91  C   UNL A   1      46.282  27.492  36.430  1.00  0.00     0.200 A 
ATOM     92  F   UNL A   1      47.687  29.020  35.304  1.00  0.00    -0.200 F 
ATOM     93  F   UNL A   1      47.345  26.930  37.022  1.00  0.00    -0.200 F 
ENDBRANCH  60  83
ENDBRANCH  34  35
ENDBRANCH  26  29
ENDBRANCH  24  25
ENDBRANCH   1  24
TORSDOF 12
ENDMDL
