MODEL 1
REMARK VINA RESULT:     -13.6      0.000      0.000
REMARK SMILES Cc1ccc(C[C@@H](Cc2cc(F)cc(Br)c2)C(=O)NCCCNC(=O)c2ccc(-c3c4nc(c(-c5c(F)c(F)c(F)c(F)c5F)c5ccc([nH]5)c(-c5c(F)c(F)c(F)c(F)c5F)c5nc(c(-c6c(F)c(F)c(F)c(F)c6F)c6ccc3[nH]6)C=C5)C=C4)cc2)cc1
REMARK SMILES IDX 21 1 20 2 19 3 17 4 18 5 7 7 6 8 5 9 1 10 2 11 3 12 90 13
REMARK SMILES IDX 4 14 89 15 8 16 9 17 10 18 16 19 11 20 14 21 12 22 13 23
REMARK SMILES IDX 15 24 22 25 23 26 24 27 25 29 26 30 27 31 88 32 28 33 87 34
REMARK SMILES IDX 29 35 30 36 31 37 81 38 32 39 86 40 80 41 82 42 33 43 85 44
REMARK SMILES IDX 79 45 78 46 34 48 66 49 46 50 65 51 47 52 50 53 64 54 83 55
REMARK SMILES IDX 48 56 49 57 63 59 84 60 51 61 35 62 36 63 44 64 37 65 38 66
REMARK SMILES IDX 42 67 45 68 39 69 40 70 43 71 41 72 67 73 68 74 76 75 69 76
REMARK SMILES IDX 70 77 74 78 77 79 71 80 72 81 75 82 73 83 52 84 53 85 61 86
REMARK SMILES IDX 54 87 55 88 59 89 62 90 56 91 57 92 60 93 58 94
REMARK H PARENT 19 6 23 28 82 47 50 58
REMARK Flexibility Score: inf
ROOT
ATOM      1  C   UNL A   1      32.589  30.804  26.723  1.00  0.00     0.042 C 
ENDROOT
BRANCH   1   2
ATOM      2  C   UNL A   1      32.169  29.780  25.679  1.00  0.00     0.117 C 
BRANCH   2   3
ATOM      3  N   UNL A   1      33.121  29.701  24.577  1.00  0.00    -0.356 N 
ATOM      4  C   UNL A   1      33.542  28.622  23.853  1.00  0.00     0.223 C 
ATOM      5  O   UNL A   1      34.336  28.826  22.930  1.00  0.00    -0.275 OA
ATOM      6  H   UNL A   1      33.523  30.560  24.314  1.00  0.00     0.163 HD
BRANCH   4   7
ATOM      7  C   UNL A   1      33.077  27.202  24.173  1.00  0.00     0.087 C 
BRANCH   7   8
ATOM      8  C   UNL A   1      33.410  26.352  22.922  1.00  0.00     0.049 C 
BRANCH   8   9
ATOM      9  C   UNL A   1      33.196  24.861  22.926  1.00  0.00    -0.047 A 
ATOM     10  C   UNL A   1      32.528  20.629  23.481  1.00  0.00     0.044 C 
ATOM     11  C   UNL A   1      32.773  22.095  23.284  1.00  0.00    -0.051 A 
ATOM     12  C   UNL A   1      31.690  22.962  23.117  1.00  0.00     0.004 A 
ATOM     13  C   UNL A   1      34.071  22.616  23.253  1.00  0.00     0.004 A 
ATOM     14  C   UNL A   1      31.901  24.331  22.958  1.00  0.00     0.004 A 
ATOM     15  C   UNL A   1      34.282  23.986  23.070  1.00  0.00     0.004 A 
ENDBRANCH   8   9
ENDBRANCH   7   8
BRANCH   7  16
ATOM     16  C   UNL A   1      33.513  26.640  25.555  1.00  0.00     0.049 C 
BRANCH  16  17
ATOM     17  C   UNL A   1      32.890  25.375  26.126  1.00  0.00    -0.043 A 
ATOM     18  C   UNL A   1      31.492  25.307  26.261  1.00  0.00     0.043 A 
ATOM     19  C   UNL A   1      33.640  24.250  26.501  1.00  0.00     0.019 A 
ATOM     20  C   UNL A   1      30.873  24.123  26.653  1.00  0.00     0.124 A 
ATOM     21  C   UNL A   1      32.999  23.055  26.852  1.00  0.00     0.021 A 
ATOM     22  F   UNL A   1      29.537  24.079  26.735  1.00  0.00    -0.207 F 
ATOM     23  C   UNL A   1      31.612  22.982  26.923  1.00  0.00     0.055 A 
ATOM     24  Br  UNL A   1      34.031  21.500  27.162  1.00  0.00    -0.051 Br
ENDBRANCH  16  17
ENDBRANCH   7  16
ENDBRANCH   4   7
ENDBRANCH   2   3
ENDBRANCH   1   2
BRANCH   1  25
ATOM     25  C   UNL A   1      33.697  30.287  27.618  1.00  0.00     0.118 C 
BRANCH  25  26
ATOM     26  N   UNL A   1      34.372  31.318  28.394  1.00  0.00    -0.352 N 
ATOM     27  C   UNL A   1      35.574  31.255  29.083  1.00  0.00     0.251 C 
ATOM     28  H   UNL A   1      33.908  32.185  28.435  1.00  0.00     0.163 HD
ATOM     29  O   UNL A   1      35.939  32.193  29.761  1.00  0.00    -0.269 OA
BRANCH  27  30
ATOM     30  C   UNL A   1      36.477  30.094  28.857  1.00  0.00     0.039 A 
ATOM     31  C   UNL A   1      36.814  29.311  29.967  1.00  0.00     0.014 A 
ATOM     32  C   UNL A   1      37.160  29.934  27.658  1.00  0.00     0.014 A 
ATOM     33  C   UNL A   1      37.996  28.578  29.949  1.00  0.00     0.010 A 
ATOM     34  C   UNL A   1      38.395  29.322  27.678  1.00  0.00     0.010 A 
ATOM     35  C   UNL A   1      38.839  28.697  28.844  1.00  0.00    -0.014 A 
BRANCH  35  36
ATOM     36  C   UNL A   1      40.236  28.287  28.857  1.00  0.00     0.031 A 
ATOM     37  C   UNL A   1      40.624  26.961  28.336  1.00  0.00     0.074 A 
ATOM     38  C   UNL A   1      41.184  29.153  29.280  1.00  0.00     0.049 A 
ATOM     39  N   UNL A   1      41.656  26.305  28.749  1.00  0.00    -0.248 NA
ATOM     40  C   UNL A   1      39.856  26.247  27.323  1.00  0.00     0.031 C 
ATOM     41  C   UNL A   1      42.631  29.014  29.135  1.00  0.00     0.029 A 
ATOM     42  N   UNL A   1      41.023  30.281  30.105  1.00  0.00    -0.354 N 
ATOM     43  C   UNL A   1      41.835  25.236  27.904  1.00  0.00     0.074 A 
ATOM     44  C   UNL A   1      40.658  25.210  27.066  1.00  0.00     0.031 C 
ATOM     45  C   UNL A   1      43.234  29.789  30.049  1.00  0.00     0.029 A 
ATOM     46  C   UNL A   1      42.193  30.344  30.896  1.00  0.00     0.049 A 
ATOM     47  H   UNL A   1      40.255  30.897  30.128  1.00  0.00     0.167 HD
ATOM     48  C   UNL A   1      43.020  24.564  27.910  1.00  0.00     0.037 A 
ATOM     49  C   UNL A   1      42.151  30.228  32.254  1.00  0.00     0.037 A 
ATOM     50  C   UNL A   1      43.951  25.138  28.874  1.00  0.00     0.049 A 
ATOM     51  C   UNL A   1      42.971  29.082  32.792  1.00  0.00     0.074 A 
ATOM     52  C   UNL A   1      44.973  26.063  28.735  1.00  0.00     0.029 A 
ATOM     53  N   UNL A   1      43.688  25.040  30.236  1.00  0.00    -0.354 N 
ATOM     54  N   UNL A   1      43.309  28.037  32.089  1.00  0.00    -0.248 NA
ATOM     55  C   UNL A   1      43.448  29.010  34.168  1.00  0.00     0.031 C 
ATOM     56  C   UNL A   1      45.314  26.539  30.021  1.00  0.00     0.029 A 
ATOM     57  C   UNL A   1      44.509  25.895  30.944  1.00  0.00     0.049 A 
ATOM     58  H   UNL A   1      43.012  24.447  30.638  1.00  0.00     0.167 HD
ATOM     59  C   UNL A   1      44.012  27.164  32.880  1.00  0.00     0.074 A 
ATOM     60  C   UNL A   1      44.086  27.827  34.168  1.00  0.00     0.031 C 
ATOM     61  C   UNL A   1      44.462  25.967  32.397  1.00  0.00     0.037 A 
BRANCH  48  62
ATOM     62  C   UNL A   1      43.419  23.596  26.826  1.00  0.00     0.064 A 
ATOM     63  C   UNL A   1      43.011  22.245  26.865  1.00  0.00     0.173 A 
ATOM     64  C   UNL A   1      44.244  23.937  25.740  1.00  0.00     0.173 A 
ATOM     65  F   UNL A   1      42.148  21.798  27.786  1.00  0.00    -0.203 F 
ATOM     66  C   UNL A   1      43.490  21.292  25.962  1.00  0.00     0.198 A 
ATOM     67  C   UNL A   1      44.766  22.975  24.868  1.00  0.00     0.198 A 
ATOM     68  F   UNL A   1      44.545  25.218  25.479  1.00  0.00    -0.203 F 
ATOM     69  F   UNL A   1      43.078  20.020  26.058  1.00  0.00    -0.200 F 
ATOM     70  C   UNL A   1      44.398  21.650  24.988  1.00  0.00     0.200 A 
ATOM     71  F   UNL A   1      45.635  23.342  23.916  1.00  0.00    -0.200 F 
ATOM     72  F   UNL A   1      44.900  20.726  24.157  1.00  0.00    -0.200 F 
ENDBRANCH  48  62
BRANCH  49  73
ATOM     73  C   UNL A   1      40.883  30.716  32.851  1.00  0.00     0.064 A 
ATOM     74  C   UNL A   1      40.641  32.102  32.867  1.00  0.00     0.173 A 
ATOM     75  C   UNL A   1      39.788  29.865  33.039  1.00  0.00     0.173 A 
ATOM     76  F   UNL A   1      41.659  32.961  32.704  1.00  0.00    -0.203 F 
ATOM     77  C   UNL A   1      39.347  32.612  32.942  1.00  0.00     0.198 A 
ATOM     78  C   UNL A   1      38.492  30.381  33.128  1.00  0.00     0.198 A 
ATOM     79  F   UNL A   1      39.951  28.535  33.017  1.00  0.00    -0.203 F 
ATOM     80  F   UNL A   1      39.143  33.933  32.842  1.00  0.00    -0.200 F 
ATOM     81  C   UNL A   1      38.271  31.747  33.043  1.00  0.00     0.200 A 
ATOM     82  F   UNL A   1      37.447  29.543  33.200  1.00  0.00    -0.200 F 
ATOM     83  F   UNL A   1      37.020  32.228  33.020  1.00  0.00    -0.200 F 
ENDBRANCH  49  73
BRANCH  61  84
ATOM     84  C   UNL A   1      45.009  24.804  33.198  1.00  0.00     0.064 A 
ATOM     85  C   UNL A   1      44.307  23.612  33.445  1.00  0.00     0.173 A 
ATOM     86  C   UNL A   1      46.359  24.806  33.635  1.00  0.00     0.173 A 
ATOM     87  F   UNL A   1      43.068  23.419  32.979  1.00  0.00    -0.203 F 
ATOM     88  C   UNL A   1      44.885  22.539  34.132  1.00  0.00     0.198 A 
ATOM     89  C   UNL A   1      46.950  23.710  34.264  1.00  0.00     0.198 A 
ATOM     90  F   UNL A   1      47.164  25.861  33.441  1.00  0.00    -0.203 F 
ATOM     91  F   UNL A   1      44.153  21.443  34.380  1.00  0.00    -0.200 F 
ATOM     92  C   UNL A   1      46.207  22.582  34.529  1.00  0.00     0.200 A 
ATOM     93  F   UNL A   1      48.250  23.751  34.588  1.00  0.00    -0.200 F 
ATOM     94  F   UNL A   1      46.768  21.531  35.143  1.00  0.00    -0.200 F 
ENDBRANCH  61  84
ENDBRANCH  35  36
ENDBRANCH  27  30
ENDBRANCH  25  26
ENDBRANCH   1  25
TORSDOF 14
ENDMDL
MODEL 2
REMARK VINA RESULT:     -13.5      3.871      9.789
REMARK SMILES Cc1ccc(C[C@@H](Cc2cc(F)cc(Br)c2)C(=O)NCCCNC(=O)c2ccc(-c3c4nc(c(-c5c(F)c(F)c(F)c(F)c5F)c5ccc([nH]5)c(-c5c(F)c(F)c(F)c(F)c5F)c5nc(c(-c6c(F)c(F)c(F)c(F)c6F)c6ccc3[nH]6)C=C5)C=C4)cc2)cc1
REMARK SMILES IDX 21 1 20 2 19 3 17 4 18 5 7 7 6 8 5 9 1 10 2 11 3 12 90 13
REMARK SMILES IDX 4 14 89 15 8 16 9 17 10 18 16 19 11 20 14 21 12 22 13 23
REMARK SMILES IDX 15 24 22 25 23 26 24 27 25 29 26 30 27 31 88 32 28 33 87 34
REMARK SMILES IDX 29 35 30 36 31 37 81 38 32 39 86 40 80 41 82 42 33 43 85 44
REMARK SMILES IDX 79 45 78 46 34 48 66 49 46 50 65 51 47 52 50 53 64 54 83 55
REMARK SMILES IDX 48 56 49 57 63 59 84 60 51 61 35 62 36 63 44 64 37 65 38 66
REMARK SMILES IDX 42 67 45 68 39 69 40 70 43 71 41 72 67 73 68 74 76 75 69 76
REMARK SMILES IDX 70 77 74 78 77 79 71 80 72 81 75 82 73 83 52 84 53 85 61 86
REMARK SMILES IDX 54 87 55 88 59 89 62 90 56 91 57 92 60 93 58 94
REMARK H PARENT 19 6 23 28 82 47 50 58
REMARK Flexibility Score: inf
ROOT
ATOM      1  C   UNL A   1      37.865  21.398  25.234  1.00  0.00     0.042 C 
ENDROOT
BRANCH   1   2
ATOM      2  C   UNL A   1      36.363  21.481  25.006  1.00  0.00     0.117 C 
BRANCH   2   3
ATOM      3  N   UNL A   1      35.612  21.297  26.242  1.00  0.00    -0.356 N 
ATOM      4  C   UNL A   1      34.473  21.910  26.680  1.00  0.00     0.223 C 
ATOM      5  O   UNL A   1      34.004  21.544  27.762  1.00  0.00    -0.275 OA
ATOM      6  H   UNL A   1      35.985  20.627  26.858  1.00  0.00     0.163 HD
BRANCH   4   7
ATOM      7  C   UNL A   1      33.799  23.027  25.885  1.00  0.00     0.087 C 
BRANCH   7   8
ATOM      8  C   UNL A   1      32.284  22.908  26.180  1.00  0.00     0.049 C 
BRANCH   8   9
ATOM      9  C   UNL A   1      31.300  23.866  25.559  1.00  0.00    -0.047 A 
ATOM     10  C   UNL A   1      28.918  26.912  23.635  1.00  0.00     0.044 C 
ATOM     11  C   UNL A   1      29.739  25.859  24.315  1.00  0.00    -0.051 A 
ATOM     12  C   UNL A   1      30.250  24.792  23.572  1.00  0.00     0.004 A 
ATOM     13  C   UNL A   1      29.997  25.914  25.689  1.00  0.00     0.004 A 
ATOM     14  C   UNL A   1      31.036  23.818  24.185  1.00  0.00     0.004 A 
ATOM     15  C   UNL A   1      30.767  24.924  26.307  1.00  0.00     0.004 A 
ENDBRANCH   8   9
ENDBRANCH   7   8
BRANCH   7  16
ATOM     16  C   UNL A   1      34.444  24.437  26.015  1.00  0.00     0.049 C 
BRANCH  16  17
ATOM     17  C   UNL A   1      34.059  25.571  25.076  1.00  0.00    -0.043 A 
ATOM     18  C   UNL A   1      34.042  25.330  23.691  1.00  0.00     0.043 A 
ATOM     19  C   UNL A   1      33.690  26.848  25.524  1.00  0.00     0.019 A 
ATOM     20  C   UNL A   1      33.570  26.297  22.807  1.00  0.00     0.124 A 
ATOM     21  C   UNL A   1      33.177  27.793  24.627  1.00  0.00     0.021 A 
ATOM     22  F   UNL A   1      33.530  26.024  21.497  1.00  0.00    -0.207 F 
ATOM     23  C   UNL A   1      33.108  27.521  23.264  1.00  0.00     0.055 A 
ATOM     24  Br  UNL A   1      32.503  29.434  25.285  1.00  0.00    -0.051 Br
ENDBRANCH  16  17
ENDBRANCH   7  16
ENDBRANCH   4   7
ENDBRANCH   2   3
ENDBRANCH   1   2
BRANCH   1  25
ATOM     25  C   UNL A   1      38.417  22.657  25.872  1.00  0.00     0.118 C 
BRANCH  25  26
ATOM     26  N   UNL A   1      39.858  22.642  26.080  1.00  0.00    -0.352 N 
ATOM     27  C   UNL A   1      40.710  23.684  26.416  1.00  0.00     0.251 C 
ATOM     28  H   UNL A   1      40.290  21.765  25.965  1.00  0.00     0.163 HD
ATOM     29  O   UNL A   1      41.909  23.505  26.454  1.00  0.00    -0.269 OA
BRANCH  27  30
ATOM     30  C   UNL A   1      40.127  24.973  26.879  1.00  0.00     0.039 A 
ATOM     31  C   UNL A   1      40.561  26.143  26.245  1.00  0.00     0.014 A 
ATOM     32  C   UNL A   1      39.381  25.049  28.048  1.00  0.00     0.014 A 
ATOM     33  C   UNL A   1      40.480  27.354  26.925  1.00  0.00     0.010 A 
ATOM     34  C   UNL A   1      39.418  26.216  28.781  1.00  0.00     0.010 A 
ATOM     35  C   UNL A   1      40.024  27.353  28.242  1.00  0.00    -0.014 A 
BRANCH  35  36
ATOM     36  C   UNL A   1      40.231  28.462  29.162  1.00  0.00     0.031 A 
ATOM     37  C   UNL A   1      39.172  29.471  29.356  1.00  0.00     0.074 A 
ATOM     38  C   UNL A   1      41.369  28.523  29.890  1.00  0.00     0.049 A 
ATOM     39  N   UNL A   1      39.404  30.696  29.693  1.00  0.00    -0.248 NA
ATOM     40  C   UNL A   1      37.755  29.188  29.155  1.00  0.00     0.031 C 
ATOM     41  C   UNL A   1      41.642  29.407  31.021  1.00  0.00     0.029 A 
ATOM     42  N   UNL A   1      42.602  27.900  29.628  1.00  0.00    -0.354 N 
ATOM     43  C   UNL A   1      38.198  31.279  29.998  1.00  0.00     0.074 A 
ATOM     44  C   UNL A   1      37.196  30.319  29.594  1.00  0.00     0.031 C 
ATOM     45  C   UNL A   1      42.971  29.513  31.175  1.00  0.00     0.029 A 
ATOM     46  C   UNL A   1      43.590  28.812  30.065  1.00  0.00     0.049 A 
ATOM     47  H   UNL A   1      42.747  27.014  29.223  1.00  0.00     0.167 HD
ATOM     48  C   UNL A   1      38.173  32.457  30.682  1.00  0.00     0.037 A 
ATOM     49  C   UNL A   1      44.493  29.362  29.204  1.00  0.00     0.037 A 
ATOM     50  C   UNL A   1      39.521  32.918  30.992  1.00  0.00     0.049 A 
ATOM     51  C   UNL A   1      44.450  30.869  29.159  1.00  0.00     0.074 A 
ATOM     52  C   UNL A   1      40.309  32.777  32.123  1.00  0.00     0.029 A 
ATOM     53  N   UNL A   1      40.367  33.329  29.968  1.00  0.00    -0.354 N 
ATOM     54  N   UNL A   1      43.413  31.577  29.508  1.00  0.00    -0.248 NA
ATOM     55  C   UNL A   1      45.560  31.692  28.691  1.00  0.00     0.031 C 
ATOM     56  C   UNL A   1      41.642  33.087  31.772  1.00  0.00     0.029 A 
ATOM     57  C   UNL A   1      41.664  33.429  30.431  1.00  0.00     0.049 A 
ATOM     58  H   UNL A   1      40.082  33.520  29.045  1.00  0.00     0.167 HD
ATOM     59  C   UNL A   1      43.682  32.908  29.310  1.00  0.00     0.074 A 
ATOM     60  C   UNL A   1      45.045  32.928  28.813  1.00  0.00     0.031 C 
ATOM     61  C   UNL A   1      42.749  33.872  29.568  1.00  0.00     0.037 A 
BRANCH  48  62
ATOM     62  C   UNL A   1      36.925  33.007  31.323  1.00  0.00     0.064 A 
ATOM     63  C   UNL A   1      35.994  33.766  30.580  1.00  0.00     0.173 A 
ATOM     64  C   UNL A   1      36.615  32.853  32.686  1.00  0.00     0.173 A 
ATOM     65  F   UNL A   1      36.109  33.914  29.254  1.00  0.00    -0.203 F 
ATOM     66  C   UNL A   1      34.912  34.416  31.178  1.00  0.00     0.198 A 
ATOM     67  C   UNL A   1      35.563  33.547  33.294  1.00  0.00     0.198 A 
ATOM     68  F   UNL A   1      37.307  32.004  33.459  1.00  0.00    -0.203 F 
ATOM     69  F   UNL A   1      34.070  35.134  30.422  1.00  0.00    -0.200 F 
ATOM     70  C   UNL A   1      34.719  34.339  32.541  1.00  0.00     0.200 A 
ATOM     71  F   UNL A   1      35.378  33.448  34.618  1.00  0.00    -0.200 F 
ATOM     72  F   UNL A   1      33.714  35.007  33.122  1.00  0.00    -0.200 F 
ENDBRANCH  48  62
BRANCH  49  73
ATOM     73  C   UNL A   1      44.818  28.489  28.048  1.00  0.00     0.064 A 
ATOM     74  C   UNL A   1      45.596  27.339  28.277  1.00  0.00     0.173 A 
ATOM     75  C   UNL A   1      44.084  28.549  26.858  1.00  0.00     0.173 A 
ATOM     76  F   UNL A   1      46.327  27.238  29.397  1.00  0.00    -0.203 F 
ATOM     77  C   UNL A   1      45.546  26.246  27.414  1.00  0.00     0.198 A 
ATOM     78  C   UNL A   1      44.048  27.456  25.988  1.00  0.00     0.198 A 
ATOM     79  F   UNL A   1      43.310  29.610  26.590  1.00  0.00    -0.203 F 
ATOM     80  F   UNL A   1      46.213  25.124  27.720  1.00  0.00    -0.200 F 
ATOM     81  C   UNL A   1      44.748  26.296  26.284  1.00  0.00     0.200 A 
ATOM     82  F   UNL A   1      43.255  27.494  24.906  1.00  0.00    -0.200 F 
ATOM     83  F   UNL A   1      44.624  25.215  25.503  1.00  0.00    -0.200 F 
ENDBRANCH  49  73
BRANCH  61  84
ATOM     84  C   UNL A   1      42.800  35.329  29.158  1.00  0.00     0.064 A 
ATOM     85  C   UNL A   1      42.087  35.874  28.078  1.00  0.00     0.173 A 
ATOM     86  C   UNL A   1      43.487  36.276  29.962  1.00  0.00     0.173 A 
ATOM     87  F   UNL A   1      41.292  35.119  27.310  1.00  0.00    -0.203 F 
ATOM     88  C   UNL A   1      42.113  37.242  27.785  1.00  0.00     0.198 A 
ATOM     89  C   UNL A   1      43.459  37.647  29.702  1.00  0.00     0.198 A 
ATOM     90  F   UNL A   1      44.185  35.910  31.047  1.00  0.00    -0.203 F 
ATOM     91  F   UNL A   1      41.450  37.700  26.713  1.00  0.00    -0.200 F 
ATOM     92  C   UNL A   1      42.787  38.128  28.602  1.00  0.00     0.200 A 
ATOM     93  F   UNL A   1      44.071  38.495  30.541  1.00  0.00    -0.200 F 
ATOM     94  F   UNL A   1      42.767  39.443  28.343  1.00  0.00    -0.200 F 
ENDBRANCH  61  84
ENDBRANCH  35  36
ENDBRANCH  27  30
ENDBRANCH  25  26
ENDBRANCH   1  25
TORSDOF 14
ENDMDL
MODEL 3
REMARK VINA RESULT:     -13.3      3.758      9.488
REMARK SMILES Cc1ccc(C[C@@H](Cc2cc(F)cc(Br)c2)C(=O)NCCCNC(=O)c2ccc(-c3c4nc(c(-c5c(F)c(F)c(F)c(F)c5F)c5ccc([nH]5)c(-c5c(F)c(F)c(F)c(F)c5F)c5nc(c(-c6c(F)c(F)c(F)c(F)c6F)c6ccc3[nH]6)C=C5)C=C4)cc2)cc1
REMARK SMILES IDX 21 1 20 2 19 3 17 4 18 5 7 7 6 8 5 9 1 10 2 11 3 12 90 13
REMARK SMILES IDX 4 14 89 15 8 16 9 17 10 18 16 19 11 20 14 21 12 22 13 23
REMARK SMILES IDX 15 24 22 25 23 26 24 27 25 29 26 30 27 31 88 32 28 33 87 34
REMARK SMILES IDX 29 35 30 36 31 37 81 38 32 39 86 40 80 41 82 42 33 43 85 44
REMARK SMILES IDX 79 45 78 46 34 48 66 49 46 50 65 51 47 52 50 53 64 54 83 55
REMARK SMILES IDX 48 56 49 57 63 59 84 60 51 61 35 62 36 63 44 64 37 65 38 66
REMARK SMILES IDX 42 67 45 68 39 69 40 70 43 71 41 72 67 73 68 74 76 75 69 76
REMARK SMILES IDX 70 77 74 78 77 79 71 80 72 81 75 82 73 83 52 84 53 85 61 86
REMARK SMILES IDX 54 87 55 88 59 89 62 90 56 91 57 92 60 93 58 94
REMARK H PARENT 19 6 23 28 82 47 50 58
REMARK Flexibility Score: inf
ROOT
ATOM      1  C   UNL A   1      37.605  21.111  24.989  1.00  0.00     0.042 C 
ENDROOT
BRANCH   1   2
ATOM      2  C   UNL A   1      36.096  21.218  24.827  1.00  0.00     0.117 C 
BRANCH   2   3
ATOM      3  N   UNL A   1      35.399  21.087  26.101  1.00  0.00    -0.356 N 
ATOM      4  C   UNL A   1      34.331  21.778  26.596  1.00  0.00     0.223 C 
ATOM      5  O   UNL A   1      33.894  21.445  27.701  1.00  0.00    -0.275 OA
ATOM      6  H   UNL A   1      35.755  20.390  26.698  1.00  0.00     0.163 HD
BRANCH   4   7
ATOM      7  C   UNL A   1      33.699  22.942  25.834  1.00  0.00     0.087 C 
BRANCH   7   8
ATOM      8  C   UNL A   1      32.174  22.837  26.083  1.00  0.00     0.049 C 
BRANCH   8   9
ATOM      9  C   UNL A   1      31.224  23.839  25.479  1.00  0.00    -0.047 A 
ATOM     10  C   UNL A   1      28.949  27.004  23.617  1.00  0.00     0.044 C 
ATOM     11  C   UNL A   1      29.733  25.909  24.275  1.00  0.00    -0.051 A 
ATOM     12  C   UNL A   1      30.219  24.847  23.509  1.00  0.00     0.004 A 
ATOM     13  C   UNL A   1      29.980  25.921  25.652  1.00  0.00     0.004 A 
ATOM     14  C   UNL A   1      30.971  23.835  24.102  1.00  0.00     0.004 A 
ATOM     15  C   UNL A   1      30.715  24.892  26.251  1.00  0.00     0.004 A 
ENDBRANCH   8   9
ENDBRANCH   7   8
BRANCH   7  16
ATOM     16  C   UNL A   1      34.363  24.332  26.046  1.00  0.00     0.049 C 
BRANCH  16  17
ATOM     17  C   UNL A   1      34.028  25.513  25.147  1.00  0.00    -0.043 A 
ATOM     18  C   UNL A   1      34.026  25.326  23.753  1.00  0.00     0.043 A 
ATOM     19  C   UNL A   1      33.691  26.783  25.638  1.00  0.00     0.019 A 
ATOM     20  C   UNL A   1      33.597  26.340  22.901  1.00  0.00     0.124 A 
ATOM     21  C   UNL A   1      33.222  27.777  24.770  1.00  0.00     0.021 A 
ATOM     22  F   UNL A   1      33.569  26.118  21.580  1.00  0.00    -0.207 F 
ATOM     23  C   UNL A   1      33.165  27.560  23.398  1.00  0.00     0.055 A 
ATOM     24  Br  UNL A   1      32.588  29.411  25.481  1.00  0.00    -0.051 Br
ENDBRANCH  16  17
ENDBRANCH   7  16
ENDBRANCH   4   7
ENDBRANCH   2   3
ENDBRANCH   1   2
BRANCH   1  25
ATOM     25  C   UNL A   1      38.190  22.311  25.705  1.00  0.00     0.118 C 
BRANCH  25  26
ATOM     26  N   UNL A   1      39.614  22.206  25.988  1.00  0.00    -0.352 N 
ATOM     27  C   UNL A   1      40.508  23.190  26.388  1.00  0.00     0.251 C 
ATOM     28  H   UNL A   1      40.000  21.307  25.879  1.00  0.00     0.163 HD
ATOM     29  O   UNL A   1      41.691  22.938  26.485  1.00  0.00    -0.269 OA
BRANCH  27  30
ATOM     30  C   UNL A   1      39.979  24.504  26.844  1.00  0.00     0.039 A 
ATOM     31  C   UNL A   1      40.499  25.655  26.239  1.00  0.00     0.014 A 
ATOM     32  C   UNL A   1      39.195  24.610  27.986  1.00  0.00     0.014 A 
ATOM     33  C   UNL A   1      40.458  26.862  26.930  1.00  0.00     0.010 A 
ATOM     34  C   UNL A   1      39.268  25.766  28.732  1.00  0.00     0.010 A 
ATOM     35  C   UNL A   1      39.954  26.873  28.229  1.00  0.00    -0.014 A 
BRANCH  35  36
ATOM     36  C   UNL A   1      40.187  27.961  29.168  1.00  0.00     0.031 A 
ATOM     37  C   UNL A   1      39.236  29.087  29.249  1.00  0.00     0.074 A 
ATOM     38  C   UNL A   1      41.239  27.899  30.016  1.00  0.00     0.049 A 
ATOM     39  N   UNL A   1      39.569  30.279  29.612  1.00  0.00    -0.248 NA
ATOM     40  C   UNL A   1      37.826  28.965  28.895  1.00  0.00     0.031 C 
ATOM     41  C   UNL A   1      41.488  28.757  31.172  1.00  0.00     0.029 A 
ATOM     42  N   UNL A   1      42.413  27.136  29.888  1.00  0.00    -0.354 N 
ATOM     43  C   UNL A   1      38.412  31.000  29.785  1.00  0.00     0.074 A 
ATOM     44  C   UNL A   1      37.356  30.157  29.274  1.00  0.00     0.031 C 
ATOM     45  C   UNL A   1      42.796  28.712  31.469  1.00  0.00     0.029 A 
ATOM     46  C   UNL A   1      43.446  27.934  30.431  1.00  0.00     0.049 A 
ATOM     47  H   UNL A   1      42.498  26.235  29.499  1.00  0.00     0.167 HD
ATOM     48  C   UNL A   1      38.449  32.180  30.466  1.00  0.00     0.037 A 
ATOM     49  C   UNL A   1      44.494  28.368  29.674  1.00  0.00     0.037 A 
ATOM     50  C   UNL A   1      39.799  32.488  30.921  1.00  0.00     0.049 A 
ATOM     51  C   UNL A   1      44.630  29.869  29.629  1.00  0.00     0.074 A 
ATOM     52  C   UNL A   1      40.439  32.269  32.130  1.00  0.00     0.029 A 
ATOM     53  N   UNL A   1      40.792  32.788  29.996  1.00  0.00    -0.354 N 
ATOM     54  N   UNL A   1      43.649  30.695  29.865  1.00  0.00    -0.248 NA
ATOM     55  C   UNL A   1      45.871  30.555  29.285  1.00  0.00     0.031 C 
ATOM     56  C   UNL A   1      41.829  32.420  31.926  1.00  0.00     0.029 A 
ATOM     57  C   UNL A   1      42.035  32.744  30.597  1.00  0.00     0.049 A 
ATOM     58  H   UNL A   1      40.633  33.001  29.048  1.00  0.00     0.167 HD
ATOM     59  C   UNL A   1      44.089  31.984  29.700  1.00  0.00     0.074 A 
ATOM     60  C   UNL A   1      45.491  31.843  29.354  1.00  0.00     0.031 C 
ATOM     61  C   UNL A   1      43.250  33.051  29.858  1.00  0.00     0.037 A 
BRANCH  48  62
ATOM     62  C   UNL A   1      37.210  32.876  30.969  1.00  0.00     0.064 A 
ATOM     63  C   UNL A   1      36.734  32.665  32.281  1.00  0.00     0.173 A 
ATOM     64  C   UNL A   1      36.422  33.733  30.180  1.00  0.00     0.173 A 
ATOM     65  F   UNL A   1      37.431  31.951  33.174  1.00  0.00    -0.203 F 
ATOM     66  C   UNL A   1      35.510  33.171  32.723  1.00  0.00     0.198 A 
ATOM     67  C   UNL A   1      35.172  34.196  30.604  1.00  0.00     0.198 A 
ATOM     68  F   UNL A   1      36.856  34.166  28.988  1.00  0.00    -0.203 F 
ATOM     69  F   UNL A   1      35.105  32.925  33.977  1.00  0.00    -0.200 F 
ATOM     70  C   UNL A   1      34.710  33.904  31.872  1.00  0.00     0.200 A 
ATOM     71  F   UNL A   1      34.413  34.921  29.770  1.00  0.00    -0.200 F 
ATOM     72  F   UNL A   1      33.511  34.343  32.279  1.00  0.00    -0.200 F 
ENDBRANCH  48  62
BRANCH  49  73
ATOM     73  C   UNL A   1      44.839  27.452  28.559  1.00  0.00     0.064 A 
ATOM     74  C   UNL A   1      44.338  27.741  27.276  1.00  0.00     0.173 A 
ATOM     75  C   UNL A   1      45.918  26.565  28.648  1.00  0.00     0.173 A 
ATOM     76  F   UNL A   1      43.297  28.576  27.137  1.00  0.00    -0.203 F 
ATOM     77  C   UNL A   1      44.966  27.264  26.128  1.00  0.00     0.198 A 
ATOM     78  C   UNL A   1      46.536  26.077  27.494  1.00  0.00     0.198 A 
ATOM     79  F   UNL A   1      46.451  26.262  29.840  1.00  0.00    -0.203 F 
ATOM     80  F   UNL A   1      44.530  27.650  24.920  1.00  0.00    -0.200 F 
ATOM     81  C   UNL A   1      46.083  26.455  26.238  1.00  0.00     0.200 A 
ATOM     82  F   UNL A   1      47.634  25.313  27.600  1.00  0.00    -0.200 F 
ATOM     83  F   UNL A   1      46.745  26.072  25.139  1.00  0.00    -0.200 F 
ENDBRANCH  49  73
BRANCH  61  84
ATOM     84  C   UNL A   1      43.512  34.488  29.459  1.00  0.00     0.064 A 
ATOM     85  C   UNL A   1      43.485  34.962  28.137  1.00  0.00     0.173 A 
ATOM     86  C   UNL A   1      43.664  35.492  30.452  1.00  0.00     0.173 A 
ATOM     87  F   UNL A   1      43.222  34.150  27.107  1.00  0.00    -0.203 F 
ATOM     88  C   UNL A   1      43.664  36.315  27.828  1.00  0.00     0.198 A 
ATOM     89  C   UNL A   1      43.780  36.847  30.143  1.00  0.00     0.198 A 
ATOM     90  F   UNL A   1      43.676  35.196  31.760  1.00  0.00    -0.203 F 
ATOM     91  F   UNL A   1      43.675  36.704  26.545  1.00  0.00    -0.200 F 
ATOM     92  C   UNL A   1      43.798  37.257  28.829  1.00  0.00     0.200 A 
ATOM     93  F   UNL A   1      43.850  37.751  31.131  1.00  0.00    -0.200 F 
ATOM     94  F   UNL A   1      43.920  38.557  28.528  1.00  0.00    -0.200 F 
ENDBRANCH  61  84
ENDBRANCH  35  36
ENDBRANCH  27  30
ENDBRANCH  25  26
ENDBRANCH   1  25
TORSDOF 14
ENDMDL
