MODEL 1
REMARK VINA RESULT:     -13.4      0.000      0.000
REMARK SMILES O=C(NCCCNC(=O)[C@@H]1CCCC[C@@H]1NS(=O)(=O)c1ccc2ccccc2c1)c1ccc(-c2c3nc(c(-c4c(F)c(F)c(F)c(F)c4F)c4ccc([nH]4)c(-c4c(F)c(F)c(F)c(F)c4F)c4nc(c(-c5c(F)c(F)c(F)c(F)c5F)c5ccc2[nH]5)C=C4)C=C3)cc1
REMARK SMILES IDX 5 1 4 2 3 3 1 4 2 5 30 7 31 8 92 9 32 10 91 11 33 12 34 13
REMARK SMILES IDX 35 14 85 15 36 16 90 17 84 18 86 19 37 20 89 21 83 22 82 23
REMARK SMILES IDX 38 25 70 26 50 27 69 28 51 29 54 30 68 31 87 32 52 33 53 34
REMARK SMILES IDX 67 36 88 37 55 38 39 39 40 40 48 41 41 42 42 43 46 44 49 45
REMARK SMILES IDX 43 46 44 47 47 48 45 49 71 50 72 51 80 52 73 53 74 54 78 55
REMARK SMILES IDX 81 56 75 57 76 58 79 59 77 60 56 61 57 62 65 63 58 64 59 65
REMARK SMILES IDX 63 66 66 67 60 68 61 69 64 70 62 71 6 72 7 73 8 74 9 76
REMARK SMILES IDX 10 77 11 78 15 79 12 80 14 81 13 82 16 83 17 85 18 86 19 87
REMARK SMILES IDX 20 88 21 89 29 90 22 91 28 92 23 93 27 94 24 95 26 96 25 97
REMARK H PARENT 3 6 86 24 54 35 7 75 16 84
REMARK Flexibility Score: inf
ROOT
ATOM      1  C   UNL A   1      37.907  19.707  24.830  1.00  0.00     0.042 C 
ENDROOT
BRANCH   1   2
ATOM      2  C   UNL A   1      38.888  19.995  25.949  1.00  0.00     0.118 C 
BRANCH   2   3
ATOM      3  N   UNL A   1      40.116  19.203  25.875  1.00  0.00    -0.352 N 
ATOM      4  O   UNL A   1      42.289  18.660  25.751  1.00  0.00    -0.269 OA
ATOM      5  C   UNL A   1      41.448  19.518  26.005  1.00  0.00     0.251 C 
ATOM      6  H   UNL A   1      39.955  18.247  25.696  1.00  0.00     0.163 HD
BRANCH   5   7
ATOM      7  C   UNL A   1      41.889  20.876  26.389  1.00  0.00     0.039 A 
ATOM      8  C   UNL A   1      41.919  21.909  25.460  1.00  0.00     0.014 A 
ATOM      9  C   UNL A   1      42.265  21.135  27.713  1.00  0.00     0.014 A 
ATOM     10  C   UNL A   1      42.537  23.108  25.775  1.00  0.00     0.010 A 
ATOM     11  C   UNL A   1      42.738  22.401  28.075  1.00  0.00     0.010 A 
ATOM     12  C   UNL A   1      42.916  23.387  27.096  1.00  0.00    -0.014 A 
BRANCH  12  13
ATOM     13  C   UNL A   1      43.363  24.767  27.415  1.00  0.00     0.031 A 
ATOM     14  C   UNL A   1      44.752  25.246  27.113  1.00  0.00     0.074 A 
ATOM     15  C   UNL A   1      42.447  25.613  27.925  1.00  0.00     0.049 A 
ATOM     16  N   UNL A   1      45.241  26.460  27.175  1.00  0.00    -0.248 NA
ATOM     17  C   UNL A   1      45.725  24.241  26.675  1.00  0.00     0.031 C 
ATOM     18  C   UNL A   1      41.067  25.251  28.268  1.00  0.00     0.029 A 
ATOM     19  N   UNL A   1      42.521  26.948  28.219  1.00  0.00    -0.354 N 
ATOM     20  C   UNL A   1      46.563  26.360  26.754  1.00  0.00     0.074 A 
ATOM     21  C   UNL A   1      46.812  24.967  26.463  1.00  0.00     0.031 C 
ATOM     22  C   UNL A   1      40.411  26.345  28.672  1.00  0.00     0.029 A 
ATOM     23  C   UNL A   1      41.344  27.463  28.699  1.00  0.00     0.049 A 
ATOM     24  H   UNL A   1      43.337  27.483  28.097  1.00  0.00     0.167 HD
ATOM     25  C   UNL A   1      47.490  27.340  26.643  1.00  0.00     0.037 A 
ATOM     26  C   UNL A   1      41.054  28.698  29.146  1.00  0.00     0.037 A 
ATOM     27  C   UNL A   1      47.261  28.704  27.040  1.00  0.00     0.049 A 
ATOM     28  C   UNL A   1      42.132  29.739  29.113  1.00  0.00     0.074 A 
ATOM     29  C   UNL A   1      48.137  29.775  27.005  1.00  0.00     0.029 A 
ATOM     30  N   UNL A   1      46.076  29.174  27.591  1.00  0.00    -0.354 N 
ATOM     31  N   UNL A   1      43.355  29.648  28.649  1.00  0.00    -0.248 NA
ATOM     32  C   UNL A   1      41.793  31.052  29.670  1.00  0.00     0.031 C 
ATOM     33  C   UNL A   1      47.508  30.870  27.608  1.00  0.00     0.029 A 
ATOM     34  C   UNL A   1      46.214  30.506  27.946  1.00  0.00     0.049 A 
ATOM     35  H   UNL A   1      45.259  28.639  27.712  1.00  0.00     0.167 HD
ATOM     36  C   UNL A   1      43.928  30.896  28.842  1.00  0.00     0.074 A 
ATOM     37  C   UNL A   1      42.907  31.731  29.443  1.00  0.00     0.031 C 
ATOM     38  C   UNL A   1      45.184  31.314  28.549  1.00  0.00     0.037 A 
BRANCH  25  39
ATOM     39  C   UNL A   1      48.850  26.957  26.134  1.00  0.00     0.064 A 
ATOM     40  C   UNL A   1      49.185  27.058  24.775  1.00  0.00     0.173 A 
ATOM     41  C   UNL A   1      49.840  26.505  27.019  1.00  0.00     0.173 A 
ATOM     42  F   UNL A   1      48.269  27.465  23.883  1.00  0.00    -0.203 F 
ATOM     43  C   UNL A   1      50.452  26.703  24.319  1.00  0.00     0.198 A 
ATOM     44  C   UNL A   1      51.115  26.175  26.564  1.00  0.00     0.198 A 
ATOM     45  F   UNL A   1      49.574  26.384  28.327  1.00  0.00    -0.203 F 
ATOM     46  F   UNL A   1      50.735  26.765  23.010  1.00  0.00    -0.200 F 
ATOM     47  C   UNL A   1      51.418  26.268  25.214  1.00  0.00     0.200 A 
ATOM     48  F   UNL A   1      52.049  25.760  27.432  1.00  0.00    -0.200 F 
ATOM     49  F   UNL A   1      52.639  25.928  24.775  1.00  0.00    -0.200 F 
ENDBRANCH  25  39
BRANCH  26  50
ATOM     50  C   UNL A   1      39.701  28.985  29.686  1.00  0.00     0.064 A 
ATOM     51  C   UNL A   1      38.676  29.463  28.861  1.00  0.00     0.173 A 
ATOM     52  C   UNL A   1      39.400  28.761  31.039  1.00  0.00     0.173 A 
ATOM     53  F   UNL A   1      38.918  29.704  27.565  1.00  0.00    -0.203 F 
ATOM     54  C   UNL A   1      37.406  29.724  29.372  1.00  0.00     0.198 A 
ATOM     55  C   UNL A   1      38.122  28.988  31.541  1.00  0.00     0.198 A 
ATOM     56  F   UNL A   1      40.342  28.292  31.870  1.00  0.00    -0.203 F 
ATOM     57  F   UNL A   1      36.455  30.222  28.571  1.00  0.00    -0.200 F 
ATOM     58  C   UNL A   1      37.128  29.479  30.709  1.00  0.00     0.200 A 
ATOM     59  F   UNL A   1      37.852  28.725  32.827  1.00  0.00    -0.200 F 
ATOM     60  F   UNL A   1      35.903  29.719  31.196  1.00  0.00    -0.200 F 
ENDBRANCH  26  50
BRANCH  38  61
ATOM     61  C   UNL A   1      45.510  32.746  28.850  1.00  0.00     0.064 A 
ATOM     62  C   UNL A   1      46.097  33.130  30.064  1.00  0.00     0.173 A 
ATOM     63  C   UNL A   1      45.260  33.742  27.893  1.00  0.00     0.173 A 
ATOM     64  F   UNL A   1      46.340  32.216  31.016  1.00  0.00    -0.203 F 
ATOM     65  C   UNL A   1      46.392  34.466  30.322  1.00  0.00     0.198 A 
ATOM     66  C   UNL A   1      45.591  35.070  28.142  1.00  0.00     0.198 A 
ATOM     67  F   UNL A   1      44.706  33.424  26.713  1.00  0.00    -0.203 F 
ATOM     68  F   UNL A   1      46.899  34.818  31.512  1.00  0.00    -0.200 F 
ATOM     69  C   UNL A   1      46.147  35.431  29.358  1.00  0.00     0.200 A 
ATOM     70  F   UNL A   1      45.367  35.999  27.203  1.00  0.00    -0.200 F 
ATOM     71  F   UNL A   1      46.440  36.716  29.606  1.00  0.00    -0.200 F 
ENDBRANCH  38  61
ENDBRANCH  12  13
ENDBRANCH   5   7
ENDBRANCH   2   3
ENDBRANCH   1   2
BRANCH   1  72
ATOM     72  C   UNL A   1      36.580  20.412  25.001  1.00  0.00     0.117 C 
BRANCH  72  73
ATOM     73  N   UNL A   1      36.471  21.583  24.173  1.00  0.00    -0.356 N 
ATOM     74  C   UNL A   1      35.514  22.521  24.015  1.00  0.00     0.224 C 
ATOM     75  H   UNL A   1      37.260  21.732  23.603  1.00  0.00     0.163 HD
ATOM     76  O   UNL A   1      35.755  23.330  23.108  1.00  0.00    -0.275 OA
BRANCH  74  77
ATOM     77  C   UNL A   1      34.194  22.637  24.803  1.00  0.00     0.096 C 
ATOM     78  C   UNL A   1      33.296  21.464  24.338  1.00  0.00     0.015 C 
ATOM     79  C   UNL A   1      33.371  23.948  24.903  1.00  0.00     0.082 C 
ATOM     80  C   UNL A   1      32.042  21.298  25.187  1.00  0.00     0.001 C 
ATOM     81  C   UNL A   1      32.143  23.725  25.796  1.00  0.00     0.021 C 
ATOM     82  C   UNL A   1      31.257  22.594  25.294  1.00  0.00     0.002 C 
BRANCH  79  83
ATOM     83  N   UNL A   1      32.997  24.448  23.563  1.00  0.00    -0.207 NA
ATOM     84  H   UNL A   1      31.997  24.267  23.481  1.00  0.00     0.141 HD
BRANCH  83  85
ATOM     85  S   UNL A   1      33.207  26.015  22.995  1.00  0.00     0.240 S 
ATOM     86  O   UNL A   1      34.001  26.675  24.017  1.00  0.00    -0.207 OA
ATOM     87  O   UNL A   1      33.653  25.950  21.629  1.00  0.00    -0.207 OA
BRANCH  85  88
ATOM     88  C   UNL A   1      31.597  26.769  23.024  1.00  0.00     0.083 A 
ATOM     89  C   UNL A   1      30.529  26.097  23.624  1.00  0.00     0.022 A 
ATOM     90  C   UNL A   1      31.387  27.998  22.399  1.00  0.00     0.030 A 
ATOM     91  C   UNL A   1      29.263  26.688  23.658  1.00  0.00     0.010 A 
ATOM     92  C   UNL A   1      30.135  28.625  22.489  1.00  0.00    -0.017 A 
ATOM     93  C   UNL A   1      29.058  27.969  23.126  1.00  0.00    -0.018 A 
ATOM     94  C   UNL A   1      29.940  29.912  21.982  1.00  0.00     0.009 A 
ATOM     95  C   UNL A   1      27.813  28.617  23.224  1.00  0.00     0.009 A 
ATOM     96  C   UNL A   1      28.723  30.566  22.148  1.00  0.00     0.001 A 
ATOM     97  C   UNL A   1      27.653  29.919  22.754  1.00  0.00     0.001 A 
ENDBRANCH  85  88
ENDBRANCH  83  85
ENDBRANCH  79  83
ENDBRANCH  74  77
ENDBRANCH  72  73
ENDBRANCH   1  72
TORSDOF 13
ENDMDL
MODEL 2
REMARK VINA RESULT:     -13.3      4.677      9.662
REMARK SMILES O=C(NCCCNC(=O)[C@@H]1CCCC[C@@H]1NS(=O)(=O)c1ccc2ccccc2c1)c1ccc(-c2c3nc(c(-c4c(F)c(F)c(F)c(F)c4F)c4ccc([nH]4)c(-c4c(F)c(F)c(F)c(F)c4F)c4nc(c(-c5c(F)c(F)c(F)c(F)c5F)c5ccc2[nH]5)C=C4)C=C3)cc1
REMARK SMILES IDX 5 1 4 2 3 3 1 4 2 5 30 7 31 8 92 9 32 10 91 11 33 12 34 13
REMARK SMILES IDX 35 14 85 15 36 16 90 17 84 18 86 19 37 20 89 21 83 22 82 23
REMARK SMILES IDX 38 25 70 26 50 27 69 28 51 29 54 30 68 31 87 32 52 33 53 34
REMARK SMILES IDX 67 36 88 37 55 38 39 39 40 40 48 41 41 42 42 43 46 44 49 45
REMARK SMILES IDX 43 46 44 47 47 48 45 49 71 50 72 51 80 52 73 53 74 54 78 55
REMARK SMILES IDX 81 56 75 57 76 58 79 59 77 60 56 61 57 62 65 63 58 64 59 65
REMARK SMILES IDX 63 66 66 67 60 68 61 69 64 70 62 71 6 72 7 73 8 74 9 76
REMARK SMILES IDX 10 77 11 78 15 79 12 80 14 81 13 82 16 83 17 85 18 86 19 87
REMARK SMILES IDX 20 88 21 89 29 90 22 91 28 92 23 93 27 94 24 95 26 96 25 97
REMARK H PARENT 3 6 86 24 54 35 7 75 16 84
REMARK Flexibility Score: inf
ROOT
ATOM      1  C   UNL A   1      32.162  28.302  26.208  1.00  0.00     0.042 C 
ENDROOT
BRANCH   1   2
ATOM      2  C   UNL A   1      33.100  29.382  25.706  1.00  0.00     0.118 C 
BRANCH   2   3
ATOM      3  N   UNL A   1      32.753  30.726  26.169  1.00  0.00    -0.352 N 
ATOM      4  O   UNL A   1      32.705  32.604  27.396  1.00  0.00    -0.269 OA
ATOM      5  C   UNL A   1      33.298  31.567  27.110  1.00  0.00     0.251 C 
ATOM      6  H   UNL A   1      31.967  31.107  25.713  1.00  0.00     0.163 HD
BRANCH   5   7
ATOM      7  C   UNL A   1      34.550  31.227  27.821  1.00  0.00     0.039 A 
ATOM      8  C   UNL A   1      34.771  29.946  28.310  1.00  0.00     0.014 A 
ATOM      9  C   UNL A   1      35.540  32.204  27.988  1.00  0.00     0.014 A 
ATOM     10  C   UNL A   1      35.838  29.701  29.157  1.00  0.00     0.010 A 
ATOM     11  C   UNL A   1      36.704  31.910  28.708  1.00  0.00     0.010 A 
ATOM     12  C   UNL A   1      36.842  30.664  29.334  1.00  0.00    -0.014 A 
BRANCH  12  13
ATOM     13  C   UNL A   1      38.069  30.264  30.068  1.00  0.00     0.031 A 
ATOM     14  C   UNL A   1      38.356  30.740  31.462  1.00  0.00     0.074 A 
ATOM     15  C   UNL A   1      38.895  29.389  29.464  1.00  0.00     0.049 A 
ATOM     16  N   UNL A   1      39.291  30.351  32.294  1.00  0.00    -0.248 NA
ATOM     17  C   UNL A   1      37.480  31.782  32.005  1.00  0.00     0.031 C 
ATOM     18  C   UNL A   1      38.719  28.867  28.104  1.00  0.00     0.029 A 
ATOM     19  N   UNL A   1      40.026  28.762  29.913  1.00  0.00    -0.354 N 
ATOM     20  C   UNL A   1      39.089  31.079  33.461  1.00  0.00     0.074 A 
ATOM     21  C   UNL A   1      37.962  31.952  33.227  1.00  0.00     0.031 C 
ATOM     22  C   UNL A   1      39.671  27.961  27.852  1.00  0.00     0.029 A 
ATOM     23  C   UNL A   1      40.573  27.903  28.994  1.00  0.00     0.049 A 
ATOM     24  H   UNL A   1      40.408  28.913  30.807  1.00  0.00     0.167 HD
ATOM     25  C   UNL A   1      39.796  31.037  34.615  1.00  0.00     0.037 A 
ATOM     26  C   UNL A   1      41.699  27.171  29.051  1.00  0.00     0.037 A 
ATOM     27  C   UNL A   1      40.982  30.243  34.796  1.00  0.00     0.049 A 
ATOM     28  C   UNL A   1      42.523  27.226  30.302  1.00  0.00     0.074 A 
ATOM     29  C   UNL A   1      41.799  30.148  35.909  1.00  0.00     0.029 A 
ATOM     30  N   UNL A   1      41.547  29.439  33.815  1.00  0.00    -0.354 N 
ATOM     31  N   UNL A   1      42.283  27.865  31.422  1.00  0.00    -0.248 NA
ATOM     32  C   UNL A   1      43.776  26.464  30.296  1.00  0.00     0.031 C 
ATOM     33  C   UNL A   1      42.898  29.351  35.573  1.00  0.00     0.029 A 
ATOM     34  C   UNL A   1      42.728  28.884  34.279  1.00  0.00     0.049 A 
ATOM     35  H   UNL A   1      41.165  29.287  32.921  1.00  0.00     0.167 HD
ATOM     36  C   UNL A   1      43.346  27.569  32.262  1.00  0.00     0.074 A 
ATOM     37  C   UNL A   1      44.218  26.674  31.527  1.00  0.00     0.031 C 
ATOM     38  C   UNL A   1      43.581  27.999  33.526  1.00  0.00     0.037 A 
BRANCH  25  39
ATOM     39  C   UNL A   1      39.343  31.922  35.740  1.00  0.00     0.064 A 
ATOM     40  C   UNL A   1      38.402  31.488  36.688  1.00  0.00     0.173 A 
ATOM     41  C   UNL A   1      39.872  33.213  35.890  1.00  0.00     0.173 A 
ATOM     42  F   UNL A   1      37.850  30.270  36.581  1.00  0.00    -0.203 F 
ATOM     43  C   UNL A   1      37.996  32.319  37.729  1.00  0.00     0.198 A 
ATOM     44  C   UNL A   1      39.482  34.033  36.947  1.00  0.00     0.198 A 
ATOM     45  F   UNL A   1      40.770  33.681  35.011  1.00  0.00    -0.203 F 
ATOM     46  F   UNL A   1      37.063  31.899  38.596  1.00  0.00    -0.200 F 
ATOM     47  C   UNL A   1      38.540  33.588  37.861  1.00  0.00     0.200 A 
ATOM     48  F   UNL A   1      40.014  35.256  37.076  1.00  0.00    -0.200 F 
ATOM     49  F   UNL A   1      38.149  34.386  38.865  1.00  0.00    -0.200 F 
ENDBRANCH  25  39
BRANCH  26  50
ATOM     50  C   UNL A   1      42.110  26.363  27.875  1.00  0.00     0.064 A 
ATOM     51  C   UNL A   1      43.070  26.833  26.970  1.00  0.00     0.173 A 
ATOM     52  C   UNL A   1      41.566  25.089  27.646  1.00  0.00     0.173 A 
ATOM     53  F   UNL A   1      43.610  28.048  27.139  1.00  0.00    -0.203 F 
ATOM     54  C   UNL A   1      43.457  26.068  25.872  1.00  0.00     0.198 A 
ATOM     55  C   UNL A   1      41.979  24.310  26.569  1.00  0.00     0.198 A 
ATOM     56  F   UNL A   1      40.651  24.586  28.489  1.00  0.00    -0.203 F 
ATOM     57  F   UNL A   1      44.346  26.558  24.998  1.00  0.00    -0.200 F 
ATOM     58  C   UNL A   1      42.918  24.805  25.677  1.00  0.00     0.200 A 
ATOM     59  F   UNL A   1      41.473  23.081  26.400  1.00  0.00    -0.200 F 
ATOM     60  F   UNL A   1      43.300  24.065  24.628  1.00  0.00    -0.200 F 
ENDBRANCH  26  50
BRANCH  38  61
ATOM     61  C   UNL A   1      44.815  27.481  34.201  1.00  0.00     0.064 A 
ATOM     62  C   UNL A   1      46.032  28.176  34.148  1.00  0.00     0.173 A 
ATOM     63  C   UNL A   1      44.768  26.287  34.937  1.00  0.00     0.173 A 
ATOM     64  F   UNL A   1      46.131  29.314  33.443  1.00  0.00    -0.203 F 
ATOM     65  C   UNL A   1      47.166  27.677  34.783  1.00  0.00     0.198 A 
ATOM     66  C   UNL A   1      45.895  25.812  35.600  1.00  0.00     0.198 A 
ATOM     67  F   UNL A   1      43.625  25.590  35.023  1.00  0.00    -0.203 F 
ATOM     68  F   UNL A   1      48.333  28.327  34.672  1.00  0.00    -0.200 F 
ATOM     69  C   UNL A   1      47.094  26.501  35.514  1.00  0.00     0.200 A 
ATOM     70  F   UNL A   1      45.818  24.684  36.319  1.00  0.00    -0.200 F 
ATOM     71  F   UNL A   1      48.185  26.027  36.131  1.00  0.00    -0.200 F 
ENDBRANCH  38  61
ENDBRANCH  12  13
ENDBRANCH   5   7
ENDBRANCH   2   3
ENDBRANCH   1   2
BRANCH   1  72
ATOM     72  C   UNL A   1      32.859  26.993  26.500  1.00  0.00     0.117 C 
BRANCH  72  73
ATOM     73  N   UNL A   1      31.933  25.905  26.674  1.00  0.00    -0.356 N 
ATOM     74  C   UNL A   1      31.883  24.645  26.197  1.00  0.00     0.224 C 
ATOM     75  H   UNL A   1      31.178  26.128  27.265  1.00  0.00     0.163 HD
ATOM     76  O   UNL A   1      30.845  24.038  26.500  1.00  0.00    -0.275 OA
BRANCH  74  77
ATOM     77  C   UNL A   1      32.938  23.946  25.316  1.00  0.00     0.096 C 
ATOM     78  C   UNL A   1      34.255  23.929  26.132  1.00  0.00     0.015 C 
ATOM     79  C   UNL A   1      33.215  24.337  23.841  1.00  0.00     0.082 C 
ATOM     80  C   UNL A   1      35.340  23.069  25.498  1.00  0.00     0.001 C 
ATOM     81  C   UNL A   1      34.290  23.415  23.250  1.00  0.00     0.021 C 
ATOM     82  C   UNL A   1      35.586  23.448  24.047  1.00  0.00     0.002 C 
BRANCH  79  83
ATOM     83  N   UNL A   1      33.587  25.763  23.727  1.00  0.00    -0.207 NA
ATOM     84  H   UNL A   1      34.604  25.781  23.807  1.00  0.00     0.141 HD
BRANCH  83  85
ATOM     85  S   UNL A   1      33.231  26.781  22.438  1.00  0.00     0.240 S 
ATOM     86  O   UNL A   1      34.086  27.938  22.635  1.00  0.00    -0.207 OA
ATOM     87  O   UNL A   1      33.282  26.013  21.222  1.00  0.00    -0.207 OA
BRANCH  85  88
ATOM     88  C   UNL A   1      31.558  27.325  22.689  1.00  0.00     0.083 A 
ATOM     89  C   UNL A   1      30.635  26.468  23.292  1.00  0.00     0.022 A 
ATOM     90  C   UNL A   1      31.152  28.580  22.233  1.00  0.00     0.030 A 
ATOM     91  C   UNL A   1      29.319  26.894  23.500  1.00  0.00     0.010 A 
ATOM     92  C   UNL A   1      29.853  29.036  22.499  1.00  0.00    -0.017 A 
ATOM     93  C   UNL A   1      28.922  28.189  23.141  1.00  0.00    -0.018 A 
ATOM     94  C   UNL A   1      29.468  30.336  22.165  1.00  0.00     0.009 A 
ATOM     95  C   UNL A   1      27.628  28.666  23.418  1.00  0.00     0.009 A 
ATOM     96  C   UNL A   1      28.207  30.816  22.507  1.00  0.00     0.001 A 
ATOM     97  C   UNL A   1      27.279  29.983  23.119  1.00  0.00     0.001 A 
ENDBRANCH  85  88
ENDBRANCH  83  85
ENDBRANCH  79  83
ENDBRANCH  74  77
ENDBRANCH  72  73
ENDBRANCH   1  72
TORSDOF 13
ENDMDL
MODEL 3
REMARK VINA RESULT:     -13.3      5.192     10.957
REMARK SMILES O=C(NCCCNC(=O)[C@@H]1CCCC[C@@H]1NS(=O)(=O)c1ccc2ccccc2c1)c1ccc(-c2c3nc(c(-c4c(F)c(F)c(F)c(F)c4F)c4ccc([nH]4)c(-c4c(F)c(F)c(F)c(F)c4F)c4nc(c(-c5c(F)c(F)c(F)c(F)c5F)c5ccc2[nH]5)C=C4)C=C3)cc1
REMARK SMILES IDX 5 1 4 2 3 3 1 4 2 5 30 7 31 8 92 9 32 10 91 11 33 12 34 13
REMARK SMILES IDX 35 14 85 15 36 16 90 17 84 18 86 19 37 20 89 21 83 22 82 23
REMARK SMILES IDX 38 25 70 26 50 27 69 28 51 29 54 30 68 31 87 32 52 33 53 34
REMARK SMILES IDX 67 36 88 37 55 38 39 39 40 40 48 41 41 42 42 43 46 44 49 45
REMARK SMILES IDX 43 46 44 47 47 48 45 49 71 50 72 51 80 52 73 53 74 54 78 55
REMARK SMILES IDX 81 56 75 57 76 58 79 59 77 60 56 61 57 62 65 63 58 64 59 65
REMARK SMILES IDX 63 66 66 67 60 68 61 69 64 70 62 71 6 72 7 73 8 74 9 76
REMARK SMILES IDX 10 77 11 78 15 79 12 80 14 81 13 82 16 83 17 85 18 86 19 87
REMARK SMILES IDX 20 88 21 89 29 90 22 91 28 92 23 93 27 94 24 95 26 96 25 97
REMARK H PARENT 3 6 86 24 54 35 7 75 16 84
REMARK Flexibility Score: inf
ROOT
ATOM      1  C   UNL A   1      31.282  31.867  26.555  1.00  0.00     0.042 C 
ENDROOT
BRANCH   1   2
ATOM      2  C   UNL A   1      32.598  32.544  26.883  1.00  0.00     0.118 C 
BRANCH   2   3
ATOM      3  N   UNL A   1      32.445  33.843  27.540  1.00  0.00    -0.352 N 
ATOM      4  O   UNL A   1      32.685  35.522  29.008  1.00  0.00    -0.269 OA
ATOM      5  C   UNL A   1      33.128  34.470  28.555  1.00  0.00     0.251 C 
ATOM      6  H   UNL A   1      31.699  34.378  27.181  1.00  0.00     0.163 HD
BRANCH   5   7
ATOM      7  C   UNL A   1      34.349  33.881  29.147  1.00  0.00     0.039 A 
ATOM      8  C   UNL A   1      34.277  32.778  29.988  1.00  0.00     0.014 A 
ATOM      9  C   UNL A   1      35.601  34.429  28.841  1.00  0.00     0.014 A 
ATOM     10  C   UNL A   1      35.392  32.377  30.703  1.00  0.00     0.010 A 
ATOM     11  C   UNL A   1      36.757  33.916  29.441  1.00  0.00     0.010 A 
ATOM     12  C   UNL A   1      36.655  32.910  30.410  1.00  0.00    -0.014 A 
BRANCH  12  13
ATOM     13  C   UNL A   1      37.841  32.282  31.047  1.00  0.00     0.031 A 
ATOM     14  C   UNL A   1      38.292  32.649  32.430  1.00  0.00     0.074 A 
ATOM     15  C   UNL A   1      38.467  31.305  30.364  1.00  0.00     0.049 A 
ATOM     16  N   UNL A   1      39.198  32.078  33.185  1.00  0.00    -0.248 NA
ATOM     17  C   UNL A   1      37.641  33.802  33.060  1.00  0.00     0.031 C 
ATOM     18  C   UNL A   1      38.120  30.873  29.005  1.00  0.00     0.029 A 
ATOM     19  N   UNL A   1      39.502  30.481  30.717  1.00  0.00    -0.354 N 
ATOM     20  C   UNL A   1      39.196  32.785  34.382  1.00  0.00     0.074 A 
ATOM     21  C   UNL A   1      38.221  33.842  34.250  1.00  0.00     0.031 C 
ATOM     22  C   UNL A   1      38.887  29.831  28.664  1.00  0.00     0.029 A 
ATOM     23  C   UNL A   1      39.836  29.579  29.740  1.00  0.00     0.049 A 
ATOM     24  H   UNL A   1      39.960  30.532  31.587  1.00  0.00     0.167 HD
ATOM     25  C   UNL A   1      39.957  32.581  35.483  1.00  0.00     0.037 A 
ATOM     26  C   UNL A   1      40.823  28.667  29.699  1.00  0.00     0.037 A 
ATOM     27  C   UNL A   1      41.001  31.594  35.561  1.00  0.00     0.049 A 
ATOM     28  C   UNL A   1      41.722  28.536  30.892  1.00  0.00     0.074 A 
ATOM     29  C   UNL A   1      41.859  31.321  36.612  1.00  0.00     0.029 A 
ATOM     30  N   UNL A   1      41.358  30.745  34.522  1.00  0.00    -0.354 N 
ATOM     31  N   UNL A   1      41.665  29.162  32.042  1.00  0.00    -0.248 NA
ATOM     32  C   UNL A   1      42.825  27.576  30.779  1.00  0.00     0.031 C 
ATOM     33  C   UNL A   1      42.784  30.365  36.181  1.00  0.00     0.029 A 
ATOM     34  C   UNL A   1      42.455  29.983  34.889  1.00  0.00     0.049 A 
ATOM     35  H   UNL A   1      40.901  30.693  33.653  1.00  0.00     0.167 HD
ATOM     36  C   UNL A   1      42.713  28.661  32.799  1.00  0.00     0.074 A 
ATOM     37  C   UNL A   1      43.372  27.662  31.982  1.00  0.00     0.031 C 
ATOM     38  C   UNL A   1      43.097  28.998  34.055  1.00  0.00     0.037 A 
BRANCH  25  39
ATOM     39  C   UNL A   1      39.733  33.486  36.661  1.00  0.00     0.064 A 
ATOM     40  C   UNL A   1      40.422  34.701  36.800  1.00  0.00     0.173 A 
ATOM     41  C   UNL A   1      38.800  33.147  37.652  1.00  0.00     0.173 A 
ATOM     42  F   UNL A   1      41.339  35.064  35.891  1.00  0.00    -0.203 F 
ATOM     43  C   UNL A   1      40.198  35.531  37.896  1.00  0.00     0.198 A 
ATOM     44  C   UNL A   1      38.560  33.991  38.734  1.00  0.00     0.198 A 
ATOM     45  F   UNL A   1      38.117  31.996  37.573  1.00  0.00    -0.203 F 
ATOM     46  F   UNL A   1      40.901  36.666  38.031  1.00  0.00    -0.200 F 
ATOM     47  C   UNL A   1      39.264  35.179  38.858  1.00  0.00     0.200 A 
ATOM     48  F   UNL A   1      37.653  33.652  39.660  1.00  0.00    -0.200 F 
ATOM     49  F   UNL A   1      39.049  35.980  39.912  1.00  0.00    -0.200 F 
ENDBRANCH  25  39
BRANCH  26  50
ATOM     50  C   UNL A   1      41.016  27.848  28.476  1.00  0.00     0.064 A 
ATOM     51  C   UNL A   1      40.349  26.629  28.305  1.00  0.00     0.173 A 
ATOM     52  C   UNL A   1      41.857  28.283  27.439  1.00  0.00     0.173 A 
ATOM     53  F   UNL A   1      39.544  26.165  29.272  1.00  0.00    -0.203 F 
ATOM     54  C   UNL A   1      40.529  25.868  27.152  1.00  0.00     0.198 A 
ATOM     55  C   UNL A   1      42.008  27.540  26.272  1.00  0.00     0.198 A 
ATOM     56  F   UNL A   1      42.511  29.449  27.547  1.00  0.00    -0.203 F 
ATOM     57  F   UNL A   1      39.912  24.685  27.032  1.00  0.00    -0.200 F 
ATOM     58  C   UNL A   1      41.351  26.327  26.134  1.00  0.00     0.200 A 
ATOM     59  F   UNL A   1      42.785  28.000  25.282  1.00  0.00    -0.200 F 
ATOM     60  F   UNL A   1      41.514  25.599  25.021  1.00  0.00    -0.200 F 
ENDBRANCH  26  50
BRANCH  38  61
ATOM     61  C   UNL A   1      44.266  28.255  34.630  1.00  0.00     0.064 A 
ATOM     62  C   UNL A   1      45.580  28.725  34.490  1.00  0.00     0.173 A 
ATOM     63  C   UNL A   1      44.061  27.072  35.356  1.00  0.00     0.173 A 
ATOM     64  F   UNL A   1      45.827  29.843  33.790  1.00  0.00    -0.203 F 
ATOM     65  C   UNL A   1      46.650  28.020  35.032  1.00  0.00     0.198 A 
ATOM     66  C   UNL A   1      45.131  26.391  35.927  1.00  0.00     0.198 A 
ATOM     67  F   UNL A   1      42.822  26.585  35.522  1.00  0.00    -0.203 F 
ATOM     68  F   UNL A   1      47.903  28.457  34.839  1.00  0.00    -0.200 F 
ATOM     69  C   UNL A   1      46.424  26.860  35.757  1.00  0.00     0.200 A 
ATOM     70  F   UNL A   1      44.909  25.278  36.640  1.00  0.00    -0.200 F 
ATOM     71  F   UNL A   1      47.456  26.186  36.284  1.00  0.00    -0.200 F 
ENDBRANCH  38  61
ENDBRANCH  12  13
ENDBRANCH   5   7
ENDBRANCH   2   3
ENDBRANCH   1   2
BRANCH   1  72
ATOM     72  C   UNL A   1      31.442  30.629  25.702  1.00  0.00     0.117 C 
BRANCH  72  73
ATOM     73  N   UNL A   1      31.451  29.421  26.483  1.00  0.00    -0.356 N 
ATOM     74  C   UNL A   1      31.620  28.119  26.175  1.00  0.00     0.224 C 
ATOM     75  H   UNL A   1      31.302  29.578  27.444  1.00  0.00     0.163 HD
ATOM     76  O   UNL A   1      31.448  27.354  27.135  1.00  0.00    -0.275 OA
BRANCH  74  77
ATOM     77  C   UNL A   1      31.952  27.532  24.789  1.00  0.00     0.096 C 
ATOM     78  C   UNL A   1      30.668  27.665  23.933  1.00  0.00     0.015 C 
ATOM     79  C   UNL A   1      32.603  26.139  24.584  1.00  0.00     0.082 C 
ATOM     80  C   UNL A   1      30.894  27.341  22.462  1.00  0.00     0.001 C 
ATOM     81  C   UNL A   1      32.835  25.887  23.088  1.00  0.00     0.021 C 
ATOM     82  C   UNL A   1      31.551  25.983  22.276  1.00  0.00     0.002 C 
BRANCH  79  83
ATOM     83  N   UNL A   1      31.789  25.072  25.204  1.00  0.00    -0.207 NA
ATOM     84  H   UNL A   1      31.317  24.611  24.427  1.00  0.00     0.141 HD
BRANCH  83  85
ATOM     85  S   UNL A   1      32.362  23.823  26.172  1.00  0.00     0.240 S 
ATOM     86  O   UNL A   1      33.757  24.152  26.411  1.00  0.00    -0.207 OA
ATOM     87  O   UNL A   1      31.442  23.630  27.261  1.00  0.00    -0.207 OA
BRANCH  85  88
ATOM     88  C   UNL A   1      32.342  22.365  25.156  1.00  0.00     0.083 A 
ATOM     89  C   UNL A   1      32.101  22.480  23.784  1.00  0.00     0.022 A 
ATOM     90  C   UNL A   1      32.506  21.105  25.733  1.00  0.00     0.030 A 
ATOM     91  C   UNL A   1      32.093  21.338  22.979  1.00  0.00     0.010 A 
ATOM     92  C   UNL A   1      32.565  19.964  24.919  1.00  0.00    -0.017 A 
ATOM     93  C   UNL A   1      32.358  20.075  23.526  1.00  0.00    -0.018 A 
ATOM     94  C   UNL A   1      32.857  18.711  25.463  1.00  0.00     0.009 A 
ATOM     95  C   UNL A   1      32.438  18.925  22.721  1.00  0.00     0.009 A 
ATOM     96  C   UNL A   1      33.000  17.595  24.645  1.00  0.00     0.001 A 
ATOM     97  C   UNL A   1      32.777  17.692  23.277  1.00  0.00     0.001 A 
ENDBRANCH  85  88
ENDBRANCH  83  85
ENDBRANCH  79  83
ENDBRANCH  74  77
ENDBRANCH  72  73
ENDBRANCH   1  72
TORSDOF 13
ENDMDL
