MODEL 1
REMARK VINA RESULT:     -14.0      0.000      0.000
REMARK SMILES O=C(NCCCNC(=O)c1ccccc1NC(=S)NC(=O)c1ccc2ccccc2c1)c1ccc(-c2c3nc(c(-c4c(F)c(F)c(F)c(F)c4F)c4ccc([nH]4)c(-c4c(F)c(F)c(F)c(F)c4F)c4nc(c(-c5c(F)c(F)c(F)c(F)c5F)c5ccc2[nH]5)C=C4)C=C3)cc1
REMARK SMILES IDX 6 1 5 2 4 3 3 4 1 5 2 6 32 8 33 9 94 10 34 11 93 12 35 13
REMARK SMILES IDX 36 14 37 15 87 16 38 17 92 18 86 19 88 20 39 21 91 22 85 23
REMARK SMILES IDX 84 24 40 26 72 27 52 28 71 29 53 30 56 31 70 32 89 33 54 34
REMARK SMILES IDX 55 35 69 37 90 38 57 39 41 40 42 41 50 42 43 43 44 44 48 45
REMARK SMILES IDX 51 46 45 47 46 48 49 49 47 50 73 51 74 52 82 53 75 54 76 55
REMARK SMILES IDX 80 56 83 57 77 58 78 59 81 60 79 61 58 62 59 63 67 64 60 65
REMARK SMILES IDX 61 66 65 67 68 68 62 69 63 70 66 71 64 72 7 73 8 74 9 76
REMARK SMILES IDX 10 77 11 78 15 79 12 80 14 81 13 82 16 83 17 85 18 86 19 87
REMARK SMILES IDX 20 88 21 90 22 91 23 92 31 93 24 94 30 95 25 96 29 97 26 98
REMARK SMILES IDX 28 99 27 100
REMARK H PARENT 3 7 88 25 56 36 7 75 16 84 19 89
REMARK Flexibility Score: inf
ROOT
ATOM      1  C   UNL A   1      32.139  30.585  26.308  1.00  0.00     0.118 C 
ENDROOT
BRANCH   1   2
ATOM      2  C   UNL A   1      31.701  31.945  26.790  1.00  0.00     0.042 C 
BRANCH   2   3
ATOM      3  C   UNL A   1      32.850  32.757  27.341  1.00  0.00     0.118 C 
BRANCH   3   4
ATOM      4  N   UNL A   1      32.485  34.136  27.656  1.00  0.00    -0.352 N 
ATOM      5  O   UNL A   1      32.476  36.064  28.835  1.00  0.00    -0.269 OA
ATOM      6  C   UNL A   1      32.992  34.976  28.618  1.00  0.00     0.251 C 
ATOM      7  H   UNL A   1      31.771  34.519  27.097  1.00  0.00     0.163 HD
BRANCH   6   8
ATOM      8  C   UNL A   1      34.143  34.518  29.416  1.00  0.00     0.039 A 
ATOM      9  C   UNL A   1      35.435  34.712  28.934  1.00  0.00     0.014 A 
ATOM     10  C   UNL A   1      33.926  33.805  30.595  1.00  0.00     0.014 A 
ATOM     11  C   UNL A   1      36.472  33.974  29.471  1.00  0.00     0.010 A 
ATOM     12  C   UNL A   1      35.010  33.206  31.239  1.00  0.00     0.010 A 
ATOM     13  C   UNL A   1      36.283  33.235  30.649  1.00  0.00    -0.014 A 
BRANCH  13  14
ATOM     14  C   UNL A   1      37.457  32.557  31.255  1.00  0.00     0.031 A 
ATOM     15  C   UNL A   1      37.951  32.916  32.629  1.00  0.00     0.074 A 
ATOM     16  C   UNL A   1      38.046  31.565  30.560  1.00  0.00     0.049 A 
ATOM     17  N   UNL A   1      38.939  32.390  33.310  1.00  0.00    -0.248 NA
ATOM     18  C   UNL A   1      37.261  34.011  33.328  1.00  0.00     0.031 C 
ATOM     19  C   UNL A   1      37.652  31.129  29.215  1.00  0.00     0.029 A 
ATOM     20  N   UNL A   1      39.077  30.725  30.886  1.00  0.00    -0.354 N 
ATOM     21  C   UNL A   1      39.007  33.104  34.499  1.00  0.00     0.074 A 
ATOM     22  C   UNL A   1      37.982  34.124  34.435  1.00  0.00     0.031 C 
ATOM     23  C   UNL A   1      38.379  30.062  28.865  1.00  0.00     0.029 A 
ATOM     24  C   UNL A   1      39.358  29.800  29.911  1.00  0.00     0.049 A 
ATOM     25  H   UNL A   1      39.569  30.778  31.737  1.00  0.00     0.167 HD
ATOM     26  C   UNL A   1      39.847  32.919  35.548  1.00  0.00     0.037 A 
ATOM     27  C   UNL A   1      40.316  28.860  29.847  1.00  0.00     0.037 A 
ATOM     28  C   UNL A   1      40.865  31.899  35.597  1.00  0.00     0.049 A 
ATOM     29  C   UNL A   1      41.267  28.722  31.000  1.00  0.00     0.074 A 
ATOM     30  C   UNL A   1      41.741  31.605  36.628  1.00  0.00     0.029 A 
ATOM     31  N   UNL A   1      41.157  31.018  34.565  1.00  0.00    -0.354 N 
ATOM     32  N   UNL A   1      41.293  29.374  32.137  1.00  0.00    -0.248 NA
ATOM     33  C   UNL A   1      42.321  27.711  30.861  1.00  0.00     0.031 C 
ATOM     34  C   UNL A   1      42.621  30.612  36.186  1.00  0.00     0.029 A 
ATOM     35  C   UNL A   1      42.228  30.210  34.920  1.00  0.00     0.049 A 
ATOM     36  H   UNL A   1      40.677  30.973  33.707  1.00  0.00     0.167 HD
ATOM     37  C   UNL A   1      42.340  28.827  32.864  1.00  0.00     0.074 A 
ATOM     38  C   UNL A   1      42.908  27.776  32.045  1.00  0.00     0.031 C 
ATOM     39  C   UNL A   1      42.785  29.162  34.101  1.00  0.00     0.037 A 
BRANCH  26  40
ATOM     40  C   UNL A   1      39.736  33.867  36.711  1.00  0.00     0.064 A 
ATOM     41  C   UNL A   1      38.948  33.582  37.838  1.00  0.00     0.173 A 
ATOM     42  C   UNL A   1      40.463  35.069  36.716  1.00  0.00     0.173 A 
ATOM     43  F   UNL A   1      38.226  32.451  37.890  1.00  0.00    -0.203 F 
ATOM     44  C   UNL A   1      38.862  34.478  38.901  1.00  0.00     0.198 A 
ATOM     45  C   UNL A   1      40.408  35.942  37.798  1.00  0.00     0.198 A 
ATOM     46  F   UNL A   1      41.243  35.391  35.672  1.00  0.00    -0.203 F 
ATOM     47  F   UNL A   1      38.053  34.211  39.936  1.00  0.00    -0.200 F 
ATOM     48  C   UNL A   1      39.598  35.653  38.883  1.00  0.00     0.200 A 
ATOM     49  F   UNL A   1      41.139  37.066  37.787  1.00  0.00    -0.200 F 
ATOM     50  F   UNL A   1      39.520  36.510  39.911  1.00  0.00    -0.200 F 
ENDBRANCH  26  40
BRANCH  27  51
ATOM     51  C   UNL A   1      40.428  27.990  28.647  1.00  0.00     0.064 A 
ATOM     52  C   UNL A   1      39.811  26.732  28.609  1.00  0.00     0.173 A 
ATOM     53  C   UNL A   1      41.164  28.390  27.521  1.00  0.00     0.173 A 
ATOM     54  F   UNL A   1      39.105  26.300  29.665  1.00  0.00    -0.203 F 
ATOM     55  C   UNL A   1      39.958  25.893  27.508  1.00  0.00     0.198 A 
ATOM     56  C   UNL A   1      41.273  27.568  26.402  1.00  0.00     0.198 A 
ATOM     57  F   UNL A   1      41.763  29.589  27.499  1.00  0.00    -0.203 F 
ATOM     58  F   UNL A   1      39.414  24.669  27.526  1.00  0.00    -0.200 F 
ATOM     59  C   UNL A   1      40.684  26.313  26.404  1.00  0.00     0.200 A 
ATOM     60  F   UNL A   1      41.953  27.990  25.329  1.00  0.00    -0.200 F 
ATOM     61  F   UNL A   1      40.823  25.506  25.344  1.00  0.00    -0.200 F 
ENDBRANCH  27  51
BRANCH  39  62
ATOM     62  C   UNL A   1      43.901  28.333  34.675  1.00  0.00     0.064 A 
ATOM     63  C   UNL A   1      43.665  27.156  35.403  1.00  0.00     0.173 A 
ATOM     64  C   UNL A   1      45.236  28.725  34.485  1.00  0.00     0.173 A 
ATOM     65  F   UNL A   1      42.409  26.739  35.626  1.00  0.00    -0.203 F 
ATOM     66  C   UNL A   1      44.718  26.434  35.960  1.00  0.00     0.198 A 
ATOM     67  C   UNL A   1      46.288  27.975  35.002  1.00  0.00     0.198 A 
ATOM     68  F   UNL A   1      45.524  29.836  33.790  1.00  0.00    -0.203 F 
ATOM     69  F   UNL A   1      44.462  25.361  36.721  1.00  0.00    -0.200 F 
ATOM     70  C   UNL A   1      46.028  26.839  35.753  1.00  0.00     0.200 A 
ATOM     71  F   UNL A   1      47.553  28.356  34.778  1.00  0.00    -0.200 F 
ATOM     72  F   UNL A   1      47.040  26.143  36.287  1.00  0.00    -0.200 F 
ENDBRANCH  39  62
ENDBRANCH  13  14
ENDBRANCH   6   8
ENDBRANCH   3   4
ENDBRANCH   2   3
ENDBRANCH   1   2
BRANCH   1  73
ATOM     73  N   UNL A   1      31.684  29.518  27.192  1.00  0.00    -0.352 N 
ATOM     74  C   UNL A   1      31.835  28.193  27.057  1.00  0.00     0.253 C 
ATOM     75  H   UNL A   1      31.201  29.811  27.997  1.00  0.00     0.163 HD
ATOM     76  O   UNL A   1      31.285  27.351  27.774  1.00  0.00    -0.269 OA
BRANCH  74  77
ATOM     77  C   UNL A   1      32.356  27.730  25.853  1.00  0.00     0.063 A 
ATOM     78  C   UNL A   1      33.470  27.101  26.269  1.00  0.00     0.016 A 
ATOM     79  C   UNL A   1      31.787  27.542  24.514  1.00  0.00     0.053 A 
ATOM     80  C   UNL A   1      33.747  26.362  25.340  1.00  0.00     0.001 A 
ATOM     81  C   UNL A   1      32.490  27.103  23.487  1.00  0.00     0.027 A 
ATOM     82  C   UNL A   1      33.323  26.313  24.067  1.00  0.00     0.002 A 
BRANCH  79  83
ATOM     83  N   UNL A   1      30.450  27.501  24.268  1.00  0.00    -0.332 N 
ATOM     84  H   UNL A   1      30.084  28.256  23.753  1.00  0.00     0.169 HD
BRANCH  83  85
ATOM     85  C   UNL A   1      29.557  26.548  24.644  1.00  0.00     0.177 C 
ATOM     86  S   UNL A   1      28.088  26.664  23.844  1.00  0.00    -0.040 S 
BRANCH  85  87
ATOM     87  N   UNL A   1      29.793  25.512  25.645  1.00  0.00    -0.299 N 
ATOM     88  C   UNL A   1      30.358  24.146  26.265  1.00  0.00     0.257 C 
ATOM     89  H   UNL A   1      29.303  25.880  26.416  1.00  0.00     0.172 HD
ATOM     90  O   UNL A   1      29.681  23.839  27.265  1.00  0.00    -0.269 OA
BRANCH  88  91
ATOM     91  C   UNL A   1      31.630  23.009  25.766  1.00  0.00     0.040 A 
ATOM     92  C   UNL A   1      31.663  22.422  24.221  1.00  0.00     0.014 A 
ATOM     93  C   UNL A   1      33.147  23.135  26.448  1.00  0.00     0.022 A 
ATOM     94  C   UNL A   1      33.179  22.211  23.468  1.00  0.00     0.009 A 
ATOM     95  C   UNL A   1      34.683  22.830  25.746  1.00  0.00    -0.018 A 
ATOM     96  C   UNL A   1      34.700  22.397  24.177  1.00  0.00    -0.018 A 
ATOM     97  C   UNL A   1      36.072  23.467  26.199  1.00  0.00     0.009 A 
ATOM     98  C   UNL A   1      36.082  22.790  23.447  1.00  0.00     0.009 A 
ATOM     99  C   UNL A   1      37.300  23.582  25.424  1.00  0.00     0.001 A 
ATOM    100  C   UNL A   1      37.303  23.261  24.069  1.00  0.00     0.001 A 
ENDBRANCH  88  91
ENDBRANCH  85  87
ENDBRANCH  83  85
ENDBRANCH  79  83
ENDBRANCH  74  77
ENDBRANCH   1  73
TORSDOF 14
ENDMDL
MODEL 2
REMARK VINA RESULT:     -14.0      0.374      7.215
REMARK SMILES O=C(NCCCNC(=O)c1ccccc1NC(=S)NC(=O)c1ccc2ccccc2c1)c1ccc(-c2c3nc(c(-c4c(F)c(F)c(F)c(F)c4F)c4ccc([nH]4)c(-c4c(F)c(F)c(F)c(F)c4F)c4nc(c(-c5c(F)c(F)c(F)c(F)c5F)c5ccc2[nH]5)C=C4)C=C3)cc1
REMARK SMILES IDX 6 1 5 2 4 3 3 4 1 5 2 6 32 8 33 9 94 10 34 11 93 12 35 13
REMARK SMILES IDX 36 14 37 15 87 16 38 17 92 18 86 19 88 20 39 21 91 22 85 23
REMARK SMILES IDX 84 24 40 26 72 27 52 28 71 29 53 30 56 31 70 32 89 33 54 34
REMARK SMILES IDX 55 35 69 37 90 38 57 39 41 40 42 41 50 42 43 43 44 44 48 45
REMARK SMILES IDX 51 46 45 47 46 48 49 49 47 50 73 51 74 52 82 53 75 54 76 55
REMARK SMILES IDX 80 56 83 57 77 58 78 59 81 60 79 61 58 62 59 63 67 64 60 65
REMARK SMILES IDX 61 66 65 67 68 68 62 69 63 70 66 71 64 72 7 73 8 74 9 76
REMARK SMILES IDX 10 77 11 78 15 79 12 80 14 81 13 82 16 83 17 85 18 86 19 87
REMARK SMILES IDX 20 88 21 90 22 91 23 92 31 93 24 94 30 95 25 96 29 97 26 98
REMARK SMILES IDX 28 99 27 100
REMARK H PARENT 3 7 88 25 56 36 7 75 16 84 19 89
REMARK Flexibility Score: inf
ROOT
ATOM      1  C   UNL A   1      32.113  30.655  26.297  1.00  0.00     0.118 C 
ENDROOT
BRANCH   1   2
ATOM      2  C   UNL A   1      31.690  32.018  26.781  1.00  0.00     0.042 C 
BRANCH   2   3
ATOM      3  C   UNL A   1      32.846  32.814  27.340  1.00  0.00     0.118 C 
BRANCH   3   4
ATOM      4  N   UNL A   1      32.497  34.197  27.657  1.00  0.00    -0.352 N 
ATOM      5  O   UNL A   1      32.492  36.117  28.850  1.00  0.00    -0.269 OA
ATOM      6  C   UNL A   1      32.995  35.022  28.636  1.00  0.00     0.251 C 
ATOM      7  H   UNL A   1      31.802  34.596  27.084  1.00  0.00     0.163 HD
BRANCH   6   8
ATOM      8  C   UNL A   1      34.119  34.538  29.457  1.00  0.00     0.039 A 
ATOM      9  C   UNL A   1      35.416  34.608  28.956  1.00  0.00     0.014 A 
ATOM     10  C   UNL A   1      33.866  33.924  30.683  1.00  0.00     0.014 A 
ATOM     11  C   UNL A   1      36.406  33.837  29.536  1.00  0.00     0.010 A 
ATOM     12  C   UNL A   1      34.912  33.295  31.360  1.00  0.00     0.010 A 
ATOM     13  C   UNL A   1      36.177  33.195  30.762  1.00  0.00    -0.014 A 
BRANCH  13  14
ATOM     14  C   UNL A   1      37.308  32.478  31.406  1.00  0.00     0.031 A 
ATOM     15  C   UNL A   1      38.031  31.360  30.708  1.00  0.00     0.074 A 
ATOM     16  C   UNL A   1      37.708  32.888  32.625  1.00  0.00     0.049 A 
ATOM     17  N   UNL A   1      39.059  30.662  31.122  1.00  0.00    -0.248 NA
ATOM     18  C   UNL A   1      37.536  30.963  29.381  1.00  0.00     0.031 C 
ATOM     19  C   UNL A   1      37.081  33.965  33.400  1.00  0.00     0.029 A 
ATOM     20  N   UNL A   1      38.748  32.479  33.417  1.00  0.00    -0.354 N 
ATOM     21  C   UNL A   1      39.315  29.730  30.125  1.00  0.00     0.074 A 
ATOM     22  C   UNL A   1      38.315  29.928  29.099  1.00  0.00     0.031 C 
ATOM     23  C   UNL A   1      37.788  34.177  34.515  1.00  0.00     0.029 A 
ATOM     24  C   UNL A   1      38.856  33.190  34.587  1.00  0.00     0.049 A 
ATOM     25  H   UNL A   1      39.358  31.747  33.171  1.00  0.00     0.167 HD
ATOM     26  C   UNL A   1      40.300  28.798  30.073  1.00  0.00     0.037 A 
ATOM     27  C   UNL A   1      39.702  33.047  35.621  1.00  0.00     0.037 A 
ATOM     28  C   UNL A   1      41.290  28.611  31.104  1.00  0.00     0.049 A 
ATOM     29  C   UNL A   1      40.742  31.968  35.557  1.00  0.00     0.074 A 
ATOM     30  C   UNL A   1      42.350  27.722  31.130  1.00  0.00     0.029 A 
ATOM     31  N   UNL A   1      41.332  29.313  32.302  1.00  0.00    -0.354 N 
ATOM     32  N   UNL A   1      41.001  31.121  34.591  1.00  0.00    -0.248 NA
ATOM     33  C   UNL A   1      41.611  31.827  36.731  1.00  0.00     0.031 C 
ATOM     34  C   UNL A   1      42.975  27.820  32.377  1.00  0.00     0.029 A 
ATOM     35  C   UNL A   1      42.374  28.845  33.090  1.00  0.00     0.049 A 
ATOM     36  H   UNL A   1      40.713  30.035  32.557  1.00  0.00     0.167 HD
ATOM     37  C   UNL A   1      42.087  30.374  35.022  1.00  0.00     0.074 A 
ATOM     38  C   UNL A   1      42.447  30.883  36.329  1.00  0.00     0.031 C 
ATOM     39  C   UNL A   1      42.730  29.361  34.388  1.00  0.00     0.037 A 
BRANCH  26  40
ATOM     40  C   UNL A   1      40.331  27.875  28.885  1.00  0.00     0.064 A 
ATOM     41  C   UNL A   1      41.060  28.175  27.723  1.00  0.00     0.173 A 
ATOM     42  C   UNL A   1      39.648  26.648  28.925  1.00  0.00     0.173 A 
ATOM     43  F   UNL A   1      41.729  29.334  27.623  1.00  0.00    -0.203 F 
ATOM     44  C   UNL A   1      41.070  27.302  26.636  1.00  0.00     0.198 A 
ATOM     45  C   UNL A   1      39.695  25.761  27.855  1.00  0.00     0.198 A 
ATOM     46  F   UNL A   1      38.943  26.303  30.014  1.00  0.00    -0.203 F 
ATOM     47  F   UNL A   1      41.722  27.641  25.515  1.00  0.00    -0.200 F 
ATOM     48  C   UNL A   1      40.395  26.093  26.706  1.00  0.00     0.200 A 
ATOM     49  F   UNL A   1      39.060  24.583  27.935  1.00  0.00    -0.200 F 
ATOM     50  F   UNL A   1      40.413  25.252  25.663  1.00  0.00    -0.200 F 
ENDBRANCH  26  40
BRANCH  27  51
ATOM     51  C   UNL A   1      39.590  33.941  36.804  1.00  0.00     0.064 A 
ATOM     52  C   UNL A   1      38.839  33.562  37.925  1.00  0.00     0.173 A 
ATOM     53  C   UNL A   1      40.218  35.196  36.833  1.00  0.00     0.173 A 
ATOM     54  F   UNL A   1      38.211  32.378  37.941  1.00  0.00    -0.203 F 
ATOM     55  C   UNL A   1      38.688  34.420  39.012  1.00  0.00     0.198 A 
ATOM     56  C   UNL A   1      40.103  36.034  37.940  1.00  0.00     0.198 A 
ATOM     57  F   UNL A   1      40.960  35.602  35.793  1.00  0.00    -0.203 F 
ATOM     58  F   UNL A   1      37.908  34.060  40.040  1.00  0.00    -0.200 F 
ATOM     59  C   UNL A   1      39.324  35.652  39.021  1.00  0.00     0.200 A 
ATOM     60  F   UNL A   1      40.741  37.211  37.954  1.00  0.00    -0.200 F 
ATOM     61  F   UNL A   1      39.180  36.475  40.068  1.00  0.00    -0.200 F 
ENDBRANCH  27  51
BRANCH  39  62
ATOM     62  C   UNL A   1      43.939  28.783  35.073  1.00  0.00     0.064 A 
ATOM     63  C   UNL A   1      45.234  29.281  34.858  1.00  0.00     0.173 A 
ATOM     64  C   UNL A   1      43.792  27.710  35.967  1.00  0.00     0.173 A 
ATOM     65  F   UNL A   1      45.435  30.296  34.005  1.00  0.00    -0.203 F 
ATOM     66  C   UNL A   1      46.337  28.694  35.472  1.00  0.00     0.198 A 
ATOM     67  C   UNL A   1      44.892  27.159  36.617  1.00  0.00     0.198 A 
ATOM     68  F   UNL A   1      42.578  27.198  36.219  1.00  0.00    -0.203 F 
ATOM     69  F   UNL A   1      47.571  29.134  35.187  1.00  0.00    -0.200 F 
ATOM     70  C   UNL A   1      46.166  27.640  36.356  1.00  0.00     0.200 A 
ATOM     71  F   UNL A   1      44.720  26.156  37.489  1.00  0.00    -0.200 F 
ATOM     72  F   UNL A   1      47.229  27.079  36.948  1.00  0.00    -0.200 F 
ENDBRANCH  39  62
ENDBRANCH  13  14
ENDBRANCH   6   8
ENDBRANCH   3   4
ENDBRANCH   2   3
ENDBRANCH   1   2
BRANCH   1  73
ATOM     73  N   UNL A   1      31.674  29.593  27.195  1.00  0.00    -0.352 N 
ATOM     74  C   UNL A   1      31.846  28.269  27.080  1.00  0.00     0.253 C 
ATOM     75  H   UNL A   1      31.185  29.890  27.996  1.00  0.00     0.163 HD
ATOM     76  O   UNL A   1      31.308  27.429  27.809  1.00  0.00    -0.269 OA
BRANCH  74  77
ATOM     77  C   UNL A   1      32.376  27.797  25.884  1.00  0.00     0.063 A 
ATOM     78  C   UNL A   1      33.485  27.169  26.313  1.00  0.00     0.016 A 
ATOM     79  C   UNL A   1      31.817  27.601  24.541  1.00  0.00     0.053 A 
ATOM     80  C   UNL A   1      33.768  26.423  25.391  1.00  0.00     0.001 A 
ATOM     81  C   UNL A   1      32.528  27.154  23.523  1.00  0.00     0.027 A 
ATOM     82  C   UNL A   1      33.355  26.366  24.115  1.00  0.00     0.002 A 
BRANCH  79  83
ATOM     83  N   UNL A   1      30.482  27.560  24.284  1.00  0.00    -0.332 N 
ATOM     84  H   UNL A   1      30.118  28.319  23.774  1.00  0.00     0.169 HD
BRANCH  83  85
ATOM     85  C   UNL A   1      29.588  26.602  24.644  1.00  0.00     0.177 C 
ATOM     86  S   UNL A   1      28.121  26.730  23.842  1.00  0.00    -0.040 S 
BRANCH  85  87
ATOM     87  N   UNL A   1      29.820  25.552  25.632  1.00  0.00    -0.299 N 
ATOM     88  C   UNL A   1      30.378  24.175  26.233  1.00  0.00     0.257 C 
ATOM     89  H   UNL A   1      29.337  25.914  26.409  1.00  0.00     0.172 HD
ATOM     90  O   UNL A   1      29.703  23.861  27.232  1.00  0.00    -0.269 OA
BRANCH  88  91
ATOM     91  C   UNL A   1      31.640  23.035  25.714  1.00  0.00     0.040 A 
ATOM     92  C   UNL A   1      31.681  22.491  24.154  1.00  0.00     0.014 A 
ATOM     93  C   UNL A   1      33.151  23.119  26.414  1.00  0.00     0.022 A 
ATOM     94  C   UNL A   1      33.201  22.281  23.410  1.00  0.00     0.009 A 
ATOM     95  C   UNL A   1      34.689  22.813  25.720  1.00  0.00    -0.018 A 
ATOM     96  C   UNL A   1      34.717  22.425  24.139  1.00  0.00    -0.018 A 
ATOM     97  C   UNL A   1      36.083  23.416  26.205  1.00  0.00     0.009 A 
ATOM     98  C   UNL A   1      36.112  22.819  23.435  1.00  0.00     0.009 A 
ATOM     99  C   UNL A   1      37.320  23.536  25.446  1.00  0.00     0.001 A 
ATOM    100  C   UNL A   1      37.332  23.254  24.083  1.00  0.00     0.001 A 
ENDBRANCH  88  91
ENDBRANCH  85  87
ENDBRANCH  83  85
ENDBRANCH  79  83
ENDBRANCH  74  77
ENDBRANCH   1  73
TORSDOF 14
ENDMDL
MODEL 3
REMARK VINA RESULT:     -14.0      0.131      1.901
REMARK SMILES O=C(NCCCNC(=O)c1ccccc1NC(=S)NC(=O)c1ccc2ccccc2c1)c1ccc(-c2c3nc(c(-c4c(F)c(F)c(F)c(F)c4F)c4ccc([nH]4)c(-c4c(F)c(F)c(F)c(F)c4F)c4nc(c(-c5c(F)c(F)c(F)c(F)c5F)c5ccc2[nH]5)C=C4)C=C3)cc1
REMARK SMILES IDX 6 1 5 2 4 3 3 4 1 5 2 6 32 8 33 9 94 10 34 11 93 12 35 13
REMARK SMILES IDX 36 14 37 15 87 16 38 17 92 18 86 19 88 20 39 21 91 22 85 23
REMARK SMILES IDX 84 24 40 26 72 27 52 28 71 29 53 30 56 31 70 32 89 33 54 34
REMARK SMILES IDX 55 35 69 37 90 38 57 39 41 40 42 41 50 42 43 43 44 44 48 45
REMARK SMILES IDX 51 46 45 47 46 48 49 49 47 50 73 51 74 52 82 53 75 54 76 55
REMARK SMILES IDX 80 56 83 57 77 58 78 59 81 60 79 61 58 62 59 63 67 64 60 65
REMARK SMILES IDX 61 66 65 67 68 68 62 69 63 70 66 71 64 72 7 73 8 74 9 76
REMARK SMILES IDX 10 77 11 78 15 79 12 80 14 81 13 82 16 83 17 85 18 86 19 87
REMARK SMILES IDX 20 88 21 90 22 91 23 92 31 93 24 94 30 95 25 96 29 97 26 98
REMARK SMILES IDX 28 99 27 100
REMARK H PARENT 3 7 88 25 56 36 7 75 16 84 19 89
REMARK Flexibility Score: inf
ROOT
ATOM      1  C   UNL A   1      32.191  30.523  26.262  1.00  0.00     0.118 C 
ENDROOT
BRANCH   1   2
ATOM      2  C   UNL A   1      31.727  31.876  26.735  1.00  0.00     0.042 C 
BRANCH   2   3
ATOM      3  C   UNL A   1      32.842  32.677  27.367  1.00  0.00     0.118 C 
BRANCH   3   4
ATOM      4  N   UNL A   1      32.468  34.058  27.660  1.00  0.00    -0.352 N 
ATOM      5  O   UNL A   1      32.452  36.009  28.803  1.00  0.00    -0.269 OA
ATOM      6  C   UNL A   1      32.976  34.921  28.601  1.00  0.00     0.251 C 
ATOM      7  H   UNL A   1      31.745  34.425  27.101  1.00  0.00     0.163 HD
BRANCH   6   8
ATOM      8  C   UNL A   1      34.138  34.487  29.397  1.00  0.00     0.039 A 
ATOM      9  C   UNL A   1      35.420  34.620  28.870  1.00  0.00     0.014 A 
ATOM     10  C   UNL A   1      33.938  33.857  30.625  1.00  0.00     0.014 A 
ATOM     11  C   UNL A   1      36.456  33.893  29.427  1.00  0.00     0.010 A 
ATOM     12  C   UNL A   1      35.026  33.275  31.278  1.00  0.00     0.010 A 
ATOM     13  C   UNL A   1      36.282  33.236  30.654  1.00  0.00    -0.014 A 
BRANCH  13  14
ATOM     14  C   UNL A   1      37.457  32.570  31.272  1.00  0.00     0.031 A 
ATOM     15  C   UNL A   1      37.928  32.927  32.654  1.00  0.00     0.074 A 
ATOM     16  C   UNL A   1      38.070  31.592  30.578  1.00  0.00     0.049 A 
ATOM     17  N   UNL A   1      38.915  32.412  33.345  1.00  0.00    -0.248 NA
ATOM     18  C   UNL A   1      37.214  34.009  33.351  1.00  0.00     0.031 C 
ATOM     19  C   UNL A   1      37.700  31.158  29.226  1.00  0.00     0.029 A 
ATOM     20  N   UNL A   1      39.108  30.763  30.913  1.00  0.00    -0.354 N 
ATOM     21  C   UNL A   1      38.956  33.119  34.540  1.00  0.00     0.074 A 
ATOM     22  C   UNL A   1      37.918  34.124  34.468  1.00  0.00     0.031 C 
ATOM     23  C   UNL A   1      38.447  30.104  28.879  1.00  0.00     0.029 A 
ATOM     24  C   UNL A   1      39.415  29.849  29.936  1.00  0.00     0.049 A 
ATOM     25  H   UNL A   1      39.587  30.818  31.771  1.00  0.00     0.167 HD
ATOM     26  C   UNL A   1      39.784  32.939  35.598  1.00  0.00     0.037 A 
ATOM     27  C   UNL A   1      40.387  28.923  29.880  1.00  0.00     0.037 A 
ATOM     28  C   UNL A   1      40.816  31.933  35.655  1.00  0.00     0.049 A 
ATOM     29  C   UNL A   1      41.324  28.790  31.045  1.00  0.00     0.074 A 
ATOM     30  C   UNL A   1      41.682  31.645  36.696  1.00  0.00     0.029 A 
ATOM     31  N   UNL A   1      41.134  31.062  34.621  1.00  0.00    -0.354 N 
ATOM     32  N   UNL A   1      41.326  29.436  32.186  1.00  0.00    -0.248 NA
ATOM     33  C   UNL A   1      42.394  27.795  30.914  1.00  0.00     0.031 C 
ATOM     34  C   UNL A   1      42.581  30.667  36.260  1.00  0.00     0.029 A 
ATOM     35  C   UNL A   1      42.211  30.267  34.986  1.00  0.00     0.049 A 
ATOM     36  H   UNL A   1      40.666  31.016  33.757  1.00  0.00     0.167 HD
ATOM     37  C   UNL A   1      42.370  28.898  32.924  1.00  0.00     0.074 A 
ATOM     38  C   UNL A   1      42.964  27.861  32.106  1.00  0.00     0.031 C 
ATOM     39  C   UNL A   1      42.794  29.232  34.168  1.00  0.00     0.037 A 
BRANCH  26  40
ATOM     40  C   UNL A   1      39.645  33.877  36.766  1.00  0.00     0.064 A 
ATOM     41  C   UNL A   1      40.259  35.140  36.790  1.00  0.00     0.173 A 
ATOM     42  C   UNL A   1      38.850  33.521  37.868  1.00  0.00     0.173 A 
ATOM     43  F   UNL A   1      41.035  35.534  35.769  1.00  0.00    -0.203 F 
ATOM     44  C   UNL A   1      40.115  35.989  37.886  1.00  0.00     0.198 A 
ATOM     45  C   UNL A   1      38.674  34.389  38.942  1.00  0.00     0.198 A 
ATOM     46  F   UNL A   1      38.229  32.332  37.897  1.00  0.00    -0.203 F 
ATOM     47  F   UNL A   1      40.764  37.162  37.911  1.00  0.00    -0.200 F 
ATOM     48  C   UNL A   1      39.317  35.616  38.956  1.00  0.00     0.200 A 
ATOM     49  F   UNL A   1      37.883  34.035  39.965  1.00  0.00    -0.200 F 
ATOM     50  F   UNL A   1      39.173  36.438  40.005  1.00  0.00    -0.200 F 
ENDBRANCH  26  40
BRANCH  27  51
ATOM     51  C   UNL A   1      40.527  28.062  28.676  1.00  0.00     0.064 A 
ATOM     52  C   UNL A   1      41.271  28.489  27.568  1.00  0.00     0.173 A 
ATOM     53  C   UNL A   1      39.910  26.804  28.602  1.00  0.00     0.173 A 
ATOM     54  F   UNL A   1      41.871  29.688  27.586  1.00  0.00    -0.203 F 
ATOM     55  C   UNL A   1      41.360  27.709  26.418  1.00  0.00     0.198 A 
ATOM     56  C   UNL A   1      40.037  26.005  27.468  1.00  0.00     0.198 A 
ATOM     57  F   UNL A   1      39.198  26.341  29.639  1.00  0.00    -0.203 F 
ATOM     58  F   UNL A   1      42.021  28.171  25.348  1.00  0.00    -0.200 F 
ATOM     59  C   UNL A   1      40.748  26.465  26.371  1.00  0.00     0.200 A 
ATOM     60  F   UNL A   1      39.466  24.794  27.439  1.00  0.00    -0.200 F 
ATOM     61  F   UNL A   1      40.836  25.715  25.265  1.00  0.00    -0.200 F 
ENDBRANCH  27  51
BRANCH  39  62
ATOM     62  C   UNL A   1      43.914  28.415  34.753  1.00  0.00     0.064 A 
ATOM     63  C   UNL A   1      45.262  28.786  34.624  1.00  0.00     0.173 A 
ATOM     64  C   UNL A   1      43.627  27.237  35.461  1.00  0.00     0.173 A 
ATOM     65  F   UNL A   1      45.595  29.896  33.947  1.00  0.00    -0.203 F 
ATOM     66  C   UNL A   1      46.278  27.984  35.137  1.00  0.00     0.198 A 
ATOM     67  C   UNL A   1      44.643  26.464  36.015  1.00  0.00     0.198 A 
ATOM     68  F   UNL A   1      42.357  26.835  35.625  1.00  0.00    -0.203 F 
ATOM     69  F   UNL A   1      47.559  28.318  34.929  1.00  0.00    -0.200 F 
ATOM     70  C   UNL A   1      45.969  26.829  35.838  1.00  0.00     0.200 A 
ATOM     71  F   UNL A   1      44.338  25.362  36.713  1.00  0.00    -0.200 F 
ATOM     72  F   UNL A   1      46.947  26.061  36.334  1.00  0.00    -0.200 F 
ENDBRANCH  39  62
ENDBRANCH  13  14
ENDBRANCH   6   8
ENDBRANCH   3   4
ENDBRANCH   2   3
ENDBRANCH   1   2
BRANCH   1  73
ATOM     73  N   UNL A   1      31.743  29.451  27.144  1.00  0.00    -0.352 N 
ATOM     74  C   UNL A   1      31.889  28.126  26.999  1.00  0.00     0.253 C 
ATOM     75  H   UNL A   1      31.270  29.740  27.957  1.00  0.00     0.163 HD
ATOM     76  O   UNL A   1      31.345  27.282  27.718  1.00  0.00    -0.269 OA
BRANCH  74  77
ATOM     77  C   UNL A   1      32.394  27.670  25.787  1.00  0.00     0.063 A 
ATOM     78  C   UNL A   1      33.506  27.027  26.186  1.00  0.00     0.016 A 
ATOM     79  C   UNL A   1      31.810  27.499  24.452  1.00  0.00     0.053 A 
ATOM     80  C   UNL A   1      33.767  26.293  25.248  1.00  0.00     0.001 A 
ATOM     81  C   UNL A   1      32.500  27.063  23.414  1.00  0.00     0.027 A 
ATOM     82  C   UNL A   1      33.331  26.260  23.979  1.00  0.00     0.002 A 
BRANCH  79  83
ATOM     83  N   UNL A   1      30.470  27.472  24.217  1.00  0.00    -0.332 N 
ATOM     84  H   UNL A   1      30.111  28.220  23.688  1.00  0.00     0.169 HD
BRANCH  83  85
ATOM     85  C   UNL A   1      29.567  26.542  24.623  1.00  0.00     0.177 C 
ATOM     86  S   UNL A   1      28.079  26.688  23.863  1.00  0.00    -0.040 S 
BRANCH  85  87
ATOM     87  N   UNL A   1      29.807  25.506  25.624  1.00  0.00    -0.299 N 
ATOM     88  C   UNL A   1      30.370  24.137  26.240  1.00  0.00     0.257 C 
ATOM     89  H   UNL A   1      29.328  25.878  26.399  1.00  0.00     0.172 HD
ATOM     90  O   UNL A   1      29.702  23.836  27.247  1.00  0.00    -0.269 OA
BRANCH  88  91
ATOM     91  C   UNL A   1      31.630  22.992  25.729  1.00  0.00     0.040 A 
ATOM     92  C   UNL A   1      31.674  22.443  24.170  1.00  0.00     0.014 A 
ATOM     93  C   UNL A   1      33.139  23.074  26.434  1.00  0.00     0.022 A 
ATOM     94  C   UNL A   1      33.196  22.225  23.433  1.00  0.00     0.009 A 
ATOM     95  C   UNL A   1      34.679  22.761  25.745  1.00  0.00    -0.018 A 
ATOM     96  C   UNL A   1      34.711  22.368  24.166  1.00  0.00    -0.018 A 
ATOM     97  C   UNL A   1      36.073  23.363  26.232  1.00  0.00     0.009 A 
ATOM     98  C   UNL A   1      36.109  22.755  23.465  1.00  0.00     0.009 A 
ATOM     99  C   UNL A   1      37.313  23.475  25.477  1.00  0.00     0.001 A 
ATOM    100  C   UNL A   1      37.328  23.189  24.115  1.00  0.00     0.001 A 
ENDBRANCH  88  91
ENDBRANCH  85  87
ENDBRANCH  83  85
ENDBRANCH  79  83
ENDBRANCH  74  77
ENDBRANCH   1  73
TORSDOF 14
ENDMDL
