MODEL 1
REMARK VINA RESULT:      -9.9      0.000      0.000
REMARK SMILES COc1cc([C@H]2CC(c3ccc(S(C)(=O)=O)cc3)=NN2c2ccc(C(=O)NCCCNC(=O)c3ccc(-c4c5nc(c(-c6c(F)c(F)c(F)c(F)c6F)c6ccc([nH]6)c(-c6c(F)c(F)c(F)c(F)c6F)c6nc(c(-c7c(F)c(F)c(F)c(F)c7F)c7ccc4[nH]7)C=C6)C=C5)cc3)cc2)cc(OC)c1OC
REMARK SMILES IDX 28 1 27 2 25 3 26 4 24 6 21 7 22 8 98 9 23 10 97 11 20 12
REMARK SMILES IDX 6 13 7 14 8 15 19 16 5 17 3 18 4 19 103 20 100 21 99 22 2 23
REMARK SMILES IDX 1 24 104 25 105 26 101 27 102 28 9 29 10 30 18 31 11 32
REMARK SMILES IDX 17 33 12 34 13 35 14 36 15 37 16 38 29 39 30 40 31 41 32 42
REMARK SMILES IDX 33 44 34 45 35 46 96 47 36 48 95 49 37 50 38 51 39 52 89 53
REMARK SMILES IDX 40 54 94 55 88 56 90 57 41 58 93 59 87 60 86 61 42 63 74 64
REMARK SMILES IDX 54 65 73 66 55 67 58 68 72 69 91 70 56 71 57 72 71 74 92 75
REMARK SMILES IDX 59 76 43 77 44 78 52 79 45 80 46 81 50 82 53 83 47 84 48 85
REMARK SMILES IDX 51 86 49 87 75 88 76 89 84 90 77 91 78 92 82 93 85 94 79 95
REMARK SMILES IDX 80 96 83 97 81 98 60 99 61 100 69 101 62 102 63 103 67 104
REMARK SMILES IDX 70 105 64 106 65 107 68 108 66 109
REMARK H PARENT 27 5 31 43 90 62 58 73
REMARK Flexibility Score: inf
ROOT
ATOM      1  C   UNL A   1      36.907  33.871  29.895  1.00  0.00     0.118 C 
ENDROOT
BRANCH   1   2
ATOM      2  N   UNL A   1      36.300  34.606  30.987  1.00  0.00    -0.352 N 
ATOM      3  C   UNL A   1      36.565  34.642  32.332  1.00  0.00     0.251 C 
ATOM      4  O   UNL A   1      35.885  35.401  33.022  1.00  0.00    -0.269 OA
ATOM      5  H   UNL A   1      35.557  35.190  30.711  1.00  0.00     0.163 HD
BRANCH   3   6
ATOM      6  C   UNL A   1      37.657  33.856  32.968  1.00  0.00     0.039 A 
ATOM      7  C   UNL A   1      39.589  32.246  34.255  1.00  0.00     0.060 A 
ATOM      8  C   UNL A   1      38.322  31.738  33.949  1.00  0.00     0.029 A 
ATOM      9  C   UNL A   1      39.896  33.548  33.862  1.00  0.00     0.029 A 
ATOM     10  C   UNL A   1      37.359  32.536  33.330  1.00  0.00     0.016 A 
ATOM     11  C   UNL A   1      38.952  34.332  33.190  1.00  0.00     0.016 A 
BRANCH   7  12
ATOM     12  N   UNL A   1      40.511  31.462  34.918  1.00  0.00    -0.257 N 
ATOM     13  C   UNL A   1      41.334  31.903  36.045  1.00  0.00     0.144 C 
ATOM     14  C   UNL A   1      42.162  30.642  36.353  1.00  0.00     0.091 C 
ATOM     15  C   UNL A   1      41.691  29.736  35.246  1.00  0.00     0.071 C 
ATOM     16  N   UNL A   1      40.774  30.215  34.468  1.00  0.00    -0.176 NA
BRANCH  13  17
ATOM     17  C   UNL A   1      40.461  32.394  37.191  1.00  0.00    -0.015 A 
ATOM     18  C   UNL A   1      40.021  33.972  39.005  1.00  0.00     0.164 A 
ATOM     19  C   UNL A   1      40.888  33.420  38.042  1.00  0.00     0.056 A 
ATOM     20  C   UNL A   1      38.688  33.536  39.125  1.00  0.00     0.203 A 
ATOM     21  C   UNL A   1      38.266  32.480  38.290  1.00  0.00     0.164 A 
ATOM     22  C   UNL A   1      39.152  31.926  37.349  1.00  0.00     0.056 A 
BRANCH  18  23
ATOM     23  O   UNL A   1      40.506  35.037  39.725  1.00  0.00    -0.493 OA
ATOM     24  C   UNL A   1      40.703  36.186  38.899  1.00  0.00     0.278 C 
ENDBRANCH  18  23
BRANCH  20  25
ATOM     25  O   UNL A   1      37.739  34.056  39.960  1.00  0.00    -0.490 OA
ATOM     26  C   UNL A   1      37.648  33.667  41.317  1.00  0.00     0.278 C 
ENDBRANCH  20  25
BRANCH  21  27
ATOM     27  O   UNL A   1      37.040  31.865  38.233  1.00  0.00    -0.493 OA
ATOM     28  C   UNL A   1      36.723  30.853  39.173  1.00  0.00     0.278 C 
ENDBRANCH  21  27
ENDBRANCH  13  17
BRANCH  15  29
ATOM     29  C   UNL A   1      42.270  28.406  35.025  1.00  0.00    -0.002 A 
ATOM     30  C   UNL A   1      43.340  28.288  34.130  1.00  0.00     0.011 A 
ATOM     31  C   UNL A   1      41.731  27.278  35.648  1.00  0.00     0.011 A 
ATOM     32  C   UNL A   1      43.892  27.036  33.866  1.00  0.00     0.021 A 
ATOM     33  C   UNL A   1      42.265  26.018  35.364  1.00  0.00     0.021 A 
ATOM     34  C   UNL A   1      43.341  25.904  34.475  1.00  0.00     0.067 A 
BRANCH  34  35
ATOM     35  S   UNL A   1      44.047  24.309  34.128  1.00  0.00     0.175 S 
ATOM     36  C   UNL A   1      44.405  24.350  32.391  1.00  0.00     0.163 C 
ATOM     37  O   UNL A   1      45.299  24.242  34.854  1.00  0.00    -0.224 OA
ATOM     38  O   UNL A   1      43.008  23.316  34.336  1.00  0.00    -0.224 OA
ENDBRANCH  34  35
ENDBRANCH  15  29
ENDBRANCH   7  12
ENDBRANCH   3   6
ENDBRANCH   1   2
BRANCH   1  39
ATOM     39  C   UNL A   1      35.837  33.311  28.958  1.00  0.00     0.042 C 
BRANCH  39  40
ATOM     40  C   UNL A   1      34.822  32.427  29.677  1.00  0.00     0.118 C 
BRANCH  40  41
ATOM     41  N   UNL A   1      34.197  31.475  28.769  1.00  0.00    -0.352 N 
ATOM     42  C   UNL A   1      34.755  30.434  28.073  1.00  0.00     0.251 C 
ATOM     43  H   UNL A   1      33.229  31.597  28.636  1.00  0.00     0.163 HD
ATOM     44  O   UNL A   1      34.117  29.881  27.183  1.00  0.00    -0.269 OA
BRANCH  42  45
ATOM     45  C   UNL A   1      36.128  29.980  28.381  1.00  0.00     0.039 A 
ATOM     46  C   UNL A   1      37.120  30.120  27.405  1.00  0.00     0.014 A 
ATOM     47  C   UNL A   1      36.430  29.384  29.609  1.00  0.00     0.014 A 
ATOM     48  C   UNL A   1      38.427  29.711  27.681  1.00  0.00     0.010 A 
ATOM     49  C   UNL A   1      37.745  29.036  29.905  1.00  0.00     0.010 A 
ATOM     50  C   UNL A   1      38.755  29.192  28.943  1.00  0.00    -0.014 A 
BRANCH  50  51
ATOM     51  C   UNL A   1      40.144  28.797  29.282  1.00  0.00     0.031 A 
ATOM     52  C   UNL A   1      41.031  29.747  30.036  1.00  0.00     0.074 A 
ATOM     53  C   UNL A   1      40.630  27.623  28.837  1.00  0.00     0.049 A 
ATOM     54  N   UNL A   1      42.306  29.646  30.317  1.00  0.00    -0.248 NA
ATOM     55  C   UNL A   1      40.407  30.990  30.516  1.00  0.00     0.031 C 
ATOM     56  C   UNL A   1      39.877  26.634  28.065  1.00  0.00     0.029 A 
ATOM     57  N   UNL A   1      41.883  27.072  28.951  1.00  0.00    -0.354 N 
ATOM     58  C   UNL A   1      42.640  30.819  30.982  1.00  0.00     0.074 A 
ATOM     59  C   UNL A   1      41.445  31.634  31.028  1.00  0.00     0.031 C 
ATOM     60  C   UNL A   1      40.678  25.595  27.782  1.00  0.00     0.029 A 
ATOM     61  C   UNL A   1      42.011  25.862  28.314  1.00  0.00     0.049 A 
ATOM     62  H   UNL A   1      42.618  27.503  29.443  1.00  0.00     0.167 HD
ATOM     63  C   UNL A   1      43.832  31.173  31.519  1.00  0.00     0.037 A 
ATOM     64  C   UNL A   1      43.087  25.068  28.161  1.00  0.00     0.037 A 
ATOM     65  C   UNL A   1      45.008  30.342  31.496  1.00  0.00     0.049 A 
ATOM     66  C   UNL A   1      44.401  25.487  28.764  1.00  0.00     0.074 A 
ATOM     67  C   UNL A   1      46.245  30.584  32.067  1.00  0.00     0.029 A 
ATOM     68  N   UNL A   1      45.090  29.110  30.865  1.00  0.00    -0.354 N 
ATOM     69  N   UNL A   1      44.691  26.570  29.441  1.00  0.00    -0.248 NA
ATOM     70  C   UNL A   1      45.535  24.571  28.583  1.00  0.00     0.031 C 
ATOM     71  C   UNL A   1      47.089  29.516  31.747  1.00  0.00     0.029 A 
ATOM     72  C   UNL A   1      46.364  28.586  31.017  1.00  0.00     0.049 A 
ATOM     73  H   UNL A   1      44.353  28.672  30.382  1.00  0.00     0.167 HD
ATOM     74  C   UNL A   1      46.028  26.455  29.793  1.00  0.00     0.074 A 
ATOM     75  C   UNL A   1      46.492  25.190  29.261  1.00  0.00     0.031 C 
ATOM     76  C   UNL A   1      46.802  27.318  30.494  1.00  0.00     0.037 A 
BRANCH  63  77
ATOM     77  C   UNL A   1      43.925  32.517  32.179  1.00  0.00     0.064 A 
ATOM     78  C   UNL A   1      44.032  32.648  33.572  1.00  0.00     0.173 A 
ATOM     79  C   UNL A   1      43.946  33.690  31.407  1.00  0.00     0.173 A 
ATOM     80  F   UNL A   1      44.005  31.560  34.356  1.00  0.00    -0.203 F 
ATOM     81  C   UNL A   1      44.128  33.903  34.170  1.00  0.00     0.198 A 
ATOM     82  C   UNL A   1      44.074  34.940  32.006  1.00  0.00     0.198 A 
ATOM     83  F   UNL A   1      43.854  33.621  30.071  1.00  0.00    -0.203 F 
ATOM     84  F   UNL A   1      44.182  34.004  35.505  1.00  0.00    -0.200 F 
ATOM     85  C   UNL A   1      44.157  35.046  33.386  1.00  0.00     0.200 A 
ATOM     86  F   UNL A   1      44.114  36.043  31.247  1.00  0.00    -0.200 F 
ATOM     87  F   UNL A   1      44.257  36.252  33.962  1.00  0.00    -0.200 F 
ENDBRANCH  63  77
BRANCH  64  88
ATOM     88  C   UNL A   1      42.963  23.787  27.418  1.00  0.00     0.064 A 
ATOM     89  C   UNL A   1      42.508  22.627  28.059  1.00  0.00     0.173 A 
ATOM     90  C   UNL A   1      43.290  23.696  26.057  1.00  0.00     0.173 A 
ATOM     91  F   UNL A   1      42.202  22.659  29.364  1.00  0.00    -0.203 F 
ATOM     92  C   UNL A   1      42.402  21.419  27.372  1.00  0.00     0.198 A 
ATOM     93  C   UNL A   1      43.158  22.495  25.365  1.00  0.00     0.198 A 
ATOM     94  F   UNL A   1      43.724  24.780  25.398  1.00  0.00    -0.203 F 
ATOM     95  F   UNL A   1      42.004  20.316  28.018  1.00  0.00    -0.200 F 
ATOM     96  C   UNL A   1      42.721  21.356  26.024  1.00  0.00     0.200 A 
ATOM     97  F   UNL A   1      43.453  22.441  24.059  1.00  0.00    -0.200 F 
ATOM     98  F   UNL A   1      42.614  20.196  25.362  1.00  0.00    -0.200 F 
ENDBRANCH  64  88
BRANCH  76  99
ATOM     99  C   UNL A   1      48.220  26.910  30.766  1.00  0.00     0.064 A 
ATOM    100  C   UNL A   1      48.553  26.088  31.852  1.00  0.00     0.173 A 
ATOM    101  C   UNL A   1      49.248  27.301  29.895  1.00  0.00     0.173 A 
ATOM    102  F   UNL A   1      47.608  25.701  32.722  1.00  0.00    -0.203 F 
ATOM    103  C   UNL A   1      49.869  25.683  32.064  1.00  0.00     0.198 A 
ATOM    104  C   UNL A   1      50.557  26.873  30.094  1.00  0.00     0.198 A 
ATOM    105  F   UNL A   1      48.978  28.083  28.839  1.00  0.00    -0.203 F 
ATOM    106  F   UNL A   1      50.172  24.928  33.128  1.00  0.00    -0.200 F 
ATOM    107  C   UNL A   1      50.867  26.068  31.180  1.00  0.00     0.200 A 
ATOM    108  F   UNL A   1      51.518  27.235  29.233  1.00  0.00    -0.200 F 
ATOM    109  F   UNL A   1      52.131  25.668  31.379  1.00  0.00    -0.200 F 
ENDBRANCH  76  99
ENDBRANCH  50  51
ENDBRANCH  42  45
ENDBRANCH  40  41
ENDBRANCH  39  40
ENDBRANCH   1  39
TORSDOF 17
ENDMDL
MODEL 2
REMARK VINA RESULT:      -9.6      2.505      5.165
REMARK SMILES COc1cc([C@H]2CC(c3ccc(S(C)(=O)=O)cc3)=NN2c2ccc(C(=O)NCCCNC(=O)c3ccc(-c4c5nc(c(-c6c(F)c(F)c(F)c(F)c6F)c6ccc([nH]6)c(-c6c(F)c(F)c(F)c(F)c6F)c6nc(c(-c7c(F)c(F)c(F)c(F)c7F)c7ccc4[nH]7)C=C6)C=C5)cc3)cc2)cc(OC)c1OC
REMARK SMILES IDX 28 1 27 2 25 3 26 4 24 6 21 7 22 8 98 9 23 10 97 11 20 12
REMARK SMILES IDX 6 13 7 14 8 15 19 16 5 17 3 18 4 19 103 20 100 21 99 22 2 23
REMARK SMILES IDX 1 24 104 25 105 26 101 27 102 28 9 29 10 30 18 31 11 32
REMARK SMILES IDX 17 33 12 34 13 35 14 36 15 37 16 38 29 39 30 40 31 41 32 42
REMARK SMILES IDX 33 44 34 45 35 46 96 47 36 48 95 49 37 50 38 51 39 52 89 53
REMARK SMILES IDX 40 54 94 55 88 56 90 57 41 58 93 59 87 60 86 61 42 63 74 64
REMARK SMILES IDX 54 65 73 66 55 67 58 68 72 69 91 70 56 71 57 72 71 74 92 75
REMARK SMILES IDX 59 76 43 77 44 78 52 79 45 80 46 81 50 82 53 83 47 84 48 85
REMARK SMILES IDX 51 86 49 87 75 88 76 89 84 90 77 91 78 92 82 93 85 94 79 95
REMARK SMILES IDX 80 96 83 97 81 98 60 99 61 100 69 101 62 102 63 103 67 104
REMARK SMILES IDX 70 105 64 106 65 107 68 108 66 109
REMARK H PARENT 27 5 31 43 90 62 58 73
REMARK Flexibility Score: inf
ROOT
ATOM      1  C   UNL A   1      35.948  34.530  29.631  1.00  0.00     0.118 C 
ENDROOT
BRANCH   1   2
ATOM      2  N   UNL A   1      37.326  34.417  29.196  1.00  0.00    -0.352 N 
ATOM      3  C   UNL A   1      38.512  34.420  29.885  1.00  0.00     0.251 C 
ATOM      4  O   UNL A   1      39.546  34.275  29.233  1.00  0.00    -0.269 OA
ATOM      5  H   UNL A   1      37.431  34.320  28.222  1.00  0.00     0.163 HD
BRANCH   3   6
ATOM      6  C   UNL A   1      38.592  34.534  31.367  1.00  0.00     0.039 A 
ATOM      7  C   UNL A   1      38.933  34.681  34.168  1.00  0.00     0.060 A 
ATOM      8  C   UNL A   1      40.037  34.723  33.308  1.00  0.00     0.029 A 
ATOM      9  C   UNL A   1      37.658  34.621  33.608  1.00  0.00     0.029 A 
ATOM     10  C   UNL A   1      39.873  34.631  31.926  1.00  0.00     0.016 A 
ATOM     11  C   UNL A   1      37.487  34.587  32.221  1.00  0.00     0.016 A 
BRANCH   7  12
ATOM     12  N   UNL A   1      39.115  34.715  35.535  1.00  0.00    -0.257 N 
ATOM     13  C   UNL A   1      38.792  33.622  36.453  1.00  0.00     0.144 C 
ATOM     14  C   UNL A   1      39.181  34.221  37.817  1.00  0.00     0.091 C 
ATOM     15  C   UNL A   1      39.577  35.612  37.395  1.00  0.00     0.071 C 
ATOM     16  N   UNL A   1      39.534  35.856  36.125  1.00  0.00    -0.176 NA
BRANCH  13  17
ATOM     17  C   UNL A   1      39.544  32.356  36.070  1.00  0.00    -0.015 A 
ATOM     18  C   UNL A   1      41.394  30.795  36.411  1.00  0.00     0.164 A 
ATOM     19  C   UNL A   1      40.775  32.036  36.656  1.00  0.00     0.056 A 
ATOM     20  C   UNL A   1      40.785  29.820  35.598  1.00  0.00     0.203 A 
ATOM     21  C   UNL A   1      39.560  30.154  34.982  1.00  0.00     0.164 A 
ATOM     22  C   UNL A   1      38.967  31.406  35.219  1.00  0.00     0.056 A 
BRANCH  18  23
ATOM     23  O   UNL A   1      42.551  30.542  37.107  1.00  0.00    -0.493 OA
ATOM     24  C   UNL A   1      42.831  31.570  38.058  1.00  0.00     0.278 C 
ENDBRANCH  18  23
BRANCH  20  25
ATOM     25  O   UNL A   1      41.250  28.557  35.362  1.00  0.00    -0.490 OA
ATOM     26  C   UNL A   1      41.572  27.673  36.419  1.00  0.00     0.278 C 
ENDBRANCH  20  25
BRANCH  21  27
ATOM     27  O   UNL A   1      38.789  29.398  34.133  1.00  0.00    -0.493 OA
ATOM     28  C   UNL A   1      37.929  30.044  33.210  1.00  0.00     0.278 C 
ENDBRANCH  21  27
ENDBRANCH  13  17
BRANCH  15  29
ATOM     29  C   UNL A   1      39.942  36.649  38.368  1.00  0.00    -0.002 A 
ATOM     30  C   UNL A   1      41.299  36.953  38.534  1.00  0.00     0.011 A 
ATOM     31  C   UNL A   1      38.968  37.275  39.147  1.00  0.00     0.011 A 
ATOM     32  C   UNL A   1      41.688  37.906  39.474  1.00  0.00     0.021 A 
ATOM     33  C   UNL A   1      39.357  38.212  40.109  1.00  0.00     0.021 A 
ATOM     34  C   UNL A   1      40.714  38.520  40.268  1.00  0.00     0.067 A 
BRANCH  34  35
ATOM     35  S   UNL A   1      41.219  39.730  41.470  1.00  0.00     0.175 S 
ATOM     36  C   UNL A   1      40.809  39.000  43.033  1.00  0.00     0.163 C 
ATOM     37  O   UNL A   1      42.662  39.832  41.375  1.00  0.00    -0.224 OA
ATOM     38  O   UNL A   1      40.374  40.898  41.297  1.00  0.00    -0.224 OA
ENDBRANCH  34  35
ENDBRANCH  15  29
ENDBRANCH   7  12
ENDBRANCH   3   6
ENDBRANCH   1   2
BRANCH   1  39
ATOM     39  C   UNL A   1      35.044  33.609  28.812  1.00  0.00     0.042 C 
BRANCH  39  40
ATOM     40  C   UNL A   1      34.752  32.285  29.514  1.00  0.00     0.118 C 
BRANCH  40  41
ATOM     41  N   UNL A   1      34.151  31.315  28.609  1.00  0.00    -0.352 N 
ATOM     42  C   UNL A   1      34.734  30.280  27.923  1.00  0.00     0.251 C 
ATOM     43  H   UNL A   1      33.182  31.418  28.470  1.00  0.00     0.163 HD
ATOM     44  O   UNL A   1      34.111  29.710  27.034  1.00  0.00    -0.269 OA
BRANCH  42  45
ATOM     45  C   UNL A   1      36.114  29.856  28.243  1.00  0.00     0.039 A 
ATOM     46  C   UNL A   1      37.114  30.036  27.283  1.00  0.00     0.014 A 
ATOM     47  C   UNL A   1      36.415  29.246  29.464  1.00  0.00     0.014 A 
ATOM     48  C   UNL A   1      38.427  29.656  27.569  1.00  0.00     0.010 A 
ATOM     49  C   UNL A   1      37.734  28.927  29.772  1.00  0.00     0.010 A 
ATOM     50  C   UNL A   1      38.751  29.124  28.827  1.00  0.00    -0.014 A 
BRANCH  50  51
ATOM     51  C   UNL A   1      40.146  28.758  29.178  1.00  0.00     0.031 A 
ATOM     52  C   UNL A   1      41.007  29.726  29.938  1.00  0.00     0.074 A 
ATOM     53  C   UNL A   1      40.660  27.593  28.738  1.00  0.00     0.049 A 
ATOM     54  N   UNL A   1      42.281  29.652  30.230  1.00  0.00    -0.248 NA
ATOM     55  C   UNL A   1      40.353  30.957  30.411  1.00  0.00     0.031 C 
ATOM     56  C   UNL A   1      39.933  26.588  27.961  1.00  0.00     0.029 A 
ATOM     57  N   UNL A   1      41.922  27.068  28.863  1.00  0.00    -0.354 N 
ATOM     58  C   UNL A   1      42.585  30.832  30.896  1.00  0.00     0.074 A 
ATOM     59  C   UNL A   1      41.374  31.622  30.931  1.00  0.00     0.031 C 
ATOM     60  C   UNL A   1      40.758  25.566  27.686  1.00  0.00     0.029 A 
ATOM     61  C   UNL A   1      42.081  25.861  28.228  1.00  0.00     0.049 A 
ATOM     62  H   UNL A   1      42.645  27.515  29.361  1.00  0.00     0.167 HD
ATOM     63  C   UNL A   1      43.765  31.211  31.443  1.00  0.00     0.037 A 
ATOM     64  C   UNL A   1      43.173  25.089  28.086  1.00  0.00     0.037 A 
ATOM     65  C   UNL A   1      44.958  30.405  31.430  1.00  0.00     0.049 A 
ATOM     66  C   UNL A   1      44.473  25.535  28.699  1.00  0.00     0.074 A 
ATOM     67  C   UNL A   1      46.185  30.672  32.012  1.00  0.00     0.029 A 
ATOM     68  N   UNL A   1      45.071  29.174  30.802  1.00  0.00    -0.354 N 
ATOM     69  N   UNL A   1      44.736  26.625  29.377  1.00  0.00    -0.248 NA
ATOM     70  C   UNL A   1      45.628  24.643  28.529  1.00  0.00     0.031 C 
ATOM     71  C   UNL A   1      47.054  29.621  31.699  1.00  0.00     0.029 A 
ATOM     72  C   UNL A   1      46.354  28.676  30.965  1.00  0.00     0.049 A 
ATOM     73  H   UNL A   1      44.347  28.720  30.313  1.00  0.00     0.167 HD
ATOM     74  C   UNL A   1      46.072  26.537  29.740  1.00  0.00     0.074 A 
ATOM     75  C   UNL A   1      46.566  25.282  29.214  1.00  0.00     0.031 C 
ATOM     76  C   UNL A   1      46.822  27.417  30.447  1.00  0.00     0.037 A 
BRANCH  63  77
ATOM     77  C   UNL A   1      43.825  32.557  32.102  1.00  0.00     0.064 A 
ATOM     78  C   UNL A   1      44.123  33.721  31.376  1.00  0.00     0.173 A 
ATOM     79  C   UNL A   1      43.542  32.693  33.470  1.00  0.00     0.173 A 
ATOM     80  F   UNL A   1      44.412  33.644  30.069  1.00  0.00    -0.203 F 
ATOM     81  C   UNL A   1      44.164  34.965  32.001  1.00  0.00     0.198 A 
ATOM     82  C   UNL A   1      43.554  33.942  34.084  1.00  0.00     0.198 A 
ATOM     83  F   UNL A   1      43.244  31.614  34.209  1.00  0.00    -0.203 F 
ATOM     84  F   UNL A   1      44.498  36.055  31.296  1.00  0.00    -0.200 F 
ATOM     85  C   UNL A   1      43.873  35.076  33.352  1.00  0.00     0.200 A 
ATOM     86  F   UNL A   1      43.259  34.050  35.387  1.00  0.00    -0.200 F 
ATOM     87  F   UNL A   1      43.905  36.275  33.949  1.00  0.00    -0.200 F 
ENDBRANCH  63  77
BRANCH  64  88
ATOM     88  C   UNL A   1      43.082  23.805  27.343  1.00  0.00     0.064 A 
ATOM     89  C   UNL A   1      42.629  22.640  27.977  1.00  0.00     0.173 A 
ATOM     90  C   UNL A   1      43.439  23.715  25.990  1.00  0.00     0.173 A 
ATOM     91  F   UNL A   1      42.295  22.671  29.275  1.00  0.00    -0.203 F 
ATOM     92  C   UNL A   1      42.553  21.430  27.291  1.00  0.00     0.198 A 
ATOM     93  C   UNL A   1      43.338  22.511  25.298  1.00  0.00     0.198 A 
ATOM     94  F   UNL A   1      43.873  24.803  25.337  1.00  0.00    -0.203 F 
ATOM     95  F   UNL A   1      42.156  20.322  27.931  1.00  0.00    -0.200 F 
ATOM     96  C   UNL A   1      42.902  21.367  25.949  1.00  0.00     0.200 A 
ATOM     97  F   UNL A   1      43.661  22.459  23.998  1.00  0.00    -0.200 F 
ATOM     98  F   UNL A   1      42.824  20.205  25.288  1.00  0.00    -0.200 F 
ENDBRANCH  64  88
BRANCH  76  99
ATOM     99  C   UNL A   1      48.246  27.038  30.732  1.00  0.00     0.064 A 
ATOM    100  C   UNL A   1      48.585  26.208  31.809  1.00  0.00     0.173 A 
ATOM    101  C   UNL A   1      49.275  27.466  29.879  1.00  0.00     0.173 A 
ATOM    102  F   UNL A   1      47.638  25.786  32.661  1.00  0.00    -0.203 F 
ATOM    103  C   UNL A   1      49.907  25.832  32.032  1.00  0.00     0.198 A 
ATOM    104  C   UNL A   1      50.592  27.066  30.089  1.00  0.00     0.198 A 
ATOM    105  F   UNL A   1      49.001  28.257  28.831  1.00  0.00    -0.203 F 
ATOM    106  F   UNL A   1      50.215  25.068  33.089  1.00  0.00    -0.200 F 
ATOM    107  C   UNL A   1      50.907  26.253  31.167  1.00  0.00     0.200 A 
ATOM    108  F   UNL A   1      51.554  27.463  29.245  1.00  0.00    -0.200 F 
ATOM    109  F   UNL A   1      52.177  25.879  31.377  1.00  0.00    -0.200 F 
ENDBRANCH  76  99
ENDBRANCH  50  51
ENDBRANCH  42  45
ENDBRANCH  40  41
ENDBRANCH  39  40
ENDBRANCH   1  39
TORSDOF 17
ENDMDL
MODEL 3
REMARK VINA RESULT:      -9.2      4.874     13.670
REMARK SMILES COc1cc([C@H]2CC(c3ccc(S(C)(=O)=O)cc3)=NN2c2ccc(C(=O)NCCCNC(=O)c3ccc(-c4c5nc(c(-c6c(F)c(F)c(F)c(F)c6F)c6ccc([nH]6)c(-c6c(F)c(F)c(F)c(F)c6F)c6nc(c(-c7c(F)c(F)c(F)c(F)c7F)c7ccc4[nH]7)C=C6)C=C5)cc3)cc2)cc(OC)c1OC
REMARK SMILES IDX 28 1 27 2 25 3 26 4 24 6 21 7 22 8 98 9 23 10 97 11 20 12
REMARK SMILES IDX 6 13 7 14 8 15 19 16 5 17 3 18 4 19 103 20 100 21 99 22 2 23
REMARK SMILES IDX 1 24 104 25 105 26 101 27 102 28 9 29 10 30 18 31 11 32
REMARK SMILES IDX 17 33 12 34 13 35 14 36 15 37 16 38 29 39 30 40 31 41 32 42
REMARK SMILES IDX 33 44 34 45 35 46 96 47 36 48 95 49 37 50 38 51 39 52 89 53
REMARK SMILES IDX 40 54 94 55 88 56 90 57 41 58 93 59 87 60 86 61 42 63 74 64
REMARK SMILES IDX 54 65 73 66 55 67 58 68 72 69 91 70 56 71 57 72 71 74 92 75
REMARK SMILES IDX 59 76 43 77 44 78 52 79 45 80 46 81 50 82 53 83 47 84 48 85
REMARK SMILES IDX 51 86 49 87 75 88 76 89 84 90 77 91 78 92 82 93 85 94 79 95
REMARK SMILES IDX 80 96 83 97 81 98 60 99 61 100 69 101 62 102 63 103 67 104
REMARK SMILES IDX 70 105 64 106 65 107 68 108 66 109
REMARK H PARENT 27 5 31 43 90 62 58 73
REMARK Flexibility Score: inf
ROOT
ATOM      1  C   UNL A   1      49.817  27.863  32.727  1.00  0.00     0.118 C 
ENDROOT
BRANCH   1   2
ATOM      2  N   UNL A   1      51.067  27.897  31.993  1.00  0.00    -0.352 N 
ATOM      3  C   UNL A   1      51.386  27.556  30.703  1.00  0.00     0.251 C 
ATOM      4  O   UNL A   1      52.552  27.723  30.346  1.00  0.00    -0.269 OA
ATOM      5  H   UNL A   1      51.831  28.225  32.520  1.00  0.00     0.163 HD
BRANCH   3   6
ATOM      6  C   UNL A   1      50.385  27.056  29.722  1.00  0.00     0.039 A 
ATOM      7  C   UNL A   1      48.613  25.958  27.815  1.00  0.00     0.060 A 
ATOM      8  C   UNL A   1      49.583  25.162  28.433  1.00  0.00     0.029 A 
ATOM      9  C   UNL A   1      48.504  27.293  28.202  1.00  0.00     0.029 A 
ATOM     10  C   UNL A   1      50.472  25.705  29.361  1.00  0.00     0.016 A 
ATOM     11  C   UNL A   1      49.356  27.826  29.174  1.00  0.00     0.016 A 
BRANCH   7  12
ATOM     12  N   UNL A   1      47.778  25.419  26.857  1.00  0.00    -0.257 N 
ATOM     13  C   UNL A   1      47.325  26.113  25.651  1.00  0.00     0.144 C 
ATOM     14  C   UNL A   1      46.427  25.053  24.987  1.00  0.00     0.091 C 
ATOM     15  C   UNL A   1      46.482  23.967  26.028  1.00  0.00     0.071 C 
ATOM     16  N   UNL A   1      47.240  24.195  27.052  1.00  0.00    -0.176 NA
BRANCH  13  17
ATOM     17  C   UNL A   1      48.511  26.566  24.811  1.00  0.00    -0.015 A 
ATOM     18  C   UNL A   1      50.897  26.492  24.285  1.00  0.00     0.164 A 
ATOM     19  C   UNL A   1      49.820  26.197  25.143  1.00  0.00     0.056 A 
ATOM     20  C   UNL A   1      50.693  27.138  23.050  1.00  0.00     0.203 A 
ATOM     21  C   UNL A   1      49.378  27.539  22.730  1.00  0.00     0.164 A 
ATOM     22  C   UNL A   1      48.319  27.256  23.609  1.00  0.00     0.056 A 
BRANCH  18  23
ATOM     23  O   UNL A   1      52.126  26.004  24.656  1.00  0.00    -0.493 OA
ATOM     24  C   UNL A   1      52.336  26.119  26.064  1.00  0.00     0.278 C 
ENDBRANCH  18  23
BRANCH  20  25
ATOM     25  O   UNL A   1      51.646  27.396  22.105  1.00  0.00    -0.490 OA
ATOM     26  C   UNL A   1      51.929  26.479  21.065  1.00  0.00     0.278 C 
ENDBRANCH  20  25
BRANCH  21  27
ATOM     27  O   UNL A   1      48.928  28.201  21.614  1.00  0.00    -0.493 OA
ATOM     28  C   UNL A   1      47.564  28.577  21.529  1.00  0.00     0.278 C 
ENDBRANCH  21  27
ENDBRANCH  13  17
BRANCH  15  29
ATOM     29  C   UNL A   1      45.684  22.739  25.920  1.00  0.00    -0.002 A 
ATOM     30  C   UNL A   1      46.191  21.685  25.150  1.00  0.00     0.011 A 
ATOM     31  C   UNL A   1      44.427  22.646  26.521  1.00  0.00     0.011 A 
ATOM     32  C   UNL A   1      45.445  20.518  24.992  1.00  0.00     0.021 A 
ATOM     33  C   UNL A   1      43.667  21.487  26.343  1.00  0.00     0.021 A 
ATOM     34  C   UNL A   1      44.179  20.431  25.579  1.00  0.00     0.067 A 
BRANCH  34  35
ATOM     35  S   UNL A   1      43.232  18.941  25.369  1.00  0.00     0.175 S 
ATOM     36  C   UNL A   1      43.412  18.079  26.908  1.00  0.00     0.163 C 
ATOM     37  O   UNL A   1      41.847  19.346  25.228  1.00  0.00    -0.224 OA
ATOM     38  O   UNL A   1      43.886  18.147  24.344  1.00  0.00    -0.224 OA
ENDBRANCH  34  35
ENDBRANCH  15  29
ENDBRANCH   7  12
ENDBRANCH   3   6
ENDBRANCH   1   2
BRANCH   1  39
ATOM     39  C   UNL A   1      49.934  26.958  33.953  1.00  0.00     0.042 C 
BRANCH  39  40
ATOM     40  C   UNL A   1      49.213  27.518  35.176  1.00  0.00     0.118 C 
BRANCH  40  41
ATOM     41  N   UNL A   1      48.755  26.459  36.064  1.00  0.00    -0.352 N 
ATOM     42  C   UNL A   1      47.477  26.092  36.402  1.00  0.00     0.251 C 
ATOM     43  H   UNL A   1      49.469  25.928  36.485  1.00  0.00     0.163 HD
ATOM     44  O   UNL A   1      47.289  25.324  37.340  1.00  0.00    -0.269 OA
BRANCH  42  45
ATOM     45  C   UNL A   1      46.323  26.627  35.648  1.00  0.00     0.039 A 
ATOM     46  C   UNL A   1      45.162  25.854  35.556  1.00  0.00     0.014 A 
ATOM     47  C   UNL A   1      46.396  27.864  35.001  1.00  0.00     0.014 A 
ATOM     48  C   UNL A   1      44.054  26.346  34.860  1.00  0.00     0.010 A 
ATOM     49  C   UNL A   1      45.272  28.380  34.364  1.00  0.00     0.010 A 
ATOM     50  C   UNL A   1      44.092  27.625  34.284  1.00  0.00    -0.014 A 
BRANCH  50  51
ATOM     51  C   UNL A   1      42.915  28.195  33.583  1.00  0.00     0.031 A 
ATOM     52  C   UNL A   1      42.686  27.889  32.129  1.00  0.00     0.074 A 
ATOM     53  C   UNL A   1      42.104  29.052  34.231  1.00  0.00     0.049 A 
ATOM     54  N   UNL A   1      41.797  28.386  31.307  1.00  0.00    -0.248 NA
ATOM     55  C   UNL A   1      43.598  26.914  31.511  1.00  0.00     0.031 C 
ATOM     56  C   UNL A   1      42.245  29.454  35.632  1.00  0.00     0.029 A 
ATOM     57  N   UNL A   1      41.013  29.760  33.791  1.00  0.00    -0.354 N 
ATOM     58  C   UNL A   1      42.057  27.803  30.074  1.00  0.00     0.074 A 
ATOM     59  C   UNL A   1      43.211  26.947  30.244  1.00  0.00     0.031 C 
ATOM     60  C   UNL A   1      41.274  30.328  35.938  1.00  0.00     0.029 A 
ATOM     61  C   UNL A   1      40.469  30.582  34.746  1.00  0.00     0.049 A 
ATOM     62  H   UNL A   1      40.655  29.684  32.877  1.00  0.00     0.167 HD
ATOM     63  C   UNL A   1      41.382  27.958  28.909  1.00  0.00     0.037 A 
ATOM     64  C   UNL A   1      39.448  31.455  34.665  1.00  0.00     0.037 A 
ATOM     65  C   UNL A   1      40.216  28.788  28.755  1.00  0.00     0.049 A 
ATOM     66  C   UNL A   1      38.717  31.611  33.358  1.00  0.00     0.074 A 
ATOM     67  C   UNL A   1      39.424  28.962  27.634  1.00  0.00     0.029 A 
ATOM     68  N   UNL A   1      39.678  29.585  29.755  1.00  0.00    -0.354 N 
ATOM     69  N   UNL A   1      38.934  31.012  32.214  1.00  0.00    -0.248 NA
ATOM     70  C   UNL A   1      37.598  32.563  33.334  1.00  0.00     0.031 C 
ATOM     71  C   UNL A   1      38.430  29.896  27.943  1.00  0.00     0.029 A 
ATOM     72  C   UNL A   1      38.573  30.268  29.271  1.00  0.00     0.049 A 
ATOM     73  H   UNL A   1      40.027  29.654  30.672  1.00  0.00     0.167 HD
ATOM     74  C   UNL A   1      37.965  31.489  31.343  1.00  0.00     0.074 A 
ATOM     75  C   UNL A   1      37.151  32.422  32.094  1.00  0.00     0.031 C 
ATOM     76  C   UNL A   1      37.766  31.180  30.038  1.00  0.00     0.037 A 
BRANCH  63  77
ATOM     77  C   UNL A   1      41.887  27.213  27.709  1.00  0.00     0.064 A 
ATOM     78  C   UNL A   1      42.878  27.748  26.872  1.00  0.00     0.173 A 
ATOM     79  C   UNL A   1      41.403  25.929  27.412  1.00  0.00     0.173 A 
ATOM     80  F   UNL A   1      43.367  28.975  27.105  1.00  0.00    -0.203 F 
ATOM     81  C   UNL A   1      43.344  27.040  25.768  1.00  0.00     0.198 A 
ATOM     82  C   UNL A   1      41.893  25.211  26.325  1.00  0.00     0.198 A 
ATOM     83  F   UNL A   1      40.460  25.368  28.183  1.00  0.00    -0.203 F 
ATOM     84  F   UNL A   1      44.257  27.592  24.957  1.00  0.00    -0.200 F 
ATOM     85  C   UNL A   1      42.857  25.769  25.499  1.00  0.00     0.200 A 
ATOM     86  F   UNL A   1      41.431  23.979  26.074  1.00  0.00    -0.200 F 
ATOM     87  F   UNL A   1      43.312  25.086  24.440  1.00  0.00    -0.200 F 
ENDBRANCH  63  77
BRANCH  64  88
ATOM     88  C   UNL A   1      39.045  32.238  35.862  1.00  0.00     0.064 A 
ATOM     89  C   UNL A   1      38.213  31.676  36.840  1.00  0.00     0.173 A 
ATOM     90  C   UNL A   1      39.483  33.556  36.056  1.00  0.00     0.173 A 
ATOM     91  F   UNL A   1      37.753  30.426  36.690  1.00  0.00    -0.203 F 
ATOM     92  C   UNL A   1      37.821  32.409  37.959  1.00  0.00     0.198 A 
ATOM     93  C   UNL A   1      39.112  34.278  37.187  1.00  0.00     0.198 A 
ATOM     94  F   UNL A   1      40.285  34.136  35.151  1.00  0.00    -0.203 F 
ATOM     95  F   UNL A   1      36.992  31.862  38.858  1.00  0.00    -0.200 F 
ATOM     96  C   UNL A   1      38.275  33.707  38.135  1.00  0.00     0.200 A 
ATOM     97  F   UNL A   1      39.566  35.527  37.361  1.00  0.00    -0.200 F 
ATOM     98  F   UNL A   1      37.902  34.410  39.213  1.00  0.00    -0.200 F 
ENDBRANCH  64  88
BRANCH  76  99
ATOM     99  C   UNL A   1      36.600  31.823  29.346  1.00  0.00     0.064 A 
ATOM    100  C   UNL A   1      35.468  31.085  28.973  1.00  0.00     0.173 A 
ATOM    101  C   UNL A   1      36.594  33.205  29.107  1.00  0.00     0.173 A 
ATOM    102  F   UNL A   1      35.433  29.757  29.167  1.00  0.00    -0.203 F 
ATOM    103  C   UNL A   1      34.377  31.705  28.372  1.00  0.00     0.198 A 
ATOM    104  C   UNL A   1      35.491  33.827  28.530  1.00  0.00     0.198 A 
ATOM    105  F   UNL A   1      37.652  33.955  29.451  1.00  0.00    -0.203 F 
ATOM    106  F   UNL A   1      33.320  30.976  27.990  1.00  0.00    -0.200 F 
ATOM    107  C   UNL A   1      34.386  33.077  28.159  1.00  0.00     0.200 A 
ATOM    108  F   UNL A   1      35.495  35.154  28.337  1.00  0.00    -0.200 F 
ATOM    109  F   UNL A   1      33.329  33.675  27.591  1.00  0.00    -0.200 F 
ENDBRANCH  76  99
ENDBRANCH  50  51
ENDBRANCH  42  45
ENDBRANCH  40  41
ENDBRANCH  39  40
ENDBRANCH   1  39
TORSDOF 17
ENDMDL
