MODEL 1
REMARK VINA RESULT:     -12.1      0.000      0.000
REMARK SMILES O=C(CCNC(=O)C1CCCCC1)NCCCNC(=O)c1ccc(-c2c3nc(c(-c4c(F)c(F)c(F)c(F)c4F)c4ccc([nH]4)c(-c4c(F)c(F)c(F)c(F)c4F)c4nc(c(-c5c(F)c(F)c(F)c(F)c5F)c5ccc2[nH]5)C=C4)C=C3)cc1
REMARK SMILES IDX 15 1 14 2 1 3 2 4 3 6 4 7 5 8 6 9 7 11 8 12 9 13 13 14 10 15
REMARK SMILES IDX 12 16 11 17 16 18 17 19 18 20 19 21 20 23 21 24 22 25 83 26
REMARK SMILES IDX 23 27 82 28 24 29 25 30 26 31 76 32 27 33 81 34 75 35 77 36
REMARK SMILES IDX 28 37 80 38 74 39 73 40 29 42 61 43 41 44 60 45 42 46 45 47
REMARK SMILES IDX 59 48 78 49 43 50 44 51 58 53 79 54 46 55 30 56 31 57 39 58
REMARK SMILES IDX 32 59 33 60 37 61 40 62 34 63 35 64 38 65 36 66 62 67 63 68
REMARK SMILES IDX 71 69 64 70 65 71 69 72 72 73 66 74 67 75 70 76 68 77 47 78
REMARK SMILES IDX 48 79 56 80 49 81 50 82 54 83 57 84 51 85 52 86 55 87 53 88
REMARK H PARENT 14 5 5 10 18 22 77 41 45 52
REMARK Flexibility Score: inf
ROOT
ATOM      1  C   UNL A   1      31.807  30.565  26.428  1.00  0.00     0.117 C 
ENDROOT
BRANCH   1   2
ATOM      2  N   UNL A   1      31.656  30.225  25.026  1.00  0.00    -0.356 N 
ATOM      3  O   UNL A   1      31.192  27.994  25.339  1.00  0.00    -0.275 OA
ATOM      4  C   UNL A   1      31.323  28.961  24.598  1.00  0.00     0.221 C 
ATOM      5  H   UNL A   1      31.799  30.928  24.353  1.00  0.00     0.163 HD
BRANCH   4   6
ATOM      6  C   UNL A   1      31.087  28.871  23.108  1.00  0.00     0.121 C 
BRANCH   6   7
ATOM      7  C   UNL A   1      30.680  27.453  22.721  1.00  0.00     0.125 C 
BRANCH   7   8
ATOM      8  N   UNL A   1      31.548  26.896  21.689  1.00  0.00    -0.355 N 
ATOM      9  C   UNL A   1      32.649  26.097  21.807  1.00  0.00     0.223 C 
ATOM     10  H   UNL A   1      31.301  27.131  20.765  1.00  0.00     0.163 HD
ATOM     11  O   UNL A   1      33.334  25.908  20.803  1.00  0.00    -0.275 OA
BRANCH   9  12
ATOM     12  C   UNL A   1      32.950  25.455  23.155  1.00  0.00     0.078 C 
ATOM     13  C   UNL A   1      33.642  24.102  22.927  1.00  0.00     0.013 C 
ATOM     14  C   UNL A   1      33.841  26.350  24.029  1.00  0.00     0.013 C 
ATOM     15  C   UNL A   1      33.961  23.411  24.248  1.00  0.00     0.001 C 
ATOM     16  C   UNL A   1      34.187  25.670  25.355  1.00  0.00     0.001 C 
ATOM     17  C   UNL A   1      34.819  24.297  25.143  1.00  0.00     0.000 C 
ENDBRANCH   9  12
ENDBRANCH   7   8
ENDBRANCH   6   7
ENDBRANCH   4   6
ENDBRANCH   1   2
BRANCH   1  18
ATOM     18  C   UNL A   1      31.553  32.043  26.689  1.00  0.00     0.042 C 
BRANCH  18  19
ATOM     19  C   UNL A   1      32.736  32.791  27.293  1.00  0.00     0.118 C 
BRANCH  19  20
ATOM     20  N   UNL A   1      32.423  34.162  27.669  1.00  0.00    -0.352 N 
ATOM     21  C   UNL A   1      32.991  34.960  28.632  1.00  0.00     0.251 C 
ATOM     22  H   UNL A   1      31.695  34.581  27.154  1.00  0.00     0.163 HD
ATOM     23  O   UNL A   1      32.491  36.050  28.895  1.00  0.00    -0.269 OA
BRANCH  21  24
ATOM     24  C   UNL A   1      34.175  34.496  29.388  1.00  0.00     0.039 A 
ATOM     25  C   UNL A   1      33.982  33.917  30.645  1.00  0.00     0.014 A 
ATOM     26  C   UNL A   1      35.466  34.626  28.870  1.00  0.00     0.014 A 
ATOM     27  C   UNL A   1      35.073  33.393  31.344  1.00  0.00     0.010 A 
ATOM     28  C   UNL A   1      36.542  34.033  29.531  1.00  0.00     0.010 A 
ATOM     29  C   UNL A   1      36.355  33.403  30.770  1.00  0.00    -0.014 A 
BRANCH  29  30
ATOM     30  C   UNL A   1      37.501  32.733  31.440  1.00  0.00     0.031 A 
ATOM     31  C   UNL A   1      38.191  31.565  30.790  1.00  0.00     0.074 A 
ATOM     32  C   UNL A   1      37.880  33.138  32.668  1.00  0.00     0.049 A 
ATOM     33  N   UNL A   1      39.161  30.815  31.250  1.00  0.00    -0.248 NA
ATOM     34  C   UNL A   1      37.711  31.174  29.456  1.00  0.00     0.031 C 
ATOM     35  C   UNL A   1      37.265  34.227  33.426  1.00  0.00     0.029 A 
ATOM     36  N   UNL A   1      38.867  32.672  33.502  1.00  0.00    -0.354 N 
ATOM     37  C   UNL A   1      39.399  29.860  30.271  1.00  0.00     0.074 A 
ATOM     38  C   UNL A   1      38.437  30.091  29.215  1.00  0.00     0.031 C 
ATOM     39  C   UNL A   1      37.900  34.362  34.600  1.00  0.00     0.029 A 
ATOM     40  C   UNL A   1      38.937  33.340  34.701  1.00  0.00     0.049 A 
ATOM     41  H   UNL A   1      39.468  31.929  33.264  1.00  0.00     0.167 HD
ATOM     42  C   UNL A   1      40.347  28.894  30.245  1.00  0.00     0.037 A 
ATOM     43  C   UNL A   1      39.738  33.145  35.766  1.00  0.00     0.037 A 
ATOM     44  C   UNL A   1      41.313  28.675  31.291  1.00  0.00     0.049 A 
ATOM     45  C   UNL A   1      40.767  32.047  35.720  1.00  0.00     0.074 A 
ATOM     46  C   UNL A   1      42.348  27.758  31.332  1.00  0.00     0.029 A 
ATOM     47  N   UNL A   1      41.357  29.377  32.487  1.00  0.00    -0.354 N 
ATOM     48  N   UNL A   1      41.029  31.196  34.759  1.00  0.00    -0.248 NA
ATOM     49  C   UNL A   1      41.616  31.888  36.910  1.00  0.00     0.031 C 
ATOM     50  C   UNL A   1      42.981  27.864  32.574  1.00  0.00     0.029 A 
ATOM     51  C   UNL A   1      42.383  28.893  33.284  1.00  0.00     0.049 A 
ATOM     52  H   UNL A   1      40.748  30.112  32.734  1.00  0.00     0.167 HD
ATOM     53  C   UNL A   1      42.089  30.423  35.211  1.00  0.00     0.074 A 
ATOM     54  C   UNL A   1      42.434  30.916  36.528  1.00  0.00     0.031 C 
ATOM     55  C   UNL A   1      42.721  29.397  34.591  1.00  0.00     0.037 A 
BRANCH  42  56
ATOM     56  C   UNL A   1      40.388  27.990  29.044  1.00  0.00     0.064 A 
ATOM     57  C   UNL A   1      39.653  26.796  28.994  1.00  0.00     0.173 A 
ATOM     58  C   UNL A   1      41.137  28.346  27.911  1.00  0.00     0.173 A 
ATOM     59  F   UNL A   1      38.928  26.405  30.052  1.00  0.00    -0.203 F 
ATOM     60  C   UNL A   1      39.691  25.976  27.868  1.00  0.00     0.198 A 
ATOM     61  C   UNL A   1      41.144  27.541  26.774  1.00  0.00     0.198 A 
ATOM     62  F   UNL A   1      41.851  29.481  27.899  1.00  0.00    -0.203 F 
ATOM     63  F   UNL A   1      39.021  24.816  27.865  1.00  0.00    -0.200 F 
ATOM     64  C   UNL A   1      40.430  26.354  26.757  1.00  0.00     0.200 A 
ATOM     65  F   UNL A   1      41.845  27.916  25.695  1.00  0.00    -0.200 F 
ATOM     66  F   UNL A   1      40.456  25.569  25.671  1.00  0.00    -0.200 F 
ENDBRANCH  42  56
BRANCH  43  67
ATOM     67  C   UNL A   1      39.609  34.017  36.963  1.00  0.00     0.064 A 
ATOM     68  C   UNL A   1      38.821  33.629  38.057  1.00  0.00     0.173 A 
ATOM     69  C   UNL A   1      40.257  35.259  37.037  1.00  0.00     0.173 A 
ATOM     70  F   UNL A   1      38.163  32.461  38.025  1.00  0.00    -0.203 F 
ATOM     71  C   UNL A   1      38.669  34.458  39.166  1.00  0.00     0.198 A 
ATOM     72  C   UNL A   1      40.131  36.072  38.161  1.00  0.00     0.198 A 
ATOM     73  F   UNL A   1      41.027  35.677  36.021  1.00  0.00    -0.203 F 
ATOM     74  F   UNL A   1      37.867  34.085  40.173  1.00  0.00    -0.200 F 
ATOM     75  C   UNL A   1      39.329  35.676  39.220  1.00  0.00     0.200 A 
ATOM     76  F   UNL A   1      40.782  37.242  38.216  1.00  0.00    -0.200 F 
ATOM     77  F   UNL A   1      39.184  36.472  40.288  1.00  0.00    -0.200 F 
ENDBRANCH  43  67
BRANCH  55  78
ATOM     78  C   UNL A   1      43.878  28.762  35.310  1.00  0.00     0.064 A 
ATOM     79  C   UNL A   1      45.196  29.211  35.133  1.00  0.00     0.173 A 
ATOM     80  C   UNL A   1      43.660  27.714  36.217  1.00  0.00     0.173 A 
ATOM     81  F   UNL A   1      45.461  30.200  34.266  1.00  0.00    -0.203 F 
ATOM     82  C   UNL A   1      46.253  28.615  35.814  1.00  0.00     0.198 A 
ATOM     83  C   UNL A   1      44.715  27.143  36.922  1.00  0.00     0.198 A 
ATOM     84  F   UNL A   1      42.419  27.250  36.430  1.00  0.00    -0.203 F 
ATOM     85  F   UNL A   1      47.510  29.025  35.588  1.00  0.00    -0.200 F 
ATOM     86  C   UNL A   1      46.012  27.588  36.715  1.00  0.00     0.200 A 
ATOM     87  F   UNL A   1      44.477  26.162  37.804  1.00  0.00    -0.200 F 
ATOM     88  F   UNL A   1      47.030  27.020  37.375  1.00  0.00    -0.200 F 
ENDBRANCH  55  78
ENDBRANCH  29  30
ENDBRANCH  21  24
ENDBRANCH  19  20
ENDBRANCH  18  19
ENDBRANCH   1  18
TORSDOF 13
ENDMDL
MODEL 2
REMARK VINA RESULT:     -11.9      0.617      1.397
REMARK SMILES O=C(CCNC(=O)C1CCCCC1)NCCCNC(=O)c1ccc(-c2c3nc(c(-c4c(F)c(F)c(F)c(F)c4F)c4ccc([nH]4)c(-c4c(F)c(F)c(F)c(F)c4F)c4nc(c(-c5c(F)c(F)c(F)c(F)c5F)c5ccc2[nH]5)C=C4)C=C3)cc1
REMARK SMILES IDX 15 1 14 2 1 3 2 4 3 6 4 7 5 8 6 9 7 11 8 12 9 13 13 14 10 15
REMARK SMILES IDX 12 16 11 17 16 18 17 19 18 20 19 21 20 23 21 24 22 25 83 26
REMARK SMILES IDX 23 27 82 28 24 29 25 30 26 31 76 32 27 33 81 34 75 35 77 36
REMARK SMILES IDX 28 37 80 38 74 39 73 40 29 42 61 43 41 44 60 45 42 46 45 47
REMARK SMILES IDX 59 48 78 49 43 50 44 51 58 53 79 54 46 55 30 56 31 57 39 58
REMARK SMILES IDX 32 59 33 60 37 61 40 62 34 63 35 64 38 65 36 66 62 67 63 68
REMARK SMILES IDX 71 69 64 70 65 71 69 72 72 73 66 74 67 75 70 76 68 77 47 78
REMARK SMILES IDX 48 79 56 80 49 81 50 82 54 83 57 84 51 85 52 86 55 87 53 88
REMARK H PARENT 14 5 5 10 18 22 77 41 45 52
REMARK Flexibility Score: inf
ROOT
ATOM      1  C   UNL A   1      31.631  30.599  26.455  1.00  0.00     0.117 C 
ENDROOT
BRANCH   1   2
ATOM      2  N   UNL A   1      31.566  30.155  25.077  1.00  0.00    -0.356 N 
ATOM      3  O   UNL A   1      33.516  28.937  25.093  1.00  0.00    -0.275 OA
ATOM      4  C   UNL A   1      32.506  29.323  24.516  1.00  0.00     0.221 C 
ATOM      5  H   UNL A   1      30.816  30.463  24.518  1.00  0.00     0.163 HD
BRANCH   4   6
ATOM      6  C   UNL A   1      32.163  28.884  23.112  1.00  0.00     0.121 C 
BRANCH   6   7
ATOM      7  C   UNL A   1      33.408  28.364  22.400  1.00  0.00     0.125 C 
BRANCH   7   8
ATOM      8  N   UNL A   1      33.179  27.068  21.769  1.00  0.00    -0.355 N 
ATOM      9  C   UNL A   1      33.434  25.810  22.235  1.00  0.00     0.223 C 
ATOM     10  H   UNL A   1      32.778  27.106  20.871  1.00  0.00     0.163 HD
ATOM     11  O   UNL A   1      33.333  24.872  21.445  1.00  0.00    -0.275 OA
BRANCH   9  12
ATOM     12  C   UNL A   1      33.792  25.628  23.704  1.00  0.00     0.078 C 
ATOM     13  C   UNL A   1      32.502  25.452  24.520  1.00  0.00     0.013 C 
ATOM     14  C   UNL A   1      34.712  24.417  23.924  1.00  0.00     0.013 C 
ATOM     15  C   UNL A   1      32.803  25.272  26.004  1.00  0.00     0.001 C 
ATOM     16  C   UNL A   1      35.015  24.208  25.408  1.00  0.00     0.001 C 
ATOM     17  C   UNL A   1      33.740  24.094  26.240  1.00  0.00     0.000 C 
ENDBRANCH   9  12
ENDBRANCH   7   8
ENDBRANCH   6   7
ENDBRANCH   4   6
ENDBRANCH   1   2
BRANCH   1  18
ATOM     18  C   UNL A   1      31.478  32.108  26.579  1.00  0.00     0.042 C 
BRANCH  18  19
ATOM     19  C   UNL A   1      32.650  32.809  27.257  1.00  0.00     0.118 C 
BRANCH  19  20
ATOM     20  N   UNL A   1      32.369  34.191  27.618  1.00  0.00    -0.352 N 
ATOM     21  C   UNL A   1      32.969  34.993  28.558  1.00  0.00     0.251 C 
ATOM     22  H   UNL A   1      31.638  34.615  27.110  1.00  0.00     0.163 HD
ATOM     23  O   UNL A   1      32.492  36.096  28.813  1.00  0.00    -0.269 OA
BRANCH  21  24
ATOM     24  C   UNL A   1      34.159  34.521  29.298  1.00  0.00     0.039 A 
ATOM     25  C   UNL A   1      33.981  33.966  30.568  1.00  0.00     0.014 A 
ATOM     26  C   UNL A   1      35.442  34.618  28.752  1.00  0.00     0.014 A 
ATOM     27  C   UNL A   1      35.076  33.434  31.254  1.00  0.00     0.010 A 
ATOM     28  C   UNL A   1      36.519  34.016  29.401  1.00  0.00     0.010 A 
ATOM     29  C   UNL A   1      36.346  33.411  30.655  1.00  0.00    -0.014 A 
BRANCH  29  30
ATOM     30  C   UNL A   1      37.494  32.731  31.312  1.00  0.00     0.031 A 
ATOM     31  C   UNL A   1      38.185  31.575  30.642  1.00  0.00     0.074 A 
ATOM     32  C   UNL A   1      37.872  33.115  32.548  1.00  0.00     0.049 A 
ATOM     33  N   UNL A   1      39.156  30.819  31.090  1.00  0.00    -0.248 NA
ATOM     34  C   UNL A   1      37.705  31.206  29.302  1.00  0.00     0.031 C 
ATOM     35  C   UNL A   1      37.256  34.191  33.324  1.00  0.00     0.029 A 
ATOM     36  N   UNL A   1      38.860  32.637  33.374  1.00  0.00    -0.354 N 
ATOM     37  C   UNL A   1      39.395  29.881  30.094  1.00  0.00     0.074 A 
ATOM     38  C   UNL A   1      38.433  30.129  29.042  1.00  0.00     0.031 C 
ATOM     39  C   UNL A   1      37.891  34.306  34.500  1.00  0.00     0.029 A 
ATOM     40  C   UNL A   1      38.929  33.285  34.583  1.00  0.00     0.049 A 
ATOM     41  H   UNL A   1      39.462  31.898  33.123  1.00  0.00     0.167 HD
ATOM     42  C   UNL A   1      40.344  28.917  30.052  1.00  0.00     0.037 A 
ATOM     43  C   UNL A   1      39.731  33.072  35.645  1.00  0.00     0.037 A 
ATOM     44  C   UNL A   1      41.311  28.681  31.095  1.00  0.00     0.049 A 
ATOM     45  C   UNL A   1      40.761  31.977  35.580  1.00  0.00     0.074 A 
ATOM     46  C   UNL A   1      42.347  27.765  31.119  1.00  0.00     0.029 A 
ATOM     47  N   UNL A   1      41.354  29.363  32.302  1.00  0.00    -0.354 N 
ATOM     48  N   UNL A   1      41.024  31.143  34.604  1.00  0.00    -0.248 NA
ATOM     49  C   UNL A   1      41.610  31.798  36.767  1.00  0.00     0.031 C 
ATOM     50  C   UNL A   1      42.980  27.851  32.363  1.00  0.00     0.029 A 
ATOM     51  C   UNL A   1      42.381  28.867  33.090  1.00  0.00     0.049 A 
ATOM     52  H   UNL A   1      40.744  30.092  32.561  1.00  0.00     0.167 HD
ATOM     53  C   UNL A   1      42.086  30.363  35.044  1.00  0.00     0.074 A 
ATOM     54  C   UNL A   1      42.429  30.834  36.369  1.00  0.00     0.031 C 
ATOM     55  C   UNL A   1      42.719  29.348  34.406  1.00  0.00     0.037 A 
BRANCH  42  56
ATOM     56  C   UNL A   1      40.387  28.034  28.836  1.00  0.00     0.064 A 
ATOM     57  C   UNL A   1      41.142  28.374  27.703  1.00  0.00     0.173 A 
ATOM     58  C   UNL A   1      39.700  26.809  28.821  1.00  0.00     0.173 A 
ATOM     59  F   UNL A   1      41.811  29.536  27.661  1.00  0.00    -0.203 F 
ATOM     60  C   UNL A   1      41.182  27.538  26.589  1.00  0.00     0.198 A 
ATOM     61  C   UNL A   1      39.771  25.960  27.719  1.00  0.00     0.198 A 
ATOM     62  F   UNL A   1      38.970  26.429  29.879  1.00  0.00    -0.203 F 
ATOM     63  F   UNL A   1      41.869  27.910  25.500  1.00  0.00    -0.200 F 
ATOM     64  C   UNL A   1      40.504  26.329  26.602  1.00  0.00     0.200 A 
ATOM     65  F   UNL A   1      39.128  24.785  27.739  1.00  0.00    -0.200 F 
ATOM     66  F   UNL A   1      40.552  25.522  25.533  1.00  0.00    -0.200 F 
ENDBRANCH  42  56
BRANCH  43  67
ATOM     67  C   UNL A   1      39.600  33.924  36.856  1.00  0.00     0.064 A 
ATOM     68  C   UNL A   1      38.796  33.526  37.934  1.00  0.00     0.173 A 
ATOM     69  C   UNL A   1      40.265  35.155  36.960  1.00  0.00     0.173 A 
ATOM     70  F   UNL A   1      38.123  32.369  37.874  1.00  0.00    -0.203 F 
ATOM     71  C   UNL A   1      38.643  34.337  39.057  1.00  0.00     0.198 A 
ATOM     72  C   UNL A   1      40.138  35.949  38.098  1.00  0.00     0.198 A 
ATOM     73  F   UNL A   1      41.051  35.581  35.960  1.00  0.00    -0.203 F 
ATOM     74  F   UNL A   1      37.826  33.956  40.049  1.00  0.00    -0.200 F 
ATOM     75  C   UNL A   1      39.319  35.545  39.141  1.00  0.00     0.200 A 
ATOM     76  F   UNL A   1      40.804  37.109  38.181  1.00  0.00    -0.200 F 
ATOM     77  F   UNL A   1      39.173  36.323  40.222  1.00  0.00    -0.200 F 
ENDBRANCH  43  67
BRANCH  55  78
ATOM     78  C   UNL A   1      43.876  28.704  35.113  1.00  0.00     0.064 A 
ATOM     79  C   UNL A   1      45.185  29.194  34.991  1.00  0.00     0.173 A 
ATOM     80  C   UNL A   1      43.666  27.602  35.957  1.00  0.00     0.173 A 
ATOM     81  F   UNL A   1      45.443  30.235  34.185  1.00  0.00    -0.203 F 
ATOM     82  C   UNL A   1      46.244  28.586  35.660  1.00  0.00     0.198 A 
ATOM     83  C   UNL A   1      44.721  27.018  36.652  1.00  0.00     0.198 A 
ATOM     84  F   UNL A   1      42.434  27.097  36.117  1.00  0.00    -0.203 F 
ATOM     85  F   UNL A   1      47.494  29.038  35.485  1.00  0.00    -0.200 F 
ATOM     86  C   UNL A   1      46.011  27.505  36.498  1.00  0.00     0.200 A 
ATOM     87  F   UNL A   1      44.491  25.984  37.474  1.00  0.00    -0.200 F 
ATOM     88  F   UNL A   1      47.029  26.927  37.148  1.00  0.00    -0.200 F 
ENDBRANCH  55  78
ENDBRANCH  29  30
ENDBRANCH  21  24
ENDBRANCH  19  20
ENDBRANCH  18  19
ENDBRANCH   1  18
TORSDOF 13
ENDMDL
MODEL 3
REMARK VINA RESULT:     -11.9      3.903     10.228
REMARK SMILES O=C(CCNC(=O)C1CCCCC1)NCCCNC(=O)c1ccc(-c2c3nc(c(-c4c(F)c(F)c(F)c(F)c4F)c4ccc([nH]4)c(-c4c(F)c(F)c(F)c(F)c4F)c4nc(c(-c5c(F)c(F)c(F)c(F)c5F)c5ccc2[nH]5)C=C4)C=C3)cc1
REMARK SMILES IDX 15 1 14 2 1 3 2 4 3 6 4 7 5 8 6 9 7 11 8 12 9 13 13 14 10 15
REMARK SMILES IDX 12 16 11 17 16 18 17 19 18 20 19 21 20 23 21 24 22 25 83 26
REMARK SMILES IDX 23 27 82 28 24 29 25 30 26 31 76 32 27 33 81 34 75 35 77 36
REMARK SMILES IDX 28 37 80 38 74 39 73 40 29 42 61 43 41 44 60 45 42 46 45 47
REMARK SMILES IDX 59 48 78 49 43 50 44 51 58 53 79 54 46 55 30 56 31 57 39 58
REMARK SMILES IDX 32 59 33 60 37 61 40 62 34 63 35 64 38 65 36 66 62 67 63 68
REMARK SMILES IDX 71 69 64 70 65 71 69 72 72 73 66 74 67 75 70 76 68 77 47 78
REMARK SMILES IDX 48 79 56 80 49 81 50 82 54 83 57 84 51 85 52 86 55 87 53 88
REMARK H PARENT 14 5 5 10 18 22 77 41 45 52
REMARK Flexibility Score: inf
ROOT
ATOM      1  C   UNL A   1      33.525  35.277  28.970  1.00  0.00     0.117 C 
ENDROOT
BRANCH   1   2
ATOM      2  N   UNL A   1      33.954  36.168  30.030  1.00  0.00    -0.356 N 
ATOM      3  O   UNL A   1      31.885  36.463  30.988  1.00  0.00    -0.275 OA
ATOM      4  C   UNL A   1      33.093  36.663  30.981  1.00  0.00     0.221 C 
ATOM      5  H   UNL A   1      34.902  36.431  30.070  1.00  0.00     0.163 HD
BRANCH   4   6
ATOM      6  C   UNL A   1      33.784  37.461  32.064  1.00  0.00     0.121 C 
BRANCH   6   7
ATOM      7  C   UNL A   1      33.728  36.711  33.391  1.00  0.00     0.125 C 
BRANCH   7   8
ATOM      8  N   UNL A   1      33.526  35.278  33.204  1.00  0.00    -0.355 N 
ATOM      9  C   UNL A   1      34.442  34.276  33.052  1.00  0.00     0.223 C 
ATOM     10  H   UNL A   1      32.586  34.988  33.186  1.00  0.00     0.163 HD
ATOM     11  O   UNL A   1      34.031  33.167  32.717  1.00  0.00    -0.275 OA
BRANCH   9  12
ATOM     12  C   UNL A   1      35.909  34.572  33.338  1.00  0.00     0.078 C 
ATOM     13  C   UNL A   1      36.319  33.875  34.645  1.00  0.00     0.013 C 
ATOM     14  C   UNL A   1      36.821  34.102  32.194  1.00  0.00     0.013 C 
ATOM     15  C   UNL A   1      37.781  34.144  34.983  1.00  0.00     0.001 C 
ATOM     16  C   UNL A   1      38.295  34.348  32.519  1.00  0.00     0.001 C 
ATOM     17  C   UNL A   1      38.700  33.713  33.847  1.00  0.00     0.000 C 
ENDBRANCH   9  12
ENDBRANCH   7   8
ENDBRANCH   6   7
ENDBRANCH   4   6
ENDBRANCH   1   2
BRANCH   1  18
ATOM     18  C   UNL A   1      34.695  34.547  28.326  1.00  0.00     0.042 C 
BRANCH  18  19
ATOM     19  C   UNL A   1      34.929  33.136  28.854  1.00  0.00     0.118 C 
BRANCH  19  20
ATOM     20  N   UNL A   1      34.111  32.128  28.194  1.00  0.00    -0.352 N 
ATOM     21  C   UNL A   1      34.422  30.837  27.843  1.00  0.00     0.251 C 
ATOM     22  H   UNL A   1      33.197  32.416  27.966  1.00  0.00     0.163 HD
ATOM     23  O   UNL A   1      33.637  30.183  27.161  1.00  0.00    -0.269 OA
BRANCH  21  24
ATOM     24  C   UNL A   1      35.717  30.242  28.241  1.00  0.00     0.039 A 
ATOM     25  C   UNL A   1      36.772  30.259  27.324  1.00  0.00     0.014 A 
ATOM     26  C   UNL A   1      35.899  29.673  29.504  1.00  0.00     0.014 A 
ATOM     27  C   UNL A   1      38.029  29.782  27.703  1.00  0.00     0.010 A 
ATOM     28  C   UNL A   1      37.172  29.271  29.907  1.00  0.00     0.010 A 
ATOM     29  C   UNL A   1      38.252  29.329  29.013  1.00  0.00    -0.014 A 
BRANCH  29  30
ATOM     30  C   UNL A   1      39.613  28.942  29.472  1.00  0.00     0.031 A 
ATOM     31  C   UNL A   1      40.390  29.836  30.399  1.00  0.00     0.074 A 
ATOM     32  C   UNL A   1      40.175  27.813  28.999  1.00  0.00     0.049 A 
ATOM     33  N   UNL A   1      41.612  29.698  30.850  1.00  0.00    -0.248 NA
ATOM     34  C   UNL A   1      39.714  31.058  30.860  1.00  0.00     0.031 C 
ATOM     35  C   UNL A   1      39.546  26.883  28.060  1.00  0.00     0.029 A 
ATOM     36  N   UNL A   1      41.410  27.259  29.232  1.00  0.00    -0.354 N 
ATOM     37  C   UNL A   1      41.853  30.816  31.637  1.00  0.00     0.074 A 
ATOM     38  C   UNL A   1      40.672  31.649  31.559  1.00  0.00     0.031 C 
ATOM     39  C   UNL A   1      40.385  25.866  27.816  1.00  0.00     0.029 A 
ATOM     40  C   UNL A   1      41.630  26.091  28.543  1.00  0.00     0.049 A 
ATOM     41  H   UNL A   1      42.075  27.660  29.838  1.00  0.00     0.167 HD
ATOM     42  C   UNL A   1      42.950  31.110  32.375  1.00  0.00     0.037 A 
ATOM     43  C   UNL A   1      42.717  25.297  28.491  1.00  0.00     0.037 A 
ATOM     44  C   UNL A   1      44.119  30.272  32.463  1.00  0.00     0.049 A 
ATOM     45  C   UNL A   1      43.932  25.661  29.302  1.00  0.00     0.074 A 
ATOM     46  C   UNL A   1      45.257  30.456  33.227  1.00  0.00     0.029 A 
ATOM     47  N   UNL A   1      44.302  29.093  31.755  1.00  0.00    -0.354 N 
ATOM     48  N   UNL A   1      44.121  26.684  30.098  1.00  0.00    -0.248 NA
ATOM     49  C   UNL A   1      45.084  24.752  29.210  1.00  0.00     0.031 C 
ATOM     50  C   UNL A   1      46.153  29.422  32.938  1.00  0.00     0.029 A 
ATOM     51  C   UNL A   1      45.547  28.555  32.042  1.00  0.00     0.049 A 
ATOM     52  H   UNL A   1      43.644  28.696  31.138  1.00  0.00     0.167 HD
ATOM     53  C   UNL A   1      45.397  26.528  30.624  1.00  0.00     0.074 A 
ATOM     54  C   UNL A   1      45.930  25.302  30.070  1.00  0.00     0.031 C 
ATOM     55  C   UNL A   1      46.065  27.329  31.490  1.00  0.00     0.037 A 
BRANCH  42  56
ATOM     56  C   UNL A   1      42.944  32.399  33.149  1.00  0.00     0.064 A 
ATOM     57  C   UNL A   1      42.354  32.493  34.419  1.00  0.00     0.173 A 
ATOM     58  C   UNL A   1      43.577  33.541  32.634  1.00  0.00     0.173 A 
ATOM     59  F   UNL A   1      41.729  31.434  34.954  1.00  0.00    -0.203 F 
ATOM     60  C   UNL A   1      42.369  33.692  35.130  1.00  0.00     0.198 A 
ATOM     61  C   UNL A   1      43.620  34.727  33.364  1.00  0.00     0.198 A 
ATOM     62  F   UNL A   1      44.164  33.505  31.430  1.00  0.00    -0.203 F 
ATOM     63  F   UNL A   1      41.755  33.770  36.318  1.00  0.00    -0.200 F 
ATOM     64  C   UNL A   1      43.009  34.804  34.605  1.00  0.00     0.200 A 
ATOM     65  F   UNL A   1      44.253  35.797  32.862  1.00  0.00    -0.200 F 
ATOM     66  F   UNL A   1      43.032  35.952  35.295  1.00  0.00    -0.200 F 
ENDBRANCH  42  56
BRANCH  43  67
ATOM     67  C   UNL A   1      42.703  24.071  27.651  1.00  0.00     0.064 A 
ATOM     68  C   UNL A   1      42.385  22.821  28.203  1.00  0.00     0.173 A 
ATOM     69  C   UNL A   1      43.016  24.117  26.284  1.00  0.00     0.173 A 
ATOM     70  F   UNL A   1      42.100  22.721  29.509  1.00  0.00    -0.203 F 
ATOM     71  C   UNL A   1      42.403  21.665  27.427  1.00  0.00     0.198 A 
ATOM     72  C   UNL A   1      43.001  22.965  25.501  1.00  0.00     0.198 A 
ATOM     73  F   UNL A   1      43.323  25.287  25.704  1.00  0.00    -0.203 F 
ATOM     74  F   UNL A   1      42.147  20.477  27.992  1.00  0.00    -0.200 F 
ATOM     75  C   UNL A   1      42.705  21.738  26.075  1.00  0.00     0.200 A 
ATOM     76  F   UNL A   1      43.279  23.042  24.193  1.00  0.00    -0.200 F 
ATOM     77  F   UNL A   1      42.721  20.626  25.329  1.00  0.00    -0.200 F 
ENDBRANCH  43  67
BRANCH  55  78
ATOM     78  C   UNL A   1      47.433  26.886  31.926  1.00  0.00     0.064 A 
ATOM     79  C   UNL A   1      47.615  25.954  32.959  1.00  0.00     0.173 A 
ATOM     80  C   UNL A   1      48.577  27.372  31.274  1.00  0.00     0.173 A 
ATOM     81  F   UNL A   1      46.555  25.470  33.625  1.00  0.00    -0.203 F 
ATOM     82  C   UNL A   1      48.890  25.551  33.344  1.00  0.00     0.198 A 
ATOM     83  C   UNL A   1      49.849  26.940  31.637  1.00  0.00     0.198 A 
ATOM     84  F   UNL A   1      48.461  28.259  30.274  1.00  0.00    -0.203 F 
ATOM     85  F   UNL A   1      49.042  24.701  34.370  1.00  0.00    -0.200 F 
ATOM     86  C   UNL A   1      50.006  26.036  32.677  1.00  0.00     0.200 A 
ATOM     87  F   UNL A   1      50.924  27.399  30.981  1.00  0.00    -0.200 F 
ATOM     88  F   UNL A   1      51.232  25.640  33.043  1.00  0.00    -0.200 F 
ENDBRANCH  55  78
ENDBRANCH  29  30
ENDBRANCH  21  24
ENDBRANCH  19  20
ENDBRANCH  18  19
ENDBRANCH   1  18
TORSDOF 13
ENDMDL
