MODEL 1
REMARK VINA RESULT:     -12.9      0.000      0.000
REMARK SMILES C[C@@H]1[C@H](C(=O)NCCCNC(=O)c2ccc(-c3c4nc(c(-c5c(F)c(F)c(F)c(F)c5F)c5ccc([nH]5)c(-c5c(F)c(F)c(F)c(F)c5F)c5nc(c(-c6c(F)c(F)c(F)c(F)c6F)c6ccc3[nH]6)C=C5)C=C4)cc2)CC[N@@H+]1Cc1cnn(-c2ccccc2)c1
REMARK SMILES IDX 7 1 6 2 4 3 5 4 3 6 1 7 2 8 78 9 76 10 77 11 79 13 80 14
REMARK SMILES IDX 81 15 90 16 82 17 83 18 84 19 85 20 89 21 86 22 88 23 87 24
REMARK SMILES IDX 8 25 9 26 10 27 11 28 12 30 13 31 14 32 75 33 15 34 74 35
REMARK SMILES IDX 16 36 17 37 18 38 68 39 19 40 73 41 67 42 69 43 20 44 72 45
REMARK SMILES IDX 66 46 65 47 21 49 53 50 33 51 52 52 34 53 37 54 51 55 70 56
REMARK SMILES IDX 35 57 36 58 50 60 71 61 38 62 22 63 23 64 31 65 24 66 25 67
REMARK SMILES IDX 29 68 32 69 26 70 27 71 30 72 28 73 54 74 55 75 63 76 56 77
REMARK SMILES IDX 57 78 61 79 64 80 58 81 59 82 62 83 60 84 39 85 40 86 48 87
REMARK SMILES IDX 41 88 42 89 46 90 49 91 43 92 44 93 47 94 45 95
REMARK H PARENT 6 5 78 12 10 29 69 48 37 59
REMARK Flexibility Score: inf
ROOT
ATOM      1  C   UNL A   1      31.396  30.317  26.146  1.00  0.00     0.117 C 
ENDROOT
BRANCH   1   2
ATOM      2  N   UNL A   1      31.894  30.074  24.803  1.00  0.00    -0.356 N 
ATOM      3  C   UNL A   1      32.414  28.977  24.201  1.00  0.00     0.229 C 
ATOM      4  O   UNL A   1      32.845  29.147  23.054  1.00  0.00    -0.275 OA
ATOM      5  H   UNL A   1      31.843  30.861  24.215  1.00  0.00     0.163 HD
BRANCH   3   6
ATOM      6  C   UNL A   1      32.498  27.593  24.828  1.00  0.00     0.142 C 
ATOM      7  C   UNL A   1      30.172  27.006  23.770  1.00  0.00     0.076 C 
ATOM      8  C   UNL A   1      31.309  26.622  24.701  1.00  0.00     0.193 C 
ATOM      9  N   UNL A   1      31.931  25.314  24.511  1.00  0.00    -0.328 N 
ATOM     10  C   UNL A   1      33.752  26.776  24.532  1.00  0.00     0.081 C 
ATOM     11  C   UNL A   1      33.336  25.353  24.861  1.00  0.00     0.263 C 
ATOM     12  H   UNL A   1      31.385  24.744  25.157  1.00  0.00     0.348 HD
BRANCH   9  13
ATOM     13  C   UNL A   1      31.430  24.279  23.637  1.00  0.00     0.302 C 
BRANCH  13  14
ATOM     14  C   UNL A   1      31.733  22.899  24.118  1.00  0.00     0.045 A 
ATOM     15  C   UNL A   1      31.427  22.316  25.365  1.00  0.00     0.145 A 
ATOM     16  C   UNL A   1      32.294  21.851  23.413  1.00  0.00     0.124 A 
ATOM     17  N   UNL A   1      31.778  21.033  25.448  1.00  0.00    -0.176 NA
ATOM     18  N   UNL A   1      32.335  20.752  24.246  1.00  0.00    -0.240 N 
BRANCH  18  19
ATOM     19  C   UNL A   1      32.895  19.476  23.977  1.00  0.00     0.065 A 
ATOM     20  C   UNL A   1      34.074  19.079  24.626  1.00  0.00     0.028 A 
ATOM     21  C   UNL A   1      32.305  18.624  23.039  1.00  0.00     0.028 A 
ATOM     22  C   UNL A   1      34.646  17.835  24.351  1.00  0.00     0.002 A 
ATOM     23  C   UNL A   1      32.903  17.401  22.750  1.00  0.00     0.002 A 
ATOM     24  C   UNL A   1      34.060  16.995  23.410  1.00  0.00     0.000 A 
ENDBRANCH  18  19
ENDBRANCH  13  14
ENDBRANCH   9  13
ENDBRANCH   3   6
ENDBRANCH   1   2
BRANCH   1  25
ATOM     25  C   UNL A   1      31.271  31.809  26.445  1.00  0.00     0.042 C 
BRANCH  25  26
ATOM     26  C   UNL A   1      32.556  32.519  26.841  1.00  0.00     0.118 C 
BRANCH  26  27
ATOM     27  N   UNL A   1      32.339  33.828  27.434  1.00  0.00    -0.352 N 
ATOM     28  C   UNL A   1      32.995  34.512  28.429  1.00  0.00     0.251 C 
ATOM     29  H   UNL A   1      31.577  34.317  27.049  1.00  0.00     0.163 HD
ATOM     30  O   UNL A   1      32.537  35.599  28.788  1.00  0.00    -0.269 OA
BRANCH  28  31
ATOM     31  C   UNL A   1      34.207  33.987  29.115  1.00  0.00     0.039 A 
ATOM     32  C   UNL A   1      34.031  33.026  30.123  1.00  0.00     0.014 A 
ATOM     33  C   UNL A   1      35.498  34.441  28.847  1.00  0.00     0.014 A 
ATOM     34  C   UNL A   1      35.133  32.460  30.778  1.00  0.00     0.010 A 
ATOM     35  C   UNL A   1      36.604  33.828  29.442  1.00  0.00     0.010 A 
ATOM     36  C   UNL A   1      36.432  32.834  30.417  1.00  0.00    -0.014 A 
BRANCH  36  37
ATOM     37  C   UNL A   1      37.626  32.275  31.103  1.00  0.00     0.031 A 
ATOM     38  C   UNL A   1      38.407  31.182  30.437  1.00  0.00     0.074 A 
ATOM     39  C   UNL A   1      37.974  32.691  32.335  1.00  0.00     0.049 A 
ATOM     40  N   UNL A   1      39.430  30.503  30.887  1.00  0.00    -0.248 NA
ATOM     41  C   UNL A   1      37.964  30.784  29.091  1.00  0.00     0.031 C 
ATOM     42  C   UNL A   1      37.285  33.727  33.095  1.00  0.00     0.029 A 
ATOM     43  N   UNL A   1      38.978  32.283  33.177  1.00  0.00    -0.354 N 
ATOM     44  C   UNL A   1      39.753  29.602  29.884  1.00  0.00     0.074 A 
ATOM     45  C   UNL A   1      38.782  29.778  28.824  1.00  0.00     0.031 C 
ATOM     46  C   UNL A   1      37.876  33.878  34.291  1.00  0.00     0.029 A 
ATOM     47  C   UNL A   1      38.976  32.927  34.392  1.00  0.00     0.049 A 
ATOM     48  H   UNL A   1      39.639  31.595  32.934  1.00  0.00     0.167 HD
ATOM     49  C   UNL A   1      40.782  28.725  29.838  1.00  0.00     0.037 A 
ATOM     50  C   UNL A   1      39.766  32.764  35.470  1.00  0.00     0.037 A 
ATOM     51  C   UNL A   1      41.749  28.556  30.889  1.00  0.00     0.049 A 
ATOM     52  C   UNL A   1      40.877  31.755  35.411  1.00  0.00     0.074 A 
ATOM     53  C   UNL A   1      42.851  27.721  30.923  1.00  0.00     0.029 A 
ATOM     54  N   UNL A   1      41.722  29.235  32.099  1.00  0.00    -0.354 N 
ATOM     55  N   UNL A   1      41.214  30.956  34.427  1.00  0.00    -0.248 NA
ATOM     56  C   UNL A   1      41.728  31.634  36.603  1.00  0.00     0.031 C 
ATOM     57  C   UNL A   1      43.470  27.867  32.169  1.00  0.00     0.029 A 
ATOM     58  C   UNL A   1      42.778  28.823  32.895  1.00  0.00     0.049 A 
ATOM     59  H   UNL A   1      41.052  29.909  32.354  1.00  0.00     0.167 HD
ATOM     60  C   UNL A   1      42.333  30.263  34.866  1.00  0.00     0.074 A 
ATOM     61  C   UNL A   1      42.622  30.740  36.203  1.00  0.00     0.031 C 
ATOM     62  C   UNL A   1      43.058  29.320  34.217  1.00  0.00     0.037 A 
BRANCH  49  63
ATOM     63  C   UNL A   1      40.909  27.888  28.602  1.00  0.00     0.064 A 
ATOM     64  C   UNL A   1      41.704  28.297  27.521  1.00  0.00     0.173 A 
ATOM     65  C   UNL A   1      40.233  26.664  28.495  1.00  0.00     0.173 A 
ATOM     66  F   UNL A   1      42.357  29.469  27.567  1.00  0.00    -0.203 F 
ATOM     67  C   UNL A   1      41.794  27.526  26.366  1.00  0.00     0.198 A 
ATOM     68  C   UNL A   1      40.345  25.882  27.349  1.00  0.00     0.198 A 
ATOM     69  F   UNL A   1      39.458  26.230  29.501  1.00  0.00    -0.203 F 
ATOM     70  F   UNL A   1      42.518  27.961  25.325  1.00  0.00    -0.200 F 
ATOM     71  C   UNL A   1      41.119  26.317  26.283  1.00  0.00     0.200 A 
ATOM     72  F   UNL A   1      39.698  24.712  27.272  1.00  0.00    -0.200 F 
ATOM     73  F   UNL A   1      41.204  25.575  25.170  1.00  0.00    -0.200 F 
ENDBRANCH  49  63
BRANCH  50  74
ATOM     74  C   UNL A   1      39.555  33.593  36.685  1.00  0.00     0.064 A 
ATOM     75  C   UNL A   1      38.758  33.130  37.741  1.00  0.00     0.173 A 
ATOM     76  C   UNL A   1      40.131  34.866  36.812  1.00  0.00     0.173 A 
ATOM     77  F   UNL A   1      38.170  31.927  37.656  1.00  0.00    -0.203 F 
ATOM     78  C   UNL A   1      38.528  33.915  38.869  1.00  0.00     0.198 A 
ATOM     79  C   UNL A   1      39.918  35.641  37.951  1.00  0.00     0.198 A 
ATOM     80  F   UNL A   1      40.906  35.353  35.833  1.00  0.00    -0.203 F 
ATOM     81  F   UNL A   1      37.726  33.464  39.843  1.00  0.00    -0.200 F 
ATOM     82  C   UNL A   1      39.111  35.168  38.974  1.00  0.00     0.200 A 
ATOM     83  F   UNL A   1      40.493  36.847  38.055  1.00  0.00    -0.200 F 
ATOM     84  F   UNL A   1      38.888  35.924  40.058  1.00  0.00    -0.200 F 
ENDBRANCH  50  74
BRANCH  62  85
ATOM     85  C   UNL A   1      44.258  28.771  34.928  1.00  0.00     0.064 A 
ATOM     86  C   UNL A   1      44.175  27.631  35.739  1.00  0.00     0.173 A 
ATOM     87  C   UNL A   1      45.514  29.372  34.759  1.00  0.00     0.173 A 
ATOM     88  F   UNL A   1      42.992  27.034  35.945  1.00  0.00    -0.203 F 
ATOM     89  C   UNL A   1      45.306  27.122  36.371  1.00  0.00     0.198 A 
ATOM     90  C   UNL A   1      46.647  28.844  35.370  1.00  0.00     0.198 A 
ATOM     91  F   UNL A   1      45.645  30.463  33.989  1.00  0.00    -0.203 F 
ATOM     92  F   UNL A   1      45.198  26.056  37.175  1.00  0.00    -0.200 F 
ATOM     93  C   UNL A   1      46.542  27.723  36.180  1.00  0.00     0.200 A 
ATOM     94  F   UNL A   1      47.842  29.420  35.176  1.00  0.00    -0.200 F 
ATOM     95  F   UNL A   1      47.630  27.226  36.783  1.00  0.00    -0.200 F 
ENDBRANCH  62  85
ENDBRANCH  36  37
ENDBRANCH  28  31
ENDBRANCH  26  27
ENDBRANCH  25  26
ENDBRANCH   1  25
TORSDOF 13
ENDMDL
MODEL 2
REMARK VINA RESULT:     -12.7      5.332     11.124
REMARK SMILES C[C@@H]1[C@H](C(=O)NCCCNC(=O)c2ccc(-c3c4nc(c(-c5c(F)c(F)c(F)c(F)c5F)c5ccc([nH]5)c(-c5c(F)c(F)c(F)c(F)c5F)c5nc(c(-c6c(F)c(F)c(F)c(F)c6F)c6ccc3[nH]6)C=C5)C=C4)cc2)CC[N@@H+]1Cc1cnn(-c2ccccc2)c1
REMARK SMILES IDX 7 1 6 2 4 3 5 4 3 6 1 7 2 8 78 9 76 10 77 11 79 13 80 14
REMARK SMILES IDX 81 15 90 16 82 17 83 18 84 19 85 20 89 21 86 22 88 23 87 24
REMARK SMILES IDX 8 25 9 26 10 27 11 28 12 30 13 31 14 32 75 33 15 34 74 35
REMARK SMILES IDX 16 36 17 37 18 38 68 39 19 40 73 41 67 42 69 43 20 44 72 45
REMARK SMILES IDX 66 46 65 47 21 49 53 50 33 51 52 52 34 53 37 54 51 55 70 56
REMARK SMILES IDX 35 57 36 58 50 60 71 61 38 62 22 63 23 64 31 65 24 66 25 67
REMARK SMILES IDX 29 68 32 69 26 70 27 71 30 72 28 73 54 74 55 75 63 76 56 77
REMARK SMILES IDX 57 78 61 79 64 80 58 81 59 82 62 83 60 84 39 85 40 86 48 87
REMARK SMILES IDX 41 88 42 89 46 90 49 91 43 92 44 93 47 94 45 95
REMARK H PARENT 6 5 78 12 10 29 69 48 37 59
REMARK Flexibility Score: inf
ROOT
ATOM      1  C   UNL A   1      36.538  19.888  25.001  1.00  0.00     0.117 C 
ENDROOT
BRANCH   1   2
ATOM      2  N   UNL A   1      36.493  21.334  24.871  1.00  0.00    -0.356 N 
ATOM      3  C   UNL A   1      35.502  22.196  24.540  1.00  0.00     0.229 C 
ATOM      4  O   UNL A   1      35.838  23.380  24.418  1.00  0.00    -0.275 OA
ATOM      5  H   UNL A   1      37.353  21.773  25.060  1.00  0.00     0.163 HD
BRANCH   3   6
ATOM      6  C   UNL A   1      34.047  21.810  24.319  1.00  0.00     0.142 C 
ATOM      7  C   UNL A   1      33.727  21.643  26.916  1.00  0.00     0.076 C 
ATOM      8  C   UNL A   1      33.166  21.423  25.522  1.00  0.00     0.193 C 
ATOM      9  N   UNL A   1      31.861  22.003  25.215  1.00  0.00    -0.328 N 
ATOM     10  C   UNL A   1      33.207  22.749  23.458  1.00  0.00     0.081 C 
ATOM     11  C   UNL A   1      31.778  22.382  23.819  1.00  0.00     0.263 C 
ATOM     12  H   UNL A   1      31.244  21.223  25.443  1.00  0.00     0.348 HD
BRANCH   9  13
ATOM     13  C   UNL A   1      30.975  22.605  26.183  1.00  0.00     0.302 C 
BRANCH  13  14
ATOM     14  C   UNL A   1      30.996  24.097  26.159  1.00  0.00     0.045 A 
ATOM     15  C   UNL A   1      29.937  24.987  25.883  1.00  0.00     0.145 A 
ATOM     16  C   UNL A   1      32.034  24.943  26.500  1.00  0.00     0.124 A 
ATOM     17  N   UNL A   1      30.278  26.268  26.015  1.00  0.00    -0.176 NA
ATOM     18  N   UNL A   1      31.582  26.241  26.376  1.00  0.00    -0.240 N 
BRANCH  18  19
ATOM     19  C   UNL A   1      32.322  27.440  26.548  1.00  0.00     0.065 A 
ATOM     20  C   UNL A   1      31.700  28.572  27.098  1.00  0.00     0.028 A 
ATOM     21  C   UNL A   1      33.656  27.518  26.139  1.00  0.00     0.028 A 
ATOM     22  C   UNL A   1      32.413  29.763  27.251  1.00  0.00     0.002 A 
ATOM     23  C   UNL A   1      34.345  28.721  26.267  1.00  0.00     0.002 A 
ATOM     24  C   UNL A   1      33.737  29.838  26.833  1.00  0.00     0.000 A 
ENDBRANCH  18  19
ENDBRANCH  13  14
ENDBRANCH   9  13
ENDBRANCH   3   6
ENDBRANCH   1   2
BRANCH   1  25
ATOM     25  C   UNL A   1      37.947  19.340  24.786  1.00  0.00     0.042 C 
BRANCH  25  26
ATOM     26  C   UNL A   1      39.010  19.839  25.751  1.00  0.00     0.118 C 
BRANCH  26  27
ATOM     27  N   UNL A   1      40.169  18.967  25.842  1.00  0.00    -0.352 N 
ATOM     28  C   UNL A   1      41.494  19.215  26.111  1.00  0.00     0.251 C 
ATOM     29  H   UNL A   1      39.966  18.018  25.680  1.00  0.00     0.163 HD
ATOM     30  O   UNL A   1      42.287  18.274  26.049  1.00  0.00    -0.269 OA
BRANCH  28  31
ATOM     31  C   UNL A   1      42.018  20.569  26.439  1.00  0.00     0.039 A 
ATOM     32  C   UNL A   1      42.306  21.441  25.376  1.00  0.00     0.014 A 
ATOM     33  C   UNL A   1      42.290  20.994  27.739  1.00  0.00     0.014 A 
ATOM     34  C   UNL A   1      42.761  22.744  25.617  1.00  0.00     0.010 A 
ATOM     35  C   UNL A   1      42.672  22.315  27.989  1.00  0.00     0.010 A 
ATOM     36  C   UNL A   1      42.915  23.202  26.930  1.00  0.00    -0.014 A 
BRANCH  36  37
ATOM     37  C   UNL A   1      43.419  24.568  27.228  1.00  0.00     0.031 A 
ATOM     38  C   UNL A   1      42.467  25.597  27.763  1.00  0.00     0.074 A 
ATOM     39  C   UNL A   1      44.694  24.909  26.964  1.00  0.00     0.049 A 
ATOM     40  N   UNL A   1      42.675  26.863  28.018  1.00  0.00    -0.248 NA
ATOM     41  C   UNL A   1      41.091  25.146  28.025  1.00  0.00     0.031 C 
ATOM     42  C   UNL A   1      45.707  24.010  26.425  1.00  0.00     0.029 A 
ATOM     43  N   UNL A   1      45.356  26.105  27.092  1.00  0.00    -0.354 N 
ATOM     44  C   UNL A   1      41.461  27.357  28.471  1.00  0.00     0.074 A 
ATOM     45  C   UNL A   1      40.505  26.272  28.400  1.00  0.00     0.031 C 
ATOM     46  C   UNL A   1      46.860  24.675  26.261  1.00  0.00     0.029 A 
ATOM     47  C   UNL A   1      46.661  26.062  26.663  1.00  0.00     0.049 A 
ATOM     48  H   UNL A   1      44.935  26.917  27.457  1.00  0.00     0.167 HD
ATOM     49  C   UNL A   1      41.175  28.598  28.930  1.00  0.00     0.037 A 
ATOM     50  C   UNL A   1      47.591  27.033  26.595  1.00  0.00     0.037 A 
ATOM     51  C   UNL A   1      42.128  29.672  29.005  1.00  0.00     0.049 A 
ATOM     52  C   UNL A   1      47.239  28.413  27.072  1.00  0.00     0.074 A 
ATOM     53  C   UNL A   1      41.947  30.955  29.490  1.00  0.00     0.029 A 
ATOM     54  N   UNL A   1      43.444  29.588  28.574  1.00  0.00    -0.354 N 
ATOM     55  N   UNL A   1      46.104  28.850  27.562  1.00  0.00    -0.248 NA
ATOM     56  C   UNL A   1      48.296  29.430  27.000  1.00  0.00     0.031 C 
ATOM     57  C   UNL A   1      43.144  31.659  29.318  1.00  0.00     0.029 A 
ATOM     58  C   UNL A   1      44.082  30.803  28.764  1.00  0.00     0.049 A 
ATOM     59  H   UNL A   1      43.863  28.784  28.191  1.00  0.00     0.167 HD
ATOM     60  C   UNL A   1      46.320  30.181  27.890  1.00  0.00     0.074 A 
ATOM     61  C   UNL A   1      47.696  30.479  27.548  1.00  0.00     0.031 C 
ATOM     62  C   UNL A   1      45.456  31.075  28.430  1.00  0.00     0.037 A 
BRANCH  49  63
ATOM     63  C   UNL A   1      39.772  28.847  29.390  1.00  0.00     0.064 A 
ATOM     64  C   UNL A   1      38.804  29.382  28.526  1.00  0.00     0.173 A 
ATOM     65  C   UNL A   1      39.386  28.546  30.704  1.00  0.00     0.173 A 
ATOM     66  F   UNL A   1      39.129  29.703  27.264  1.00  0.00    -0.203 F 
ATOM     67  C   UNL A   1      37.510  29.636  28.970  1.00  0.00     0.198 A 
ATOM     68  C   UNL A   1      38.084  28.776  31.138  1.00  0.00     0.198 A 
ATOM     69  F   UNL A   1      40.275  28.034  31.570  1.00  0.00    -0.203 F 
ATOM     70  F   UNL A   1      36.616  30.196  28.143  1.00  0.00    -0.200 F 
ATOM     71  C   UNL A   1      37.149  29.328  30.273  1.00  0.00     0.200 A 
ATOM     72  F   UNL A   1      37.734  28.473  32.395  1.00  0.00    -0.200 F 
ATOM     73  F   UNL A   1      35.903  29.574  30.701  1.00  0.00    -0.200 F 
ENDBRANCH  49  63
BRANCH  50  74
ATOM     74  C   UNL A   1      48.952  26.730  26.081  1.00  0.00     0.064 A 
ATOM     75  C   UNL A   1      49.298  27.014  24.752  1.00  0.00     0.173 A 
ATOM     76  C   UNL A   1      49.930  26.142  26.898  1.00  0.00     0.173 A 
ATOM     77  F   UNL A   1      48.391  27.559  23.928  1.00  0.00    -0.203 F 
ATOM     78  C   UNL A   1      50.562  26.703  24.253  1.00  0.00     0.198 A 
ATOM     79  C   UNL A   1      51.200  25.852  26.403  1.00  0.00     0.198 A 
ATOM     80  F   UNL A   1      49.651  25.855  28.178  1.00  0.00    -0.203 F 
ATOM     81  F   UNL A   1      50.850  26.945  22.967  1.00  0.00    -0.200 F 
ATOM     82  C   UNL A   1      51.512  26.124  25.080  1.00  0.00     0.200 A 
ATOM     83  F   UNL A   1      52.121  25.304  27.208  1.00  0.00    -0.200 F 
ATOM     84  F   UNL A   1      52.726  25.824  24.600  1.00  0.00    -0.200 F 
ENDBRANCH  50  74
BRANCH  62  85
ATOM     85  C   UNL A   1      45.985  32.446  28.723  1.00  0.00     0.064 A 
ATOM     86  C   UNL A   1      45.890  33.486  27.788  1.00  0.00     0.173 A 
ATOM     87  C   UNL A   1      46.557  32.730  29.972  1.00  0.00     0.173 A 
ATOM     88  F   UNL A   1      45.368  33.257  26.575  1.00  0.00    -0.203 F 
ATOM     89  C   UNL A   1      46.365  34.760  28.089  1.00  0.00     0.198 A 
ATOM     90  C   UNL A   1      47.007  34.011  30.278  1.00  0.00     0.198 A 
ATOM     91  F   UNL A   1      46.668  31.768  30.901  1.00  0.00    -0.203 F 
ATOM     92  F   UNL A   1      46.301  35.730  27.166  1.00  0.00    -0.200 F 
ATOM     93  C   UNL A   1      46.915  35.024  29.335  1.00  0.00     0.200 A 
ATOM     94  F   UNL A   1      47.528  34.267  31.486  1.00  0.00    -0.200 F 
ATOM     95  F   UNL A   1      47.363  36.252  29.623  1.00  0.00    -0.200 F 
ENDBRANCH  62  85
ENDBRANCH  36  37
ENDBRANCH  28  31
ENDBRANCH  26  27
ENDBRANCH  25  26
ENDBRANCH   1  25
TORSDOF 13
ENDMDL
MODEL 3
REMARK VINA RESULT:     -12.7      0.454      1.721
REMARK SMILES C[C@@H]1[C@H](C(=O)NCCCNC(=O)c2ccc(-c3c4nc(c(-c5c(F)c(F)c(F)c(F)c5F)c5ccc([nH]5)c(-c5c(F)c(F)c(F)c(F)c5F)c5nc(c(-c6c(F)c(F)c(F)c(F)c6F)c6ccc3[nH]6)C=C5)C=C4)cc2)CC[N@@H+]1Cc1cnn(-c2ccccc2)c1
REMARK SMILES IDX 7 1 6 2 4 3 5 4 3 6 1 7 2 8 78 9 76 10 77 11 79 13 80 14
REMARK SMILES IDX 81 15 90 16 82 17 83 18 84 19 85 20 89 21 86 22 88 23 87 24
REMARK SMILES IDX 8 25 9 26 10 27 11 28 12 30 13 31 14 32 75 33 15 34 74 35
REMARK SMILES IDX 16 36 17 37 18 38 68 39 19 40 73 41 67 42 69 43 20 44 72 45
REMARK SMILES IDX 66 46 65 47 21 49 53 50 33 51 52 52 34 53 37 54 51 55 70 56
REMARK SMILES IDX 35 57 36 58 50 60 71 61 38 62 22 63 23 64 31 65 24 66 25 67
REMARK SMILES IDX 29 68 32 69 26 70 27 71 30 72 28 73 54 74 55 75 63 76 56 77
REMARK SMILES IDX 57 78 61 79 64 80 58 81 59 82 62 83 60 84 39 85 40 86 48 87
REMARK SMILES IDX 41 88 42 89 46 90 49 91 43 92 44 93 47 94 45 95
REMARK H PARENT 6 5 78 12 10 29 69 48 37 59
REMARK Flexibility Score: inf
ROOT
ATOM      1  C   UNL A   1      31.395  30.439  26.211  1.00  0.00     0.117 C 
ENDROOT
BRANCH   1   2
ATOM      2  N   UNL A   1      31.086  30.144  24.822  1.00  0.00    -0.356 N 
ATOM      3  C   UNL A   1      31.357  29.082  24.026  1.00  0.00     0.229 C 
ATOM      4  O   UNL A   1      31.032  29.204  22.838  1.00  0.00    -0.275 OA
ATOM      5  H   UNL A   1      30.579  30.858  24.372  1.00  0.00     0.163 HD
BRANCH   3   6
ATOM      6  C   UNL A   1      32.015  27.790  24.487  1.00  0.00     0.142 C 
ATOM      7  C   UNL A   1      29.741  26.538  24.118  1.00  0.00     0.076 C 
ATOM      8  C   UNL A   1      31.168  26.512  24.637  1.00  0.00     0.193 C 
ATOM      9  N   UNL A   1      32.043  25.441  24.168  1.00  0.00    -0.328 N 
ATOM     10  C   UNL A   1      33.295  27.373  23.770  1.00  0.00     0.081 C 
ATOM     11  C   UNL A   1      33.418  25.893  24.090  1.00  0.00     0.263 C 
ATOM     12  H   UNL A   1      31.905  24.743  24.899  1.00  0.00     0.348 HD
BRANCH   9  13
ATOM     13  C   UNL A   1      31.612  24.296  23.400  1.00  0.00     0.302 C 
BRANCH  13  14
ATOM     14  C   UNL A   1      32.083  22.996  23.962  1.00  0.00     0.045 A 
ATOM     15  C   UNL A   1      32.220  22.620  25.314  1.00  0.00     0.145 A 
ATOM     16  C   UNL A   1      32.393  21.833  23.282  1.00  0.00     0.124 A 
ATOM     17  N   UNL A   1      32.600  21.353  25.473  1.00  0.00    -0.176 NA
ATOM     18  N   UNL A   1      32.728  20.873  24.214  1.00  0.00    -0.240 N 
BRANCH  18  19
ATOM     19  C   UNL A   1      33.188  19.551  23.975  1.00  0.00     0.065 A 
ATOM     20  C   UNL A   1      32.471  18.707  23.114  1.00  0.00     0.028 A 
ATOM     21  C   UNL A   1      34.328  19.067  24.622  1.00  0.00     0.028 A 
ATOM     22  C   UNL A   1      32.902  17.398  22.890  1.00  0.00     0.002 A 
ATOM     23  C   UNL A   1      34.728  17.750  24.416  1.00  0.00     0.002 A 
ATOM     24  C   UNL A   1      34.031  16.918  23.543  1.00  0.00     0.000 A 
ENDBRANCH  18  19
ENDBRANCH  13  14
ENDBRANCH   9  13
ENDBRANCH   3   6
ENDBRANCH   1   2
BRANCH   1  25
ATOM     25  C   UNL A   1      31.256  31.926  26.522  1.00  0.00     0.042 C 
BRANCH  25  26
ATOM     26  C   UNL A   1      32.554  32.681  26.763  1.00  0.00     0.118 C 
BRANCH  26  27
ATOM     27  N   UNL A   1      32.366  33.978  27.391  1.00  0.00    -0.352 N 
ATOM     28  C   UNL A   1      33.027  34.614  28.414  1.00  0.00     0.251 C 
ATOM     29  H   UNL A   1      31.623  34.499  27.011  1.00  0.00     0.163 HD
ATOM     30  O   UNL A   1      32.596  35.702  28.798  1.00  0.00    -0.269 OA
BRANCH  28  31
ATOM     31  C   UNL A   1      34.215  34.035  29.100  1.00  0.00     0.039 A 
ATOM     32  C   UNL A   1      33.999  33.052  30.079  1.00  0.00     0.014 A 
ATOM     33  C   UNL A   1      35.522  34.458  28.860  1.00  0.00     0.014 A 
ATOM     34  C   UNL A   1      35.075  32.436  30.730  1.00  0.00     0.010 A 
ATOM     35  C   UNL A   1      36.602  33.796  29.451  1.00  0.00     0.010 A 
ATOM     36  C   UNL A   1      36.388  32.782  30.396  1.00  0.00    -0.014 A 
BRANCH  36  37
ATOM     37  C   UNL A   1      37.557  32.170  31.081  1.00  0.00     0.031 A 
ATOM     38  C   UNL A   1      38.320  31.079  30.390  1.00  0.00     0.074 A 
ATOM     39  C   UNL A   1      37.897  32.536  32.331  1.00  0.00     0.049 A 
ATOM     40  N   UNL A   1      39.318  30.358  30.832  1.00  0.00    -0.248 NA
ATOM     41  C   UNL A   1      37.888  30.736  29.025  1.00  0.00     0.031 C 
ATOM     42  C   UNL A   1      37.223  33.564  33.114  1.00  0.00     0.029 A 
ATOM     43  N   UNL A   1      38.877  32.075  33.173  1.00  0.00    -0.354 N 
ATOM     44  C   UNL A   1      39.633  29.483  29.805  1.00  0.00     0.074 A 
ATOM     45  C   UNL A   1      38.683  29.719  28.737  1.00  0.00     0.031 C 
ATOM     46  C   UNL A   1      37.799  33.660  34.323  1.00  0.00     0.029 A 
ATOM     47  C   UNL A   1      38.873  32.678  34.409  1.00  0.00     0.049 A 
ATOM     48  H   UNL A   1      39.523  31.377  32.917  1.00  0.00     0.167 HD
ATOM     49  C   UNL A   1      40.640  28.581  29.745  1.00  0.00     0.037 A 
ATOM     50  C   UNL A   1      39.641  32.459  35.492  1.00  0.00     0.037 A 
ATOM     51  C   UNL A   1      41.585  28.352  30.804  1.00  0.00     0.049 A 
ATOM     52  C   UNL A   1      40.727  31.424  35.416  1.00  0.00     0.074 A 
ATOM     53  C   UNL A   1      42.665  27.488  30.826  1.00  0.00     0.029 A 
ATOM     54  N   UNL A   1      41.558  28.992  32.035  1.00  0.00    -0.354 N 
ATOM     55  N   UNL A   1      41.058  30.649  34.412  1.00  0.00    -0.248 NA
ATOM     56  C   UNL A   1      41.555  31.241  36.615  1.00  0.00     0.031 C 
ATOM     57  C   UNL A   1      43.269  27.577  32.086  1.00  0.00     0.029 A 
ATOM     58  C   UNL A   1      42.590  28.526  32.833  1.00  0.00     0.049 A 
ATOM     59  H   UNL A   1      40.902  29.675  32.302  1.00  0.00     0.167 HD
ATOM     60  C   UNL A   1      42.152  29.912  34.844  1.00  0.00     0.074 A 
ATOM     61  C   UNL A   1      42.433  30.338  36.200  1.00  0.00     0.031 C 
ATOM     62  C   UNL A   1      42.862  28.972  34.174  1.00  0.00     0.037 A 
BRANCH  49  63
ATOM     63  C   UNL A   1      40.764  27.782  28.484  1.00  0.00     0.064 A 
ATOM     64  C   UNL A   1      40.118  26.545  28.336  1.00  0.00     0.173 A 
ATOM     65  C   UNL A   1      41.534  28.255  27.411  1.00  0.00     0.173 A 
ATOM     66  F   UNL A   1      39.386  26.042  29.341  1.00  0.00    -0.203 F 
ATOM     67  C   UNL A   1      40.262  25.797  27.171  1.00  0.00     0.198 A 
ATOM     68  C   UNL A   1      41.654  27.517  26.237  1.00  0.00     0.198 A 
ATOM     69  F   UNL A   1      42.173  29.431  27.504  1.00  0.00    -0.203 F 
ATOM     70  F   UNL A   1      39.678  24.594  27.072  1.00  0.00    -0.200 F 
ATOM     71  C   UNL A   1      41.025  26.285  26.121  1.00  0.00     0.200 A 
ATOM     72  F   UNL A   1      42.386  27.992  25.220  1.00  0.00    -0.200 F 
ATOM     73  F   UNL A   1      41.165  25.564  25.000  1.00  0.00    -0.200 F 
ENDBRANCH  49  63
BRANCH  50  74
ATOM     74  C   UNL A   1      39.432  33.254  36.730  1.00  0.00     0.064 A 
ATOM     75  C   UNL A   1      40.134  34.449  36.944  1.00  0.00     0.173 A 
ATOM     76  C   UNL A   1      38.541  32.833  37.728  1.00  0.00     0.173 A 
ATOM     77  F   UNL A   1      41.011  34.881  36.026  1.00  0.00    -0.203 F 
ATOM     78  C   UNL A   1      39.969  35.182  38.117  1.00  0.00     0.198 A 
ATOM     79  C   UNL A   1      38.360  33.580  38.892  1.00  0.00     0.198 A 
ATOM     80  F   UNL A   1      37.842  31.700  37.570  1.00  0.00    -0.203 F 
ATOM     81  F   UNL A   1      40.685  36.297  38.314  1.00  0.00    -0.200 F 
ATOM     82  C   UNL A   1      39.079  34.748  39.088  1.00  0.00     0.200 A 
ATOM     83  F   UNL A   1      37.491  33.164  39.823  1.00  0.00    -0.200 F 
ATOM     84  F   UNL A   1      38.922  35.453  40.217  1.00  0.00    -0.200 F 
ENDBRANCH  50  74
BRANCH  62  85
ATOM     85  C   UNL A   1      44.037  28.369  34.884  1.00  0.00     0.064 A 
ATOM     86  C   UNL A   1      43.915  27.195  35.639  1.00  0.00     0.173 A 
ATOM     87  C   UNL A   1      45.306  28.954  34.770  1.00  0.00     0.173 A 
ATOM     88  F   UNL A   1      42.718  26.611  35.792  1.00  0.00    -0.203 F 
ATOM     89  C   UNL A   1      45.023  26.636  36.270  1.00  0.00     0.198 A 
ATOM     90  C   UNL A   1      46.416  28.378  35.380  1.00  0.00     0.198 A 
ATOM     91  F   UNL A   1      45.473  30.078  34.055  1.00  0.00    -0.203 F 
ATOM     92  F   UNL A   1      44.879  25.536  37.022  1.00  0.00    -0.200 F 
ATOM     93  C   UNL A   1      46.273  27.223  36.134  1.00  0.00     0.200 A 
ATOM     94  F   UNL A   1      47.625  28.940  35.239  1.00  0.00    -0.200 F 
ATOM     95  F   UNL A   1      47.339  26.678  36.736  1.00  0.00    -0.200 F 
ENDBRANCH  62  85
ENDBRANCH  36  37
ENDBRANCH  28  31
ENDBRANCH  26  27
ENDBRANCH  25  26
ENDBRANCH   1  25
TORSDOF 13
ENDMDL
