MODEL 1
REMARK VINA RESULT:     -12.2      0.000      0.000
REMARK SMILES O=C(NCCCNC(=O)[C@H]1N=c2ccccc2=C1C[NH2+]CCc1ccccc1)c1ccc(-c2c3nc(c(-c4c(F)c(F)c(F)c(F)c4F)c4ccc([nH]4)c(-c4c(F)c(F)c(F)c(F)c4F)c4nc(c(-c5c(F)c(F)c(F)c(F)c5F)c5ccc2[nH]5)C=C4)C=C3)cc1
REMARK SMILES IDX 7 1 8 2 9 3 6 5 5 6 4 7 3 8 1 9 2 10 29 12 30 13 91 14 31 15
REMARK SMILES IDX 90 16 32 17 33 18 34 19 84 20 35 21 89 22 83 23 85 24 36 25
REMARK SMILES IDX 88 26 82 27 81 28 37 30 69 31 49 32 68 33 50 34 53 35 67 36
REMARK SMILES IDX 86 37 51 38 52 39 66 41 87 42 54 43 38 44 39 45 47 46 40 47
REMARK SMILES IDX 41 48 45 49 48 50 42 51 43 52 46 53 44 54 70 55 71 56 79 57
REMARK SMILES IDX 72 58 73 59 77 60 80 61 74 62 75 63 78 64 76 65 55 66 56 67
REMARK SMILES IDX 64 68 57 69 58 70 62 71 65 72 59 73 60 74 63 75 61 76 10 77
REMARK SMILES IDX 11 78 18 79 12 80 17 81 13 82 16 83 14 84 15 85 19 86 20 87
REMARK SMILES IDX 21 90 22 91 23 92 24 93 28 94 25 95 27 96 26 97
REMARK H PARENT 7 4 3 11 85 29 53 40 20 88 20 89
REMARK Flexibility Score: inf
ROOT
ATOM      1  N   UNL A   1      34.055  23.901  23.096  1.00  0.00    -0.354 N 
ATOM      2  C   UNL A   1      33.414  24.995  23.622  1.00  0.00     0.249 C 
ATOM      3  O   UNL A   1      33.016  25.846  22.823  1.00  0.00    -0.272 OA
ATOM      4  H   UNL A   1      33.945  23.766  22.128  1.00  0.00     0.163 HD
ENDROOT
BRANCH   1   5
ATOM      5  C   UNL A   1      34.874  22.915  23.778  1.00  0.00     0.117 C 
BRANCH   5   6
ATOM      6  C   UNL A   1      36.363  23.199  23.683  1.00  0.00     0.042 C 
BRANCH   6   7
ATOM      7  C   UNL A   1      37.012  23.607  24.996  1.00  0.00     0.118 C 
BRANCH   7   8
ATOM      8  N   UNL A   1      38.117  22.741  25.383  1.00  0.00    -0.352 N 
ATOM      9  O   UNL A   1      40.118  22.104  26.161  1.00  0.00    -0.269 OA
ATOM     10  C   UNL A   1      39.253  22.979  26.110  1.00  0.00     0.251 C 
ATOM     11  H   UNL A   1      38.031  21.814  25.064  1.00  0.00     0.163 HD
BRANCH  10  12
ATOM     12  C   UNL A   1      39.474  24.255  26.826  1.00  0.00     0.039 A 
ATOM     13  C   UNL A   1      40.172  25.274  26.167  1.00  0.00     0.014 A 
ATOM     14  C   UNL A   1      39.094  24.438  28.156  1.00  0.00     0.014 A 
ATOM     15  C   UNL A   1      40.473  26.464  26.833  1.00  0.00     0.010 A 
ATOM     16  C   UNL A   1      39.292  25.665  28.784  1.00  0.00     0.010 A 
ATOM     17  C   UNL A   1      40.031  26.670  28.148  1.00  0.00    -0.014 A 
BRANCH  17  18
ATOM     18  C   UNL A   1      40.441  27.875  28.912  1.00  0.00     0.031 A 
ATOM     19  C   UNL A   1      41.870  28.015  29.369  1.00  0.00     0.074 A 
ATOM     20  C   UNL A   1      39.543  28.835  29.202  1.00  0.00     0.049 A 
ATOM     21  N   UNL A   1      42.431  28.978  30.055  1.00  0.00    -0.248 NA
ATOM     22  C   UNL A   1      42.785  26.910  29.038  1.00  0.00     0.031 C 
ATOM     23  C   UNL A   1      38.125  28.800  28.848  1.00  0.00     0.029 A 
ATOM     24  N   UNL A   1      39.696  30.035  29.853  1.00  0.00    -0.354 N 
ATOM     25  C   UNL A   1      43.749  28.584  30.249  1.00  0.00     0.074 A 
ATOM     26  C   UNL A   1      43.888  27.264  29.678  1.00  0.00     0.031 C 
ATOM     27  C   UNL A   1      37.546  29.946  29.244  1.00  0.00     0.029 A 
ATOM     28  C   UNL A   1      38.545  30.782  29.905  1.00  0.00     0.049 A 
ATOM     29  H   UNL A   1      40.549  30.331  30.245  1.00  0.00     0.167 HD
ATOM     30  C   UNL A   1      44.766  29.276  30.811  1.00  0.00     0.037 A 
ATOM     31  C   UNL A   1      38.326  32.008  30.419  1.00  0.00     0.037 A 
ATOM     32  C   UNL A   1      44.642  30.612  31.323  1.00  0.00     0.049 A 
ATOM     33  C   UNL A   1      39.467  32.756  31.052  1.00  0.00     0.074 A 
ATOM     34  C   UNL A   1      45.630  31.434  31.831  1.00  0.00     0.029 A 
ATOM     35  N   UNL A   1      43.453  31.323  31.381  1.00  0.00    -0.354 N 
ATOM     36  N   UNL A   1      40.725  32.402  31.166  1.00  0.00    -0.248 NA
ATOM     37  C   UNL A   1      39.161  34.071  31.634  1.00  0.00     0.031 C 
ATOM     38  C   UNL A   1      45.031  32.630  32.237  1.00  0.00     0.029 A 
ATOM     39  C   UNL A   1      43.677  32.566  31.948  1.00  0.00     0.049 A 
ATOM     40  H   UNL A   1      42.580  30.993  31.065  1.00  0.00     0.167 HD
ATOM     41  C   UNL A   1      41.360  33.450  31.818  1.00  0.00     0.074 A 
ATOM     42  C   UNL A   1      40.354  34.462  32.062  1.00  0.00     0.031 C 
ATOM     43  C   UNL A   1      42.660  33.559  32.185  1.00  0.00     0.037 A 
BRANCH  30  44
ATOM     44  C   UNL A   1      46.109  28.608  30.876  1.00  0.00     0.064 A 
ATOM     45  C   UNL A   1      46.494  27.844  31.987  1.00  0.00     0.173 A 
ATOM     46  C   UNL A   1      47.008  28.711  29.804  1.00  0.00     0.173 A 
ATOM     47  F   UNL A   1      45.675  27.724  33.042  1.00  0.00    -0.203 F 
ATOM     48  C   UNL A   1      47.745  27.234  32.039  1.00  0.00     0.198 A 
ATOM     49  C   UNL A   1      48.247  28.075  29.847  1.00  0.00     0.198 A 
ATOM     50  F   UNL A   1      46.687  29.425  28.716  1.00  0.00    -0.203 F 
ATOM     51  F   UNL A   1      48.112  26.553  33.133  1.00  0.00    -0.200 F 
ATOM     52  C   UNL A   1      48.617  27.344  30.967  1.00  0.00     0.200 A 
ATOM     53  F   UNL A   1      49.084  28.172  28.805  1.00  0.00    -0.200 F 
ATOM     54  F   UNL A   1      49.818  26.753  31.015  1.00  0.00    -0.200 F 
ENDBRANCH  30  44
BRANCH  31  55
ATOM     55  C   UNL A   1      36.977  32.617  30.304  1.00  0.00     0.064 A 
ATOM     56  C   UNL A   1      36.017  32.418  31.306  1.00  0.00     0.173 A 
ATOM     57  C   UNL A   1      36.633  33.440  29.222  1.00  0.00     0.173 A 
ATOM     58  F   UNL A   1      36.294  31.624  32.350  1.00  0.00    -0.203 F 
ATOM     59  C   UNL A   1      34.763  33.021  31.230  1.00  0.00     0.198 A 
ATOM     60  C   UNL A   1      35.386  34.059  29.158  1.00  0.00     0.198 A 
ATOM     61  F   UNL A   1      37.518  33.663  28.240  1.00  0.00    -0.203 F 
ATOM     62  F   UNL A   1      33.856  32.799  32.191  1.00  0.00    -0.200 F 
ATOM     63  C   UNL A   1      34.452  33.848  30.161  1.00  0.00     0.200 A 
ATOM     64  F   UNL A   1      35.094  34.868  28.130  1.00  0.00    -0.200 F 
ATOM     65  F   UNL A   1      33.251  34.441  30.097  1.00  0.00    -0.200 F 
ENDBRANCH  31  55
BRANCH  43  66
ATOM     66  C   UNL A   1      43.083  34.804  32.905  1.00  0.00     0.064 A 
ATOM     67  C   UNL A   1      43.469  35.950  32.198  1.00  0.00     0.173 A 
ATOM     68  C   UNL A   1      42.983  34.889  34.301  1.00  0.00     0.173 A 
ATOM     69  F   UNL A   1      43.589  35.911  30.862  1.00  0.00    -0.203 F 
ATOM     70  C   UNL A   1      43.736  37.142  32.863  1.00  0.00     0.198 A 
ATOM     71  C   UNL A   1      43.228  36.090  34.962  1.00  0.00     0.198 A 
ATOM     72  F   UNL A   1      42.607  33.820  35.020  1.00  0.00    -0.203 F 
ATOM     73  F   UNL A   1      44.114  38.224  32.170  1.00  0.00    -0.200 F 
ATOM     74  C   UNL A   1      43.602  37.214  34.243  1.00  0.00     0.200 A 
ATOM     75  F   UNL A   1      43.081  36.163  36.292  1.00  0.00    -0.200 F 
ATOM     76  F   UNL A   1      43.830  38.372  34.879  1.00  0.00    -0.200 F 
ENDBRANCH  43  66
ENDBRANCH  17  18
ENDBRANCH  10  12
ENDBRANCH   7   8
ENDBRANCH   6   7
ENDBRANCH   5   6
ENDBRANCH   1   5
BRANCH   2  77
ATOM     77  C   UNL A   1      33.234  25.093  25.165  1.00  0.00     0.227 C 
ATOM     78  N   UNL A   1      34.290  26.042  25.654  1.00  0.00    -0.267 NA
ATOM     79  C   UNL A   1      31.931  25.709  25.611  1.00  0.00     0.027 C 
ATOM     80  C   UNL A   1      33.607  27.041  26.111  1.00  0.00     0.066 A 
ATOM     81  C   UNL A   1      32.143  26.922  26.127  1.00  0.00     0.007 A 
ATOM     82  C   UNL A   1      34.188  28.282  26.660  1.00  0.00     0.028 A 
ATOM     83  C   UNL A   1      31.325  27.949  26.695  1.00  0.00     0.010 A 
ATOM     84  C   UNL A   1      33.364  29.216  27.156  1.00  0.00     0.002 A 
ATOM     85  C   UNL A   1      31.920  29.052  27.183  1.00  0.00     0.001 A 
BRANCH  79  86
ATOM     86  C   UNL A   1      30.630  24.975  25.544  1.00  0.00     0.296 C 
BRANCH  86  87
ATOM     87  N   UNL A   1      30.046  24.987  24.217  1.00  0.00    -0.342 N 
ATOM     88  H   UNL A   1      29.449  24.165  24.125  1.00  0.00     0.346 HD
ATOM     89  H   UNL A   1      30.825  24.993  23.559  1.00  0.00     0.346 HD
BRANCH  87  90
ATOM     90  C   UNL A   1      29.240  26.171  23.912  1.00  0.00     0.265 C 
BRANCH  90  91
ATOM     91  C   UNL A   1      29.937  27.338  23.185  1.00  0.00     0.097 C 
BRANCH  91  92
ATOM     92  C   UNL A   1      29.252  28.683  23.275  1.00  0.00    -0.042 A 
ATOM     93  C   UNL A   1      29.975  29.815  23.676  1.00  0.00     0.004 A 
ATOM     94  C   UNL A   1      27.883  28.818  23.009  1.00  0.00     0.004 A 
ATOM     95  C   UNL A   1      29.350  31.057  23.794  1.00  0.00     0.000 A 
ATOM     96  C   UNL A   1      27.257  30.061  23.127  1.00  0.00     0.000 A 
ATOM     97  C   UNL A   1      27.989  31.179  23.519  1.00  0.00     0.000 A 
ENDBRANCH  91  92
ENDBRANCH  90  91
ENDBRANCH  87  90
ENDBRANCH  86  87
ENDBRANCH  79  86
ENDBRANCH   2  77
TORSDOF 15
ENDMDL
MODEL 2
REMARK VINA RESULT:     -12.1      3.142      8.868
REMARK SMILES O=C(NCCCNC(=O)[C@H]1N=c2ccccc2=C1C[NH2+]CCc1ccccc1)c1ccc(-c2c3nc(c(-c4c(F)c(F)c(F)c(F)c4F)c4ccc([nH]4)c(-c4c(F)c(F)c(F)c(F)c4F)c4nc(c(-c5c(F)c(F)c(F)c(F)c5F)c5ccc2[nH]5)C=C4)C=C3)cc1
REMARK SMILES IDX 7 1 8 2 9 3 6 5 5 6 4 7 3 8 1 9 2 10 29 12 30 13 91 14 31 15
REMARK SMILES IDX 90 16 32 17 33 18 34 19 84 20 35 21 89 22 83 23 85 24 36 25
REMARK SMILES IDX 88 26 82 27 81 28 37 30 69 31 49 32 68 33 50 34 53 35 67 36
REMARK SMILES IDX 86 37 51 38 52 39 66 41 87 42 54 43 38 44 39 45 47 46 40 47
REMARK SMILES IDX 41 48 45 49 48 50 42 51 43 52 46 53 44 54 70 55 71 56 79 57
REMARK SMILES IDX 72 58 73 59 77 60 80 61 74 62 75 63 78 64 76 65 55 66 56 67
REMARK SMILES IDX 64 68 57 69 58 70 62 71 65 72 59 73 60 74 63 75 61 76 10 77
REMARK SMILES IDX 11 78 18 79 12 80 17 81 13 82 16 83 14 84 15 85 19 86 20 87
REMARK SMILES IDX 21 90 22 91 23 92 24 93 28 94 25 95 27 96 26 97
REMARK H PARENT 7 4 3 11 85 29 53 40 20 88 20 89
REMARK Flexibility Score: inf
ROOT
ATOM      1  N   UNL A   1      31.323  25.942  25.896  1.00  0.00    -0.354 N 
ATOM      2  C   UNL A   1      32.143  24.922  25.482  1.00  0.00     0.249 C 
ATOM      3  O   UNL A   1      31.844  23.782  25.847  1.00  0.00    -0.272 OA
ATOM      4  H   UNL A   1      30.446  25.668  26.249  1.00  0.00     0.163 HD
ENDROOT
BRANCH   1   5
ATOM      5  C   UNL A   1      31.575  27.372  25.881  1.00  0.00     0.117 C 
BRANCH   5   6
ATOM      6  C   UNL A   1      32.002  27.922  27.231  1.00  0.00     0.042 C 
BRANCH   6   7
ATOM      7  C   UNL A   1      33.419  28.473  27.268  1.00  0.00     0.118 C 
BRANCH   7   8
ATOM      8  N   UNL A   1      33.474  29.890  27.597  1.00  0.00    -0.352 N 
ATOM      9  O   UNL A   1      34.199  31.820  28.472  1.00  0.00    -0.269 OA
ATOM     10  C   UNL A   1      34.464  30.663  28.144  1.00  0.00     0.251 C 
ATOM     11  H   UNL A   1      32.649  30.384  27.388  1.00  0.00     0.163 HD
BRANCH  10  12
ATOM     12  C   UNL A   1      35.835  30.147  28.358  1.00  0.00     0.039 A 
ATOM     13  C   UNL A   1      36.151  29.599  29.607  1.00  0.00     0.014 A 
ATOM     14  C   UNL A   1      36.836  30.275  27.394  1.00  0.00     0.014 A 
ATOM     15  C   UNL A   1      37.453  29.176  29.878  1.00  0.00     0.010 A 
ATOM     16  C   UNL A   1      38.104  29.748  27.622  1.00  0.00     0.010 A 
ATOM     17  C   UNL A   1      38.441  29.243  28.885  1.00  0.00    -0.014 A 
BRANCH  17  18
ATOM     18  C   UNL A   1      39.855  28.909  29.190  1.00  0.00     0.031 A 
ATOM     19  C   UNL A   1      40.665  29.832  30.062  1.00  0.00     0.074 A 
ATOM     20  C   UNL A   1      40.414  27.793  28.686  1.00  0.00     0.049 A 
ATOM     21  N   UNL A   1      41.915  29.732  30.440  1.00  0.00    -0.248 NA
ATOM     22  C   UNL A   1      39.992  31.047  30.551  1.00  0.00     0.031 C 
ATOM     23  C   UNL A   1      39.748  26.839  27.800  1.00  0.00     0.029 A 
ATOM     24  N   UNL A   1      41.671  27.268  28.858  1.00  0.00    -0.354 N 
ATOM     25  C   UNL A   1      42.174  30.874  31.188  1.00  0.00     0.074 A 
ATOM     26  C   UNL A   1      40.981  31.688  31.151  1.00  0.00     0.031 C 
ATOM     27  C   UNL A   1      40.585  25.821  27.544  1.00  0.00     0.029 A 
ATOM     28  C   UNL A   1      41.855  26.065  28.221  1.00  0.00     0.049 A 
ATOM     29  H   UNL A   1      42.374  27.711  29.387  1.00  0.00     0.167 HD
ATOM     30  C   UNL A   1      43.288  31.195  31.884  1.00  0.00     0.037 A 
ATOM     31  C   UNL A   1      42.927  25.248  28.198  1.00  0.00     0.037 A 
ATOM     32  C   UNL A   1      44.450  30.355  31.972  1.00  0.00     0.049 A 
ATOM     33  C   UNL A   1      44.161  25.630  28.967  1.00  0.00     0.074 A 
ATOM     34  C   UNL A   1      45.596  30.547  32.721  1.00  0.00     0.029 A 
ATOM     35  N   UNL A   1      44.606  29.158  31.291  1.00  0.00    -0.354 N 
ATOM     36  N   UNL A   1      44.369  26.677  29.729  1.00  0.00    -0.248 NA
ATOM     37  C   UNL A   1      45.314  24.721  28.871  1.00  0.00     0.031 C 
ATOM     38  C   UNL A   1      46.466  29.484  32.461  1.00  0.00     0.029 A 
ATOM     39  C   UNL A   1      45.847  28.614  31.578  1.00  0.00     0.049 A 
ATOM     40  H   UNL A   1      43.936  28.755  30.693  1.00  0.00     0.167 HD
ATOM     41  C   UNL A   1      45.664  26.548  30.211  1.00  0.00     0.074 A 
ATOM     42  C   UNL A   1      46.192  25.313  29.670  1.00  0.00     0.031 C 
ATOM     43  C   UNL A   1      46.354  27.383  31.026  1.00  0.00     0.037 A 
BRANCH  30  44
ATOM     44  C   UNL A   1      43.291  32.498  32.628  1.00  0.00     0.064 A 
ATOM     45  C   UNL A   1      43.733  33.685  32.025  1.00  0.00     0.173 A 
ATOM     46  C   UNL A   1      42.822  32.567  33.949  1.00  0.00     0.173 A 
ATOM     47  F   UNL A   1      44.201  33.671  30.769  1.00  0.00    -0.203 F 
ATOM     48  C   UNL A   1      43.737  34.888  32.727  1.00  0.00     0.198 A 
ATOM     49  C   UNL A   1      42.800  33.777  34.638  1.00  0.00     0.198 A 
ATOM     50  F   UNL A   1      42.384  31.463  34.570  1.00  0.00    -0.203 F 
ATOM     51  F   UNL A   1      44.213  35.998  32.147  1.00  0.00    -0.200 F 
ATOM     52  C   UNL A   1      43.264  34.934  34.029  1.00  0.00     0.200 A 
ATOM     53  F   UNL A   1      42.331  33.823  35.892  1.00  0.00    -0.200 F 
ATOM     54  F   UNL A   1      43.264  36.093  34.702  1.00  0.00    -0.200 F 
ENDBRANCH  30  44
BRANCH  31  55
ATOM     55  C   UNL A   1      42.849  23.964  27.457  1.00  0.00     0.064 A 
ATOM     56  C   UNL A   1      42.343  22.812  28.075  1.00  0.00     0.173 A 
ATOM     57  C   UNL A   1      43.234  23.869  26.111  1.00  0.00     0.173 A 
ATOM     58  F   UNL A   1      41.980  22.850  29.366  1.00  0.00    -0.203 F 
ATOM     59  C   UNL A   1      42.224  21.613  27.375  1.00  0.00     0.198 A 
ATOM     60  C   UNL A   1      43.094  22.674  25.407  1.00  0.00     0.198 A 
ATOM     61  F   UNL A   1      43.721  24.943  25.475  1.00  0.00    -0.203 F 
ATOM     62  F   UNL A   1      41.756  20.521  27.996  1.00  0.00    -0.200 F 
ATOM     63  C   UNL A   1      42.592  21.548  26.040  1.00  0.00     0.200 A 
ATOM     64  F   UNL A   1      43.438  22.618  24.113  1.00  0.00    -0.200 F 
ATOM     65  F   UNL A   1      42.461  20.397  25.363  1.00  0.00    -0.200 F 
ENDBRANCH  31  55
BRANCH  43  66
ATOM     66  C   UNL A   1      47.763  27.013  31.379  1.00  0.00     0.064 A 
ATOM     67  C   UNL A   1      48.848  27.536  30.664  1.00  0.00     0.173 A 
ATOM     68  C   UNL A   1      48.032  26.232  32.513  1.00  0.00     0.173 A 
ATOM     69  F   UNL A   1      48.638  28.279  29.566  1.00  0.00    -0.203 F 
ATOM     70  C   UNL A   1      50.156  27.295  31.073  1.00  0.00     0.198 A 
ATOM     71  C   UNL A   1      49.341  26.013  32.933  1.00  0.00     0.198 A 
ATOM     72  F   UNL A   1      47.025  25.718  33.236  1.00  0.00    -0.203 F 
ATOM     73  F   UNL A   1      51.180  27.795  30.369  1.00  0.00    -0.200 F 
ATOM     74  C   UNL A   1      50.400  26.545  32.215  1.00  0.00     0.200 A 
ATOM     75  F   UNL A   1      49.576  25.303  34.046  1.00  0.00    -0.200 F 
ATOM     76  F   UNL A   1      51.659  26.340  32.625  1.00  0.00    -0.200 F 
ENDBRANCH  43  66
ENDBRANCH  17  18
ENDBRANCH  10  12
ENDBRANCH   7   8
ENDBRANCH   6   7
ENDBRANCH   5   6
ENDBRANCH   1   5
BRANCH   2  77
ATOM     77  C   UNL A   1      33.377  25.261  24.596  1.00  0.00     0.227 C 
ATOM     78  N   UNL A   1      34.549  25.372  25.530  1.00  0.00    -0.267 NA
ATOM     79  C   UNL A   1      33.768  24.181  23.619  1.00  0.00     0.027 C 
ATOM     80  C   UNL A   1      35.311  24.391  25.171  1.00  0.00     0.066 A 
ATOM     81  C   UNL A   1      34.910  23.602  23.998  1.00  0.00     0.007 A 
ATOM     82  C   UNL A   1      36.582  24.025  25.827  1.00  0.00     0.028 A 
ATOM     83  C   UNL A   1      35.745  22.555  23.492  1.00  0.00     0.010 A 
ATOM     84  C   UNL A   1      37.306  23.018  25.315  1.00  0.00     0.002 A 
ATOM     85  C   UNL A   1      36.893  22.278  24.135  1.00  0.00     0.001 A 
BRANCH  79  86
ATOM     86  C   UNL A   1      32.995  23.908  22.369  1.00  0.00     0.296 C 
BRANCH  86  87
ATOM     87  N   UNL A   1      31.829  23.075  22.600  1.00  0.00    -0.342 N 
ATOM     88  H   UNL A   1      31.140  23.288  21.879  1.00  0.00     0.346 HD
ATOM     89  H   UNL A   1      31.505  23.291  23.543  1.00  0.00     0.346 HD
BRANCH  87  90
ATOM     90  C   UNL A   1      32.089  21.635  22.573  1.00  0.00     0.265 C 
BRANCH  90  91
ATOM     91  C   UNL A   1      32.342  20.932  23.922  1.00  0.00     0.097 C 
BRANCH  91  92
ATOM     92  C   UNL A   1      32.978  19.562  23.850  1.00  0.00    -0.042 A 
ATOM     93  C   UNL A   1      34.154  19.296  24.565  1.00  0.00     0.004 A 
ATOM     94  C   UNL A   1      32.441  18.555  23.038  1.00  0.00     0.004 A 
ATOM     95  C   UNL A   1      34.771  18.046  24.485  1.00  0.00     0.000 A 
ATOM     96  C   UNL A   1      33.059  17.305  22.957  1.00  0.00     0.000 A 
ATOM     97  C   UNL A   1      34.223  17.050  23.679  1.00  0.00     0.000 A 
ENDBRANCH  91  92
ENDBRANCH  90  91
ENDBRANCH  87  90
ENDBRANCH  86  87
ENDBRANCH  79  86
ENDBRANCH   2  77
TORSDOF 15
ENDMDL
MODEL 3
REMARK VINA RESULT:     -12.1      3.516      8.331
REMARK SMILES O=C(NCCCNC(=O)[C@H]1N=c2ccccc2=C1C[NH2+]CCc1ccccc1)c1ccc(-c2c3nc(c(-c4c(F)c(F)c(F)c(F)c4F)c4ccc([nH]4)c(-c4c(F)c(F)c(F)c(F)c4F)c4nc(c(-c5c(F)c(F)c(F)c(F)c5F)c5ccc2[nH]5)C=C4)C=C3)cc1
REMARK SMILES IDX 7 1 8 2 9 3 6 5 5 6 4 7 3 8 1 9 2 10 29 12 30 13 91 14 31 15
REMARK SMILES IDX 90 16 32 17 33 18 34 19 84 20 35 21 89 22 83 23 85 24 36 25
REMARK SMILES IDX 88 26 82 27 81 28 37 30 69 31 49 32 68 33 50 34 53 35 67 36
REMARK SMILES IDX 86 37 51 38 52 39 66 41 87 42 54 43 38 44 39 45 47 46 40 47
REMARK SMILES IDX 41 48 45 49 48 50 42 51 43 52 46 53 44 54 70 55 71 56 79 57
REMARK SMILES IDX 72 58 73 59 77 60 80 61 74 62 75 63 78 64 76 65 55 66 56 67
REMARK SMILES IDX 64 68 57 69 58 70 62 71 65 72 59 73 60 74 63 75 61 76 10 77
REMARK SMILES IDX 11 78 18 79 12 80 17 81 13 82 16 83 14 84 15 85 19 86 20 87
REMARK SMILES IDX 21 90 22 91 23 92 24 93 28 94 25 95 27 96 26 97
REMARK H PARENT 7 4 3 11 85 29 53 40 20 88 20 89
REMARK Flexibility Score: inf
ROOT
ATOM      1  N   UNL A   1      31.664  26.029  26.852  1.00  0.00    -0.354 N 
ATOM      2  C   UNL A   1      31.784  24.681  26.626  1.00  0.00     0.249 C 
ATOM      3  O   UNL A   1      31.021  23.940  27.251  1.00  0.00    -0.272 OA
ATOM      4  H   UNL A   1      30.841  26.314  27.309  1.00  0.00     0.163 HD
ENDROOT
BRANCH   1   5
ATOM      5  C   UNL A   1      32.591  27.093  26.507  1.00  0.00     0.117 C 
BRANCH   5   6
ATOM      6  C   UNL A   1      31.929  28.456  26.399  1.00  0.00     0.042 C 
BRANCH   6   7
ATOM      7  C   UNL A   1      32.796  29.529  25.758  1.00  0.00     0.118 C 
BRANCH   7   8
ATOM      8  N   UNL A   1      32.554  30.859  26.298  1.00  0.00    -0.352 N 
ATOM      9  O   UNL A   1      32.719  32.652  27.629  1.00  0.00    -0.269 OA
ATOM     10  C   UNL A   1      33.228  31.605  27.227  1.00  0.00     0.251 C 
ATOM     11  H   UNL A   1      31.759  31.305  25.926  1.00  0.00     0.163 HD
BRANCH  10  12
ATOM     12  C   UNL A   1      34.543  31.188  27.764  1.00  0.00     0.039 A 
ATOM     13  C   UNL A   1      34.715  29.848  28.130  1.00  0.00     0.014 A 
ATOM     14  C   UNL A   1      35.573  32.100  28.001  1.00  0.00     0.014 A 
ATOM     15  C   UNL A   1      35.911  29.429  28.717  1.00  0.00     0.010 A 
ATOM     16  C   UNL A   1      36.805  31.662  28.478  1.00  0.00     0.010 A 
ATOM     17  C   UNL A   1      36.969  30.333  28.891  1.00  0.00    -0.014 A 
BRANCH  17  18
ATOM     18  C   UNL A   1      38.202  29.936  29.618  1.00  0.00     0.031 A 
ATOM     19  C   UNL A   1      38.431  30.438  31.019  1.00  0.00     0.074 A 
ATOM     20  C   UNL A   1      39.112  29.140  29.029  1.00  0.00     0.049 A 
ATOM     21  N   UNL A   1      39.442  30.221  31.823  1.00  0.00    -0.248 NA
ATOM     22  C   UNL A   1      37.404  31.329  31.585  1.00  0.00     0.031 C 
ATOM     23  C   UNL A   1      39.023  28.619  27.665  1.00  0.00     0.029 A 
ATOM     24  N   UNL A   1      40.288  28.619  29.509  1.00  0.00    -0.354 N 
ATOM     25  C   UNL A   1      39.177  30.960  32.969  1.00  0.00     0.074 A 
ATOM     26  C   UNL A   1      37.953  31.690  32.733  1.00  0.00     0.031 C 
ATOM     27  C   UNL A   1      40.074  27.816  27.433  1.00  0.00     0.029 A 
ATOM     28  C   UNL A   1      40.925  27.789  28.620  1.00  0.00     0.049 A 
ATOM     29  H   UNL A   1      40.642  28.822  30.405  1.00  0.00     0.167 HD
ATOM     30  C   UNL A   1      39.865  30.992  34.134  1.00  0.00     0.037 A 
ATOM     31  C   UNL A   1      42.063  27.079  28.754  1.00  0.00     0.037 A 
ATOM     32  C   UNL A   1      41.047  30.217  34.390  1.00  0.00     0.049 A 
ATOM     33  C   UNL A   1      42.820  27.139  30.052  1.00  0.00     0.074 A 
ATOM     34  C   UNL A   1      41.768  30.111  35.564  1.00  0.00     0.029 A 
ATOM     35  N   UNL A   1      41.674  29.410  33.454  1.00  0.00    -0.354 N 
ATOM     36  N   UNL A   1      42.522  27.785  31.153  1.00  0.00    -0.248 NA
ATOM     37  C   UNL A   1      44.076  26.377  30.126  1.00  0.00     0.031 C 
ATOM     38  C   UNL A   1      42.859  29.270  35.327  1.00  0.00     0.029 A 
ATOM     39  C   UNL A   1      42.796  28.825  34.016  1.00  0.00     0.049 A 
ATOM     40  H   UNL A   1      41.367  29.273  32.528  1.00  0.00     0.167 HD
ATOM     41  C   UNL A   1      43.540  27.500  32.052  1.00  0.00     0.074 A 
ATOM     42  C   UNL A   1      44.459  26.609  31.375  1.00  0.00     0.031 C 
ATOM     43  C   UNL A   1      43.700  27.942  33.323  1.00  0.00     0.037 A 
BRANCH  30  44
ATOM     44  C   UNL A   1      39.338  31.875  35.227  1.00  0.00     0.064 A 
ATOM     45  C   UNL A   1      38.517  31.369  36.246  1.00  0.00     0.173 A 
ATOM     46  C   UNL A   1      39.679  33.235  35.273  1.00  0.00     0.173 A 
ATOM     47  F   UNL A   1      38.152  30.078  36.241  1.00  0.00    -0.203 F 
ATOM     48  C   UNL A   1      38.029  32.198  37.252  1.00  0.00     0.198 A 
ATOM     49  C   UNL A   1      39.214  34.055  36.298  1.00  0.00     0.198 A 
ATOM     50  F   UNL A   1      40.466  33.768  34.327  1.00  0.00    -0.203 F 
ATOM     51  F   UNL A   1      37.203  31.703  38.184  1.00  0.00    -0.200 F 
ATOM     52  C   UNL A   1      38.383  33.538  37.281  1.00  0.00     0.200 A 
ATOM     53  F   UNL A   1      39.567  35.347  36.332  1.00  0.00    -0.200 F 
ATOM     54  F   UNL A   1      37.917  34.334  38.253  1.00  0.00    -0.200 F 
ENDBRANCH  30  44
BRANCH  31  55
ATOM     55  C   UNL A   1      42.517  26.211  27.638  1.00  0.00     0.064 A 
ATOM     56  C   UNL A   1      43.469  26.673  26.718  1.00  0.00     0.173 A 
ATOM     57  C   UNL A   1      42.048  24.898  27.491  1.00  0.00     0.173 A 
ATOM     58  F   UNL A   1      43.932  27.928  26.807  1.00  0.00    -0.203 F 
ATOM     59  C   UNL A   1      43.934  25.852  25.693  1.00  0.00     0.198 A 
ATOM     60  C   UNL A   1      42.531  24.071  26.478  1.00  0.00     0.198 A 
ATOM     61  F   UNL A   1      41.139  24.410  28.348  1.00  0.00    -0.203 F 
ATOM     62  F   UNL A   1      44.830  26.324  24.814  1.00  0.00    -0.200 F 
ATOM     63  C   UNL A   1      43.472  24.549  25.579  1.00  0.00     0.200 A 
ATOM     64  F   UNL A   1      42.091  22.809  26.380  1.00  0.00    -0.200 F 
ATOM     65  F   UNL A   1      43.933  23.755  24.603  1.00  0.00    -0.200 F 
ENDBRANCH  31  55
BRANCH  43  66
ATOM     66  C   UNL A   1      44.916  27.492  34.075  1.00  0.00     0.064 A 
ATOM     67  C   UNL A   1      46.074  28.279  34.111  1.00  0.00     0.173 A 
ATOM     68  C   UNL A   1      44.879  26.332  34.861  1.00  0.00     0.173 A 
ATOM     69  F   UNL A   1      46.158  29.391  33.365  1.00  0.00    -0.203 F 
ATOM     70  C   UNL A   1      47.154  27.924  34.913  1.00  0.00     0.198 A 
ATOM     71  C   UNL A   1      45.952  25.991  35.681  1.00  0.00     0.198 A 
ATOM     72  F   UNL A   1      43.787  25.552  34.868  1.00  0.00    -0.203 F 
ATOM     73  F   UNL A   1      48.257  28.683  34.925  1.00  0.00    -0.200 F 
ATOM     74  C   UNL A   1      47.086  26.788  35.707  1.00  0.00     0.200 A 
ATOM     75  F   UNL A   1      45.878  24.904  36.462  1.00  0.00    -0.200 F 
ATOM     76  F   UNL A   1      48.115  26.463  36.502  1.00  0.00    -0.200 F 
ENDBRANCH  43  66
ENDBRANCH  17  18
ENDBRANCH  10  12
ENDBRANCH   7   8
ENDBRANCH   6   7
ENDBRANCH   5   6
ENDBRANCH   1   5
BRANCH   2  77
ATOM     77  C   UNL A   1      32.856  24.180  25.614  1.00  0.00     0.227 C 
ATOM     78  N   UNL A   1      33.543  23.016  26.270  1.00  0.00    -0.267 NA
ATOM     79  C   UNL A   1      32.297  23.619  24.330  1.00  0.00     0.027 C 
ATOM     80  C   UNL A   1      33.225  22.015  25.514  1.00  0.00     0.066 A 
ATOM     81  C   UNL A   1      32.459  22.294  24.292  1.00  0.00     0.007 A 
ATOM     82  C   UNL A   1      33.610  20.613  25.763  1.00  0.00     0.028 A 
ATOM     83  C   UNL A   1      32.144  21.250  23.364  1.00  0.00     0.010 A 
ATOM     84  C   UNL A   1      33.263  19.678  24.865  1.00  0.00     0.002 A 
ATOM     85  C   UNL A   1      32.530  19.995  23.651  1.00  0.00     0.001 A 
BRANCH  79  86
ATOM     86  C   UNL A   1      31.738  24.487  23.249  1.00  0.00     0.296 C 
BRANCH  86  87
ATOM     87  N   UNL A   1      30.288  24.487  23.221  1.00  0.00    -0.342 N 
ATOM     88  H   UNL A   1      29.960  23.728  23.819  1.00  0.00     0.346 HD
ATOM     89  H   UNL A   1      30.019  24.373  22.244  1.00  0.00     0.346 HD
BRANCH  87  90
ATOM     90  C   UNL A   1      29.666  25.730  23.678  1.00  0.00     0.265 C 
BRANCH  90  91
ATOM     91  C   UNL A   1      30.352  27.055  23.287  1.00  0.00     0.097 C 
BRANCH  91  92
ATOM     92  C   UNL A   1      29.478  28.288  23.307  1.00  0.00    -0.042 A 
ATOM     93  C   UNL A   1      28.092  28.170  23.126  1.00  0.00     0.004 A 
ATOM     94  C   UNL A   1      30.031  29.567  23.457  1.00  0.00     0.004 A 
ATOM     95  C   UNL A   1      27.276  29.302  23.111  1.00  0.00     0.000 A 
ATOM     96  C   UNL A   1      29.213  30.699  23.441  1.00  0.00     0.000 A 
ATOM     97  C   UNL A   1      27.837  30.567  23.268  1.00  0.00     0.000 A 
ENDBRANCH  91  92
ENDBRANCH  90  91
ENDBRANCH  87  90
ENDBRANCH  86  87
ENDBRANCH  79  86
ENDBRANCH   2  77
TORSDOF 15
ENDMDL
