MODEL 1
REMARK VINA RESULT:     -10.6      0.000      0.000
REMARK SMILES CCCC1CN(c2ccc(C(=O)NCC(=O)NCCCNC(=O)c3ccc(-c4c5nc(c(-c6c(F)c(F)c(F)c(F)c6F)c6ccc([nH]6)c(-c6c(F)c(F)c(F)c(F)c6F)c6nc(c(-c7c(F)c(F)c(F)c(F)c7F)c7ccc4[nH]7)C=C6)C=C5)cc3)cc2)C1
REMARK SMILES IDX 15 1 16 2 17 3 14 5 13 6 11 7 12 8 10 10 7 11 8 12 88 13
REMARK SMILES IDX 9 14 87 15 6 16 4 17 5 18 89 19 3 20 2 21 1 22 18 23 19 24
REMARK SMILES IDX 20 25 21 26 22 27 23 29 24 30 25 31 86 32 26 33 85 34 27 35
REMARK SMILES IDX 28 36 29 37 79 38 30 39 84 40 78 41 80 42 31 43 83 44 77 45
REMARK SMILES IDX 76 46 32 48 64 49 44 50 63 51 45 52 48 53 62 54 81 55 46 56
REMARK SMILES IDX 47 57 61 59 82 60 49 61 33 62 34 63 42 64 35 65 36 66 40 67
REMARK SMILES IDX 43 68 37 69 38 70 41 71 39 72 65 73 66 74 74 75 67 76 68 77
REMARK SMILES IDX 72 78 75 79 69 80 70 81 73 82 71 83 50 84 51 85 59 86 52 87
REMARK SMILES IDX 53 88 57 89 60 90 54 91 55 92 58 93 56 94
REMARK H PARENT 17 4 13 9 21 28 80 47 48 58
REMARK Flexibility Score: inf
ROOT
ATOM      1  C   UNL A   1      43.073  18.094  26.217  1.00  0.00     0.239 C 
ATOM      2  O   UNL A   1      43.681  17.362  27.007  1.00  0.00    -0.273 OA
ATOM      3  N   UNL A   1      41.919  18.650  26.675  1.00  0.00    -0.355 N 
ATOM      4  H   UNL A   1      41.594  18.276  27.525  1.00  0.00     0.163 HD
ENDROOT
BRANCH   1   5
ATOM      5  C   UNL A   1      43.713  18.451  24.863  1.00  0.00     0.216 C 
BRANCH   5   6
ATOM      6  N   UNL A   1      45.137  18.747  24.830  1.00  0.00    -0.343 N 
ATOM      7  C   UNL A   1      45.925  19.858  24.950  1.00  0.00     0.251 C 
ATOM      8  O   UNL A   1      47.139  19.640  24.958  1.00  0.00    -0.269 OA
ATOM      9  H   UNL A   1      45.672  17.934  24.683  1.00  0.00     0.164 HD
BRANCH   7  10
ATOM     10  C   UNL A   1      45.456  21.279  25.008  1.00  0.00     0.039 A 
ATOM     11  C   UNL A   1      44.776  24.027  25.315  1.00  0.00     0.037 A 
ATOM     12  C   UNL A   1      45.346  23.315  26.369  1.00  0.00     0.027 A 
ATOM     13  C   UNL A   1      44.567  23.358  24.109  1.00  0.00     0.027 A 
ATOM     14  C   UNL A   1      45.666  21.958  26.223  1.00  0.00     0.016 A 
ATOM     15  C   UNL A   1      44.910  22.009  23.953  1.00  0.00     0.016 A 
BRANCH  11  16
ATOM     16  N   UNL A   1      44.404  25.365  25.485  1.00  0.00    -0.371 N 
ATOM     17  C   UNL A   1      44.738  27.148  26.488  1.00  0.00     0.028 C 
ATOM     18  C   UNL A   1      43.783  25.947  26.637  1.00  0.00     0.122 C 
ATOM     19  C   UNL A   1      45.123  26.545  25.133  1.00  0.00     0.122 C 
BRANCH  17  20
ATOM     20  C   UNL A   1      44.109  28.534  26.480  1.00  0.00     0.007 C 
BRANCH  20  21
ATOM     21  C   UNL A   1      44.475  29.345  27.728  1.00  0.00    -0.003 C 
ATOM     22  C   UNL A   1      43.641  30.604  27.922  1.00  0.00     0.004 C 
ENDBRANCH  20  21
ENDBRANCH  17  20
ENDBRANCH  11  16
ENDBRANCH   7  10
ENDBRANCH   5   6
ENDBRANCH   1   5
BRANCH   3  23
ATOM     23  C   UNL A   1      41.090  19.699  26.122  1.00  0.00     0.117 C 
BRANCH  23  24
ATOM     24  C   UNL A   1      41.726  21.079  26.196  1.00  0.00     0.042 C 
BRANCH  24  25
ATOM     25  C   UNL A   1      40.871  22.112  26.921  1.00  0.00     0.118 C 
BRANCH  25  26
ATOM     26  N   UNL A   1      39.689  22.500  26.165  1.00  0.00    -0.352 N 
ATOM     27  C   UNL A   1      38.920  23.633  26.217  1.00  0.00     0.251 C 
ATOM     28  H   UNL A   1      39.392  21.834  25.504  1.00  0.00     0.163 HD
ATOM     29  O   UNL A   1      37.872  23.670  25.578  1.00  0.00    -0.269 OA
BRANCH  27  30
ATOM     30  C   UNL A   1      39.318  24.803  27.031  1.00  0.00     0.039 A 
ATOM     31  C   UNL A   1      38.904  24.849  28.367  1.00  0.00     0.014 A 
ATOM     32  C   UNL A   1      40.029  25.877  26.490  1.00  0.00     0.014 A 
ATOM     33  C   UNL A   1      39.232  25.946  29.165  1.00  0.00     0.010 A 
ATOM     34  C   UNL A   1      40.422  26.938  27.306  1.00  0.00     0.010 A 
ATOM     35  C   UNL A   1      40.014  26.991  28.647  1.00  0.00    -0.014 A 
BRANCH  35  36
ATOM     36  C   UNL A   1      40.390  28.149  29.493  1.00  0.00     0.031 A 
ATOM     37  C   UNL A   1      41.748  28.210  30.138  1.00  0.00     0.074 A 
ATOM     38  C   UNL A   1      39.494  29.130  29.714  1.00  0.00     0.049 A 
ATOM     39  N   UNL A   1      42.250  29.127  30.927  1.00  0.00    -0.248 NA
ATOM     40  C   UNL A   1      42.653  27.079  29.882  1.00  0.00     0.031 C 
ATOM     41  C   UNL A   1      38.129  29.159  29.189  1.00  0.00     0.029 A 
ATOM     42  N   UNL A   1      39.596  30.289  30.442  1.00  0.00    -0.354 N 
ATOM     43  C   UNL A   1      43.516  28.674  31.275  1.00  0.00     0.074 A 
ATOM     44  C   UNL A   1      43.690  27.381  30.651  1.00  0.00     0.031 C 
ATOM     45  C   UNL A   1      37.528  30.291  29.590  1.00  0.00     0.029 A 
ATOM     46  C   UNL A   1      38.456  31.053  30.419  1.00  0.00     0.049 A 
ATOM     47  H   UNL A   1      40.410  30.547  30.934  1.00  0.00     0.167 HD
ATOM     48  C   UNL A   1      44.459  29.294  32.025  1.00  0.00     0.037 A 
ATOM     49  C   UNL A   1      38.192  32.239  31.000  1.00  0.00     0.037 A 
ATOM     50  C   UNL A   1      44.297  30.595  32.618  1.00  0.00     0.049 A 
ATOM     51  C   UNL A   1      39.267  32.921  31.801  1.00  0.00     0.074 A 
ATOM     52  C   UNL A   1      45.210  31.331  33.352  1.00  0.00     0.029 A 
ATOM     53  N   UNL A   1      43.140  31.357  32.540  1.00  0.00    -0.354 N 
ATOM     54  N   UNL A   1      40.485  32.514  32.066  1.00  0.00    -0.248 NA
ATOM     55  C   UNL A   1      38.935  34.234  32.371  1.00  0.00     0.031 C 
ATOM     56  C   UNL A   1      44.596  32.525  33.746  1.00  0.00     0.029 A 
ATOM     57  C   UNL A   1      43.315  32.552  33.220  1.00  0.00     0.049 A 
ATOM     58  H   UNL A   1      42.318  31.089  32.070  1.00  0.00     0.167 HD
ATOM     59  C   UNL A   1      41.074  33.531  32.805  1.00  0.00     0.074 A 
ATOM     60  C   UNL A   1      40.083  34.579  32.936  1.00  0.00     0.031 C 
ATOM     61  C   UNL A   1      42.323  33.591  33.327  1.00  0.00     0.037 A 
BRANCH  48  62
ATOM     62  C   UNL A   1      45.757  28.570  32.242  1.00  0.00     0.064 A 
ATOM     63  C   UNL A   1      45.942  27.706  33.333  1.00  0.00     0.173 A 
ATOM     64  C   UNL A   1      46.815  28.714  31.332  1.00  0.00     0.173 A 
ATOM     65  F   UNL A   1      44.966  27.543  34.237  1.00  0.00    -0.203 F 
ATOM     66  C   UNL A   1      47.148  27.036  33.519  1.00  0.00     0.198 A 
ATOM     67  C   UNL A   1      48.010  28.021  31.507  1.00  0.00     0.198 A 
ATOM     68  F   UNL A   1      46.688  29.524  30.270  1.00  0.00    -0.203 F 
ATOM     69  F   UNL A   1      47.319  26.255  34.594  1.00  0.00    -0.200 F 
ATOM     70  C   UNL A   1      48.178  27.189  32.603  1.00  0.00     0.200 A 
ATOM     71  F   UNL A   1      49.000  28.159  30.613  1.00  0.00    -0.200 F 
ATOM     72  F   UNL A   1      49.336  26.539  32.781  1.00  0.00    -0.200 F 
ENDBRANCH  48  62
BRANCH  49  73
ATOM     73  C   UNL A   1      36.867  32.881  30.801  1.00  0.00     0.064 A 
ATOM     74  C   UNL A   1      35.870  32.785  31.780  1.00  0.00     0.173 A 
ATOM     75  C   UNL A   1      36.573  33.602  29.635  1.00  0.00     0.173 A 
ATOM     76  F   UNL A   1      36.098  32.089  32.902  1.00  0.00    -0.203 F 
ATOM     77  C   UNL A   1      34.620  33.371  31.593  1.00  0.00     0.198 A 
ATOM     78  C   UNL A   1      35.332  34.210  29.460  1.00  0.00     0.198 A 
ATOM     79  F   UNL A   1      37.498  33.726  28.670  1.00  0.00    -0.203 F 
ATOM     80  F   UNL A   1      33.669  33.229  32.527  1.00  0.00    -0.200 F 
ATOM     81  C   UNL A   1      34.354  34.088  30.436  1.00  0.00     0.200 A 
ATOM     82  F   UNL A   1      35.083  34.911  28.347  1.00  0.00    -0.200 F 
ATOM     83  F   UNL A   1      33.153  34.655  30.258  1.00  0.00    -0.200 F 
ENDBRANCH  49  73
BRANCH  61  84
ATOM     84  C   UNL A   1      42.705  34.850  34.048  1.00  0.00     0.064 A 
ATOM     85  C   UNL A   1      43.173  35.979  33.362  1.00  0.00     0.173 A 
ATOM     86  C   UNL A   1      42.570  34.935  35.442  1.00  0.00     0.173 A 
ATOM     87  F   UNL A   1      43.333  35.942  32.030  1.00  0.00    -0.203 F 
ATOM     88  C   UNL A   1      43.520  37.140  34.049  1.00  0.00     0.198 A 
ATOM     89  C   UNL A   1      42.890  36.105  36.122  1.00  0.00     0.198 A 
ATOM     90  F   UNL A   1      42.120  33.883  36.143  1.00  0.00    -0.203 F 
ATOM     91  F   UNL A   1      44.010  38.192  33.379  1.00  0.00    -0.200 F 
ATOM     92  C   UNL A   1      43.372  37.203  35.427  1.00  0.00     0.200 A 
ATOM     93  F   UNL A   1      42.737  36.169  37.453  1.00  0.00    -0.200 F 
ATOM     94  F   UNL A   1      43.703  38.322  36.086  1.00  0.00    -0.200 F 
ENDBRANCH  61  84
ENDBRANCH  35  36
ENDBRANCH  27  30
ENDBRANCH  25  26
ENDBRANCH  24  25
ENDBRANCH  23  24
ENDBRANCH   3  23
TORSDOF 15
ENDMDL
MODEL 2
REMARK VINA RESULT:     -10.5      4.973     10.948
REMARK SMILES CCCC1CN(c2ccc(C(=O)NCC(=O)NCCCNC(=O)c3ccc(-c4c5nc(c(-c6c(F)c(F)c(F)c(F)c6F)c6ccc([nH]6)c(-c6c(F)c(F)c(F)c(F)c6F)c6nc(c(-c7c(F)c(F)c(F)c(F)c7F)c7ccc4[nH]7)C=C6)C=C5)cc3)cc2)C1
REMARK SMILES IDX 15 1 16 2 17 3 14 5 13 6 11 7 12 8 10 10 7 11 8 12 88 13
REMARK SMILES IDX 9 14 87 15 6 16 4 17 5 18 89 19 3 20 2 21 1 22 18 23 19 24
REMARK SMILES IDX 20 25 21 26 22 27 23 29 24 30 25 31 86 32 26 33 85 34 27 35
REMARK SMILES IDX 28 36 29 37 79 38 30 39 84 40 78 41 80 42 31 43 83 44 77 45
REMARK SMILES IDX 76 46 32 48 64 49 44 50 63 51 45 52 48 53 62 54 81 55 46 56
REMARK SMILES IDX 47 57 61 59 82 60 49 61 33 62 34 63 42 64 35 65 36 66 40 67
REMARK SMILES IDX 43 68 37 69 38 70 41 71 39 72 65 73 66 74 74 75 67 76 68 77
REMARK SMILES IDX 72 78 75 79 69 80 70 81 73 82 71 83 50 84 51 85 59 86 52 87
REMARK SMILES IDX 53 88 57 89 60 90 54 91 55 92 58 93 56 94
REMARK H PARENT 17 4 13 9 21 28 80 47 48 58
REMARK Flexibility Score: inf
ROOT
ATOM      1  C   UNL A   1      32.129  28.940  24.631  1.00  0.00     0.239 C 
ATOM      2  O   UNL A   1      32.047  28.934  23.397  1.00  0.00    -0.273 OA
ATOM      3  N   UNL A   1      31.963  30.144  25.241  1.00  0.00    -0.355 N 
ATOM      4  H   UNL A   1      31.969  30.917  24.631  1.00  0.00     0.163 HD
ENDROOT
BRANCH   1   5
ATOM      5  C   UNL A   1      32.249  27.607  25.392  1.00  0.00     0.216 C 
BRANCH   5   6
ATOM      6  N   UNL A   1      31.028  26.953  25.835  1.00  0.00    -0.343 N 
ATOM      7  C   UNL A   1      30.564  25.670  25.927  1.00  0.00     0.251 C 
ATOM      8  O   UNL A   1      29.464  25.549  26.472  1.00  0.00    -0.269 OA
ATOM      9  H   UNL A   1      30.362  27.605  26.151  1.00  0.00     0.164 HD
BRANCH   7  10
ATOM     10  C   UNL A   1      31.229  24.442  25.383  1.00  0.00     0.039 A 
ATOM     11  C   UNL A   1      32.470  21.997  24.619  1.00  0.00     0.037 A 
ATOM     12  C   UNL A   1      32.586  22.474  25.923  1.00  0.00     0.027 A 
ATOM     13  C   UNL A   1      31.718  22.743  23.712  1.00  0.00     0.027 A 
ATOM     14  C   UNL A   1      31.988  23.686  26.295  1.00  0.00     0.016 A 
ATOM     15  C   UNL A   1      31.098  23.941  24.089  1.00  0.00     0.016 A 
BRANCH  11  16
ATOM     16  N   UNL A   1      33.119  20.817  24.237  1.00  0.00    -0.371 N 
ATOM     17  C   UNL A   1      33.500  18.826  24.669  1.00  0.00     0.028 C 
ATOM     18  C   UNL A   1      34.206  20.175  24.912  1.00  0.00     0.122 C 
ATOM     19  C   UNL A   1      32.552  19.603  23.750  1.00  0.00     0.122 C 
BRANCH  17  20
ATOM     20  C   UNL A   1      34.329  17.716  24.037  1.00  0.00     0.007 C 
BRANCH  20  21
ATOM     21  C   UNL A   1      33.724  16.329  24.283  1.00  0.00    -0.003 C 
ATOM     22  C   UNL A   1      32.838  16.244  25.519  1.00  0.00     0.004 C 
ENDBRANCH  20  21
ENDBRANCH  17  20
ENDBRANCH  11  16
ENDBRANCH   7  10
ENDBRANCH   5   6
ENDBRANCH   1   5
BRANCH   3  23
ATOM     23  C   UNL A   1      31.779  30.480  26.636  1.00  0.00     0.117 C 
BRANCH  23  24
ATOM     24  C   UNL A   1      31.469  31.952  26.871  1.00  0.00     0.042 C 
BRANCH  24  25
ATOM     25  C   UNL A   1      32.702  32.849  26.860  1.00  0.00     0.118 C 
BRANCH  25  26
ATOM     26  N   UNL A   1      32.499  34.098  27.581  1.00  0.00    -0.352 N 
ATOM     27  C   UNL A   1      33.127  34.610  28.687  1.00  0.00     0.251 C 
ATOM     28  H   UNL A   1      31.789  34.671  27.212  1.00  0.00     0.163 HD
ATOM     29  O   UNL A   1      32.676  35.626  29.209  1.00  0.00    -0.269 OA
BRANCH  27  30
ATOM     30  C   UNL A   1      34.323  33.961  29.269  1.00  0.00     0.039 A 
ATOM     31  C   UNL A   1      34.130  32.920  30.183  1.00  0.00     0.014 A 
ATOM     32  C   UNL A   1      35.618  34.400  28.983  1.00  0.00     0.014 A 
ATOM     33  C   UNL A   1      35.229  32.297  30.778  1.00  0.00     0.010 A 
ATOM     34  C   UNL A   1      36.718  33.731  29.519  1.00  0.00     0.010 A 
ATOM     35  C   UNL A   1      36.534  32.684  30.434  1.00  0.00    -0.014 A 
BRANCH  35  36
ATOM     36  C   UNL A   1      37.709  32.012  31.041  1.00  0.00     0.031 A 
ATOM     37  C   UNL A   1      38.163  32.381  32.427  1.00  0.00     0.074 A 
ATOM     38  C   UNL A   1      38.393  31.096  30.329  1.00  0.00     0.049 A 
ATOM     39  N   UNL A   1      39.178  31.923  33.116  1.00  0.00    -0.248 NA
ATOM     40  C   UNL A   1      37.389  33.422  33.121  1.00  0.00     0.031 C 
ATOM     41  C   UNL A   1      38.084  30.692  28.957  1.00  0.00     0.029 A 
ATOM     42  N   UNL A   1      39.492  30.344  30.659  1.00  0.00    -0.354 N 
ATOM     43  C   UNL A   1      39.174  32.630  34.311  1.00  0.00     0.074 A 
ATOM     44  C   UNL A   1      38.086  33.581  34.237  1.00  0.00     0.031 C 
ATOM     45  C   UNL A   1      38.955  29.746  28.572  1.00  0.00     0.029 A 
ATOM     46  C   UNL A   1      39.898  29.497  29.657  1.00  0.00     0.049 A 
ATOM     47  H   UNL A   1      39.945  30.405  31.531  1.00  0.00     0.167 HD
ATOM     48  C   UNL A   1      39.988  32.481  35.384  1.00  0.00     0.037 A 
ATOM     49  C   UNL A   1      40.915  28.616  29.622  1.00  0.00     0.037 A 
ATOM     50  C   UNL A   1      41.048  31.513  35.469  1.00  0.00     0.049 A 
ATOM     51  C   UNL A   1      41.784  28.447  30.839  1.00  0.00     0.074 A 
ATOM     52  C   UNL A   1      41.895  31.248  36.530  1.00  0.00     0.029 A 
ATOM     53  N   UNL A   1      41.405  30.644  34.447  1.00  0.00    -0.354 N 
ATOM     54  N   UNL A   1      41.728  29.074  31.989  1.00  0.00    -0.248 NA
ATOM     55  C   UNL A   1      42.848  27.437  30.756  1.00  0.00     0.031 C 
ATOM     56  C   UNL A   1      42.786  30.241  36.141  1.00  0.00     0.029 A 
ATOM     57  C   UNL A   1      42.466  29.849  34.851  1.00  0.00     0.049 A 
ATOM     58  H   UNL A   1      40.969  30.599  33.566  1.00  0.00     0.167 HD
ATOM     59  C   UNL A   1      42.724  28.515  32.777  1.00  0.00     0.074 A 
ATOM     60  C   UNL A   1      43.363  27.490  31.976  1.00  0.00     0.031 C 
ATOM     61  C   UNL A   1      43.078  28.822  34.048  1.00  0.00     0.037 A 
BRANCH  48  62
ATOM     62  C   UNL A   1      39.757  33.387  36.560  1.00  0.00     0.064 A 
ATOM     63  C   UNL A   1      40.396  34.632  36.664  1.00  0.00     0.173 A 
ATOM     64  C   UNL A   1      38.859  33.023  37.575  1.00  0.00     0.173 A 
ATOM     65  F   UNL A   1      41.271  35.021  35.726  1.00  0.00    -0.203 F 
ATOM     66  C   UNL A   1      40.168  35.465  37.756  1.00  0.00     0.198 A 
ATOM     67  C   UNL A   1      38.613  33.871  38.652  1.00  0.00     0.198 A 
ATOM     68  F   UNL A   1      38.217  31.846  37.521  1.00  0.00    -0.203 F 
ATOM     69  F   UNL A   1      40.827  36.627  37.859  1.00  0.00    -0.200 F 
ATOM     70  C   UNL A   1      39.273  35.087  38.744  1.00  0.00     0.200 A 
ATOM     71  F   UNL A   1      37.737  33.511  39.600  1.00  0.00    -0.200 F 
ATOM     72  F   UNL A   1      39.050  35.893  39.792  1.00  0.00    -0.200 F 
ENDBRANCH  48  62
BRANCH  49  73
ATOM     73  C   UNL A   1      41.135  27.789  28.408  1.00  0.00     0.064 A 
ATOM     74  C   UNL A   1      41.996  28.222  27.391  1.00  0.00     0.173 A 
ATOM     75  C   UNL A   1      40.495  26.552  28.242  1.00  0.00     0.173 A 
ATOM     76  F   UNL A   1      42.615  29.406  27.498  1.00  0.00    -0.203 F 
ATOM     77  C   UNL A   1      42.195  27.458  26.244  1.00  0.00     0.198 A 
ATOM     78  C   UNL A   1      40.714  25.777  27.105  1.00  0.00     0.198 A 
ATOM     79  F   UNL A   1      39.664  26.092  29.190  1.00  0.00    -0.203 F 
ATOM     80  F   UNL A   1      42.991  27.915  25.267  1.00  0.00    -0.200 F 
ATOM     81  C   UNL A   1      41.558  26.234  26.104  1.00  0.00     0.200 A 
ATOM     82  F   UNL A   1      40.106  24.590  26.979  1.00  0.00    -0.200 F 
ATOM     83  F   UNL A   1      41.752  25.498  25.001  1.00  0.00    -0.200 F 
ENDBRANCH  49  73
BRANCH  61  84
ATOM     84  C   UNL A   1      44.176  28.011  34.670  1.00  0.00     0.064 A 
ATOM     85  C   UNL A   1      43.914  26.809  35.341  1.00  0.00     0.173 A 
ATOM     86  C   UNL A   1      45.512  28.429  34.563  1.00  0.00     0.173 A 
ATOM     87  F   UNL A   1      42.652  26.374  35.481  1.00  0.00    -0.203 F 
ATOM     88  C   UNL A   1      44.947  26.067  35.908  1.00  0.00     0.198 A 
ATOM     89  C   UNL A   1      46.544  27.672  35.107  1.00  0.00     0.198 A 
ATOM     90  F   UNL A   1      45.814  29.570  33.925  1.00  0.00    -0.203 F 
ATOM     91  F   UNL A   1      44.671  24.945  36.587  1.00  0.00    -0.200 F 
ATOM     92  C   UNL A   1      46.261  26.497  35.786  1.00  0.00     0.200 A 
ATOM     93  F   UNL A   1      47.814  28.083  34.979  1.00  0.00    -0.200 F 
ATOM     94  F   UNL A   1      47.255  25.780  36.329  1.00  0.00    -0.200 F 
ENDBRANCH  61  84
ENDBRANCH  35  36
ENDBRANCH  27  30
ENDBRANCH  25  26
ENDBRANCH  24  25
ENDBRANCH  23  24
ENDBRANCH   3  23
TORSDOF 15
ENDMDL
MODEL 3
REMARK VINA RESULT:     -10.4      2.259      3.479
REMARK SMILES CCCC1CN(c2ccc(C(=O)NCC(=O)NCCCNC(=O)c3ccc(-c4c5nc(c(-c6c(F)c(F)c(F)c(F)c6F)c6ccc([nH]6)c(-c6c(F)c(F)c(F)c(F)c6F)c6nc(c(-c7c(F)c(F)c(F)c(F)c7F)c7ccc4[nH]7)C=C6)C=C5)cc3)cc2)C1
REMARK SMILES IDX 15 1 16 2 17 3 14 5 13 6 11 7 12 8 10 10 7 11 8 12 88 13
REMARK SMILES IDX 9 14 87 15 6 16 4 17 5 18 89 19 3 20 2 21 1 22 18 23 19 24
REMARK SMILES IDX 20 25 21 26 22 27 23 29 24 30 25 31 86 32 26 33 85 34 27 35
REMARK SMILES IDX 28 36 29 37 79 38 30 39 84 40 78 41 80 42 31 43 83 44 77 45
REMARK SMILES IDX 76 46 32 48 64 49 44 50 63 51 45 52 48 53 62 54 81 55 46 56
REMARK SMILES IDX 47 57 61 59 82 60 49 61 33 62 34 63 42 64 35 65 36 66 40 67
REMARK SMILES IDX 43 68 37 69 38 70 41 71 39 72 65 73 66 74 74 75 67 76 68 77
REMARK SMILES IDX 72 78 75 79 69 80 70 81 73 82 71 83 50 84 51 85 59 86 52 87
REMARK SMILES IDX 53 88 57 89 60 90 54 91 55 92 58 93 56 94
REMARK H PARENT 17 4 13 9 21 28 80 47 48 58
REMARK Flexibility Score: inf
ROOT
ATOM      1  C   UNL A   1      44.813  19.472  24.167  1.00  0.00     0.239 C 
ATOM      2  O   UNL A   1      44.998  18.714  23.207  1.00  0.00    -0.273 OA
ATOM      3  N   UNL A   1      43.606  19.376  24.788  1.00  0.00    -0.355 N 
ATOM      4  H   UNL A   1      42.938  18.839  24.304  1.00  0.00     0.163 HD
ENDROOT
BRANCH   1   5
ATOM      5  C   UNL A   1      45.975  20.336  24.689  1.00  0.00     0.216 C 
BRANCH   5   6
ATOM      6  N   UNL A   1      46.114  21.688  24.173  1.00  0.00    -0.343 N 
ATOM      7  C   UNL A   1      46.147  22.953  24.691  1.00  0.00     0.251 C 
ATOM      8  O   UNL A   1      46.390  23.848  23.877  1.00  0.00    -0.269 OA
ATOM      9  H   UNL A   1      46.212  21.694  23.193  1.00  0.00     0.164 HD
BRANCH   7  10
ATOM     10  C   UNL A   1      45.860  23.341  26.110  1.00  0.00     0.039 A 
ATOM     11  C   UNL A   1      45.459  24.325  28.751  1.00  0.00     0.037 A 
ATOM     12  C   UNL A   1      46.588  24.691  28.021  1.00  0.00     0.027 A 
ATOM     13  C   UNL A   1      44.531  23.479  28.143  1.00  0.00     0.027 A 
ATOM     14  C   UNL A   1      46.793  24.194  26.727  1.00  0.00     0.016 A 
ATOM     15  C   UNL A   1      44.721  23.003  26.840  1.00  0.00     0.016 A 
BRANCH  11  16
ATOM     16  N   UNL A   1      45.289  24.776  30.065  1.00  0.00    -0.371 N 
ATOM     17  C   UNL A   1      44.971  26.396  31.318  1.00  0.00     0.028 C 
ATOM     18  C   UNL A   1      46.190  25.597  30.817  1.00  0.00     0.122 C 
ATOM     19  C   UNL A   1      44.115  25.292  30.688  1.00  0.00     0.122 C 
BRANCH  17  20
ATOM     20  C   UNL A   1      44.848  26.599  32.822  1.00  0.00     0.007 C 
BRANCH  20  21
ATOM     21  C   UNL A   1      44.073  27.874  33.173  1.00  0.00    -0.003 C 
ATOM     22  C   UNL A   1      44.097  28.939  32.086  1.00  0.00     0.004 C 
ENDBRANCH  20  21
ENDBRANCH  17  20
ENDBRANCH  11  16
ENDBRANCH   7  10
ENDBRANCH   5   6
ENDBRANCH   1   5
BRANCH   3  23
ATOM     23  C   UNL A   1      43.141  19.930  26.041  1.00  0.00     0.117 C 
BRANCH  23  24
ATOM     24  C   UNL A   1      41.626  20.047  26.127  1.00  0.00     0.042 C 
BRANCH  24  25
ATOM     25  C   UNL A   1      41.133  21.460  26.420  1.00  0.00     0.118 C 
BRANCH  25  26
ATOM     26  N   UNL A   1      39.740  21.662  26.048  1.00  0.00    -0.352 N 
ATOM     27  C   UNL A   1      38.920  22.751  26.190  1.00  0.00     0.251 C 
ATOM     28  H   UNL A   1      39.315  20.882  25.622  1.00  0.00     0.163 HD
ATOM     29  O   UNL A   1      37.725  22.632  25.933  1.00  0.00    -0.269 OA
BRANCH  27  30
ATOM     30  C   UNL A   1      39.440  24.056  26.655  1.00  0.00     0.039 A 
ATOM     31  C   UNL A   1      39.249  24.402  27.997  1.00  0.00     0.014 A 
ATOM     32  C   UNL A   1      40.047  24.966  25.786  1.00  0.00     0.014 A 
ATOM     33  C   UNL A   1      39.697  25.635  28.474  1.00  0.00     0.010 A 
ATOM     34  C   UNL A   1      40.562  26.166  26.277  1.00  0.00     0.010 A 
ATOM     35  C   UNL A   1      40.378  26.519  27.621  1.00  0.00    -0.014 A 
BRANCH  35  36
ATOM     36  C   UNL A   1      40.881  27.821  28.123  1.00  0.00     0.031 A 
ATOM     37  C   UNL A   1      42.357  28.115  28.128  1.00  0.00     0.074 A 
ATOM     38  C   UNL A   1      40.012  28.726  28.612  1.00  0.00     0.049 A 
ATOM     39  N   UNL A   1      42.987  29.183  28.548  1.00  0.00    -0.248 NA
ATOM     40  C   UNL A   1      43.243  27.057  27.618  1.00  0.00     0.031 C 
ATOM     41  C   UNL A   1      38.564  28.537  28.711  1.00  0.00     0.029 A 
ATOM     42  N   UNL A   1      40.220  29.983  29.123  1.00  0.00    -0.354 N 
ATOM     43  C   UNL A   1      44.339  28.919  28.369  1.00  0.00     0.074 A 
ATOM     44  C   UNL A   1      44.442  27.573  27.848  1.00  0.00     0.031 C 
ATOM     45  C   UNL A   1      38.010  29.648  29.223  1.00  0.00     0.029 A 
ATOM     46  C   UNL A   1      39.065  30.614  29.513  1.00  0.00     0.049 A 
ATOM     47  H   UNL A   1      41.112  30.392  29.201  1.00  0.00     0.167 HD
ATOM     48  C   UNL A   1      45.396  29.735  28.594  1.00  0.00     0.037 A 
ATOM     49  C   UNL A   1      38.879  31.838  30.042  1.00  0.00     0.037 A 
ATOM     50  C   UNL A   1      45.290  31.085  29.080  1.00  0.00     0.049 A 
ATOM     51  C   UNL A   1      40.067  32.737  30.252  1.00  0.00     0.074 A 
ATOM     52  C   UNL A   1      46.297  32.010  29.293  1.00  0.00     0.029 A 
ATOM     53  N   UNL A   1      44.098  31.705  29.429  1.00  0.00    -0.354 N 
ATOM     54  N   UNL A   1      41.335  32.500  30.015  1.00  0.00    -0.248 NA
ATOM     55  C   UNL A   1      39.796  34.077  30.788  1.00  0.00     0.031 C 
ATOM     56  C   UNL A   1      45.718  33.179  29.800  1.00  0.00     0.029 A 
ATOM     57  C   UNL A   1      44.347  32.997  29.862  1.00  0.00     0.049 A 
ATOM     58  H   UNL A   1      43.208  31.288  29.375  1.00  0.00     0.167 HD
ATOM     59  C   UNL A   1      42.008  33.669  30.343  1.00  0.00     0.074 A 
ATOM     60  C   UNL A   1      41.006  34.618  30.784  1.00  0.00     0.031 C 
ATOM     61  C   UNL A   1      43.336  33.933  30.282  1.00  0.00     0.037 A 
BRANCH  48  62
ATOM     62  C   UNL A   1      46.766  29.188  28.308  1.00  0.00     0.064 A 
ATOM     63  C   UNL A   1      47.591  28.703  29.334  1.00  0.00     0.173 A 
ATOM     64  C   UNL A   1      47.245  29.116  26.991  1.00  0.00     0.173 A 
ATOM     65  F   UNL A   1      47.184  28.759  30.611  1.00  0.00    -0.203 F 
ATOM     66  C   UNL A   1      48.856  28.192  29.056  1.00  0.00     0.198 A 
ATOM     67  C   UNL A   1      48.500  28.579  26.714  1.00  0.00     0.198 A 
ATOM     68  F   UNL A   1      46.494  29.562  25.973  1.00  0.00    -0.203 F 
ATOM     69  F   UNL A   1      49.645  27.780  30.056  1.00  0.00    -0.200 F 
ATOM     70  C   UNL A   1      49.306  28.125  27.746  1.00  0.00     0.200 A 
ATOM     71  F   UNL A   1      48.929  28.503  25.446  1.00  0.00    -0.200 F 
ATOM     72  F   UNL A   1      50.522  27.628  27.479  1.00  0.00    -0.200 F 
ENDBRANCH  48  62
BRANCH  49  73
ATOM     73  C   UNL A   1      37.505  32.304  30.363  1.00  0.00     0.064 A 
ATOM     74  C   UNL A   1      36.967  32.122  31.643  1.00  0.00     0.173 A 
ATOM     75  C   UNL A   1      36.708  32.942  29.402  1.00  0.00     0.173 A 
ATOM     76  F   UNL A   1      37.685  31.500  32.589  1.00  0.00    -0.203 F 
ATOM     77  C   UNL A   1      35.674  32.542  31.946  1.00  0.00     0.198 A 
ATOM     78  C   UNL A   1      35.425  33.385  29.713  1.00  0.00     0.198 A 
ATOM     79  F   UNL A   1      37.181  33.144  28.162  1.00  0.00    -0.203 F 
ATOM     80  F   UNL A   1      35.168  32.318  33.167  1.00  0.00    -0.200 F 
ATOM     81  C   UNL A   1      34.906  33.179  30.983  1.00  0.00     0.200 A 
ATOM     82  F   UNL A   1      34.690  34.009  28.783  1.00  0.00    -0.200 F 
ATOM     83  F   UNL A   1      33.664  33.586  31.275  1.00  0.00    -0.200 F 
ENDBRANCH  49  73
BRANCH  61  84
ATOM     84  C   UNL A   1      43.778  35.316  30.660  1.00  0.00     0.064 A 
ATOM     85  C   UNL A   1      44.168  35.634  31.968  1.00  0.00     0.173 A 
ATOM     86  C   UNL A   1      43.841  36.328  29.689  1.00  0.00     0.173 A 
ATOM     87  F   UNL A   1      44.111  34.704  32.934  1.00  0.00    -0.203 F 
ATOM     88  C   UNL A   1      44.579  36.923  32.298  1.00  0.00     0.198 A 
ATOM     89  C   UNL A   1      44.278  37.607  30.016  1.00  0.00     0.198 A 
ATOM     90  F   UNL A   1      43.484  36.072  28.421  1.00  0.00    -0.203 F 
ATOM     91  F   UNL A   1      44.902  37.218  33.565  1.00  0.00    -0.200 F 
ATOM     92  C   UNL A   1      44.639  37.906  31.321  1.00  0.00     0.200 A 
ATOM     93  F   UNL A   1      44.346  38.554  29.069  1.00  0.00    -0.200 F 
ATOM     94  F   UNL A   1      45.038  39.145  31.639  1.00  0.00    -0.200 F 
ENDBRANCH  61  84
ENDBRANCH  35  36
ENDBRANCH  27  30
ENDBRANCH  25  26
ENDBRANCH  24  25
ENDBRANCH  23  24
ENDBRANCH   3  23
TORSDOF 15
ENDMDL
