MODEL 1
REMARK VINA RESULT:     -12.3      0.000      0.000
REMARK SMILES C[C@H](c1ccncc1)[N@H+]1[C@@H]2CC[C@H]1C[C@H](CC(=O)NCCCNC(=O)c1ccc(-c3c4nc(c(-c5c(F)c(F)c(F)c(F)c5F)c5ccc([nH]5)c(-c5c(F)c(F)c(F)c(F)c5F)c5nc(c(-c6c(F)c(F)c(F)c(F)c6F)c6ccc3[nH]6)C=C5)C=C4)cc1)C2
REMARK SMILES IDX 20 1 19 2 17 3 18 4 16 6 15 7 9 8 10 9 13 10 11 12 89 13
REMARK SMILES IDX 12 14 14 15 2 16 1 17 3 18 4 19 8 20 5 21 7 22 6 23 21 24
REMARK SMILES IDX 22 25 23 26 24 27 25 29 26 30 27 31 88 32 28 33 87 34 29 35
REMARK SMILES IDX 30 36 31 37 81 38 32 39 86 40 80 41 82 42 33 43 85 44 79 45
REMARK SMILES IDX 78 46 34 48 66 49 46 50 65 51 47 52 50 53 64 54 83 55 48 56
REMARK SMILES IDX 49 57 63 59 84 60 51 61 35 62 36 63 44 64 37 65 38 66 42 67
REMARK SMILES IDX 45 68 39 69 40 70 43 71 41 72 67 73 68 74 76 75 69 76 70 77
REMARK SMILES IDX 74 78 77 79 71 80 72 81 75 82 73 83 52 84 53 85 61 86 54 87
REMARK SMILES IDX 55 88 59 89 62 90 56 91 57 92 60 93 58 94
REMARK H PARENT 19 5 9 11 23 28 82 47 50 58
REMARK Flexibility Score: inf
ROOT
ATOM      1  C   UNL A   1      37.791  21.140  24.505  1.00  0.00     0.117 C 
ENDROOT
BRANCH   1   2
ATOM      2  N   UNL A   1      38.186  22.267  25.346  1.00  0.00    -0.356 N 
ATOM      3  C   UNL A   1      37.574  23.453  25.637  1.00  0.00     0.220 C 
ATOM      4  O   UNL A   1      38.168  24.233  26.384  1.00  0.00    -0.275 OA
ATOM      5  H   UNL A   1      39.059  22.150  25.785  1.00  0.00     0.163 HD
BRANCH   3   6
ATOM      6  C   UNL A   1      36.213  23.821  25.066  1.00  0.00     0.104 C 
BRANCH   6   7
ATOM      7  C   UNL A   1      35.024  23.444  25.984  1.00  0.00     0.010 C 
ATOM      8  N   UNL A   1      32.861  21.381  25.748  1.00  0.00    -0.324 N 
ATOM      9  C   UNL A   1      33.807  21.340  26.873  1.00  0.00     0.185 C 
ATOM     10  C   UNL A   1      32.513  22.794  25.664  1.00  0.00     0.185 C 
ATOM     11  H   UNL A   1      31.998  20.851  25.873  1.00  0.00     0.349 HD
ATOM     12  C   UNL A   1      33.044  22.159  27.929  1.00  0.00     0.071 C 
ATOM     13  C   UNL A   1      35.157  22.000  26.522  1.00  0.00     0.069 C 
ATOM     14  C   UNL A   1      32.134  23.081  27.119  1.00  0.00     0.071 C 
ATOM     15  C   UNL A   1      33.695  23.671  25.258  1.00  0.00     0.069 C 
BRANCH   8  16
ATOM     16  C   UNL A   1      33.191  20.564  24.570  1.00  0.00     0.212 C 
ATOM     17  C   UNL A   1      32.284  20.552  23.331  1.00  0.00     0.081 C 
BRANCH  16  18
ATOM     18  C   UNL A   1      33.443  19.092  24.911  1.00  0.00     0.012 A 
ATOM     19  C   UNL A   1      32.481  18.287  25.530  1.00  0.00     0.030 A 
ATOM     20  C   UNL A   1      34.607  18.468  24.441  1.00  0.00     0.030 A 
ATOM     21  C   UNL A   1      32.712  16.923  25.638  1.00  0.00     0.111 A 
ATOM     22  C   UNL A   1      34.743  17.096  24.590  1.00  0.00     0.111 A 
ATOM     23  N   UNL A   1      33.820  16.307  25.176  1.00  0.00    -0.265 NA
ENDBRANCH  16  18
ENDBRANCH   8  16
ENDBRANCH   6   7
ENDBRANCH   3   6
ENDBRANCH   1   2
BRANCH   1  24
ATOM     24  C   UNL A   1      38.448  19.823  24.937  1.00  0.00     0.042 C 
BRANCH  24  25
ATOM     25  C   UNL A   1      39.365  19.925  26.145  1.00  0.00     0.118 C 
BRANCH  25  26
ATOM     26  N   UNL A   1      40.533  19.075  26.010  1.00  0.00    -0.352 N 
ATOM     27  C   UNL A   1      41.870  19.389  26.003  1.00  0.00     0.251 C 
ATOM     28  H   UNL A   1      40.334  18.116  25.908  1.00  0.00     0.163 HD
ATOM     29  O   UNL A   1      42.672  18.531  25.638  1.00  0.00    -0.269 OA
BRANCH  27  30
ATOM     30  C   UNL A   1      42.377  20.727  26.410  1.00  0.00     0.039 A 
ATOM     31  C   UNL A   1      42.396  21.042  27.776  1.00  0.00     0.014 A 
ATOM     32  C   UNL A   1      42.741  21.709  25.485  1.00  0.00     0.014 A 
ATOM     33  C   UNL A   1      42.797  22.312  28.207  1.00  0.00     0.010 A 
ATOM     34  C   UNL A   1      43.221  22.948  25.919  1.00  0.00     0.010 A 
ATOM     35  C   UNL A   1      43.229  23.275  27.282  1.00  0.00    -0.014 A 
BRANCH  35  36
ATOM     36  C   UNL A   1      43.628  24.642  27.718  1.00  0.00     0.031 A 
ATOM     37  C   UNL A   1      42.575  25.665  28.063  1.00  0.00     0.074 A 
ATOM     38  C   UNL A   1      44.931  24.985  27.767  1.00  0.00     0.049 A 
ATOM     39  N   UNL A   1      42.717  26.923  28.400  1.00  0.00    -0.248 NA
ATOM     40  C   UNL A   1      41.174  25.220  27.994  1.00  0.00     0.031 C 
ATOM     41  C   UNL A   1      46.050  24.107  27.428  1.00  0.00     0.029 A 
ATOM     42  N   UNL A   1      45.532  26.170  28.115  1.00  0.00    -0.354 N 
ATOM     43  C   UNL A   1      41.429  27.422  28.554  1.00  0.00     0.074 A 
ATOM     44  C   UNL A   1      40.517  26.346  28.233  1.00  0.00     0.031 C 
ATOM     45  C   UNL A   1      47.202  24.773  27.609  1.00  0.00     0.029 A 
ATOM     46  C   UNL A   1      46.904  26.136  28.042  1.00  0.00     0.049 A 
ATOM     47  H   UNL A   1      45.028  26.969  28.391  1.00  0.00     0.167 HD
ATOM     48  C   UNL A   1      41.040  28.659  28.947  1.00  0.00     0.037 A 
ATOM     49  C   UNL A   1      47.816  27.094  28.292  1.00  0.00     0.037 A 
ATOM     50  C   UNL A   1      41.942  29.717  29.317  1.00  0.00     0.049 A 
ATOM     51  C   UNL A   1      47.356  28.455  28.741  1.00  0.00     0.074 A 
ATOM     52  C   UNL A   1      41.642  30.977  29.803  1.00  0.00     0.029 A 
ATOM     53  N   UNL A   1      43.325  29.633  29.248  1.00  0.00    -0.354 N 
ATOM     54  N   UNL A   1      46.138  28.893  28.943  1.00  0.00    -0.248 NA
ATOM     55  C   UNL A   1      48.404  29.455  29.002  1.00  0.00     0.031 C 
ATOM     56  C   UNL A   1      42.842  31.672  29.991  1.00  0.00     0.029 A 
ATOM     57  C   UNL A   1      43.891  30.828  29.664  1.00  0.00     0.049 A 
ATOM     58  H   UNL A   1      43.829  28.843  28.948  1.00  0.00     0.167 HD
ATOM     59  C   UNL A   1      46.271  30.203  29.385  1.00  0.00     0.074 A 
ATOM     60  C   UNL A   1      47.690  30.487  29.431  1.00  0.00     0.031 C 
ATOM     61  C   UNL A   1      45.305  31.091  29.723  1.00  0.00     0.037 A 
BRANCH  48  62
ATOM     62  C   UNL A   1      39.566  28.941  29.003  1.00  0.00     0.064 A 
ATOM     63  C   UNL A   1      38.841  28.844  30.200  1.00  0.00     0.173 A 
ATOM     64  C   UNL A   1      38.880  29.360  27.853  1.00  0.00     0.173 A 
ATOM     65  F   UNL A   1      39.449  28.438  31.325  1.00  0.00    -0.203 F 
ATOM     66  C   UNL A   1      37.479  29.130  30.238  1.00  0.00     0.198 A 
ATOM     67  C   UNL A   1      37.523  29.672  27.900  1.00  0.00     0.198 A 
ATOM     68  F   UNL A   1      39.527  29.477  26.683  1.00  0.00    -0.203 F 
ATOM     69  F   UNL A   1      36.798  28.986  31.384  1.00  0.00    -0.200 F 
ATOM     70  C   UNL A   1      36.822  29.549  29.091  1.00  0.00     0.200 A 
ATOM     71  F   UNL A   1      36.894  30.090  26.794  1.00  0.00    -0.200 F 
ATOM     72  F   UNL A   1      35.513  29.831  29.131  1.00  0.00    -0.200 F 
ENDBRANCH  48  62
BRANCH  49  73
ATOM     73  C   UNL A   1      49.266  26.795  28.156  1.00  0.00     0.064 A 
ATOM     74  C   UNL A   1      50.022  26.394  29.267  1.00  0.00     0.173 A 
ATOM     75  C   UNL A   1      49.927  26.920  26.926  1.00  0.00     0.173 A 
ATOM     76  F   UNL A   1      49.438  26.286  30.469  1.00  0.00    -0.203 F 
ATOM     77  C   UNL A   1      51.388  26.148  29.157  1.00  0.00     0.198 A 
ATOM     78  C   UNL A   1      51.289  26.647  26.813  1.00  0.00     0.198 A 
ATOM     79  F   UNL A   1      49.248  27.299  25.834  1.00  0.00    -0.203 F 
ATOM     80  F   UNL A   1      52.097  25.813  30.244  1.00  0.00    -0.200 F 
ATOM     81  C   UNL A   1      52.021  26.271  27.929  1.00  0.00     0.200 A 
ATOM     82  F   UNL A   1      51.894  26.757  25.622  1.00  0.00    -0.200 F 
ATOM     83  F   UNL A   1      53.335  26.036  27.824  1.00  0.00    -0.200 F 
ENDBRANCH  49  73
BRANCH  61  84
ATOM     84  C   UNL A   1      45.746  32.438  30.214  1.00  0.00     0.064 A 
ATOM     85  C   UNL A   1      46.020  32.674  31.568  1.00  0.00     0.173 A 
ATOM     86  C   UNL A   1      45.935  33.494  29.310  1.00  0.00     0.173 A 
ATOM     87  F   UNL A   1      45.841  31.700  32.473  1.00  0.00    -0.203 F 
ATOM     88  C   UNL A   1      46.445  33.926  32.004  1.00  0.00     0.198 A 
ATOM     89  C   UNL A   1      46.385  34.737  29.744  1.00  0.00     0.198 A 
ATOM     90  F   UNL A   1      45.692  33.316  28.002  1.00  0.00    -0.203 F 
ATOM     91  F   UNL A   1      46.660  34.144  33.308  1.00  0.00    -0.200 F 
ATOM     92  C   UNL A   1      46.633  34.954  31.091  1.00  0.00     0.200 A 
ATOM     93  F   UNL A   1      46.579  35.725  28.859  1.00  0.00    -0.200 F 
ATOM     94  F   UNL A   1      47.048  36.158  31.511  1.00  0.00    -0.200 F 
ENDBRANCH  61  84
ENDBRANCH  35  36
ENDBRANCH  27  30
ENDBRANCH  25  26
ENDBRANCH  24  25
ENDBRANCH   1  24
TORSDOF 13
ENDMDL
MODEL 2
REMARK VINA RESULT:     -12.2      6.537     11.388
REMARK SMILES C[C@H](c1ccncc1)[N@H+]1[C@@H]2CC[C@H]1C[C@H](CC(=O)NCCCNC(=O)c1ccc(-c3c4nc(c(-c5c(F)c(F)c(F)c(F)c5F)c5ccc([nH]5)c(-c5c(F)c(F)c(F)c(F)c5F)c5nc(c(-c6c(F)c(F)c(F)c(F)c6F)c6ccc3[nH]6)C=C5)C=C4)cc1)C2
REMARK SMILES IDX 20 1 19 2 17 3 18 4 16 6 15 7 9 8 10 9 13 10 11 12 89 13
REMARK SMILES IDX 12 14 14 15 2 16 1 17 3 18 4 19 8 20 5 21 7 22 6 23 21 24
REMARK SMILES IDX 22 25 23 26 24 27 25 29 26 30 27 31 88 32 28 33 87 34 29 35
REMARK SMILES IDX 30 36 31 37 81 38 32 39 86 40 80 41 82 42 33 43 85 44 79 45
REMARK SMILES IDX 78 46 34 48 66 49 46 50 65 51 47 52 50 53 64 54 83 55 48 56
REMARK SMILES IDX 49 57 63 59 84 60 51 61 35 62 36 63 44 64 37 65 38 66 42 67
REMARK SMILES IDX 45 68 39 69 40 70 43 71 41 72 67 73 68 74 76 75 69 76 70 77
REMARK SMILES IDX 74 78 77 79 71 80 72 81 75 82 73 83 52 84 53 85 61 86 54 87
REMARK SMILES IDX 55 88 59 89 62 90 56 91 57 92 60 93 58 94
REMARK H PARENT 19 5 9 11 23 28 82 47 50 58
REMARK Flexibility Score: inf
ROOT
ATOM      1  C   UNL A   1      31.103  31.215  26.777  1.00  0.00     0.117 C 
ENDROOT
BRANCH   1   2
ATOM      2  N   UNL A   1      32.298  30.427  27.065  1.00  0.00    -0.356 N 
ATOM      3  C   UNL A   1      32.549  29.085  27.001  1.00  0.00     0.220 C 
ATOM      4  O   UNL A   1      33.675  28.699  27.325  1.00  0.00    -0.275 OA
ATOM      5  H   UNL A   1      33.068  30.963  27.362  1.00  0.00     0.163 HD
BRANCH   3   6
ATOM      6  C   UNL A   1      31.492  28.086  26.554  1.00  0.00     0.104 C 
BRANCH   6   7
ATOM      7  C   UNL A   1      31.568  27.723  25.050  1.00  0.00     0.010 C 
ATOM      8  N   UNL A   1      29.691  28.193  22.760  1.00  0.00    -0.324 N 
ATOM      9  C   UNL A   1      31.045  28.766  22.740  1.00  0.00     0.185 C 
ATOM     10  C   UNL A   1      29.917  26.832  23.230  1.00  0.00     0.185 C 
ATOM     11  H   UNL A   1      29.217  28.140  21.857  1.00  0.00     0.349 HD
ATOM     12  C   UNL A   1      31.821  27.660  22.003  1.00  0.00     0.071 C 
ATOM     13  C   UNL A   1      31.604  28.988  24.161  1.00  0.00     0.069 C 
ATOM     14  C   UNL A   1      31.028  26.383  22.278  1.00  0.00     0.071 C 
ATOM     15  C   UNL A   1      30.422  26.781  24.670  1.00  0.00     0.069 C 
BRANCH   8  16
ATOM     16  C   UNL A   1      28.612  29.052  23.274  1.00  0.00     0.212 C 
ATOM     17  C   UNL A   1      27.152  28.577  23.280  1.00  0.00     0.081 C 
BRANCH  16  18
ATOM     18  C   UNL A   1      28.592  30.441  22.631  1.00  0.00     0.012 A 
ATOM     19  C   UNL A   1      28.198  30.652  21.304  1.00  0.00     0.030 A 
ATOM     20  C   UNL A   1      28.807  31.572  23.431  1.00  0.00     0.030 A 
ATOM     21  C   UNL A   1      28.028  31.952  20.850  1.00  0.00     0.111 A 
ATOM     22  C   UNL A   1      28.604  32.831  22.887  1.00  0.00     0.111 A 
ATOM     23  N   UNL A   1      28.216  33.048  21.614  1.00  0.00    -0.265 NA
ENDBRANCH  16  18
ENDBRANCH   8  16
ENDBRANCH   6   7
ENDBRANCH   3   6
ENDBRANCH   1   2
BRANCH   1  24
ATOM     24  C   UNL A   1      31.414  32.703  26.572  1.00  0.00     0.042 C 
BRANCH  24  25
ATOM     25  C   UNL A   1      32.679  33.198  27.252  1.00  0.00     0.118 C 
BRANCH  25  26
ATOM     26  N   UNL A   1      32.511  34.530  27.804  1.00  0.00    -0.352 N 
ATOM     27  C   UNL A   1      33.064  35.111  28.919  1.00  0.00     0.251 C 
ATOM     28  H   UNL A   1      31.902  35.111  27.294  1.00  0.00     0.163 HD
ATOM     29  O   UNL A   1      32.592  36.173  29.321  1.00  0.00    -0.269 OA
BRANCH  27  30
ATOM     30  C   UNL A   1      34.201  34.498  29.657  1.00  0.00     0.039 A 
ATOM     31  C   UNL A   1      35.481  34.581  29.091  1.00  0.00     0.014 A 
ATOM     32  C   UNL A   1      34.029  33.767  30.835  1.00  0.00     0.014 A 
ATOM     33  C   UNL A   1      36.572  33.960  29.710  1.00  0.00     0.010 A 
ATOM     34  C   UNL A   1      35.131  33.218  31.496  1.00  0.00     0.010 A 
ATOM     35  C   UNL A   1      36.412  33.284  30.928  1.00  0.00    -0.014 A 
BRANCH  35  36
ATOM     36  C   UNL A   1      37.553  32.590  31.585  1.00  0.00     0.031 A 
ATOM     37  C   UNL A   1      38.244  31.444  30.891  1.00  0.00     0.074 A 
ATOM     38  C   UNL A   1      37.950  32.956  32.821  1.00  0.00     0.049 A 
ATOM     39  N   UNL A   1      39.212  30.673  31.321  1.00  0.00    -0.248 NA
ATOM     40  C   UNL A   1      37.765  31.103  29.542  1.00  0.00     0.031 C 
ATOM     41  C   UNL A   1      37.350  34.024  33.621  1.00  0.00     0.029 A 
ATOM     42  N   UNL A   1      38.949  32.462  33.623  1.00  0.00    -0.354 N 
ATOM     43  C   UNL A   1      39.435  29.744  30.311  1.00  0.00     0.074 A 
ATOM     44  C   UNL A   1      38.474  30.019  29.265  1.00  0.00     0.031 C 
ATOM     45  C   UNL A   1      38.007  34.122  34.787  1.00  0.00     0.029 A 
ATOM     46  C   UNL A   1      39.052  33.102  34.835  1.00  0.00     0.049 A 
ATOM     47  H   UNL A   1      39.537  31.719  33.357  1.00  0.00     0.167 HD
ATOM     48  C   UNL A   1      40.367  28.763  30.251  1.00  0.00     0.037 A 
ATOM     49  C   UNL A   1      39.891  32.890  35.866  1.00  0.00     0.037 A 
ATOM     50  C   UNL A   1      41.358  28.518  31.266  1.00  0.00     0.049 A 
ATOM     51  C   UNL A   1      40.927  31.803  35.767  1.00  0.00     0.074 A 
ATOM     52  C   UNL A   1      42.393  27.599  31.259  1.00  0.00     0.029 A 
ATOM     53  N   UNL A   1      41.440  29.204  32.469  1.00  0.00    -0.354 N 
ATOM     54  N   UNL A   1      41.166  30.974  34.781  1.00  0.00    -0.248 NA
ATOM     55  C   UNL A   1      41.815  31.626  36.927  1.00  0.00     0.031 C 
ATOM     56  C   UNL A   1      43.078  27.701  32.474  1.00  0.00     0.029 A 
ATOM     57  C   UNL A   1      42.496  28.714  33.220  1.00  0.00     0.049 A 
ATOM     58  H   UNL A   1      40.837  29.930  32.748  1.00  0.00     0.167 HD
ATOM     59  C   UNL A   1      42.248  30.202  35.184  1.00  0.00     0.074 A 
ATOM     60  C   UNL A   1      42.626  30.667  36.502  1.00  0.00     0.031 C 
ATOM     61  C   UNL A   1      42.873  29.198  34.522  1.00  0.00     0.037 A 
BRANCH  48  62
ATOM     62  C   UNL A   1      40.367  27.874  29.041  1.00  0.00     0.064 A 
ATOM     63  C   UNL A   1      41.122  28.182  27.899  1.00  0.00     0.173 A 
ATOM     64  C   UNL A   1      39.640  26.674  29.041  1.00  0.00     0.173 A 
ATOM     65  F   UNL A   1      41.827  29.323  27.845  1.00  0.00    -0.203 F 
ATOM     66  C   UNL A   1      41.127  27.337  26.793  1.00  0.00     0.198 A 
ATOM     67  C   UNL A   1      39.670  25.817  27.944  1.00  0.00     0.198 A 
ATOM     68  F   UNL A   1      38.907  26.327  30.110  1.00  0.00    -0.203 F 
ATOM     69  F   UNL A   1      41.820  27.675  25.697  1.00  0.00    -0.200 F 
ATOM     70  C   UNL A   1      40.407  26.152  26.818  1.00  0.00     0.200 A 
ATOM     71  F   UNL A   1      38.983  24.666  27.975  1.00  0.00    -0.200 F 
ATOM     72  F   UNL A   1      40.419  25.336  25.756  1.00  0.00    -0.200 F 
ENDBRANCH  48  62
BRANCH  49  73
ATOM     73  C   UNL A   1      39.812  33.747  37.079  1.00  0.00     0.064 A 
ATOM     74  C   UNL A   1      38.970  33.401  38.146  1.00  0.00     0.173 A 
ATOM     75  C   UNL A   1      40.556  34.929  37.190  1.00  0.00     0.173 A 
ATOM     76  F   UNL A   1      38.220  32.292  38.074  1.00  0.00    -0.203 F 
ATOM     77  C   UNL A   1      38.861  34.217  39.270  1.00  0.00     0.198 A 
ATOM     78  C   UNL A   1      40.465  35.730  38.327  1.00  0.00     0.198 A 
ATOM     79  F   UNL A   1      41.376  35.303  36.197  1.00  0.00    -0.203 F 
ATOM     80  F   UNL A   1      38.012  33.888  40.254  1.00  0.00    -0.200 F 
ATOM     81  C   UNL A   1      39.612  35.379  39.362  1.00  0.00     0.200 A 
ATOM     82  F   UNL A   1      41.200  36.847  38.416  1.00  0.00    -0.200 F 
ATOM     83  F   UNL A   1      39.505  36.164  40.442  1.00  0.00    -0.200 F 
ENDBRANCH  49  73
BRANCH  61  84
ATOM     84  C   UNL A   1      44.056  28.563  35.189  1.00  0.00     0.064 A 
ATOM     85  C   UNL A   1      45.353  29.069  35.025  1.00  0.00     0.173 A 
ATOM     86  C   UNL A   1      43.883  27.457  36.035  1.00  0.00     0.173 A 
ATOM     87  F   UNL A   1      45.572  30.116  34.216  1.00  0.00    -0.203 F 
ATOM     88  C   UNL A   1      46.438  28.476  35.666  1.00  0.00     0.198 A 
ATOM     89  C   UNL A   1      44.965  26.883  36.695  1.00  0.00     0.198 A 
ATOM     90  F   UNL A   1      42.660  26.940  36.229  1.00  0.00    -0.203 F 
ATOM     91  F   UNL A   1      47.676  28.948  35.462  1.00  0.00    -0.200 F 
ATOM     92  C   UNL A   1      46.242  27.388  36.505  1.00  0.00     0.200 A 
ATOM     93  F   UNL A   1      44.773  25.841  37.515  1.00  0.00    -0.200 F 
ATOM     94  F   UNL A   1      47.288  26.823  37.125  1.00  0.00    -0.200 F 
ENDBRANCH  61  84
ENDBRANCH  35  36
ENDBRANCH  27  30
ENDBRANCH  25  26
ENDBRANCH  24  25
ENDBRANCH   1  24
TORSDOF 13
ENDMDL
MODEL 3
REMARK VINA RESULT:     -12.1      1.063      7.368
REMARK SMILES C[C@H](c1ccncc1)[N@H+]1[C@@H]2CC[C@H]1C[C@H](CC(=O)NCCCNC(=O)c1ccc(-c3c4nc(c(-c5c(F)c(F)c(F)c(F)c5F)c5ccc([nH]5)c(-c5c(F)c(F)c(F)c(F)c5F)c5nc(c(-c6c(F)c(F)c(F)c(F)c6F)c6ccc3[nH]6)C=C5)C=C4)cc1)C2
REMARK SMILES IDX 20 1 19 2 17 3 18 4 16 6 15 7 9 8 10 9 13 10 11 12 89 13
REMARK SMILES IDX 12 14 14 15 2 16 1 17 3 18 4 19 8 20 5 21 7 22 6 23 21 24
REMARK SMILES IDX 22 25 23 26 24 27 25 29 26 30 27 31 88 32 28 33 87 34 29 35
REMARK SMILES IDX 30 36 31 37 81 38 32 39 86 40 80 41 82 42 33 43 85 44 79 45
REMARK SMILES IDX 78 46 34 48 66 49 46 50 65 51 47 52 50 53 64 54 83 55 48 56
REMARK SMILES IDX 49 57 63 59 84 60 51 61 35 62 36 63 44 64 37 65 38 66 42 67
REMARK SMILES IDX 45 68 39 69 40 70 43 71 41 72 67 73 68 74 76 75 69 76 70 77
REMARK SMILES IDX 74 78 77 79 71 80 72 81 75 82 73 83 52 84 53 85 61 86 54 87
REMARK SMILES IDX 55 88 59 89 62 90 56 91 57 92 60 93 58 94
REMARK H PARENT 19 5 9 11 23 28 82 47 50 58
REMARK Flexibility Score: inf
ROOT
ATOM      1  C   UNL A   1      37.758  21.002  24.603  1.00  0.00     0.117 C 
ENDROOT
BRANCH   1   2
ATOM      2  N   UNL A   1      38.155  22.116  25.460  1.00  0.00    -0.356 N 
ATOM      3  C   UNL A   1      37.569  23.322  25.725  1.00  0.00     0.220 C 
ATOM      4  O   UNL A   1      38.156  24.084  26.497  1.00  0.00    -0.275 OA
ATOM      5  H   UNL A   1      39.004  21.972  25.936  1.00  0.00     0.163 HD
BRANCH   3   6
ATOM      6  C   UNL A   1      36.246  23.733  25.098  1.00  0.00     0.104 C 
BRANCH   6   7
ATOM      7  C   UNL A   1      35.009  23.407  25.971  1.00  0.00     0.010 C 
ATOM      8  N   UNL A   1      32.757  21.455  25.640  1.00  0.00    -0.324 N 
ATOM      9  C   UNL A   1      33.660  21.357  26.796  1.00  0.00     0.185 C 
ATOM     10  C   UNL A   1      32.481  22.884  25.560  1.00  0.00     0.185 C 
ATOM     11  H   UNL A   1      31.865  20.966  25.730  1.00  0.00     0.349 HD
ATOM     12  C   UNL A   1      32.903  22.203  27.834  1.00  0.00     0.071 C 
ATOM     13  C   UNL A   1      35.053  21.954  26.498  1.00  0.00     0.069 C 
ATOM     14  C   UNL A   1      32.068  23.176  27.003  1.00  0.00     0.071 C 
ATOM     15  C   UNL A   1      33.718  23.705  25.203  1.00  0.00     0.069 C 
BRANCH   8  16
ATOM     16  C   UNL A   1      33.087  20.633  24.465  1.00  0.00     0.212 C 
ATOM     17  C   UNL A   1      32.170  20.599  23.235  1.00  0.00     0.081 C 
BRANCH  16  18
ATOM     18  C   UNL A   1      33.363  19.167  24.815  1.00  0.00     0.012 A 
ATOM     19  C   UNL A   1      32.370  18.311  25.305  1.00  0.00     0.030 A 
ATOM     20  C   UNL A   1      34.600  18.601  24.480  1.00  0.00     0.030 A 
ATOM     21  C   UNL A   1      32.647  16.956  25.423  1.00  0.00     0.111 A 
ATOM     22  C   UNL A   1      34.778  17.234  24.626  1.00  0.00     0.111 A 
ATOM     23  N   UNL A   1      33.828  16.396  25.088  1.00  0.00    -0.265 NA
ENDBRANCH  16  18
ENDBRANCH   8  16
ENDBRANCH   6   7
ENDBRANCH   3   6
ENDBRANCH   1   2
BRANCH   1  24
ATOM     24  C   UNL A   1      38.496  19.702  24.948  1.00  0.00     0.042 C 
BRANCH  24  25
ATOM     25  C   UNL A   1      39.301  19.739  26.237  1.00  0.00     0.118 C 
BRANCH  25  26
ATOM     26  N   UNL A   1      40.515  18.951  26.139  1.00  0.00    -0.352 N 
ATOM     27  C   UNL A   1      41.829  19.342  26.047  1.00  0.00     0.251 C 
ATOM     28  H   UNL A   1      40.374  17.977  26.138  1.00  0.00     0.163 HD
ATOM     29  O   UNL A   1      42.671  18.502  25.736  1.00  0.00    -0.269 OA
BRANCH  27  30
ATOM     30  C   UNL A   1      42.263  20.742  26.302  1.00  0.00     0.039 A 
ATOM     31  C   UNL A   1      42.521  21.126  27.626  1.00  0.00     0.014 A 
ATOM     32  C   UNL A   1      42.330  21.706  25.293  1.00  0.00     0.014 A 
ATOM     33  C   UNL A   1      42.864  22.450  27.927  1.00  0.00     0.010 A 
ATOM     34  C   UNL A   1      42.753  23.006  25.583  1.00  0.00     0.010 A 
ATOM     35  C   UNL A   1      42.998  23.402  26.905  1.00  0.00    -0.014 A 
BRANCH  35  36
ATOM     36  C   UNL A   1      43.330  24.821  27.209  1.00  0.00     0.031 A 
ATOM     37  C   UNL A   1      44.711  25.355  26.920  1.00  0.00     0.074 A 
ATOM     38  C   UNL A   1      42.411  25.626  27.780  1.00  0.00     0.049 A 
ATOM     39  N   UNL A   1      45.214  26.539  27.170  1.00  0.00    -0.248 NA
ATOM     40  C   UNL A   1      45.661  24.424  26.290  1.00  0.00     0.031 C 
ATOM     41  C   UNL A   1      41.050  25.232  28.143  1.00  0.00     0.029 A 
ATOM     42  N   UNL A   1      42.489  26.943  28.162  1.00  0.00    -0.354 N 
ATOM     43  C   UNL A   1      46.539  26.483  26.755  1.00  0.00     0.074 A 
ATOM     44  C   UNL A   1      46.776  25.138  26.277  1.00  0.00     0.031 C 
ATOM     45  C   UNL A   1      40.413  26.289  28.671  1.00  0.00     0.029 A 
ATOM     46  C   UNL A   1      41.328  27.426  28.718  1.00  0.00     0.049 A 
ATOM     47  H   UNL A   1      43.299  27.491  28.048  1.00  0.00     0.167 HD
ATOM     48  C   UNL A   1      47.470  27.468  26.753  1.00  0.00     0.037 A 
ATOM     49  C   UNL A   1      41.037  28.645  29.210  1.00  0.00     0.037 A 
ATOM     50  C   UNL A   1      47.224  28.820  27.179  1.00  0.00     0.049 A 
ATOM     51  C   UNL A   1      42.086  29.725  29.182  1.00  0.00     0.074 A 
ATOM     52  C   UNL A   1      48.081  29.906  27.141  1.00  0.00     0.029 A 
ATOM     53  N   UNL A   1      46.028  29.272  27.716  1.00  0.00    -0.354 N 
ATOM     54  N   UNL A   1      43.314  29.676  28.730  1.00  0.00    -0.248 NA
ATOM     55  C   UNL A   1      41.702  31.034  29.732  1.00  0.00     0.031 C 
ATOM     56  C   UNL A   1      47.417  31.008  27.691  1.00  0.00     0.029 A 
ATOM     57  C   UNL A   1      46.132  30.618  28.032  1.00  0.00     0.049 A 
ATOM     58  H   UNL A   1      45.225  28.720  27.853  1.00  0.00     0.167 HD
ATOM     59  C   UNL A   1      43.839  30.949  28.908  1.00  0.00     0.074 A 
ATOM     60  C   UNL A   1      42.792  31.754  29.501  1.00  0.00     0.031 C 
ATOM     61  C   UNL A   1      45.076  31.411  28.605  1.00  0.00     0.037 A 
BRANCH  48  62
ATOM     62  C   UNL A   1      48.849  27.123  26.270  1.00  0.00     0.064 A 
ATOM     63  C   UNL A   1      49.205  27.228  24.917  1.00  0.00     0.173 A 
ATOM     64  C   UNL A   1      49.841  26.727  27.180  1.00  0.00     0.173 A 
ATOM     65  F   UNL A   1      48.289  27.592  24.006  1.00  0.00    -0.203 F 
ATOM     66  C   UNL A   1      50.494  26.924  24.489  1.00  0.00     0.198 A 
ATOM     67  C   UNL A   1      51.138  26.451  26.752  1.00  0.00     0.198 A 
ATOM     68  F   UNL A   1      49.557  26.617  28.487  1.00  0.00    -0.203 F 
ATOM     69  F   UNL A   1      50.798  26.988  23.185  1.00  0.00    -0.200 F 
ATOM     70  C   UNL A   1      51.461  26.542  25.407  1.00  0.00     0.200 A 
ATOM     71  F   UNL A   1      52.074  26.095  27.642  1.00  0.00    -0.200 F 
ATOM     72  F   UNL A   1      52.704  26.258  24.994  1.00  0.00    -0.200 F 
ENDBRANCH  48  62
BRANCH  49  73
ATOM     73  C   UNL A   1      39.680  28.926  29.746  1.00  0.00     0.064 A 
ATOM     74  C   UNL A   1      38.676  29.447  28.916  1.00  0.00     0.173 A 
ATOM     75  C   UNL A   1      39.363  28.700  31.092  1.00  0.00     0.173 A 
ATOM     76  F   UNL A   1      38.940  29.703  27.627  1.00  0.00    -0.203 F 
ATOM     77  C   UNL A   1      37.412  29.748  29.418  1.00  0.00     0.198 A 
ATOM     78  C   UNL A   1      38.089  28.977  31.586  1.00  0.00     0.198 A 
ATOM     79  F   UNL A   1      40.288  28.203  31.926  1.00  0.00    -0.203 F 
ATOM     80  F   UNL A   1      36.486  30.290  28.615  1.00  0.00    -0.200 F 
ATOM     81  C   UNL A   1      37.118  29.510  30.752  1.00  0.00     0.200 A 
ATOM     82  F   UNL A   1      37.807  28.736  32.874  1.00  0.00    -0.200 F 
ATOM     83  F   UNL A   1      35.903  29.801  31.235  1.00  0.00    -0.200 F 
ENDBRANCH  49  73
BRANCH  61  84
ATOM     84  C   UNL A   1      45.355  32.861  28.869  1.00  0.00     0.064 A 
ATOM     85  C   UNL A   1      45.944  33.291  30.066  1.00  0.00     0.173 A 
ATOM     86  C   UNL A   1      45.063  33.827  27.894  1.00  0.00     0.173 A 
ATOM     87  F   UNL A   1      46.228  32.408  31.035  1.00  0.00    -0.203 F 
ATOM     88  C   UNL A   1      46.210  34.640  30.287  1.00  0.00     0.198 A 
ATOM     89  C   UNL A   1      45.355  35.171  28.107  1.00  0.00     0.198 A 
ATOM     90  F   UNL A   1      44.504  33.464  26.729  1.00  0.00    -0.203 F 
ATOM     91  F   UNL A   1      46.733  35.036  31.455  1.00  0.00    -0.200 F 
ATOM     92  C   UNL A   1      45.921  35.577  29.305  1.00  0.00     0.200 A 
ATOM     93  F   UNL A   1      45.087  36.073  27.152  1.00  0.00    -0.200 F 
ATOM     94  F   UNL A   1      46.184  36.875  29.518  1.00  0.00    -0.200 F 
ENDBRANCH  61  84
ENDBRANCH  35  36
ENDBRANCH  27  30
ENDBRANCH  25  26
ENDBRANCH  24  25
ENDBRANCH   1  24
TORSDOF 13
ENDMDL
