MODEL 1
REMARK VINA RESULT:     -13.2      0.000      0.000
REMARK SMILES Cc1cc(Cl)cc2c1O[C@H](C(F)(F)F)C(C(=O)NCCCNC(=O)c1ccc(-c3c4nc(c(-c5c(F)c(F)c(F)c(F)c5F)c5ccc([nH]5)c(-c5c(F)c(F)c(F)c(F)c5F)c5nc(c(-c6c(F)c(F)c(F)c(F)c6F)c6ccc3[nH]6)C=C5)C=C4)cc1)=C2
REMARK SMILES IDX 20 1 19 2 18 3 16 4 17 5 15 7 1 8 2 9 3 10 8 11 4 12 7 13
REMARK SMILES IDX 9 14 5 15 6 16 88 17 10 18 11 19 12 20 13 21 14 22 21 23
REMARK SMILES IDX 22 24 23 25 24 27 25 28 26 29 87 30 27 31 86 32 28 33 29 34
REMARK SMILES IDX 30 35 80 36 31 37 85 38 79 39 81 40 32 41 84 42 78 43 77 44
REMARK SMILES IDX 33 46 65 47 45 48 64 49 46 50 49 51 63 52 82 53 47 54 48 55
REMARK SMILES IDX 62 57 83 58 50 59 34 60 35 61 43 62 36 63 37 64 41 65 44 66
REMARK SMILES IDX 38 67 39 68 42 69 40 70 66 71 67 72 75 73 68 74 69 75 73 76
REMARK SMILES IDX 76 77 70 78 71 79 74 80 72 81 51 82 52 83 60 84 53 85 54 86
REMARK SMILES IDX 58 87 61 88 55 89 56 90 59 91 57 92
REMARK H PARENT 18 6 22 26 81 45 49 56
REMARK Flexibility Score: inf
ROOT
ATOM      1  C   UNL A   1      31.360  32.400  26.521  1.00  0.00     0.042 C 
ENDROOT
BRANCH   1   2
ATOM      2  C   UNL A   1      31.369  30.886  26.379  1.00  0.00     0.118 C 
BRANCH   2   3
ATOM      3  N   UNL A   1      31.199  30.471  24.996  1.00  0.00    -0.352 N 
ATOM      4  C   UNL A   1      31.332  29.331  24.278  1.00  0.00     0.251 C 
ATOM      5  O   UNL A   1      31.071  29.431  23.076  1.00  0.00    -0.270 OA
ATOM      6  H   UNL A   1      30.910  31.221  24.428  1.00  0.00     0.163 HD
BRANCH   4   7
ATOM      7  C   UNL A   1      31.764  28.018  24.836  1.00  0.00     0.067 C 
ATOM      8  C   UNL A   1      34.331  23.776  26.093  1.00  0.00     0.048 C 
ATOM      9  C   UNL A   1      32.886  24.183  26.128  1.00  0.00    -0.007 A 
ATOM     10  C   UNL A   1      31.910  23.327  26.652  1.00  0.00     0.027 A 
ATOM     11  C   UNL A   1      32.491  25.440  25.654  1.00  0.00     0.131 A 
ATOM     12  C   UNL A   1      30.572  23.725  26.680  1.00  0.00     0.042 A 
ATOM     13  C   UNL A   1      31.150  25.841  25.676  1.00  0.00     0.019 A 
ATOM     14  O   UNL A   1      33.471  26.234  25.126  1.00  0.00    -0.475 OA
ATOM     15  Cl  UNL A   1      29.384  22.656  27.318  1.00  0.00    -0.084 Cl
ATOM     16  C   UNL A   1      30.186  24.974  26.193  1.00  0.00     0.032 A 
ATOM     17  C   UNL A   1      30.784  27.141  25.123  1.00  0.00     0.025 C 
ATOM     18  C   UNL A   1      33.195  27.655  25.103  1.00  0.00     0.314 C 
BRANCH  18  19
ATOM     19  C   UNL A   1      33.744  28.310  26.386  1.00  0.00     0.429 C 
ATOM     20  F   UNL A   1      34.861  27.661  26.804  1.00  0.00    -0.167 F 
ATOM     21  F   UNL A   1      34.104  29.603  26.198  1.00  0.00    -0.167 F 
ATOM     22  F   UNL A   1      32.859  28.295  27.405  1.00  0.00    -0.167 F 
ENDBRANCH  18  19
ENDBRANCH   4   7
ENDBRANCH   2   3
ENDBRANCH   1   2
BRANCH   1  23
ATOM     23  C   UNL A   1      32.617  32.912  27.212  1.00  0.00     0.118 C 
BRANCH  23  24
ATOM     24  N   UNL A   1      32.481  34.313  27.608  1.00  0.00    -0.352 N 
ATOM     25  C   UNL A   1      33.020  34.988  28.671  1.00  0.00     0.251 C 
ATOM     26  H   UNL A   1      31.913  34.857  27.016  1.00  0.00     0.163 HD
ATOM     27  O   UNL A   1      32.561  36.080  29.002  1.00  0.00    -0.269 OA
BRANCH  25  28
ATOM     28  C   UNL A   1      34.149  34.407  29.417  1.00  0.00     0.039 A 
ATOM     29  C   UNL A   1      33.912  33.762  30.633  1.00  0.00     0.014 A 
ATOM     30  C   UNL A   1      35.450  34.526  28.924  1.00  0.00     0.014 A 
ATOM     31  C   UNL A   1      34.977  33.184  31.323  1.00  0.00     0.010 A 
ATOM     32  C   UNL A   1      36.490  33.858  29.552  1.00  0.00     0.010 A 
ATOM     33  C   UNL A   1      36.267  33.200  30.769  1.00  0.00    -0.014 A 
BRANCH  33  34
ATOM     34  C   UNL A   1      37.414  32.567  31.460  1.00  0.00     0.031 A 
ATOM     35  C   UNL A   1      38.136  31.423  30.808  1.00  0.00     0.074 A 
ATOM     36  C   UNL A   1      37.755  32.981  32.694  1.00  0.00     0.049 A 
ATOM     37  N   UNL A   1      39.117  30.693  31.273  1.00  0.00    -0.248 NA
ATOM     38  C   UNL A   1      37.674  31.022  29.469  1.00  0.00     0.031 C 
ATOM     39  C   UNL A   1      37.088  34.048  33.442  1.00  0.00     0.029 A 
ATOM     40  N   UNL A   1      38.746  32.551  33.540  1.00  0.00    -0.354 N 
ATOM     41  C   UNL A   1      39.376  29.745  30.293  1.00  0.00     0.074 A 
ATOM     42  C   UNL A   1      38.408  29.944  29.239  1.00  0.00     0.031 C 
ATOM     43  C   UNL A   1      37.709  34.212  34.620  1.00  0.00     0.029 A 
ATOM     44  C   UNL A   1      38.790  33.236  34.729  1.00  0.00     0.049 A 
ATOM     45  H   UNL A   1      39.365  31.819  33.316  1.00  0.00     0.167 HD
ATOM     46  C   UNL A   1      40.356  28.814  30.261  1.00  0.00     0.037 A 
ATOM     47  C   UNL A   1      39.610  33.092  35.786  1.00  0.00     0.037 A 
ATOM     48  C   UNL A   1      41.336  28.648  31.302  1.00  0.00     0.049 A 
ATOM     49  C   UNL A   1      40.690  32.045  35.731  1.00  0.00     0.074 A 
ATOM     50  C   UNL A   1      42.413  27.782  31.340  1.00  0.00     0.029 A 
ATOM     51  N   UNL A   1      41.352  29.365  32.490  1.00  0.00    -0.354 N 
ATOM     52  N   UNL A   1      40.972  31.201  34.770  1.00  0.00    -0.248 NA
ATOM     53  C   UNL A   1      41.565  31.933  36.905  1.00  0.00     0.031 C 
ATOM     54  C   UNL A   1      43.049  27.935  32.574  1.00  0.00     0.029 A 
ATOM     55  C   UNL A   1      42.405  28.938  33.283  1.00  0.00     0.049 A 
ATOM     56  H   UNL A   1      40.712  30.072  32.733  1.00  0.00     0.167 HD
ATOM     57  C   UNL A   1      42.066  30.470  35.210  1.00  0.00     0.074 A 
ATOM     58  C   UNL A   1      42.408  30.984  36.521  1.00  0.00     0.031 C 
ATOM     59  C   UNL A   1      42.726  29.462  34.588  1.00  0.00     0.037 A 
BRANCH  46  60
ATOM     60  C   UNL A   1      40.427  27.913  29.062  1.00  0.00     0.064 A 
ATOM     61  C   UNL A   1      39.684  26.724  28.991  1.00  0.00     0.173 A 
ATOM     62  C   UNL A   1      41.211  28.263  27.954  1.00  0.00     0.173 A 
ATOM     63  F   UNL A   1      38.929  26.335  30.028  1.00  0.00    -0.203 F 
ATOM     64  C   UNL A   1      39.746  25.907  27.864  1.00  0.00     0.198 A 
ATOM     65  C   UNL A   1      41.244  27.461  26.816  1.00  0.00     0.198 A 
ATOM     66  F   UNL A   1      41.938  29.391  27.968  1.00  0.00    -0.203 F 
ATOM     67  F   UNL A   1      39.067  24.751  27.840  1.00  0.00    -0.200 F 
ATOM     68  C   UNL A   1      40.518  26.280  26.775  1.00  0.00     0.200 A 
ATOM     69  F   UNL A   1      41.980  27.831  25.759  1.00  0.00    -0.200 F 
ATOM     70  F   UNL A   1      40.566  25.499  25.687  1.00  0.00    -0.200 F 
ENDBRANCH  46  60
BRANCH  47  71
ATOM     71  C   UNL A   1      39.458  33.993  36.956  1.00  0.00     0.064 A 
ATOM     72  C   UNL A   1      38.721  33.593  38.079  1.00  0.00     0.173 A 
ATOM     73  C   UNL A   1      40.089  35.245  37.003  1.00  0.00     0.173 A 
ATOM     74  F   UNL A   1      38.085  32.413  38.077  1.00  0.00    -0.203 F 
ATOM     75  C   UNL A   1      38.618  34.412  39.202  1.00  0.00     0.198 A 
ATOM     76  C   UNL A   1      40.008  36.051  38.136  1.00  0.00     0.198 A 
ATOM     77  F   UNL A   1      40.814  35.671  35.957  1.00  0.00    -0.203 F 
ATOM     78  F   UNL A   1      37.887  34.016  40.253  1.00  0.00    -0.200 F 
ATOM     79  C   UNL A   1      39.270  35.636  39.234  1.00  0.00     0.200 A 
ATOM     80  F   UNL A   1      40.656  37.223  38.170  1.00  0.00    -0.200 F 
ATOM     81  F   UNL A   1      39.190  36.413  40.322  1.00  0.00    -0.200 F 
ENDBRANCH  47  71
BRANCH  59  82
ATOM     82  C   UNL A   1      43.889  28.843  35.307  1.00  0.00     0.064 A 
ATOM     83  C   UNL A   1      45.195  29.324  35.133  1.00  0.00     0.173 A 
ATOM     84  C   UNL A   1      43.682  27.821  36.247  1.00  0.00     0.173 A 
ATOM     85  F   UNL A   1      45.445  30.291  34.238  1.00  0.00    -0.203 F 
ATOM     86  C   UNL A   1      46.253  28.795  35.866  1.00  0.00     0.198 A 
ATOM     87  C   UNL A   1      44.737  27.318  37.000  1.00  0.00     0.198 A 
ATOM     88  F   UNL A   1      42.450  27.335  36.457  1.00  0.00    -0.203 F 
ATOM     89  F   UNL A   1      47.498  29.245  35.660  1.00  0.00    -0.200 F 
ATOM     90  C   UNL A   1      46.023  27.802  36.807  1.00  0.00     0.200 A 
ATOM     91  F   UNL A   1      44.509  26.374  37.923  1.00  0.00    -0.200 F 
ATOM     92  F   UNL A   1      47.039  27.311  37.528  1.00  0.00    -0.200 F 
ENDBRANCH  59  82
ENDBRANCH  33  34
ENDBRANCH  25  28
ENDBRANCH  23  24
ENDBRANCH   1  23
TORSDOF 11
ENDMDL
MODEL 2
REMARK VINA RESULT:     -13.2      0.302      1.677
REMARK SMILES Cc1cc(Cl)cc2c1O[C@H](C(F)(F)F)C(C(=O)NCCCNC(=O)c1ccc(-c3c4nc(c(-c5c(F)c(F)c(F)c(F)c5F)c5ccc([nH]5)c(-c5c(F)c(F)c(F)c(F)c5F)c5nc(c(-c6c(F)c(F)c(F)c(F)c6F)c6ccc3[nH]6)C=C5)C=C4)cc1)=C2
REMARK SMILES IDX 20 1 19 2 18 3 16 4 17 5 15 7 1 8 2 9 3 10 8 11 4 12 7 13
REMARK SMILES IDX 9 14 5 15 6 16 88 17 10 18 11 19 12 20 13 21 14 22 21 23
REMARK SMILES IDX 22 24 23 25 24 27 25 28 26 29 87 30 27 31 86 32 28 33 29 34
REMARK SMILES IDX 30 35 80 36 31 37 85 38 79 39 81 40 32 41 84 42 78 43 77 44
REMARK SMILES IDX 33 46 65 47 45 48 64 49 46 50 49 51 63 52 82 53 47 54 48 55
REMARK SMILES IDX 62 57 83 58 50 59 34 60 35 61 43 62 36 63 37 64 41 65 44 66
REMARK SMILES IDX 38 67 39 68 42 69 40 70 66 71 67 72 75 73 68 74 69 75 73 76
REMARK SMILES IDX 76 77 70 78 71 79 74 80 72 81 51 82 52 83 60 84 53 85 54 86
REMARK SMILES IDX 58 87 61 88 55 89 56 90 59 91 57 92
REMARK H PARENT 18 6 22 26 81 45 49 56
REMARK Flexibility Score: inf
ROOT
ATOM      1  C   UNL A   1      31.341  32.367  26.489  1.00  0.00     0.042 C 
ENDROOT
BRANCH   1   2
ATOM      2  C   UNL A   1      31.306  30.853  26.349  1.00  0.00     0.118 C 
BRANCH   2   3
ATOM      3  N   UNL A   1      31.189  30.440  24.959  1.00  0.00    -0.352 N 
ATOM      4  C   UNL A   1      31.361  29.305  24.243  1.00  0.00     0.251 C 
ATOM      5  O   UNL A   1      31.140  29.406  23.033  1.00  0.00    -0.270 OA
ATOM      6  H   UNL A   1      30.910  31.189  24.384  1.00  0.00     0.163 HD
BRANCH   4   7
ATOM      7  C   UNL A   1      31.791  27.996  24.811  1.00  0.00     0.067 C 
ATOM      8  C   UNL A   1      34.352  23.762  26.106  1.00  0.00     0.048 C 
ATOM      9  C   UNL A   1      32.908  24.170  26.133  1.00  0.00    -0.007 A 
ATOM     10  C   UNL A   1      31.930  23.317  26.659  1.00  0.00     0.027 A 
ATOM     11  C   UNL A   1      32.514  25.423  25.649  1.00  0.00     0.131 A 
ATOM     12  C   UNL A   1      30.591  23.716  26.680  1.00  0.00     0.042 A 
ATOM     13  C   UNL A   1      31.174  25.824  25.664  1.00  0.00     0.019 A 
ATOM     14  O   UNL A   1      33.496  26.214  25.119  1.00  0.00    -0.475 OA
ATOM     15  Cl  UNL A   1      29.400  22.650  27.320  1.00  0.00    -0.084 Cl
ATOM     16  C   UNL A   1      30.207  24.961  26.183  1.00  0.00     0.032 A 
ATOM     17  C   UNL A   1      30.809  27.121  25.100  1.00  0.00     0.025 C 
ATOM     18  C   UNL A   1      33.220  27.635  25.086  1.00  0.00     0.314 C 
BRANCH  18  19
ATOM     19  C   UNL A   1      33.765  28.298  26.367  1.00  0.00     0.429 C 
ATOM     20  F   UNL A   1      34.084  29.595  26.125  1.00  0.00    -0.167 F 
ATOM     21  F   UNL A   1      32.858  28.311  27.372  1.00  0.00    -0.167 F 
ATOM     22  F   UNL A   1      34.871  27.690  26.846  1.00  0.00    -0.167 F 
ENDBRANCH  18  19
ENDBRANCH   4   7
ENDBRANCH   2   3
ENDBRANCH   1   2
BRANCH   1  23
ATOM     23  C   UNL A   1      32.577  32.839  27.241  1.00  0.00     0.118 C 
BRANCH  23  24
ATOM     24  N   UNL A   1      32.468  34.244  27.629  1.00  0.00    -0.352 N 
ATOM     25  C   UNL A   1      33.042  34.921  28.673  1.00  0.00     0.251 C 
ATOM     26  H   UNL A   1      31.891  34.791  27.048  1.00  0.00     0.163 HD
ATOM     27  O   UNL A   1      32.604  36.021  29.007  1.00  0.00    -0.269 OA
BRANCH  25  28
ATOM     28  C   UNL A   1      34.184  34.332  29.394  1.00  0.00     0.039 A 
ATOM     29  C   UNL A   1      33.955  33.569  30.540  1.00  0.00     0.014 A 
ATOM     30  C   UNL A   1      35.487  34.560  28.947  1.00  0.00     0.014 A 
ATOM     31  C   UNL A   1      35.033  32.984  31.203  1.00  0.00     0.010 A 
ATOM     32  C   UNL A   1      36.547  33.891  29.541  1.00  0.00     0.010 A 
ATOM     33  C   UNL A   1      36.333  33.115  30.688  1.00  0.00    -0.014 A 
BRANCH  33  34
ATOM     34  C   UNL A   1      37.495  32.481  31.350  1.00  0.00     0.031 A 
ATOM     35  C   UNL A   1      38.223  31.361  30.662  1.00  0.00     0.074 A 
ATOM     36  C   UNL A   1      37.847  32.871  32.589  1.00  0.00     0.049 A 
ATOM     37  N   UNL A   1      39.219  30.633  31.097  1.00  0.00    -0.248 NA
ATOM     38  C   UNL A   1      37.749  30.986  29.320  1.00  0.00     0.031 C 
ATOM     39  C   UNL A   1      37.177  33.912  33.369  1.00  0.00     0.029 A 
ATOM     40  N   UNL A   1      38.854  32.433  33.412  1.00  0.00    -0.354 N 
ATOM     41  C   UNL A   1      39.476  29.711  30.093  1.00  0.00     0.074 A 
ATOM     42  C   UNL A   1      38.492  29.922  29.056  1.00  0.00     0.031 C 
ATOM     43  C   UNL A   1      37.812  34.057  34.543  1.00  0.00     0.029 A 
ATOM     44  C   UNL A   1      38.905  33.092  34.615  1.00  0.00     0.049 A 
ATOM     45  H   UNL A   1      39.479  31.715  33.163  1.00  0.00     0.167 HD
ATOM     46  C   UNL A   1      40.467  28.793  30.027  1.00  0.00     0.037 A 
ATOM     47  C   UNL A   1      39.740  32.933  35.659  1.00  0.00     0.037 A 
ATOM     48  C   UNL A   1      41.462  28.615  31.051  1.00  0.00     0.049 A 
ATOM     49  C   UNL A   1      40.832  31.901  35.566  1.00  0.00     0.074 A 
ATOM     50  C   UNL A   1      42.550  27.762  31.056  1.00  0.00     0.029 A 
ATOM     51  N   UNL A   1      41.485  29.305  32.255  1.00  0.00    -0.354 N 
ATOM     52  N   UNL A   1      41.112  31.083  34.581  1.00  0.00    -0.248 NA
ATOM     53  C   UNL A   1      41.723  31.773  36.726  1.00  0.00     0.031 C 
ATOM     54  C   UNL A   1      43.200  27.894  32.285  1.00  0.00     0.029 A 
ATOM     55  C   UNL A   1      42.553  28.873  33.025  1.00  0.00     0.049 A 
ATOM     56  H   UNL A   1      40.839  29.998  32.523  1.00  0.00     0.167 HD
ATOM     57  C   UNL A   1      42.220  30.355  34.991  1.00  0.00     0.074 A 
ATOM     58  C   UNL A   1      42.573  30.843  36.309  1.00  0.00     0.031 C 
ATOM     59  C   UNL A   1      42.884  29.370  34.337  1.00  0.00     0.037 A 
BRANCH  46  60
ATOM     60  C   UNL A   1      40.533  27.921  28.807  1.00  0.00     0.064 A 
ATOM     61  C   UNL A   1      39.821  26.713  28.726  1.00  0.00     0.173 A 
ATOM     62  C   UNL A   1      41.280  28.317  27.688  1.00  0.00     0.173 A 
ATOM     63  F   UNL A   1      39.102  26.281  29.771  1.00  0.00    -0.203 F 
ATOM     64  C   UNL A   1      39.878  25.923  27.580  1.00  0.00     0.198 A 
ATOM     65  C   UNL A   1      41.308  27.541  26.532  1.00  0.00     0.198 A 
ATOM     66  F   UNL A   1      41.978  29.463  27.711  1.00  0.00    -0.203 F 
ATOM     67  F   UNL A   1      39.230  24.750  27.546  1.00  0.00    -0.200 F 
ATOM     68  C   UNL A   1      40.613  26.342  26.482  1.00  0.00     0.200 A 
ATOM     69  F   UNL A   1      42.008  27.954  25.467  1.00  0.00    -0.200 F 
ATOM     70  F   UNL A   1      40.656  25.586  25.376  1.00  0.00    -0.200 F 
ENDBRANCH  46  60
BRANCH  47  71
ATOM     71  C   UNL A   1      39.593  33.805  36.851  1.00  0.00     0.064 A 
ATOM     72  C   UNL A   1      40.192  35.071  36.892  1.00  0.00     0.173 A 
ATOM     73  C   UNL A   1      38.808  33.419  37.948  1.00  0.00     0.173 A 
ATOM     74  F   UNL A   1      40.964  35.480  35.875  1.00  0.00    -0.203 F 
ATOM     75  C   UNL A   1      40.014  35.917  37.986  1.00  0.00     0.198 A 
ATOM     76  C   UNL A   1      38.609  34.276  39.028  1.00  0.00     0.198 A 
ATOM     77  F   UNL A   1      38.206  32.220  37.955  1.00  0.00    -0.203 F 
ATOM     78  F   UNL A   1      40.617  37.113  38.010  1.00  0.00    -0.200 F 
ATOM     79  C   UNL A   1      39.215  35.523  39.049  1.00  0.00     0.200 A 
ATOM     80  F   UNL A   1      37.820  33.898  40.043  1.00  0.00    -0.200 F 
ATOM     81  F   UNL A   1      39.025  36.345  40.089  1.00  0.00    -0.200 F 
ENDBRANCH  47  71
BRANCH  59  82
ATOM     82  C   UNL A   1      44.064  28.750  35.027  1.00  0.00     0.064 A 
ATOM     83  C   UNL A   1      43.927  27.602  35.820  1.00  0.00     0.173 A 
ATOM     84  C   UNL A   1      45.357  29.256  34.818  1.00  0.00     0.173 A 
ATOM     85  F   UNL A   1      42.711  27.087  36.059  1.00  0.00    -0.203 F 
ATOM     86  C   UNL A   1      45.040  26.990  36.389  1.00  0.00     0.198 A 
ATOM     87  C   UNL A   1      46.469  28.623  35.361  1.00  0.00     0.198 A 
ATOM     88  F   UNL A   1      45.541  30.346  34.058  1.00  0.00    -0.203 F 
ATOM     89  F   UNL A   1      44.883  25.914  37.171  1.00  0.00    -0.200 F 
ATOM     90  C   UNL A   1      46.311  27.493  36.150  1.00  0.00     0.200 A 
ATOM     91  F   UNL A   1      47.697  29.098  35.111  1.00  0.00    -0.200 F 
ATOM     92  F   UNL A   1      47.383  26.889  36.679  1.00  0.00    -0.200 F 
ENDBRANCH  59  82
ENDBRANCH  33  34
ENDBRANCH  25  28
ENDBRANCH  23  24
ENDBRANCH   1  23
TORSDOF 11
ENDMDL
MODEL 3
REMARK VINA RESULT:     -13.1      1.424      1.792
REMARK SMILES Cc1cc(Cl)cc2c1O[C@H](C(F)(F)F)C(C(=O)NCCCNC(=O)c1ccc(-c3c4nc(c(-c5c(F)c(F)c(F)c(F)c5F)c5ccc([nH]5)c(-c5c(F)c(F)c(F)c(F)c5F)c5nc(c(-c6c(F)c(F)c(F)c(F)c6F)c6ccc3[nH]6)C=C5)C=C4)cc1)=C2
REMARK SMILES IDX 20 1 19 2 18 3 16 4 17 5 15 7 1 8 2 9 3 10 8 11 4 12 7 13
REMARK SMILES IDX 9 14 5 15 6 16 88 17 10 18 11 19 12 20 13 21 14 22 21 23
REMARK SMILES IDX 22 24 23 25 24 27 25 28 26 29 87 30 27 31 86 32 28 33 29 34
REMARK SMILES IDX 30 35 80 36 31 37 85 38 79 39 81 40 32 41 84 42 78 43 77 44
REMARK SMILES IDX 33 46 65 47 45 48 64 49 46 50 49 51 63 52 82 53 47 54 48 55
REMARK SMILES IDX 62 57 83 58 50 59 34 60 35 61 43 62 36 63 37 64 41 65 44 66
REMARK SMILES IDX 38 67 39 68 42 69 40 70 66 71 67 72 75 73 68 74 69 75 73 76
REMARK SMILES IDX 76 77 70 78 71 79 74 80 72 81 51 82 52 83 60 84 53 85 54 86
REMARK SMILES IDX 58 87 61 88 55 89 56 90 59 91 57 92
REMARK H PARENT 18 6 22 26 81 45 49 56
REMARK Flexibility Score: inf
ROOT
ATOM      1  C   UNL A   1      31.403  32.294  26.534  1.00  0.00     0.042 C 
ENDROOT
BRANCH   1   2
ATOM      2  C   UNL A   1      31.460  30.793  26.292  1.00  0.00     0.118 C 
BRANCH   2   3
ATOM      3  N   UNL A   1      31.098  30.451  24.926  1.00  0.00    -0.352 N 
ATOM      4  C   UNL A   1      31.014  29.330  24.173  1.00  0.00     0.251 C 
ATOM      5  O   UNL A   1      30.644  29.503  23.008  1.00  0.00    -0.270 OA
ATOM      6  H   UNL A   1      30.847  31.250  24.409  1.00  0.00     0.163 HD
BRANCH   4   7
ATOM      7  C   UNL A   1      31.335  27.955  24.652  1.00  0.00     0.067 C 
ATOM      8  C   UNL A   1      31.284  23.349  26.876  1.00  0.00     0.048 C 
ATOM      9  C   UNL A   1      32.351  24.218  26.275  1.00  0.00    -0.007 A 
ATOM     10  C   UNL A   1      33.675  23.772  26.185  1.00  0.00     0.027 A 
ATOM     11  C   UNL A   1      32.036  25.487  25.775  1.00  0.00     0.131 A 
ATOM     12  C   UNL A   1      34.653  24.593  25.619  1.00  0.00     0.042 A 
ATOM     13  C   UNL A   1      33.014  26.315  25.212  1.00  0.00     0.019 A 
ATOM     14  O   UNL A   1      30.738  25.895  25.909  1.00  0.00    -0.475 OA
ATOM     15  Cl  UNL A   1      36.278  24.032  25.525  1.00  0.00    -0.084 Cl
ATOM     16  C   UNL A   1      34.332  25.861  25.136  1.00  0.00     0.032 A 
ATOM     17  C   UNL A   1      32.642  27.649  24.752  1.00  0.00     0.025 C 
ATOM     18  C   UNL A   1      30.297  26.927  24.993  1.00  0.00     0.314 C 
BRANCH  18  19
ATOM     19  C   UNL A   1      29.672  26.277  23.742  1.00  0.00     0.429 C 
ATOM     20  F   UNL A   1      29.580  24.933  23.908  1.00  0.00    -0.167 F 
ATOM     21  F   UNL A   1      28.414  26.718  23.501  1.00  0.00    -0.167 F 
ATOM     22  F   UNL A   1      30.386  26.501  22.619  1.00  0.00    -0.167 F 
ENDBRANCH  18  19
ENDBRANCH   4   7
ENDBRANCH   2   3
ENDBRANCH   1   2
BRANCH   1  23
ATOM     23  C   UNL A   1      32.647  32.801  27.251  1.00  0.00     0.118 C 
BRANCH  23  24
ATOM     24  N   UNL A   1      32.517  34.208  27.626  1.00  0.00    -0.352 N 
ATOM     25  C   UNL A   1      33.054  34.895  28.682  1.00  0.00     0.251 C 
ATOM     26  H   UNL A   1      31.954  34.746  27.024  1.00  0.00     0.163 HD
ATOM     27  O   UNL A   1      32.599  35.994  28.995  1.00  0.00    -0.269 OA
BRANCH  25  28
ATOM     28  C   UNL A   1      34.177  34.319  29.441  1.00  0.00     0.039 A 
ATOM     29  C   UNL A   1      33.923  33.627  30.628  1.00  0.00     0.014 A 
ATOM     30  C   UNL A   1      35.488  34.489  28.991  1.00  0.00     0.014 A 
ATOM     31  C   UNL A   1      34.983  33.054  31.329  1.00  0.00     0.010 A 
ATOM     32  C   UNL A   1      36.527  33.828  29.627  1.00  0.00     0.010 A 
ATOM     33  C   UNL A   1      36.288  33.123  30.815  1.00  0.00    -0.014 A 
BRANCH  33  34
ATOM     34  C   UNL A   1      37.431  32.498  31.518  1.00  0.00     0.031 A 
ATOM     35  C   UNL A   1      38.162  31.353  30.877  1.00  0.00     0.074 A 
ATOM     36  C   UNL A   1      37.761  32.919  32.753  1.00  0.00     0.049 A 
ATOM     37  N   UNL A   1      39.142  30.628  31.353  1.00  0.00    -0.248 NA
ATOM     38  C   UNL A   1      37.712  30.944  29.537  1.00  0.00     0.031 C 
ATOM     39  C   UNL A   1      37.084  33.987  33.490  1.00  0.00     0.029 A 
ATOM     40  N   UNL A   1      38.746  32.496  33.608  1.00  0.00    -0.354 N 
ATOM     41  C   UNL A   1      39.412  29.676  30.380  1.00  0.00     0.074 A 
ATOM     42  C   UNL A   1      38.451  29.867  29.318  1.00  0.00     0.031 C 
ATOM     43  C   UNL A   1      37.695  34.159  34.672  1.00  0.00     0.029 A 
ATOM     44  C   UNL A   1      38.778  33.187  34.794  1.00  0.00     0.049 A 
ATOM     45  H   UNL A   1      39.369  31.765  33.393  1.00  0.00     0.167 HD
ATOM     46  C   UNL A   1      40.395  28.749  30.361  1.00  0.00     0.037 A 
ATOM     47  C   UNL A   1      39.590  33.051  35.859  1.00  0.00     0.037 A 
ATOM     48  C   UNL A   1      41.367  28.591  31.410  1.00  0.00     0.049 A 
ATOM     49  C   UNL A   1      40.674  32.008  35.817  1.00  0.00     0.074 A 
ATOM     50  C   UNL A   1      42.447  27.730  31.461  1.00  0.00     0.029 A 
ATOM     51  N   UNL A   1      41.372  29.315  32.595  1.00  0.00    -0.354 N 
ATOM     52  N   UNL A   1      40.967  31.160  34.862  1.00  0.00    -0.248 NA
ATOM     53  C   UNL A   1      41.540  31.905  36.999  1.00  0.00     0.031 C 
ATOM     54  C   UNL A   1      43.073  27.891  32.699  1.00  0.00     0.029 A 
ATOM     55  C   UNL A   1      42.419  28.895  33.398  1.00  0.00     0.049 A 
ATOM     56  H   UNL A   1      40.727  30.020  32.830  1.00  0.00     0.167 HD
ATOM     57  C   UNL A   1      42.060  30.435  35.315  1.00  0.00     0.074 A 
ATOM     58  C   UNL A   1      42.389  30.956  36.626  1.00  0.00     0.031 C 
ATOM     59  C   UNL A   1      42.728  29.426  34.703  1.00  0.00     0.037 A 
BRANCH  46  60
ATOM     60  C   UNL A   1      40.479  27.842  29.167  1.00  0.00     0.064 A 
ATOM     61  C   UNL A   1      39.703  26.675  29.073  1.00  0.00     0.173 A 
ATOM     62  C   UNL A   1      41.309  28.166  28.084  1.00  0.00     0.173 A 
ATOM     63  F   UNL A   1      38.903  26.313  30.086  1.00  0.00    -0.203 F 
ATOM     64  C   UNL A   1      39.778  25.853  27.951  1.00  0.00     0.198 A 
ATOM     65  C   UNL A   1      41.356  27.359  26.950  1.00  0.00     0.198 A 
ATOM     66  F   UNL A   1      42.069  29.271  28.120  1.00  0.00    -0.203 F 
ATOM     67  F   UNL A   1      39.066  24.718  27.907  1.00  0.00    -0.200 F 
ATOM     68  C   UNL A   1      40.597  26.201  26.888  1.00  0.00     0.200 A 
ATOM     69  F   UNL A   1      42.137  27.703  25.917  1.00  0.00    -0.200 F 
ATOM     70  F   UNL A   1      40.657  25.415  25.804  1.00  0.00    -0.200 F 
ENDBRANCH  46  60
BRANCH  47  71
ATOM     71  C   UNL A   1      39.426  33.957  37.023  1.00  0.00     0.064 A 
ATOM     72  C   UNL A   1      38.686  33.558  38.144  1.00  0.00     0.173 A 
ATOM     73  C   UNL A   1      40.047  35.214  37.066  1.00  0.00     0.173 A 
ATOM     74  F   UNL A   1      38.060  32.372  38.146  1.00  0.00    -0.203 F 
ATOM     75  C   UNL A   1      38.572  34.382  39.263  1.00  0.00     0.198 A 
ATOM     76  C   UNL A   1      39.955  36.026  38.194  1.00  0.00     0.198 A 
ATOM     77  F   UNL A   1      40.774  35.640  36.022  1.00  0.00    -0.203 F 
ATOM     78  F   UNL A   1      37.839  33.986  40.312  1.00  0.00    -0.200 F 
ATOM     79  C   UNL A   1      39.214  35.611  39.291  1.00  0.00     0.200 A 
ATOM     80  F   UNL A   1      40.594  37.203  38.225  1.00  0.00    -0.200 F 
ATOM     81  F   UNL A   1      39.123  36.393  40.375  1.00  0.00    -0.200 F 
ENDBRANCH  47  71
BRANCH  59  82
ATOM     82  C   UNL A   1      43.888  28.815  35.434  1.00  0.00     0.064 A 
ATOM     83  C   UNL A   1      45.195  29.294  35.262  1.00  0.00     0.173 A 
ATOM     84  C   UNL A   1      43.676  27.803  36.383  1.00  0.00     0.173 A 
ATOM     85  F   UNL A   1      45.449  30.252  34.359  1.00  0.00    -0.203 F 
ATOM     86  C   UNL A   1      46.249  28.773  36.006  1.00  0.00     0.198 A 
ATOM     87  C   UNL A   1      44.727  27.307  37.147  1.00  0.00     0.198 A 
ATOM     88  F   UNL A   1      42.442  27.319  36.592  1.00  0.00    -0.203 F 
ATOM     89  F   UNL A   1      47.495  29.221  35.802  1.00  0.00    -0.200 F 
ATOM     90  C   UNL A   1      46.014  27.789  36.956  1.00  0.00     0.200 A 
ATOM     91  F   UNL A   1      44.494  26.372  38.079  1.00  0.00    -0.200 F 
ATOM     92  F   UNL A   1      47.027  27.306  37.687  1.00  0.00    -0.200 F 
ENDBRANCH  59  82
ENDBRANCH  33  34
ENDBRANCH  25  28
ENDBRANCH  23  24
ENDBRANCH   1  23
TORSDOF 11
ENDMDL
