MODEL 1
REMARK VINA RESULT:     -11.4      0.000      0.000
REMARK SMILES COCC[N@@H+](CC(=O)NCCCNC(=O)c1ccc(-c2c3nc(c(-c4c(F)c(F)c(F)c(F)c4F)c4ccc([nH]4)c(-c4c(F)c(F)c(F)c(F)c4F)c4nc(c(-c5c(F)c(F)c(F)c(F)c5F)c5ccc2[nH]5)C=C4)C=C3)cc1)Cc1cc(F)cc(Br)c1
REMARK SMILES IDX 10 1 9 2 7 3 8 4 6 6 5 7 4 9 3 10 2 11 1 12 79 13 80 14
REMARK SMILES IDX 81 15 87 16 82 17 85 18 83 19 84 20 86 21 11 22 12 23 13 24
REMARK SMILES IDX 14 25 15 27 16 28 17 29 78 30 18 31 77 32 19 33 20 34 21 35
REMARK SMILES IDX 71 36 22 37 76 38 70 39 72 40 23 41 75 42 69 43 68 44 24 46
REMARK SMILES IDX 56 47 36 48 55 49 37 50 40 51 54 52 73 53 38 54 39 55 53 57
REMARK SMILES IDX 74 58 41 59 25 60 26 61 34 62 27 63 28 64 32 65 35 66 29 67
REMARK SMILES IDX 30 68 33 69 31 70 57 71 58 72 66 73 59 74 60 75 64 76 67 77
REMARK SMILES IDX 61 78 62 79 65 80 63 81 42 82 43 83 51 84 44 85 45 86 49 87
REMARK SMILES IDX 52 88 46 89 47 90 50 91 48 92
REMARK H PARENT 9 5 5 8 13 26 72 45 40 56
REMARK Flexibility Score: inf
ROOT
ATOM      1  C   UNL A   1      31.312  30.900  25.946  1.00  0.00     0.118 C 
ENDROOT
BRANCH   1   2
ATOM      2  N   UNL A   1      32.609  30.263  26.082  1.00  0.00    -0.351 N 
ATOM      3  C   UNL A   1      33.032  29.017  25.729  1.00  0.00     0.275 C 
ATOM      4  O   UNL A   1      34.252  28.854  25.616  1.00  0.00    -0.269 OA
ATOM      5  H   UNL A   1      33.299  30.827  26.500  1.00  0.00     0.163 HD
BRANCH   3   6
ATOM      6  C   UNL A   1      32.064  27.870  25.442  1.00  0.00     0.363 C 
BRANCH   6   7
ATOM      7  N   UNL A   1      31.912  27.488  24.024  1.00  0.00    -0.322 N 
ATOM      8  H   UNL A   1      31.004  27.024  23.987  1.00  0.00     0.348 HD
BRANCH   7   9
ATOM      9  C   UNL A   1      32.813  26.427  23.588  1.00  0.00     0.291 C 
BRANCH   9  10
ATOM     10  C   UNL A   1      33.644  26.701  22.323  1.00  0.00     0.221 C 
BRANCH  10  11
ATOM     11  O   UNL A   1      33.601  25.583  21.434  1.00  0.00    -0.379 OA
ATOM     12  C   UNL A   1      32.506  25.610  20.531  1.00  0.00     0.195 C 
ENDBRANCH  10  11
ENDBRANCH   9  10
ENDBRANCH   7   9
BRANCH   7  13
ATOM     13  C   UNL A   1      31.649  28.585  23.083  1.00  0.00     0.299 C 
BRANCH  13  14
ATOM     14  C   UNL A   1      30.213  28.990  22.810  1.00  0.00     0.010 A 
ATOM     15  C   UNL A   1      29.163  28.222  23.341  1.00  0.00     0.048 A 
ATOM     16  C   UNL A   1      29.870  30.093  22.011  1.00  0.00     0.025 A 
ATOM     17  C   UNL A   1      27.835  28.589  23.132  1.00  0.00     0.124 A 
ATOM     18  C   UNL A   1      28.533  30.456  21.821  1.00  0.00     0.021 A 
ATOM     19  F   UNL A   1      26.856  27.847  23.666  1.00  0.00    -0.207 F 
ATOM     20  C   UNL A   1      27.507  29.709  22.384  1.00  0.00     0.055 A 
ATOM     21  Br  UNL A   1      28.119  31.991  20.795  1.00  0.00    -0.051 Br
ENDBRANCH  13  14
ENDBRANCH   7  13
ENDBRANCH   6   7
ENDBRANCH   3   6
ENDBRANCH   1   2
BRANCH   1  22
ATOM     22  C   UNL A   1      31.240  32.325  26.497  1.00  0.00     0.042 C 
BRANCH  22  23
ATOM     23  C   UNL A   1      32.495  32.824  27.203  1.00  0.00     0.118 C 
BRANCH  23  24
ATOM     24  N   UNL A   1      32.374  34.216  27.589  1.00  0.00    -0.352 N 
ATOM     25  C   UNL A   1      32.987  34.900  28.609  1.00  0.00     0.251 C 
ATOM     26  H   UNL A   1      31.762  34.753  27.035  1.00  0.00     0.163 HD
ATOM     27  O   UNL A   1      32.548  35.999  28.935  1.00  0.00    -0.269 OA
BRANCH  25  28
ATOM     28  C   UNL A   1      34.165  34.346  29.327  1.00  0.00     0.039 A 
ATOM     29  C   UNL A   1      35.437  34.597  28.799  1.00  0.00     0.014 A 
ATOM     30  C   UNL A   1      34.039  33.503  30.436  1.00  0.00     0.014 A 
ATOM     31  C   UNL A   1      36.567  34.009  29.375  1.00  0.00     0.010 A 
ATOM     32  C   UNL A   1      35.176  32.978  31.058  1.00  0.00     0.010 A 
ATOM     33  C   UNL A   1      36.450  33.192  30.512  1.00  0.00    -0.014 A 
BRANCH  33  34
ATOM     34  C   UNL A   1      37.646  32.504  31.069  1.00  0.00     0.031 A 
ATOM     35  C   UNL A   1      38.153  32.853  32.445  1.00  0.00     0.074 A 
ATOM     36  C   UNL A   1      38.278  31.556  30.350  1.00  0.00     0.049 A 
ATOM     37  N   UNL A   1      39.143  32.328  33.125  1.00  0.00    -0.248 NA
ATOM     38  C   UNL A   1      37.471  33.955  33.143  1.00  0.00     0.031 C 
ATOM     39  C   UNL A   1      37.928  31.156  28.988  1.00  0.00     0.029 A 
ATOM     40  N   UNL A   1      39.344  30.752  30.671  1.00  0.00    -0.354 N 
ATOM     41  C   UNL A   1      39.208  33.038  34.316  1.00  0.00     0.074 A 
ATOM     42  C   UNL A   1      38.195  34.068  34.248  1.00  0.00     0.031 C 
ATOM     43  C   UNL A   1      38.740  30.159  28.601  1.00  0.00     0.029 A 
ATOM     44  C   UNL A   1      39.679  29.861  29.680  1.00  0.00     0.049 A 
ATOM     45  H   UNL A   1      39.823  30.808  31.528  1.00  0.00     0.167 HD
ATOM     46  C   UNL A   1      40.015  32.836  35.385  1.00  0.00     0.037 A 
ATOM     47  C   UNL A   1      40.622  28.901  29.652  1.00  0.00     0.037 A 
ATOM     48  C   UNL A   1      41.003  31.793  35.474  1.00  0.00     0.049 A 
ATOM     49  C   UNL A   1      41.480  28.668  30.867  1.00  0.00     0.074 A 
ATOM     50  C   UNL A   1      41.839  31.479  36.533  1.00  0.00     0.029 A 
ATOM     51  N   UNL A   1      41.287  30.889  34.461  1.00  0.00    -0.354 N 
ATOM     52  N   UNL A   1      41.480  29.299  32.015  1.00  0.00    -0.248 NA
ATOM     53  C   UNL A   1      42.457  27.573  30.787  1.00  0.00     0.031 C 
ATOM     54  C   UNL A   1      42.648  30.404  36.149  1.00  0.00     0.029 A 
ATOM     55  C   UNL A   1      42.288  30.022  34.868  1.00  0.00     0.049 A 
ATOM     56  H   UNL A   1      40.842  30.867  33.583  1.00  0.00     0.167 HD
ATOM     57  C   UNL A   1      42.429  28.660  32.803  1.00  0.00     0.074 A 
ATOM     58  C   UNL A   1      42.974  27.582  32.006  1.00  0.00     0.031 C 
ATOM     59  C   UNL A   1      42.812  28.943  34.072  1.00  0.00     0.037 A 
BRANCH  46  60
ATOM     60  C   UNL A   1      39.856  33.761  36.557  1.00  0.00     0.064 A 
ATOM     61  C   UNL A   1      38.995  33.454  37.621  1.00  0.00     0.173 A 
ATOM     62  C   UNL A   1      40.592  34.953  36.632  1.00  0.00     0.173 A 
ATOM     63  F   UNL A   1      38.260  32.332  37.593  1.00  0.00    -0.203 F 
ATOM     64  C   UNL A   1      38.855  34.320  38.703  1.00  0.00     0.198 A 
ATOM     65  C   UNL A   1      40.471  35.802  37.729  1.00  0.00     0.198 A 
ATOM     66  F   UNL A   1      41.434  35.292  35.644  1.00  0.00    -0.203 F 
ATOM     67  F   UNL A   1      37.990  34.028  39.685  1.00  0.00    -0.200 F 
ATOM     68  C   UNL A   1      39.596  35.489  38.759  1.00  0.00     0.200 A 
ATOM     69  F   UNL A   1      41.198  36.927  37.787  1.00  0.00    -0.200 F 
ATOM     70  F   UNL A   1      39.465  36.320  39.803  1.00  0.00    -0.200 F 
ENDBRANCH  46  60
BRANCH  47  71
ATOM     71  C   UNL A   1      40.769  28.043  28.448  1.00  0.00     0.064 A 
ATOM     72  C   UNL A   1      40.106  26.811  28.359  1.00  0.00     0.173 A 
ATOM     73  C   UNL A   1      41.579  28.430  27.372  1.00  0.00     0.173 A 
ATOM     74  F   UNL A   1      39.339  26.388  29.374  1.00  0.00    -0.203 F 
ATOM     75  C   UNL A   1      40.264  25.989  27.246  1.00  0.00     0.198 A 
ATOM     76  C   UNL A   1      41.716  27.619  26.248  1.00  0.00     0.198 A 
ATOM     77  F   UNL A   1      42.232  29.602  27.409  1.00  0.00    -0.203 F 
ATOM     78  F   UNL A   1      39.656  24.796  27.205  1.00  0.00    -0.200 F 
ATOM     79  C   UNL A   1      41.065  26.395  26.189  1.00  0.00     0.200 A 
ATOM     80  F   UNL A   1      42.481  28.019  25.223  1.00  0.00    -0.200 F 
ATOM     81  F   UNL A   1      41.216  25.605  25.117  1.00  0.00    -0.200 F 
ENDBRANCH  47  71
BRANCH  59  82
ATOM     82  C   UNL A   1      43.839  28.043  34.695  1.00  0.00     0.064 A 
ATOM     83  C   UNL A   1      45.211  28.331  34.624  1.00  0.00     0.173 A 
ATOM     84  C   UNL A   1      43.444  26.890  35.389  1.00  0.00     0.173 A 
ATOM     85  F   UNL A   1      45.640  29.414  33.960  1.00  0.00    -0.203 F 
ATOM     86  C   UNL A   1      46.150  27.477  35.197  1.00  0.00     0.198 A 
ATOM     87  C   UNL A   1      44.384  26.053  35.984  1.00  0.00     0.198 A 
ATOM     88  F   UNL A   1      42.144  26.574  35.491  1.00  0.00    -0.203 F 
ATOM     89  F   UNL A   1      47.458  27.743  35.070  1.00  0.00    -0.200 F 
ATOM     90  C   UNL A   1      45.736  26.343  35.880  1.00  0.00     0.200 A 
ATOM     91  F   UNL A   1      43.983  24.965  36.652  1.00  0.00    -0.200 F 
ATOM     92  F   UNL A   1      46.642  25.522  36.429  1.00  0.00    -0.200 F 
ENDBRANCH  59  82
ENDBRANCH  33  34
ENDBRANCH  25  28
ENDBRANCH  23  24
ENDBRANCH  22  23
ENDBRANCH   1  22
TORSDOF 16
ENDMDL
MODEL 2
REMARK VINA RESULT:     -11.2      0.429      2.018
REMARK SMILES COCC[N@@H+](CC(=O)NCCCNC(=O)c1ccc(-c2c3nc(c(-c4c(F)c(F)c(F)c(F)c4F)c4ccc([nH]4)c(-c4c(F)c(F)c(F)c(F)c4F)c4nc(c(-c5c(F)c(F)c(F)c(F)c5F)c5ccc2[nH]5)C=C4)C=C3)cc1)Cc1cc(F)cc(Br)c1
REMARK SMILES IDX 10 1 9 2 7 3 8 4 6 6 5 7 4 9 3 10 2 11 1 12 79 13 80 14
REMARK SMILES IDX 81 15 87 16 82 17 85 18 83 19 84 20 86 21 11 22 12 23 13 24
REMARK SMILES IDX 14 25 15 27 16 28 17 29 78 30 18 31 77 32 19 33 20 34 21 35
REMARK SMILES IDX 71 36 22 37 76 38 70 39 72 40 23 41 75 42 69 43 68 44 24 46
REMARK SMILES IDX 56 47 36 48 55 49 37 50 40 51 54 52 73 53 38 54 39 55 53 57
REMARK SMILES IDX 74 58 41 59 25 60 26 61 34 62 27 63 28 64 32 65 35 66 29 67
REMARK SMILES IDX 30 68 33 69 31 70 57 71 58 72 66 73 59 74 60 75 64 76 67 77
REMARK SMILES IDX 61 78 62 79 65 80 63 81 42 82 43 83 51 84 44 85 45 86 49 87
REMARK SMILES IDX 52 88 46 89 47 90 50 91 48 92
REMARK H PARENT 9 5 5 8 13 26 72 45 40 56
REMARK Flexibility Score: inf
ROOT
ATOM      1  C   UNL A   1      31.393  30.945  25.774  1.00  0.00     0.118 C 
ENDROOT
BRANCH   1   2
ATOM      2  N   UNL A   1      32.631  30.208  25.946  1.00  0.00    -0.351 N 
ATOM      3  C   UNL A   1      32.956  28.922  25.633  1.00  0.00     0.275 C 
ATOM      4  O   UNL A   1      34.159  28.657  25.543  1.00  0.00    -0.269 OA
ATOM      5  H   UNL A   1      33.360  30.725  26.360  1.00  0.00     0.163 HD
BRANCH   3   6
ATOM      6  C   UNL A   1      31.900  27.851  25.361  1.00  0.00     0.363 C 
BRANCH   6   7
ATOM      7  N   UNL A   1      31.814  27.362  23.971  1.00  0.00    -0.322 N 
ATOM      8  H   UNL A   1      30.921  26.871  23.934  1.00  0.00     0.348 HD
BRANCH   7   9
ATOM      9  C   UNL A   1      32.758  26.297  23.650  1.00  0.00     0.291 C 
BRANCH   9  10
ATOM     10  C   UNL A   1      32.568  25.587  22.298  1.00  0.00     0.221 C 
BRANCH  10  11
ATOM     11  O   UNL A   1      33.653  24.696  22.034  1.00  0.00    -0.379 OA
ATOM     12  C   UNL A   1      33.281  23.327  22.019  1.00  0.00     0.195 C 
ENDBRANCH  10  11
ENDBRANCH   9  10
ENDBRANCH   7   9
BRANCH   7  13
ATOM     13  C   UNL A   1      31.562  28.379  22.941  1.00  0.00     0.299 C 
BRANCH  13  14
ATOM     14  C   UNL A   1      30.146  28.884  22.739  1.00  0.00     0.010 A 
ATOM     15  C   UNL A   1      29.069  28.158  23.274  1.00  0.00     0.048 A 
ATOM     16  C   UNL A   1      29.848  30.042  22.004  1.00  0.00     0.025 A 
ATOM     17  C   UNL A   1      27.760  28.615  23.129  1.00  0.00     0.124 A 
ATOM     18  C   UNL A   1      28.530  30.496  21.878  1.00  0.00     0.021 A 
ATOM     19  F   UNL A   1      26.755  27.912  23.665  1.00  0.00    -0.207 F 
ATOM     20  C   UNL A   1      27.479  29.787  22.445  1.00  0.00     0.055 A 
ATOM     21  Br  UNL A   1      28.180  32.099  20.938  1.00  0.00    -0.051 Br
ENDBRANCH  13  14
ENDBRANCH   7  13
ENDBRANCH   6   7
ENDBRANCH   3   6
ENDBRANCH   1   2
BRANCH   1  22
ATOM     22  C   UNL A   1      31.268  32.196  26.644  1.00  0.00     0.042 C 
BRANCH  22  23
ATOM     23  C   UNL A   1      32.578  32.757  27.186  1.00  0.00     0.118 C 
BRANCH  23  24
ATOM     24  N   UNL A   1      32.430  34.130  27.626  1.00  0.00    -0.352 N 
ATOM     25  C   UNL A   1      33.009  34.777  28.689  1.00  0.00     0.251 C 
ATOM     26  H   UNL A   1      31.824  34.682  27.081  1.00  0.00     0.163 HD
ATOM     27  O   UNL A   1      32.548  35.857  29.049  1.00  0.00    -0.269 OA
BRANCH  25  28
ATOM     28  C   UNL A   1      34.177  34.208  29.411  1.00  0.00     0.039 A 
ATOM     29  C   UNL A   1      35.459  34.516  28.941  1.00  0.00     0.014 A 
ATOM     30  C   UNL A   1      34.036  33.298  30.465  1.00  0.00     0.014 A 
ATOM     31  C   UNL A   1      36.584  33.919  29.519  1.00  0.00     0.010 A 
ATOM     32  C   UNL A   1      35.164  32.762  31.093  1.00  0.00     0.010 A 
ATOM     33  C   UNL A   1      36.449  33.035  30.602  1.00  0.00    -0.014 A 
BRANCH  33  34
ATOM     34  C   UNL A   1      37.643  32.341  31.157  1.00  0.00     0.031 A 
ATOM     35  C   UNL A   1      38.128  32.656  32.548  1.00  0.00     0.074 A 
ATOM     36  C   UNL A   1      38.292  31.418  30.421  1.00  0.00     0.049 A 
ATOM     37  N   UNL A   1      39.113  32.120  33.228  1.00  0.00    -0.248 NA
ATOM     38  C   UNL A   1      37.428  33.733  33.267  1.00  0.00     0.031 C 
ATOM     39  C   UNL A   1      37.964  31.052  29.044  1.00  0.00     0.029 A 
ATOM     40  N   UNL A   1      39.360  30.612  30.735  1.00  0.00    -0.354 N 
ATOM     41  C   UNL A   1      39.155  32.798  34.439  1.00  0.00     0.074 A 
ATOM     42  C   UNL A   1      38.135  33.822  34.384  1.00  0.00     0.031 C 
ATOM     43  C   UNL A   1      38.790  30.072  28.642  1.00  0.00     0.029 A 
ATOM     44  C   UNL A   1      39.715  29.752  29.726  1.00  0.00     0.049 A 
ATOM     45  H   UNL A   1      39.826  30.649  31.601  1.00  0.00     0.167 HD
ATOM     46  C   UNL A   1      39.949  32.573  35.514  1.00  0.00     0.037 A 
ATOM     47  C   UNL A   1      40.667  28.800  29.685  1.00  0.00     0.037 A 
ATOM     48  C   UNL A   1      40.944  31.535  35.588  1.00  0.00     0.049 A 
ATOM     49  C   UNL A   1      41.509  28.541  30.905  1.00  0.00     0.074 A 
ATOM     50  C   UNL A   1      41.767  31.199  36.650  1.00  0.00     0.029 A 
ATOM     51  N   UNL A   1      41.249  30.661  34.555  1.00  0.00    -0.354 N 
ATOM     52  N   UNL A   1      41.489  29.140  32.070  1.00  0.00    -0.248 NA
ATOM     53  C   UNL A   1      42.496  27.455  30.809  1.00  0.00     0.031 C 
ATOM     54  C   UNL A   1      42.590  30.141  36.249  1.00  0.00     0.029 A 
ATOM     55  C   UNL A   1      42.251  29.791  34.953  1.00  0.00     0.049 A 
ATOM     56  H   UNL A   1      40.817  30.660  33.671  1.00  0.00     0.167 HD
ATOM     57  C   UNL A   1      42.431  28.487  32.854  1.00  0.00     0.074 A 
ATOM     58  C   UNL A   1      42.996  27.435  32.035  1.00  0.00     0.031 C 
ATOM     59  C   UNL A   1      42.794  28.738  34.135  1.00  0.00     0.037 A 
BRANCH  46  60
ATOM     60  C   UNL A   1      39.767  33.465  36.708  1.00  0.00     0.064 A 
ATOM     61  C   UNL A   1      40.466  34.675  36.832  1.00  0.00     0.173 A 
ATOM     62  C   UNL A   1      38.864  33.122  37.724  1.00  0.00     0.173 A 
ATOM     63  F   UNL A   1      41.351  35.043  35.893  1.00  0.00    -0.203 F 
ATOM     64  C   UNL A   1      40.290  35.494  37.944  1.00  0.00     0.198 A 
ATOM     65  C   UNL A   1      38.668  33.958  38.821  1.00  0.00     0.198 A 
ATOM     66  F   UNL A   1      38.164  31.980  37.651  1.00  0.00    -0.203 F 
ATOM     67  F   UNL A   1      41.005  36.621  38.064  1.00  0.00    -0.200 F 
ATOM     68  C   UNL A   1      39.387  35.139  38.934  1.00  0.00     0.200 A 
ATOM     69  F   UNL A   1      37.786  33.619  39.771  1.00  0.00    -0.200 F 
ATOM     70  F   UNL A   1      39.214  35.930  40.002  1.00  0.00    -0.200 F 
ENDBRANCH  46  60
BRANCH  47  71
ATOM     71  C   UNL A   1      40.837  27.976  28.461  1.00  0.00     0.064 A 
ATOM     72  C   UNL A   1      41.657  28.411  27.410  1.00  0.00     0.173 A 
ATOM     73  C   UNL A   1      40.180  26.747  28.312  1.00  0.00     0.173 A 
ATOM     74  F   UNL A   1      42.288  29.591  27.498  1.00  0.00    -0.203 F 
ATOM     75  C   UNL A   1      41.798  27.657  26.248  1.00  0.00     0.198 A 
ATOM     76  C   UNL A   1      40.341  25.982  27.159  1.00  0.00     0.198 A 
ATOM     77  F   UNL A   1      39.386  26.286  29.291  1.00  0.00    -0.203 F 
ATOM     78  F   UNL A   1      42.551  28.117  25.240  1.00  0.00    -0.200 F 
ATOM     79  C   UNL A   1      41.143  26.441  26.124  1.00  0.00     0.200 A 
ATOM     80  F   UNL A   1      39.717  24.801  27.047  1.00  0.00    -0.200 F 
ATOM     81  F   UNL A   1      41.279  25.715  25.007  1.00  0.00    -0.200 F 
ENDBRANCH  47  71
BRANCH  59  82
ATOM     82  C   UNL A   1      43.820  27.829  34.748  1.00  0.00     0.064 A 
ATOM     83  C   UNL A   1      43.458  26.627  35.376  1.00  0.00     0.173 A 
ATOM     84  C   UNL A   1      45.182  28.156  34.687  1.00  0.00     0.173 A 
ATOM     85  F   UNL A   1      42.167  26.277  35.471  1.00  0.00    -0.203 F 
ATOM     86  C   UNL A   1      44.422  25.803  35.949  1.00  0.00     0.198 A 
ATOM     87  C   UNL A   1      46.146  27.316  35.238  1.00  0.00     0.198 A 
ATOM     88  F   UNL A   1      45.580  29.290  34.092  1.00  0.00    -0.203 F 
ATOM     89  F   UNL A   1      44.050  24.686  36.591  1.00  0.00    -0.200 F 
ATOM     90  C   UNL A   1      45.765  26.145  35.876  1.00  0.00     0.200 A 
ATOM     91  F   UNL A   1      47.443  27.642  35.157  1.00  0.00    -0.200 F 
ATOM     92  F   UNL A   1      46.691  25.351  36.431  1.00  0.00    -0.200 F 
ENDBRANCH  59  82
ENDBRANCH  33  34
ENDBRANCH  25  28
ENDBRANCH  23  24
ENDBRANCH  22  23
ENDBRANCH   1  22
TORSDOF 16
ENDMDL
MODEL 3
REMARK VINA RESULT:     -11.1      1.937      3.265
REMARK SMILES COCC[N@@H+](CC(=O)NCCCNC(=O)c1ccc(-c2c3nc(c(-c4c(F)c(F)c(F)c(F)c4F)c4ccc([nH]4)c(-c4c(F)c(F)c(F)c(F)c4F)c4nc(c(-c5c(F)c(F)c(F)c(F)c5F)c5ccc2[nH]5)C=C4)C=C3)cc1)Cc1cc(F)cc(Br)c1
REMARK SMILES IDX 10 1 9 2 7 3 8 4 6 6 5 7 4 9 3 10 2 11 1 12 79 13 80 14
REMARK SMILES IDX 81 15 87 16 82 17 85 18 83 19 84 20 86 21 11 22 12 23 13 24
REMARK SMILES IDX 14 25 15 27 16 28 17 29 78 30 18 31 77 32 19 33 20 34 21 35
REMARK SMILES IDX 71 36 22 37 76 38 70 39 72 40 23 41 75 42 69 43 68 44 24 46
REMARK SMILES IDX 56 47 36 48 55 49 37 50 40 51 54 52 73 53 38 54 39 55 53 57
REMARK SMILES IDX 74 58 41 59 25 60 26 61 34 62 27 63 28 64 32 65 35 66 29 67
REMARK SMILES IDX 30 68 33 69 31 70 57 71 58 72 66 73 59 74 60 75 64 76 67 77
REMARK SMILES IDX 61 78 62 79 65 80 63 81 42 82 43 83 51 84 44 85 45 86 49 87
REMARK SMILES IDX 52 88 46 89 47 90 50 91 48 92
REMARK H PARENT 9 5 5 8 13 26 72 45 40 56
REMARK Flexibility Score: inf
ROOT
ATOM      1  C   UNL A   1      31.376  30.951  25.942  1.00  0.00     0.118 C 
ENDROOT
BRANCH   1   2
ATOM      2  N   UNL A   1      32.432  30.081  26.424  1.00  0.00    -0.351 N 
ATOM      3  C   UNL A   1      33.330  29.309  25.750  1.00  0.00     0.275 C 
ATOM      4  O   UNL A   1      34.342  28.960  26.370  1.00  0.00    -0.269 OA
ATOM      5  H   UNL A   1      32.513  30.041  27.405  1.00  0.00     0.163 HD
BRANCH   3   6
ATOM      6  C   UNL A   1      33.140  28.914  24.286  1.00  0.00     0.363 C 
BRANCH   6   7
ATOM      7  N   UNL A   1      32.239  27.772  24.033  1.00  0.00    -0.322 N 
ATOM      8  H   UNL A   1      32.583  27.372  23.160  1.00  0.00     0.348 HD
BRANCH   7   9
ATOM      9  C   UNL A   1      30.876  28.152  23.677  1.00  0.00     0.291 C 
BRANCH   9  10
ATOM     10  C   UNL A   1      30.682  28.834  22.311  1.00  0.00     0.221 C 
BRANCH  10  11
ATOM     11  O   UNL A   1      29.294  28.965  22.000  1.00  0.00    -0.379 OA
ATOM     12  C   UNL A   1      28.807  30.295  22.097  1.00  0.00     0.195 C 
ENDBRANCH  10  11
ENDBRANCH   9  10
ENDBRANCH   7   9
BRANCH   7  13
ATOM     13  C   UNL A   1      32.412  26.605  24.907  1.00  0.00     0.299 C 
BRANCH  13  14
ATOM     14  C   UNL A   1      33.323  25.479  24.457  1.00  0.00     0.010 A 
ATOM     15  C   UNL A   1      33.000  24.745  23.303  1.00  0.00     0.048 A 
ATOM     16  C   UNL A   1      34.476  25.102  25.164  1.00  0.00     0.025 A 
ATOM     17  C   UNL A   1      33.836  23.726  22.849  1.00  0.00     0.124 A 
ATOM     18  C   UNL A   1      35.312  24.085  24.689  1.00  0.00     0.021 A 
ATOM     19  F   UNL A   1      33.511  23.057  21.736  1.00  0.00    -0.207 F 
ATOM     20  C   UNL A   1      34.999  23.394  23.526  1.00  0.00     0.055 A 
ATOM     21  Br  UNL A   1      36.891  23.656  25.637  1.00  0.00    -0.051 Br
ENDBRANCH  13  14
ENDBRANCH   7  13
ENDBRANCH   6   7
ENDBRANCH   3   6
ENDBRANCH   1   2
BRANCH   1  22
ATOM     22  C   UNL A   1      31.261  32.286  26.680  1.00  0.00     0.042 C 
BRANCH  22  23
ATOM     23  C   UNL A   1      32.575  32.885  27.167  1.00  0.00     0.118 C 
BRANCH  23  24
ATOM     24  N   UNL A   1      32.408  34.259  27.599  1.00  0.00    -0.352 N 
ATOM     25  C   UNL A   1      32.983  34.923  28.653  1.00  0.00     0.251 C 
ATOM     26  H   UNL A   1      31.791  34.798  27.053  1.00  0.00     0.163 HD
ATOM     27  O   UNL A   1      32.508  35.998  29.009  1.00  0.00    -0.269 OA
BRANCH  25  28
ATOM     28  C   UNL A   1      34.164  34.377  29.373  1.00  0.00     0.039 A 
ATOM     29  C   UNL A   1      35.431  34.582  28.813  1.00  0.00     0.014 A 
ATOM     30  C   UNL A   1      34.043  33.583  30.518  1.00  0.00     0.014 A 
ATOM     31  C   UNL A   1      36.560  33.997  29.394  1.00  0.00     0.010 A 
ATOM     32  C   UNL A   1      35.181  33.063  31.142  1.00  0.00     0.010 A 
ATOM     33  C   UNL A   1      36.449  33.230  30.565  1.00  0.00    -0.014 A 
BRANCH  33  34
ATOM     34  C   UNL A   1      37.642  32.543  31.130  1.00  0.00     0.031 A 
ATOM     35  C   UNL A   1      38.140  32.893  32.508  1.00  0.00     0.074 A 
ATOM     36  C   UNL A   1      38.278  31.595  30.415  1.00  0.00     0.049 A 
ATOM     37  N   UNL A   1      39.127  32.368  33.194  1.00  0.00    -0.248 NA
ATOM     38  C   UNL A   1      37.454  33.994  33.202  1.00  0.00     0.031 C 
ATOM     39  C   UNL A   1      37.937  31.195  29.051  1.00  0.00     0.029 A 
ATOM     40  N   UNL A   1      39.344  30.791  30.742  1.00  0.00    -0.354 N 
ATOM     41  C   UNL A   1      39.184  33.079  34.386  1.00  0.00     0.074 A 
ATOM     42  C   UNL A   1      38.171  34.109  34.311  1.00  0.00     0.031 C 
ATOM     43  C   UNL A   1      38.752  30.198  28.669  1.00  0.00     0.029 A 
ATOM     44  C   UNL A   1      39.684  29.901  29.754  1.00  0.00     0.049 A 
ATOM     45  H   UNL A   1      39.817  30.848  31.602  1.00  0.00     0.167 HD
ATOM     46  C   UNL A   1      39.985  32.879  35.460  1.00  0.00     0.037 A 
ATOM     47  C   UNL A   1      40.629  28.941  29.732  1.00  0.00     0.037 A 
ATOM     48  C   UNL A   1      40.974  31.836  35.555  1.00  0.00     0.049 A 
ATOM     49  C   UNL A   1      41.480  28.710  30.952  1.00  0.00     0.074 A 
ATOM     50  C   UNL A   1      41.803  31.523  36.619  1.00  0.00     0.029 A 
ATOM     51  N   UNL A   1      41.264  30.932  34.544  1.00  0.00    -0.354 N 
ATOM     52  N   UNL A   1      41.473  29.341  32.099  1.00  0.00    -0.248 NA
ATOM     53  C   UNL A   1      42.458  27.615  30.878  1.00  0.00     0.031 C 
ATOM     54  C   UNL A   1      42.615  30.448  36.240  1.00  0.00     0.029 A 
ATOM     55  C   UNL A   1      42.263  30.066  34.957  1.00  0.00     0.049 A 
ATOM     56  H   UNL A   1      40.824  30.910  33.664  1.00  0.00     0.167 HD
ATOM     57  C   UNL A   1      42.417  28.703  32.893  1.00  0.00     0.074 A 
ATOM     58  C   UNL A   1      42.967  27.625  32.100  1.00  0.00     0.031 C 
ATOM     59  C   UNL A   1      42.792  28.986  34.165  1.00  0.00     0.037 A 
BRANCH  46  60
ATOM     60  C   UNL A   1      39.819  33.804  36.630  1.00  0.00     0.064 A 
ATOM     61  C   UNL A   1      40.485  35.038  36.689  1.00  0.00     0.173 A 
ATOM     62  C   UNL A   1      38.964  33.469  37.690  1.00  0.00     0.173 A 
ATOM     63  F   UNL A   1      41.323  35.400  35.706  1.00  0.00    -0.203 F 
ATOM     64  C   UNL A   1      40.323  35.888  37.780  1.00  0.00     0.198 A 
ATOM     65  C   UNL A   1      38.782  34.335  38.765  1.00  0.00     0.198 A 
ATOM     66  F   UNL A   1      38.298  32.305  37.680  1.00  0.00    -0.203 F 
ATOM     67  F   UNL A   1      41.007  37.039  37.837  1.00  0.00    -0.200 F 
ATOM     68  C   UNL A   1      39.469  35.540  38.813  1.00  0.00     0.200 A 
ATOM     69  F   UNL A   1      37.946  34.002  39.758  1.00  0.00    -0.200 F 
ATOM     70  F   UNL A   1      39.310  36.361  39.861  1.00  0.00    -0.200 F 
ENDBRANCH  46  60
BRANCH  47  71
ATOM     71  C   UNL A   1      40.784  28.083  28.529  1.00  0.00     0.064 A 
ATOM     72  C   UNL A   1      40.124  26.849  28.437  1.00  0.00     0.173 A 
ATOM     73  C   UNL A   1      41.598  28.471  27.457  1.00  0.00     0.173 A 
ATOM     74  F   UNL A   1      39.352  26.426  29.448  1.00  0.00    -0.203 F 
ATOM     75  C   UNL A   1      40.288  26.027  27.325  1.00  0.00     0.198 A 
ATOM     76  C   UNL A   1      41.742  27.659  26.334  1.00  0.00     0.198 A 
ATOM     77  F   UNL A   1      42.248  29.644  27.497  1.00  0.00    -0.203 F 
ATOM     78  F   UNL A   1      39.683  24.833  27.282  1.00  0.00    -0.200 F 
ATOM     79  C   UNL A   1      41.094  26.434  26.272  1.00  0.00     0.200 A 
ATOM     80  F   UNL A   1      42.512  28.060  25.313  1.00  0.00    -0.200 F 
ATOM     81  F   UNL A   1      41.252  25.644  25.202  1.00  0.00    -0.200 F 
ENDBRANCH  47  71
BRANCH  59  82
ATOM     82  C   UNL A   1      43.816  28.088  34.794  1.00  0.00     0.064 A 
ATOM     83  C   UNL A   1      43.449  26.925  35.488  1.00  0.00     0.173 A 
ATOM     84  C   UNL A   1      45.183  28.383  34.683  1.00  0.00     0.173 A 
ATOM     85  F   UNL A   1      42.154  26.605  35.634  1.00  0.00    -0.203 F 
ATOM     86  C   UNL A   1      44.413  26.109  36.076  1.00  0.00     0.198 A 
ATOM     87  C   UNL A   1      46.145  27.552  35.248  1.00  0.00     0.198 A 
ATOM     88  F   UNL A   1      45.586  29.480  34.023  1.00  0.00    -0.203 F 
ATOM     89  F   UNL A   1      44.037  25.032  36.781  1.00  0.00    -0.200 F 
ATOM     90  C   UNL A   1      45.759  26.421  35.952  1.00  0.00     0.200 A 
ATOM     91  F   UNL A   1      47.445  27.847  35.118  1.00  0.00    -0.200 F 
ATOM     92  F   UNL A   1      46.685  25.636  36.520  1.00  0.00    -0.200 F 
ENDBRANCH  59  82
ENDBRANCH  33  34
ENDBRANCH  25  28
ENDBRANCH  23  24
ENDBRANCH  22  23
ENDBRANCH   1  22
TORSDOF 16
ENDMDL
