MODEL 1
REMARK VINA RESULT:     -13.8      0.000      0.000
REMARK SMILES Cc1c(CC(=O)NCCCNC(=O)c2ccc(-c3c4nc(c(-c5c(F)c(F)c(F)c(F)c5F)c5ccc([nH]5)c(-c5c(F)c(F)c(F)c(F)c5F)c5nc(c(-c6c(F)c(F)c(F)c(F)c6F)c6ccc3[nH]6)C=C5)C=C4)cc2)c2ccccc2n1C(=O)c1ccc(Cl)cc1
REMARK SMILES IDX 8 1 7 2 5 3 6 4 4 6 3 7 1 8 2 9 83 10 77 11 82 12 78 13
REMARK SMILES IDX 81 14 79 15 80 16 84 17 85 18 86 19 87 20 92 21 88 22 91 23
REMARK SMILES IDX 89 24 90 25 9 26 10 27 11 28 12 29 13 31 14 32 15 33 76 34
REMARK SMILES IDX 16 35 75 36 17 37 18 38 19 39 69 40 20 41 74 42 68 43 70 44
REMARK SMILES IDX 21 45 73 46 67 47 66 48 22 50 54 51 34 52 53 53 35 54 38 55
REMARK SMILES IDX 52 56 71 57 36 58 37 59 51 61 72 62 39 63 23 64 24 65 32 66
REMARK SMILES IDX 25 67 26 68 30 69 33 70 27 71 28 72 31 73 29 74 55 75 56 76
REMARK SMILES IDX 64 77 57 78 58 79 62 80 65 81 59 82 60 83 63 84 61 85 40 86
REMARK SMILES IDX 41 87 49 88 42 89 43 90 47 91 50 92 44 93 45 94 48 95 46 96
REMARK H PARENT 7 5 11 30 70 49 38 60
REMARK Flexibility Score: inf
ROOT
ATOM      1  C   UNL A   1      32.167  27.401  26.304  1.00  0.00     0.117 C 
ENDROOT
BRANCH   1   2
ATOM      2  N   UNL A   1      31.597  26.239  26.963  1.00  0.00    -0.356 N 
ATOM      3  C   UNL A   1      31.346  24.996  26.459  1.00  0.00     0.224 C 
ATOM      4  O   UNL A   1      30.857  24.152  27.214  1.00  0.00    -0.275 OA
ATOM      5  H   UNL A   1      31.357  26.367  27.908  1.00  0.00     0.163 HD
BRANCH   3   6
ATOM      6  C   UNL A   1      31.704  24.662  25.020  1.00  0.00     0.138 C 
BRANCH   6   7
ATOM      7  C   UNL A   1      32.923  23.794  24.900  1.00  0.00    -0.010 A 
ATOM      8  C   UNL A   1      34.783  25.601  24.973  1.00  0.00     0.065 C 
ATOM      9  C   UNL A   1      34.247  24.207  24.860  1.00  0.00     0.028 A 
ATOM     10  N   UNL A   1      35.065  23.088  24.638  1.00  0.00    -0.280 N 
ATOM     11  C   UNL A   1      32.927  22.371  24.858  1.00  0.00     0.004 A 
ATOM     12  C   UNL A   1      34.258  21.945  24.779  1.00  0.00     0.056 A 
ATOM     13  C   UNL A   1      31.892  21.409  24.905  1.00  0.00     0.010 A 
ATOM     14  C   UNL A   1      34.556  20.566  24.830  1.00  0.00     0.027 A 
ATOM     15  C   UNL A   1      32.194  20.048  24.879  1.00  0.00     0.001 A 
ATOM     16  C   UNL A   1      33.514  19.633  24.853  1.00  0.00     0.002 A 
BRANCH  10  17
ATOM     17  C   UNL A   1      36.451  23.129  24.316  1.00  0.00     0.262 C 
ATOM     18  O   UNL A   1      36.781  23.283  23.133  1.00  0.00    -0.268 OA
BRANCH  17  19
ATOM     19  C   UNL A   1      37.567  22.991  25.261  1.00  0.00     0.040 A 
ATOM     20  C   UNL A   1      37.955  24.058  26.080  1.00  0.00     0.015 A 
ATOM     21  C   UNL A   1      38.223  21.757  25.336  1.00  0.00     0.015 A 
ATOM     22  C   UNL A   1      39.069  23.911  26.911  1.00  0.00     0.021 A 
ATOM     23  C   UNL A   1      39.326  21.612  26.178  1.00  0.00     0.021 A 
ATOM     24  C   UNL A   1      39.755  22.694  26.947  1.00  0.00     0.041 A 
ATOM     25  Cl  UNL A   1      41.151  22.533  27.939  1.00  0.00    -0.084 Cl
ENDBRANCH  17  19
ENDBRANCH  10  17
ENDBRANCH   6   7
ENDBRANCH   3   6
ENDBRANCH   1   2
BRANCH   1  26
ATOM     26  C   UNL A   1      32.341  28.590  27.251  1.00  0.00     0.042 C 
BRANCH  26  27
ATOM     27  C   UNL A   1      33.277  29.672  26.710  1.00  0.00     0.118 C 
BRANCH  27  28
ATOM     28  N   UNL A   1      33.505  30.765  27.636  1.00  0.00    -0.352 N 
ATOM     29  C   UNL A   1      34.582  31.297  28.282  1.00  0.00     0.251 C 
ATOM     30  H   UNL A   1      32.671  31.243  27.853  1.00  0.00     0.163 HD
ATOM     31  O   UNL A   1      34.355  32.313  28.946  1.00  0.00    -0.269 OA
BRANCH  29  32
ATOM     32  C   UNL A   1      35.959  30.733  28.300  1.00  0.00     0.039 A 
ATOM     33  C   UNL A   1      36.331  29.458  27.876  1.00  0.00     0.014 A 
ATOM     34  C   UNL A   1      36.948  31.570  28.857  1.00  0.00     0.014 A 
ATOM     35  C   UNL A   1      37.630  28.997  28.097  1.00  0.00     0.010 A 
ATOM     36  C   UNL A   1      38.245  31.120  29.067  1.00  0.00     0.010 A 
ATOM     37  C   UNL A   1      38.571  29.812  28.736  1.00  0.00    -0.014 A 
BRANCH  37  38
ATOM     38  C   UNL A   1      39.908  29.274  28.977  1.00  0.00     0.031 A 
ATOM     39  C   UNL A   1      40.224  28.964  30.403  1.00  0.00     0.074 A 
ATOM     40  C   UNL A   1      40.776  28.976  27.988  1.00  0.00     0.049 A 
ATOM     41  N   UNL A   1      41.170  29.457  31.138  1.00  0.00    -0.248 NA
ATOM     42  C   UNL A   1      39.320  28.056  31.126  1.00  0.00     0.031 C 
ATOM     43  C   UNL A   1      40.542  28.965  26.542  1.00  0.00     0.029 A 
ATOM     44  N   UNL A   1      42.062  28.529  28.088  1.00  0.00    -0.354 N 
ATOM     45  C   UNL A   1      41.072  28.825  32.377  1.00  0.00     0.074 A 
ATOM     46  C   UNL A   1      39.858  28.050  32.347  1.00  0.00     0.031 C 
ATOM     47  C   UNL A   1      41.565  28.329  25.925  1.00  0.00     0.029 A 
ATOM     48  C   UNL A   1      42.585  28.014  26.908  1.00  0.00     0.049 A 
ATOM     49  H   UNL A   1      42.576  28.569  28.926  1.00  0.00     0.167 HD
ATOM     50  C   UNL A   1      42.086  28.857  33.286  1.00  0.00     0.037 A 
ATOM     51  C   UNL A   1      43.749  27.329  26.771  1.00  0.00     0.037 A 
ATOM     52  C   UNL A   1      43.020  29.911  33.004  1.00  0.00     0.049 A 
ATOM     53  C   UNL A   1      44.593  27.646  27.949  1.00  0.00     0.074 A 
ATOM     54  C   UNL A   1      42.948  31.289  32.986  1.00  0.00     0.029 A 
ATOM     55  N   UNL A   1      44.182  29.591  32.349  1.00  0.00    -0.354 N 
ATOM     56  N   UNL A   1      45.129  28.814  28.168  1.00  0.00    -0.248 NA
ATOM     57  C   UNL A   1      44.484  26.777  29.111  1.00  0.00     0.031 C 
ATOM     58  C   UNL A   1      43.790  31.687  31.907  1.00  0.00     0.029 A 
ATOM     59  C   UNL A   1      44.362  30.533  31.371  1.00  0.00     0.049 A 
ATOM     60  H   UNL A   1      44.775  28.830  32.545  1.00  0.00     0.167 HD
ATOM     61  C   UNL A   1      45.022  28.994  29.539  1.00  0.00     0.074 A 
ATOM     62  C   UNL A   1      44.700  27.674  30.075  1.00  0.00     0.031 C 
ATOM     63  C   UNL A   1      44.929  30.243  30.077  1.00  0.00     0.037 A 
BRANCH  50  64
ATOM     64  C   UNL A   1      42.403  27.752  34.259  1.00  0.00     0.064 A 
ATOM     65  C   UNL A   1      43.032  26.576  33.802  1.00  0.00     0.173 A 
ATOM     66  C   UNL A   1      41.842  27.684  35.551  1.00  0.00     0.173 A 
ATOM     67  F   UNL A   1      43.578  26.524  32.578  1.00  0.00    -0.203 F 
ATOM     68  C   UNL A   1      43.039  25.402  34.560  1.00  0.00     0.198 A 
ATOM     69  C   UNL A   1      41.895  26.526  36.324  1.00  0.00     0.198 A 
ATOM     70  F   UNL A   1      41.129  28.694  36.064  1.00  0.00    -0.203 F 
ATOM     71  F   UNL A   1      43.545  24.276  34.040  1.00  0.00    -0.200 F 
ATOM     72  C   UNL A   1      42.466  25.377  35.818  1.00  0.00     0.200 A 
ATOM     73  F   UNL A   1      41.314  26.514  37.533  1.00  0.00    -0.200 F 
ATOM     74  F   UNL A   1      42.419  24.237  36.522  1.00  0.00    -0.200 F 
ENDBRANCH  50  64
BRANCH  51  75
ATOM     75  C   UNL A   1      44.050  26.180  25.880  1.00  0.00     0.064 A 
ATOM     76  C   UNL A   1      45.356  25.952  25.411  1.00  0.00     0.173 A 
ATOM     77  C   UNL A   1      43.138  25.120  25.722  1.00  0.00     0.173 A 
ATOM     78  F   UNL A   1      46.301  26.892  25.558  1.00  0.00    -0.203 F 
ATOM     79  C   UNL A   1      45.733  24.725  24.853  1.00  0.00     0.198 A 
ATOM     80  C   UNL A   1      43.513  23.899  25.159  1.00  0.00     0.198 A 
ATOM     81  F   UNL A   1      41.889  25.209  26.202  1.00  0.00    -0.203 F 
ATOM     82  F   UNL A   1      47.006  24.521  24.483  1.00  0.00    -0.200 F 
ATOM     83  C   UNL A   1      44.814  23.695  24.740  1.00  0.00     0.200 A 
ATOM     84  F   UNL A   1      42.623  22.898  25.090  1.00  0.00    -0.200 F 
ATOM     85  F   UNL A   1      45.191  22.498  24.272  1.00  0.00    -0.200 F 
ENDBRANCH  51  75
BRANCH  63  86
ATOM     86  C   UNL A   1      45.193  31.418  29.178  1.00  0.00     0.064 A 
ATOM     87  C   UNL A   1      44.211  32.024  28.374  1.00  0.00     0.173 A 
ATOM     88  C   UNL A   1      46.438  32.054  29.266  1.00  0.00     0.173 A 
ATOM     89  F   UNL A   1      42.968  31.532  28.315  1.00  0.00    -0.203 F 
ATOM     90  C   UNL A   1      44.480  33.192  27.663  1.00  0.00     0.198 A 
ATOM     91  C   UNL A   1      46.691  33.242  28.585  1.00  0.00     0.198 A 
ATOM     92  F   UNL A   1      47.394  31.551  30.061  1.00  0.00    -0.203 F 
ATOM     93  F   UNL A   1      43.528  33.747  26.897  1.00  0.00    -0.200 F 
ATOM     94  C   UNL A   1      45.716  33.805  27.778  1.00  0.00     0.200 A 
ATOM     95  F   UNL A   1      47.870  33.858  28.739  1.00  0.00    -0.200 F 
ATOM     96  F   UNL A   1      45.959  34.957  27.135  1.00  0.00    -0.200 F 
ENDBRANCH  63  86
ENDBRANCH  37  38
ENDBRANCH  29  32
ENDBRANCH  27  28
ENDBRANCH  26  27
ENDBRANCH   1  26
TORSDOF 13
ENDMDL
MODEL 2
REMARK VINA RESULT:     -13.6      3.572      9.263
REMARK SMILES Cc1c(CC(=O)NCCCNC(=O)c2ccc(-c3c4nc(c(-c5c(F)c(F)c(F)c(F)c5F)c5ccc([nH]5)c(-c5c(F)c(F)c(F)c(F)c5F)c5nc(c(-c6c(F)c(F)c(F)c(F)c6F)c6ccc3[nH]6)C=C5)C=C4)cc2)c2ccccc2n1C(=O)c1ccc(Cl)cc1
REMARK SMILES IDX 8 1 7 2 5 3 6 4 4 6 3 7 1 8 2 9 83 10 77 11 82 12 78 13
REMARK SMILES IDX 81 14 79 15 80 16 84 17 85 18 86 19 87 20 92 21 88 22 91 23
REMARK SMILES IDX 89 24 90 25 9 26 10 27 11 28 12 29 13 31 14 32 15 33 76 34
REMARK SMILES IDX 16 35 75 36 17 37 18 38 19 39 69 40 20 41 74 42 68 43 70 44
REMARK SMILES IDX 21 45 73 46 67 47 66 48 22 50 54 51 34 52 53 53 35 54 38 55
REMARK SMILES IDX 52 56 71 57 36 58 37 59 51 61 72 62 39 63 23 64 24 65 32 66
REMARK SMILES IDX 25 67 26 68 30 69 33 70 27 71 28 72 31 73 29 74 55 75 56 76
REMARK SMILES IDX 64 77 57 78 58 79 62 80 65 81 59 82 60 83 63 84 61 85 40 86
REMARK SMILES IDX 41 87 49 88 42 89 43 90 47 91 50 92 44 93 45 94 48 95 46 96
REMARK H PARENT 7 5 11 30 70 49 38 60
REMARK Flexibility Score: inf
ROOT
ATOM      1  C   UNL A   1      36.736  23.262  24.737  1.00  0.00     0.117 C 
ENDROOT
BRANCH   1   2
ATOM      2  N   UNL A   1      35.515  23.112  25.509  1.00  0.00    -0.356 N 
ATOM      3  C   UNL A   1      34.329  23.776  25.387  1.00  0.00     0.224 C 
ATOM      4  O   UNL A   1      33.414  23.475  26.158  1.00  0.00    -0.275 OA
ATOM      5  H   UNL A   1      35.548  22.435  26.223  1.00  0.00     0.163 HD
BRANCH   3   6
ATOM      6  C   UNL A   1      34.140  24.821  24.300  1.00  0.00     0.138 C 
BRANCH   6   7
ATOM      7  C   UNL A   1      32.974  25.734  24.553  1.00  0.00    -0.010 A 
ATOM      8  C   UNL A   1      31.133  24.517  23.189  1.00  0.00     0.065 C 
ATOM      9  C   UNL A   1      31.686  25.609  24.055  1.00  0.00     0.028 A 
ATOM     10  N   UNL A   1      30.935  26.726  24.449  1.00  0.00    -0.280 N 
ATOM     11  C   UNL A   1      32.984  26.875  25.405  1.00  0.00     0.004 A 
ATOM     12  C   UNL A   1      31.700  27.431  25.397  1.00  0.00     0.056 A 
ATOM     13  C   UNL A   1      33.990  27.464  26.204  1.00  0.00     0.010 A 
ATOM     14  C   UNL A   1      31.403  28.519  26.245  1.00  0.00     0.027 A 
ATOM     15  C   UNL A   1      33.706  28.585  26.982  1.00  0.00     0.001 A 
ATOM     16  C   UNL A   1      32.421  29.099  27.009  1.00  0.00     0.002 A 
BRANCH  10  17
ATOM     17  C   UNL A   1      29.645  27.072  23.956  1.00  0.00     0.262 C 
ATOM     18  O   UNL A   1      28.691  26.328  24.218  1.00  0.00    -0.268 OA
BRANCH  17  19
ATOM     19  C   UNL A   1      29.314  28.244  23.135  1.00  0.00     0.040 A 
ATOM     20  C   UNL A   1      30.295  28.894  22.377  1.00  0.00     0.015 A 
ATOM     21  C   UNL A   1      27.986  28.684  23.115  1.00  0.00     0.015 A 
ATOM     22  C   UNL A   1      29.955  30.050  21.669  1.00  0.00     0.021 A 
ATOM     23  C   UNL A   1      27.651  29.831  22.394  1.00  0.00     0.021 A 
ATOM     24  C   UNL A   1      28.639  30.519  21.690  1.00  0.00     0.041 A 
ATOM     25  Cl  UNL A   1      28.237  31.966  20.853  1.00  0.00    -0.084 Cl
ENDBRANCH  17  19
ENDBRANCH  10  17
ENDBRANCH   6   7
ENDBRANCH   3   6
ENDBRANCH   1   2
BRANCH   1  26
ATOM     26  C   UNL A   1      37.739  22.135  24.996  1.00  0.00     0.042 C 
BRANCH  26  27
ATOM     27  C   UNL A   1      38.679  22.409  26.171  1.00  0.00     0.118 C 
BRANCH  27  28
ATOM     28  N   UNL A   1      40.079  22.187  25.865  1.00  0.00    -0.352 N 
ATOM     29  C   UNL A   1      41.255  22.827  26.126  1.00  0.00     0.251 C 
ATOM     30  H   UNL A   1      40.214  21.368  25.335  1.00  0.00     0.163 HD
ATOM     31  O   UNL A   1      42.273  22.245  25.739  1.00  0.00    -0.269 OA
BRANCH  29  32
ATOM     32  C   UNL A   1      41.403  24.161  26.767  1.00  0.00     0.039 A 
ATOM     33  C   UNL A   1      41.964  24.415  28.018  1.00  0.00     0.014 A 
ATOM     34  C   UNL A   1      40.863  25.244  26.042  1.00  0.00     0.014 A 
ATOM     35  C   UNL A   1      41.895  25.694  28.571  1.00  0.00     0.010 A 
ATOM     36  C   UNL A   1      40.804  26.522  26.583  1.00  0.00     0.010 A 
ATOM     37  C   UNL A   1      41.272  26.735  27.873  1.00  0.00    -0.014 A 
BRANCH  37  38
ATOM     38  C   UNL A   1      41.192  28.049  28.505  1.00  0.00     0.031 A 
ATOM     39  C   UNL A   1      42.317  28.979  28.190  1.00  0.00     0.074 A 
ATOM     40  C   UNL A   1      40.137  28.454  29.243  1.00  0.00     0.049 A 
ATOM     41  N   UNL A   1      43.154  29.529  29.011  1.00  0.00    -0.248 NA
ATOM     42  C   UNL A   1      42.600  29.262  26.774  1.00  0.00     0.031 C 
ATOM     43  C   UNL A   1      38.848  27.785  29.434  1.00  0.00     0.029 A 
ATOM     44  N   UNL A   1      39.974  29.624  29.927  1.00  0.00    -0.354 N 
ATOM     45  C   UNL A   1      43.987  30.338  28.239  1.00  0.00     0.074 A 
ATOM     46  C   UNL A   1      43.668  30.057  26.863  1.00  0.00     0.031 C 
ATOM     47  C   UNL A   1      37.970  28.651  29.992  1.00  0.00     0.029 A 
ATOM     48  C   UNL A   1      38.667  29.880  30.324  1.00  0.00     0.049 A 
ATOM     49  H   UNL A   1      40.721  30.234  30.124  1.00  0.00     0.167 HD
ATOM     50  C   UNL A   1      44.772  31.303  28.793  1.00  0.00     0.037 A 
ATOM     51  C   UNL A   1      38.191  31.044  30.835  1.00  0.00     0.037 A 
ATOM     52  C   UNL A   1      44.947  31.102  30.204  1.00  0.00     0.049 A 
ATOM     53  C   UNL A   1      39.350  31.806  31.360  1.00  0.00     0.074 A 
ATOM     54  C   UNL A   1      45.545  30.127  30.976  1.00  0.00     0.029 A 
ATOM     55  N   UNL A   1      44.170  31.833  31.066  1.00  0.00    -0.354 N 
ATOM     56  N   UNL A   1      40.042  31.452  32.406  1.00  0.00    -0.248 NA
ATOM     57  C   UNL A   1      40.009  32.738  30.457  1.00  0.00     0.031 C 
ATOM     58  C   UNL A   1      44.721  30.016  32.133  1.00  0.00     0.029 A 
ATOM     59  C   UNL A   1      43.704  30.964  32.018  1.00  0.00     0.049 A 
ATOM     60  H   UNL A   1      43.983  32.798  31.012  1.00  0.00     0.167 HD
ATOM     61  C   UNL A   1      41.353  31.759  32.077  1.00  0.00     0.074 A 
ATOM     62  C   UNL A   1      41.261  32.627  30.907  1.00  0.00     0.031 C 
ATOM     63  C   UNL A   1      42.393  31.058  32.612  1.00  0.00     0.037 A 
BRANCH  50  64
ATOM     64  C   UNL A   1      45.139  32.600  28.122  1.00  0.00     0.064 A 
ATOM     65  C   UNL A   1      44.142  33.564  27.867  1.00  0.00     0.173 A 
ATOM     66  C   UNL A   1      46.366  32.799  27.456  1.00  0.00     0.173 A 
ATOM     67  F   UNL A   1      42.929  33.458  28.430  1.00  0.00    -0.203 F 
ATOM     68  C   UNL A   1      44.341  34.609  26.961  1.00  0.00     0.198 A 
ATOM     69  C   UNL A   1      46.578  33.871  26.592  1.00  0.00     0.198 A 
ATOM     70  F   UNL A   1      47.361  31.906  27.530  1.00  0.00    -0.203 F 
ATOM     71  F   UNL A   1      43.328  35.433  26.661  1.00  0.00    -0.200 F 
ATOM     72  C   UNL A   1      45.557  34.759  26.321  1.00  0.00     0.200 A 
ATOM     73  F   UNL A   1      47.757  33.988  25.963  1.00  0.00    -0.200 F 
ATOM     74  F   UNL A   1      45.732  35.724  25.408  1.00  0.00    -0.200 F 
ENDBRANCH  50  64
BRANCH  51  75
ATOM     75  C   UNL A   1      36.871  31.685  30.610  1.00  0.00     0.064 A 
ATOM     76  C   UNL A   1      35.957  31.847  31.666  1.00  0.00     0.173 A 
ATOM     77  C   UNL A   1      36.607  32.421  29.439  1.00  0.00     0.173 A 
ATOM     78  F   UNL A   1      36.154  31.217  32.833  1.00  0.00    -0.203 F 
ATOM     79  C   UNL A   1      34.867  32.720  31.568  1.00  0.00     0.198 A 
ATOM     80  C   UNL A   1      35.516  33.285  29.340  1.00  0.00     0.198 A 
ATOM     81  F   UNL A   1      37.456  32.393  28.403  1.00  0.00    -0.203 F 
ATOM     82  F   UNL A   1      34.058  32.902  32.621  1.00  0.00    -0.200 F 
ATOM     83  C   UNL A   1      34.656  33.448  30.409  1.00  0.00     0.200 A 
ATOM     84  F   UNL A   1      35.344  34.012  28.225  1.00  0.00    -0.200 F 
ATOM     85  F   UNL A   1      33.655  34.337  30.339  1.00  0.00    -0.200 F 
ENDBRANCH  51  75
BRANCH  63  86
ATOM     86  C   UNL A   1      42.099  30.117  33.746  1.00  0.00     0.064 A 
ATOM     87  C   UNL A   1      41.692  28.783  33.570  1.00  0.00     0.173 A 
ATOM     88  C   UNL A   1      42.404  30.532  35.049  1.00  0.00     0.173 A 
ATOM     89  F   UNL A   1      41.477  28.283  32.347  1.00  0.00    -0.203 F 
ATOM     90  C   UNL A   1      41.562  27.918  34.656  1.00  0.00     0.198 A 
ATOM     91  C   UNL A   1      42.311  29.656  36.126  1.00  0.00     0.198 A 
ATOM     92  F   UNL A   1      42.850  31.779  35.269  1.00  0.00    -0.203 F 
ATOM     93  F   UNL A   1      41.166  26.651  34.462  1.00  0.00    -0.200 F 
ATOM     94  C   UNL A   1      41.882  28.353  35.930  1.00  0.00     0.200 A 
ATOM     95  F   UNL A   1      42.669  30.066  37.350  1.00  0.00    -0.200 F 
ATOM     96  F   UNL A   1      41.808  27.508  36.969  1.00  0.00    -0.200 F 
ENDBRANCH  63  86
ENDBRANCH  37  38
ENDBRANCH  29  32
ENDBRANCH  27  28
ENDBRANCH  26  27
ENDBRANCH   1  26
TORSDOF 13
ENDMDL
MODEL 3
REMARK VINA RESULT:     -13.6      2.293      3.559
REMARK SMILES Cc1c(CC(=O)NCCCNC(=O)c2ccc(-c3c4nc(c(-c5c(F)c(F)c(F)c(F)c5F)c5ccc([nH]5)c(-c5c(F)c(F)c(F)c(F)c5F)c5nc(c(-c6c(F)c(F)c(F)c(F)c6F)c6ccc3[nH]6)C=C5)C=C4)cc2)c2ccccc2n1C(=O)c1ccc(Cl)cc1
REMARK SMILES IDX 8 1 7 2 5 3 6 4 4 6 3 7 1 8 2 9 83 10 77 11 82 12 78 13
REMARK SMILES IDX 81 14 79 15 80 16 84 17 85 18 86 19 87 20 92 21 88 22 91 23
REMARK SMILES IDX 89 24 90 25 9 26 10 27 11 28 12 29 13 31 14 32 15 33 76 34
REMARK SMILES IDX 16 35 75 36 17 37 18 38 19 39 69 40 20 41 74 42 68 43 70 44
REMARK SMILES IDX 21 45 73 46 67 47 66 48 22 50 54 51 34 52 53 53 35 54 38 55
REMARK SMILES IDX 52 56 71 57 36 58 37 59 51 61 72 62 39 63 23 64 24 65 32 66
REMARK SMILES IDX 25 67 26 68 30 69 33 70 27 71 28 72 31 73 29 74 55 75 56 76
REMARK SMILES IDX 64 77 57 78 58 79 62 80 65 81 59 82 60 83 63 84 61 85 40 86
REMARK SMILES IDX 41 87 49 88 42 89 43 90 47 91 50 92 44 93 45 94 48 95 46 96
REMARK H PARENT 7 5 11 30 70 49 38 60
REMARK Flexibility Score: inf
ROOT
ATOM      1  C   UNL A   1      33.759  28.590  27.115  1.00  0.00     0.117 C 
ENDROOT
BRANCH   1   2
ATOM      2  N   UNL A   1      33.819  28.242  25.706  1.00  0.00    -0.356 N 
ATOM      3  C   UNL A   1      33.677  27.023  25.110  1.00  0.00     0.224 C 
ATOM      4  O   UNL A   1      33.760  26.965  23.880  1.00  0.00    -0.275 OA
ATOM      5  H   UNL A   1      33.986  28.994  25.094  1.00  0.00     0.163 HD
BRANCH   3   6
ATOM      6  C   UNL A   1      33.382  25.787  25.945  1.00  0.00     0.138 C 
BRANCH   6   7
ATOM      7  C   UNL A   1      33.664  24.502  25.221  1.00  0.00    -0.010 A 
ATOM      8  C   UNL A   1      31.346  24.064  24.142  1.00  0.00     0.065 C 
ATOM      9  C   UNL A   1      32.777  23.754  24.462  1.00  0.00     0.028 A 
ATOM     10  N   UNL A   1      33.415  22.575  24.048  1.00  0.00    -0.280 N 
ATOM     11  C   UNL A   1      34.929  23.852  25.148  1.00  0.00     0.004 A 
ATOM     12  C   UNL A   1      34.782  22.708  24.355  1.00  0.00     0.056 A 
ATOM     13  C   UNL A   1      36.199  24.167  25.683  1.00  0.00     0.010 A 
ATOM     14  C   UNL A   1      35.913  21.930  24.031  1.00  0.00     0.027 A 
ATOM     15  C   UNL A   1      37.297  23.349  25.418  1.00  0.00     0.001 A 
ATOM     16  C   UNL A   1      37.155  22.248  24.591  1.00  0.00     0.002 A 
BRANCH  10  17
ATOM     17  C   UNL A   1      32.774  21.456  23.444  1.00  0.00     0.262 C 
ATOM     18  O   UNL A   1      32.216  21.611  22.350  1.00  0.00    -0.268 OA
BRANCH  17  19
ATOM     19  C   UNL A   1      32.690  20.099  23.999  1.00  0.00     0.040 A 
ATOM     20  C   UNL A   1      32.771  19.877  25.379  1.00  0.00     0.015 A 
ATOM     21  C   UNL A   1      32.507  19.031  23.113  1.00  0.00     0.015 A 
ATOM     22  C   UNL A   1      32.761  18.566  25.861  1.00  0.00     0.021 A 
ATOM     23  C   UNL A   1      32.485  17.725  23.603  1.00  0.00     0.021 A 
ATOM     24  C   UNL A   1      32.631  17.497  24.972  1.00  0.00     0.041 A 
ATOM     25  Cl  UNL A   1      32.664  15.884  25.567  1.00  0.00    -0.084 Cl
ENDBRANCH  17  19
ENDBRANCH  10  17
ENDBRANCH   6   7
ENDBRANCH   3   6
ENDBRANCH   1   2
BRANCH   1  26
ATOM     26  C   UNL A   1      33.243  30.011  27.350  1.00  0.00     0.042 C 
BRANCH  26  27
ATOM     27  C   UNL A   1      34.355  31.052  27.482  1.00  0.00     0.118 C 
BRANCH  27  28
ATOM     28  N   UNL A   1      34.347  31.761  28.748  1.00  0.00    -0.352 N 
ATOM     29  C   UNL A   1      35.206  31.907  29.797  1.00  0.00     0.251 C 
ATOM     30  H   UNL A   1      33.510  32.262  28.882  1.00  0.00     0.163 HD
ATOM     31  O   UNL A   1      34.838  32.690  30.679  1.00  0.00    -0.269 OA
BRANCH  29  32
ATOM     32  C   UNL A   1      36.485  31.174  29.990  1.00  0.00     0.039 A 
ATOM     33  C   UNL A   1      37.767  31.702  29.837  1.00  0.00     0.014 A 
ATOM     34  C   UNL A   1      36.357  29.804  30.301  1.00  0.00     0.014 A 
ATOM     35  C   UNL A   1      38.882  30.864  29.891  1.00  0.00     0.010 A 
ATOM     36  C   UNL A   1      37.465  28.969  30.369  1.00  0.00     0.010 A 
ATOM     37  C   UNL A   1      38.725  29.490  30.109  1.00  0.00    -0.014 A 
BRANCH  37  38
ATOM     38  C   UNL A   1      39.917  28.646  30.123  1.00  0.00     0.031 A 
ATOM     39  C   UNL A   1      40.542  28.446  31.463  1.00  0.00     0.074 A 
ATOM     40  C   UNL A   1      40.380  28.000  29.032  1.00  0.00     0.049 A 
ATOM     41  N   UNL A   1      41.742  28.754  31.840  1.00  0.00    -0.248 NA
ATOM     42  C   UNL A   1      39.696  27.916  32.545  1.00  0.00     0.031 C 
ATOM     43  C   UNL A   1      39.753  27.869  27.715  1.00  0.00     0.029 A 
ATOM     44  N   UNL A   1      41.506  27.238  28.907  1.00  0.00    -0.354 N 
ATOM     45  C   UNL A   1      41.857  28.335  33.165  1.00  0.00     0.074 A 
ATOM     46  C   UNL A   1      40.540  27.921  33.578  1.00  0.00     0.031 C 
ATOM     47  C   UNL A   1      40.388  26.906  27.007  1.00  0.00     0.029 A 
ATOM     48  C   UNL A   1      41.545  26.455  27.760  1.00  0.00     0.049 A 
ATOM     49  H   UNL A   1      42.230  27.245  29.573  1.00  0.00     0.167 HD
ATOM     50  C   UNL A   1      43.065  28.208  33.781  1.00  0.00     0.037 A 
ATOM     51  C   UNL A   1      42.436  25.469  27.484  1.00  0.00     0.037 A 
ATOM     52  C   UNL A   1      44.096  28.925  33.083  1.00  0.00     0.049 A 
ATOM     53  C   UNL A   1      43.626  25.693  28.341  1.00  0.00     0.074 A 
ATOM     54  C   UNL A   1      44.336  30.257  32.814  1.00  0.00     0.029 A 
ATOM     55  N   UNL A   1      44.922  28.221  32.245  1.00  0.00    -0.354 N 
ATOM     56  N   UNL A   1      44.453  26.690  28.193  1.00  0.00    -0.248 NA
ATOM     57  C   UNL A   1      43.654  25.041  29.641  1.00  0.00     0.031 C 
ATOM     58  C   UNL A   1      44.908  30.271  31.509  1.00  0.00     0.029 A 
ATOM     59  C   UNL A   1      45.028  28.947  31.087  1.00  0.00     0.049 A 
ATOM     60  H   UNL A   1      45.358  27.359  32.438  1.00  0.00     0.167 HD
ATOM     61  C   UNL A   1      44.780  27.066  29.487  1.00  0.00     0.074 A 
ATOM     62  C   UNL A   1      44.331  25.962  30.331  1.00  0.00     0.031 C 
ATOM     63  C   UNL A   1      45.128  28.351  29.777  1.00  0.00     0.037 A 
BRANCH  50  64
ATOM     64  C   UNL A   1      43.383  27.192  34.846  1.00  0.00     0.064 A 
ATOM     65  C   UNL A   1      43.663  27.619  36.160  1.00  0.00     0.173 A 
ATOM     66  C   UNL A   1      43.717  25.853  34.554  1.00  0.00     0.173 A 
ATOM     67  F   UNL A   1      43.407  28.880  36.538  1.00  0.00    -0.203 F 
ATOM     68  C   UNL A   1      44.290  26.784  37.089  1.00  0.00     0.198 A 
ATOM     69  C   UNL A   1      44.297  25.009  35.498  1.00  0.00     0.198 A 
ATOM     70  F   UNL A   1      43.598  25.351  33.318  1.00  0.00    -0.203 F 
ATOM     71  F   UNL A   1      44.643  27.267  38.288  1.00  0.00    -0.200 F 
ATOM     72  C   UNL A   1      44.611  25.481  36.755  1.00  0.00     0.200 A 
ATOM     73  F   UNL A   1      44.621  23.755  35.149  1.00  0.00    -0.200 F 
ATOM     74  F   UNL A   1      45.266  24.697  37.623  1.00  0.00    -0.200 F 
ENDBRANCH  50  64
BRANCH  51  75
ATOM     75  C   UNL A   1      42.206  24.178  26.789  1.00  0.00     0.064 A 
ATOM     76  C   UNL A   1      43.180  23.633  25.932  1.00  0.00     0.173 A 
ATOM     77  C   UNL A   1      41.170  23.310  27.184  1.00  0.00     0.173 A 
ATOM     78  F   UNL A   1      44.224  24.376  25.540  1.00  0.00    -0.203 F 
ATOM     79  C   UNL A   1      43.138  22.294  25.528  1.00  0.00     0.198 A 
ATOM     80  C   UNL A   1      41.125  21.977  26.775  1.00  0.00     0.198 A 
ATOM     81  F   UNL A   1      40.233  23.709  28.056  1.00  0.00    -0.203 F 
ATOM     82  F   UNL A   1      44.123  21.793  24.769  1.00  0.00    -0.200 F 
ATOM     83  C   UNL A   1      42.118  21.464  25.960  1.00  0.00     0.200 A 
ATOM     84  F   UNL A   1      40.152  21.174  27.230  1.00  0.00    -0.200 F 
ATOM     85  F   UNL A   1      42.115  20.164  25.632  1.00  0.00    -0.200 F 
ENDBRANCH  51  75
BRANCH  63  86
ATOM     86  C   UNL A   1      45.388  29.287  28.630  1.00  0.00     0.064 A 
ATOM     87  C   UNL A   1      44.386  30.043  27.995  1.00  0.00     0.173 A 
ATOM     88  C   UNL A   1      46.717  29.551  28.278  1.00  0.00     0.173 A 
ATOM     89  F   UNL A   1      43.101  29.919  28.347  1.00  0.00    -0.203 F 
ATOM     90  C   UNL A   1      44.705  30.993  27.026  1.00  0.00     0.198 A 
ATOM     91  C   UNL A   1      47.034  30.528  27.338  1.00  0.00     0.198 A 
ATOM     92  F   UNL A   1      47.717  28.899  28.891  1.00  0.00    -0.203 F 
ATOM     93  F   UNL A   1      43.730  31.698  26.430  1.00  0.00    -0.200 F 
ATOM     94  C   UNL A   1      46.028  31.242  26.707  1.00  0.00     0.200 A 
ATOM     95  F   UNL A   1      48.318  30.800  27.068  1.00  0.00    -0.200 F 
ATOM     96  F   UNL A   1      46.339  32.191  25.812  1.00  0.00    -0.200 F 
ENDBRANCH  63  86
ENDBRANCH  37  38
ENDBRANCH  29  32
ENDBRANCH  27  28
ENDBRANCH  26  27
ENDBRANCH   1  26
TORSDOF 13
ENDMDL
