MODEL 1
REMARK VINA RESULT:     -11.6      0.000      0.000
REMARK SMILES Cn1nnnc1SCC[C@@H]1CCC[C@@]1([NH3+])C(=O)NCCCNC(=O)c1ccc(-c2c3nc(c(-c4c(F)c(F)c(F)c(F)c4F)c4ccc([nH]4)c(-c4c(F)c(F)c(F)c(F)c4F)c4nc(c(-c5c(F)c(F)c(F)c(F)c5F)c5ccc2[nH]5)C=C4)C=C3)cc1
REMARK SMILES IDX 19 1 18 2 16 3 17 4 14 6 10 7 11 8 12 9 13 10 9 11 8 12 7 13
REMARK SMILES IDX 6 14 1 15 2 16 3 17 4 18 5 19 15 20 20 24 21 25 22 26 23 27
REMARK SMILES IDX 24 29 25 30 26 31 87 32 27 33 86 34 28 35 29 36 30 37 80 38
REMARK SMILES IDX 31 39 85 40 79 41 81 42 32 43 84 44 78 45 77 46 33 48 65 49
REMARK SMILES IDX 45 50 64 51 46 52 49 53 63 54 82 55 47 56 48 57 62 59 83 60
REMARK SMILES IDX 50 61 34 62 35 63 43 64 36 65 37 66 41 67 44 68 38 69 39 70
REMARK SMILES IDX 42 71 40 72 66 73 67 74 75 75 68 76 69 77 73 78 76 79 70 80
REMARK SMILES IDX 71 81 74 82 72 83 51 84 52 85 60 86 53 87 54 88 58 89 61 90
REMARK SMILES IDX 55 91 56 92 59 93 57 94
REMARK H PARENT 18 5 15 21 15 22 15 23 22 28 81 47 49 58
REMARK Flexibility Score: inf
ROOT
ATOM      1  C   UNL A   1      36.699  20.723  24.660  1.00  0.00     0.118 C 
ENDROOT
BRANCH   1   2
ATOM      2  N   UNL A   1      35.930  21.143  25.815  1.00  0.00    -0.351 N 
ATOM      3  C   UNL A   1      34.615  21.161  26.137  1.00  0.00     0.281 C 
ATOM      4  O   UNL A   1      34.400  21.406  27.336  1.00  0.00    -0.268 OA
ATOM      5  H   UNL A   1      36.498  21.499  26.536  1.00  0.00     0.163 HD
BRANCH   3   6
ATOM      6  C   UNL A   1      33.374  20.998  25.186  1.00  0.00     0.176 C 
ATOM      7  C   UNL A   1      33.239  21.658  23.804  1.00  0.00     0.061 C 
ATOM      8  C   UNL A   1      32.166  20.798  23.104  1.00  0.00     0.011 C 
ATOM      9  C   UNL A   1      32.572  19.379  23.450  1.00  0.00     0.008 C 
ATOM     10  C   UNL A   1      33.351  19.491  24.764  1.00  0.00     0.079 C 
BRANCH   7  11
ATOM     11  C   UNL A   1      32.933  23.153  23.653  1.00  0.00     0.022 C 
BRANCH  11  12
ATOM     12  C   UNL A   1      34.125  24.079  24.035  1.00  0.00     0.079 C 
BRANCH  12  13
ATOM     13  S   UNL A   1      33.685  25.509  25.093  1.00  0.00    -0.085 SA
BRANCH  13  14
ATOM     14  C   UNL A   1      32.302  25.001  26.008  1.00  0.00     0.209 A 
ATOM     15  C   UNL A   1      30.296  26.152  24.860  1.00  0.00     0.179 C 
ATOM     16  N   UNL A   1      30.975  25.238  25.732  1.00  0.00    -0.224 N 
ATOM     17  N   UNL A   1      30.214  24.448  26.513  1.00  0.00    -0.045 NA
ATOM     18  N   UNL A   1      31.065  23.749  27.246  1.00  0.00    -0.023 NA
ATOM     19  N   UNL A   1      32.361  24.094  26.957  1.00  0.00    -0.102 NA
ENDBRANCH  13  14
ENDBRANCH  12  13
ENDBRANCH  11  12
ENDBRANCH   7  11
BRANCH   6  20
ATOM     20  N   UNL A   1      32.166  21.268  26.002  1.00  0.00    -0.345 N 
ATOM     21  H   UNL A   1      32.367  21.071  26.983  1.00  0.00     0.345 HD
ATOM     22  H   UNL A   1      31.402  20.672  25.686  1.00  0.00     0.345 HD
ATOM     23  H   UNL A   1      31.899  22.247  25.901  1.00  0.00     0.345 HD
ENDBRANCH   6  20
ENDBRANCH   3   6
ENDBRANCH   1   2
BRANCH   1  24
ATOM     24  C   UNL A   1      37.727  19.644  24.982  1.00  0.00     0.042 C 
BRANCH  24  25
ATOM     25  C   UNL A   1      38.941  20.184  25.731  1.00  0.00     0.118 C 
BRANCH  25  26
ATOM     26  N   UNL A   1      40.018  19.202  25.854  1.00  0.00    -0.352 N 
ATOM     27  C   UNL A   1      41.369  19.347  26.068  1.00  0.00     0.251 C 
ATOM     28  H   UNL A   1      39.722  18.266  25.770  1.00  0.00     0.163 HD
ATOM     29  O   UNL A   1      42.101  18.355  25.980  1.00  0.00    -0.269 OA
BRANCH  27  30
ATOM     30  C   UNL A   1      41.976  20.659  26.379  1.00  0.00     0.039 A 
ATOM     31  C   UNL A   1      42.276  21.547  25.338  1.00  0.00     0.014 A 
ATOM     32  C   UNL A   1      42.291  21.017  27.688  1.00  0.00     0.014 A 
ATOM     33  C   UNL A   1      42.805  22.812  25.624  1.00  0.00     0.010 A 
ATOM     34  C   UNL A   1      42.684  22.317  27.982  1.00  0.00     0.010 A 
ATOM     35  C   UNL A   1      42.968  23.228  26.955  1.00  0.00    -0.014 A 
BRANCH  35  36
ATOM     36  C   UNL A   1      43.467  24.584  27.310  1.00  0.00     0.031 A 
ATOM     37  C   UNL A   1      42.520  25.604  27.893  1.00  0.00     0.074 A 
ATOM     38  C   UNL A   1      44.738  24.935  27.027  1.00  0.00     0.049 A 
ATOM     39  N   UNL A   1      42.712  26.877  28.135  1.00  0.00    -0.248 NA
ATOM     40  C   UNL A   1      41.155  25.142  28.194  1.00  0.00     0.031 C 
ATOM     41  C   UNL A   1      45.740  24.064  26.409  1.00  0.00     0.029 A 
ATOM     42  N   UNL A   1      45.401  26.123  27.207  1.00  0.00    -0.354 N 
ATOM     43  C   UNL A   1      41.489  27.365  28.580  1.00  0.00     0.074 A 
ATOM     44  C   UNL A   1      40.544  26.275  28.504  1.00  0.00     0.031 C 
ATOM     45  C   UNL A   1      46.897  24.735  26.295  1.00  0.00     0.029 A 
ATOM     46  C   UNL A   1      46.709  26.097  26.784  1.00  0.00     0.049 A 
ATOM     47  H   UNL A   1      44.979  26.920  27.603  1.00  0.00     0.167 HD
ATOM     48  C   UNL A   1      41.186  28.601  29.045  1.00  0.00     0.037 A 
ATOM     49  C   UNL A   1      47.647  27.062  26.786  1.00  0.00     0.037 A 
ATOM     50  C   UNL A   1      42.144  29.668  29.172  1.00  0.00     0.049 A 
ATOM     51  C   UNL A   1      47.294  28.423  27.326  1.00  0.00     0.074 A 
ATOM     52  C   UNL A   1      41.963  30.932  29.702  1.00  0.00     0.029 A 
ATOM     53  N   UNL A   1      43.469  29.586  28.769  1.00  0.00    -0.354 N 
ATOM     54  N   UNL A   1      46.151  28.853  27.806  1.00  0.00    -0.248 NA
ATOM     55  C   UNL A   1      48.362  29.432  27.331  1.00  0.00     0.031 C 
ATOM     56  C   UNL A   1      43.167  31.633  29.575  1.00  0.00     0.029 A 
ATOM     57  C   UNL A   1      44.113  30.787  29.019  1.00  0.00     0.049 A 
ATOM     58  H   UNL A   1      43.890  28.793  28.365  1.00  0.00     0.167 HD
ATOM     59  C   UNL A   1      46.371  30.167  28.196  1.00  0.00     0.074 A 
ATOM     60  C   UNL A   1      47.761  30.458  27.912  1.00  0.00     0.031 C 
ATOM     61  C   UNL A   1      45.501  31.054  28.739  1.00  0.00     0.037 A 
BRANCH  48  62
ATOM     62  C   UNL A   1      39.766  28.861  29.465  1.00  0.00     0.064 A 
ATOM     63  C   UNL A   1      38.811  29.370  28.571  1.00  0.00     0.173 A 
ATOM     64  C   UNL A   1      39.346  28.574  30.773  1.00  0.00     0.173 A 
ATOM     65  F   UNL A   1      39.160  29.673  27.311  1.00  0.00    -0.203 F 
ATOM     66  C   UNL A   1      37.505  29.622  28.980  1.00  0.00     0.198 A 
ATOM     67  C   UNL A   1      38.029  28.791  31.169  1.00  0.00     0.198 A 
ATOM     68  F   UNL A   1      40.214  28.079  31.670  1.00  0.00    -0.203 F 
ATOM     69  F   UNL A   1      36.630  30.169  28.125  1.00  0.00    -0.200 F 
ATOM     70  C   UNL A   1      37.112  29.325  30.277  1.00  0.00     0.200 A 
ATOM     71  F   UNL A   1      37.648  28.490  32.419  1.00  0.00    -0.200 F 
ATOM     72  F   UNL A   1      35.853  29.562  30.668  1.00  0.00    -0.200 F 
ENDBRANCH  48  62
BRANCH  49  73
ATOM     73  C   UNL A   1      49.019  26.771  26.291  1.00  0.00     0.064 A 
ATOM     74  C   UNL A   1      49.374  27.034  24.960  1.00  0.00     0.173 A 
ATOM     75  C   UNL A   1      50.003  26.227  27.130  1.00  0.00     0.173 A 
ATOM     76  F   UNL A   1      48.464  27.537  24.113  1.00  0.00    -0.203 F 
ATOM     77  C   UNL A   1      50.650  26.741  24.482  1.00  0.00     0.198 A 
ATOM     78  C   UNL A   1      51.288  25.964  26.659  1.00  0.00     0.198 A 
ATOM     79  F   UNL A   1      49.719  25.963  28.414  1.00  0.00    -0.203 F 
ATOM     80  F   UNL A   1      50.945  26.957  23.192  1.00  0.00    -0.200 F 
ATOM     81  C   UNL A   1      51.607  26.213  25.333  1.00  0.00     0.200 A 
ATOM     82  F   UNL A   1      52.215  25.468  27.490  1.00  0.00    -0.200 F 
ATOM     83  F   UNL A   1      52.836  25.936  24.874  1.00  0.00    -0.200 F 
ENDBRANCH  49  73
BRANCH  61  84
ATOM     84  C   UNL A   1      46.034  32.411  29.097  1.00  0.00     0.064 A 
ATOM     85  C   UNL A   1      45.979  33.486  28.197  1.00  0.00     0.173 A 
ATOM     86  C   UNL A   1      46.569  32.648  30.373  1.00  0.00     0.173 A 
ATOM     87  F   UNL A   1      45.490  33.308  26.961  1.00  0.00    -0.203 F 
ATOM     88  C   UNL A   1      46.464  34.741  28.553  1.00  0.00     0.198 A 
ATOM     89  C   UNL A   1      47.022  33.912  30.737  1.00  0.00     0.198 A 
ATOM     90  F   UNL A   1      46.636  31.655  31.272  1.00  0.00    -0.203 F 
ATOM     91  F   UNL A   1      46.448  35.741  27.661  1.00  0.00    -0.200 F 
ATOM     92  C   UNL A   1      46.977  34.956  29.824  1.00  0.00     0.200 A 
ATOM     93  F   UNL A   1      47.501  34.121  31.970  1.00  0.00    -0.200 F 
ATOM     94  F   UNL A   1      47.435  36.167  30.168  1.00  0.00    -0.200 F 
ENDBRANCH  61  84
ENDBRANCH  35  36
ENDBRANCH  27  30
ENDBRANCH  25  26
ENDBRANCH  24  25
ENDBRANCH   1  24
TORSDOF 15
ENDMDL
MODEL 2
REMARK VINA RESULT:     -11.5      6.196     11.407
REMARK SMILES Cn1nnnc1SCC[C@@H]1CCC[C@@]1([NH3+])C(=O)NCCCNC(=O)c1ccc(-c2c3nc(c(-c4c(F)c(F)c(F)c(F)c4F)c4ccc([nH]4)c(-c4c(F)c(F)c(F)c(F)c4F)c4nc(c(-c5c(F)c(F)c(F)c(F)c5F)c5ccc2[nH]5)C=C4)C=C3)cc1
REMARK SMILES IDX 19 1 18 2 16 3 17 4 14 6 10 7 11 8 12 9 13 10 9 11 8 12 7 13
REMARK SMILES IDX 6 14 1 15 2 16 3 17 4 18 5 19 15 20 20 24 21 25 22 26 23 27
REMARK SMILES IDX 24 29 25 30 26 31 87 32 27 33 86 34 28 35 29 36 30 37 80 38
REMARK SMILES IDX 31 39 85 40 79 41 81 42 32 43 84 44 78 45 77 46 33 48 65 49
REMARK SMILES IDX 45 50 64 51 46 52 49 53 63 54 82 55 47 56 48 57 62 59 83 60
REMARK SMILES IDX 50 61 34 62 35 63 43 64 36 65 37 66 41 67 44 68 38 69 39 70
REMARK SMILES IDX 42 71 40 72 66 73 67 74 75 75 68 76 69 77 73 78 76 79 70 80
REMARK SMILES IDX 71 81 74 82 72 83 51 84 52 85 60 86 53 87 54 88 58 89 61 90
REMARK SMILES IDX 55 91 56 92 59 93 57 94
REMARK H PARENT 18 5 15 21 15 22 15 23 22 28 81 47 49 58
REMARK Flexibility Score: inf
ROOT
ATOM      1  C   UNL A   1      31.397  30.815  26.138  1.00  0.00     0.118 C 
ENDROOT
BRANCH   1   2
ATOM      2  N   UNL A   1      32.679  30.233  26.480  1.00  0.00    -0.351 N 
ATOM      3  C   UNL A   1      33.334  29.095  26.152  1.00  0.00     0.281 C 
ATOM      4  O   UNL A   1      34.527  29.088  26.503  1.00  0.00    -0.268 OA
ATOM      5  H   UNL A   1      33.196  30.800  27.097  1.00  0.00     0.163 HD
BRANCH   3   6
ATOM      6  C   UNL A   1      32.759  27.796  25.479  1.00  0.00     0.176 C 
ATOM      7  C   UNL A   1      32.031  27.761  24.127  1.00  0.00     0.061 C 
ATOM      8  C   UNL A   1      32.154  26.285  23.695  1.00  0.00     0.011 C 
ATOM      9  C   UNL A   1      33.597  25.945  24.013  1.00  0.00     0.008 C 
ATOM     10  C   UNL A   1      34.000  26.906  25.136  1.00  0.00     0.079 C 
BRANCH   7  11
ATOM     11  C   UNL A   1      30.588  28.261  23.976  1.00  0.00     0.022 C 
BRANCH  11  12
ATOM     12  C   UNL A   1      30.372  29.187  22.743  1.00  0.00     0.079 C 
BRANCH  12  13
ATOM     13  S   UNL A   1      28.627  29.642  22.415  1.00  0.00    -0.085 SA
BRANCH  13  14
ATOM     14  C   UNL A   1      28.598  31.377  22.390  1.00  0.00     0.209 A 
ATOM     15  C   UNL A   1      27.836  31.988  20.001  1.00  0.00     0.179 C 
ATOM     16  N   UNL A   1      28.141  32.199  21.386  1.00  0.00    -0.224 N 
ATOM     17  N   UNL A   1      28.028  33.454  21.860  1.00  0.00    -0.045 NA
ATOM     18  N   UNL A   1      28.409  33.390  23.126  1.00  0.00    -0.023 NA
ATOM     19  N   UNL A   1      28.781  32.114  23.463  1.00  0.00    -0.102 NA
ENDBRANCH  13  14
ENDBRANCH  12  13
ENDBRANCH  11  12
ENDBRANCH   7  11
BRANCH   6  20
ATOM     20  N   UNL A   1      31.957  27.094  26.511  1.00  0.00    -0.345 N 
ATOM     21  H   UNL A   1      30.969  27.141  26.263  1.00  0.00     0.345 HD
ATOM     22  H   UNL A   1      32.103  27.540  27.416  1.00  0.00     0.345 HD
ATOM     23  H   UNL A   1      32.249  26.118  26.561  1.00  0.00     0.345 HD
ENDBRANCH   6  20
ENDBRANCH   3   6
ENDBRANCH   1   2
BRANCH   1  24
ATOM     24  C   UNL A   1      31.313  32.308  26.439  1.00  0.00     0.042 C 
BRANCH  24  25
ATOM     25  C   UNL A   1      32.499  32.818  27.252  1.00  0.00     0.118 C 
BRANCH  25  26
ATOM     26  N   UNL A   1      32.355  34.217  27.653  1.00  0.00    -0.352 N 
ATOM     27  C   UNL A   1      32.989  34.962  28.620  1.00  0.00     0.251 C 
ATOM     28  H   UNL A   1      31.683  34.718  27.136  1.00  0.00     0.163 HD
ATOM     29  O   UNL A   1      32.577  36.100  28.870  1.00  0.00    -0.269 OA
BRANCH  27  30
ATOM     30  C   UNL A   1      34.138  34.433  29.388  1.00  0.00     0.039 A 
ATOM     31  C   UNL A   1      33.920  33.832  30.634  1.00  0.00     0.014 A 
ATOM     32  C   UNL A   1      35.441  34.552  28.911  1.00  0.00     0.014 A 
ATOM     33  C   UNL A   1      34.994  33.284  31.347  1.00  0.00     0.010 A 
ATOM     34  C   UNL A   1      36.483  33.889  29.549  1.00  0.00     0.010 A 
ATOM     35  C   UNL A   1      36.280  33.264  30.786  1.00  0.00    -0.014 A 
BRANCH  35  36
ATOM     36  C   UNL A   1      37.441  32.637  31.477  1.00  0.00     0.031 A 
ATOM     37  C   UNL A   1      38.178  31.496  30.821  1.00  0.00     0.074 A 
ATOM     38  C   UNL A   1      37.775  33.022  32.725  1.00  0.00     0.049 A 
ATOM     39  N   UNL A   1      39.115  30.720  31.307  1.00  0.00    -0.248 NA
ATOM     40  C   UNL A   1      37.769  31.146  29.450  1.00  0.00     0.031 C 
ATOM     41  C   UNL A   1      37.107  34.072  33.496  1.00  0.00     0.029 A 
ATOM     42  N   UNL A   1      38.754  32.564  33.572  1.00  0.00    -0.354 N 
ATOM     43  C   UNL A   1      39.375  29.778  30.318  1.00  0.00     0.074 A 
ATOM     44  C   UNL A   1      38.450  30.030  29.237  1.00  0.00     0.031 C 
ATOM     45  C   UNL A   1      37.717  34.201  34.686  1.00  0.00     0.029 A 
ATOM     46  C   UNL A   1      38.786  33.213  34.783  1.00  0.00     0.049 A 
ATOM     47  H   UNL A   1      39.376  31.838  33.334  1.00  0.00     0.167 HD
ATOM     48  C   UNL A   1      40.324  28.811  30.296  1.00  0.00     0.037 A 
ATOM     49  C   UNL A   1      39.582  33.027  35.853  1.00  0.00     0.037 A 
ATOM     50  C   UNL A   1      41.280  28.600  31.350  1.00  0.00     0.049 A 
ATOM     51  C   UNL A   1      40.643  31.960  35.797  1.00  0.00     0.074 A 
ATOM     52  C   UNL A   1      42.330  27.702  31.396  1.00  0.00     0.029 A 
ATOM     53  N   UNL A   1      41.302  29.306  32.544  1.00  0.00    -0.354 N 
ATOM     54  N   UNL A   1      40.923  31.120  34.830  1.00  0.00    -0.248 NA
ATOM     55  C   UNL A   1      41.503  31.819  36.980  1.00  0.00     0.031 C 
ATOM     56  C   UNL A   1      42.960  27.831  32.638  1.00  0.00     0.029 A 
ATOM     57  C   UNL A   1      42.337  28.848  33.344  1.00  0.00     0.049 A 
ATOM     58  H   UNL A   1      40.676  30.025  32.788  1.00  0.00     0.167 HD
ATOM     59  C   UNL A   1      42.006  30.374  35.274  1.00  0.00     0.074 A 
ATOM     60  C   UNL A   1      42.344  30.872  36.591  1.00  0.00     0.031 C 
ATOM     61  C   UNL A   1      42.663  29.366  34.648  1.00  0.00     0.037 A 
BRANCH  48  62
ATOM     62  C   UNL A   1      40.384  27.921  29.086  1.00  0.00     0.064 A 
ATOM     63  C   UNL A   1      41.169  28.243  27.967  1.00  0.00     0.173 A 
ATOM     64  C   UNL A   1      39.665  26.716  29.052  1.00  0.00     0.173 A 
ATOM     65  F   UNL A   1      41.868  29.388  27.941  1.00  0.00    -0.203 F 
ATOM     66  C   UNL A   1      41.199  27.416  26.848  1.00  0.00     0.198 A 
ATOM     67  C   UNL A   1      39.727  25.872  27.945  1.00  0.00     0.198 A 
ATOM     68  F   UNL A   1      38.902  26.352  30.095  1.00  0.00    -0.203 F 
ATOM     69  F   UNL A   1      41.905  27.779  25.768  1.00  0.00    -0.200 F 
ATOM     70  C   UNL A   1      40.485  26.228  26.840  1.00  0.00     0.200 A 
ATOM     71  F   UNL A   1      39.047  24.717  27.946  1.00  0.00    -0.200 F 
ATOM     72  F   UNL A   1      40.519  25.431  25.764  1.00  0.00    -0.200 F 
ENDBRANCH  48  62
BRANCH  49  73
ATOM     73  C   UNL A   1      39.432  33.891  37.054  1.00  0.00     0.064 A 
ATOM     74  C   UNL A   1      38.697  33.454  38.166  1.00  0.00     0.173 A 
ATOM     75  C   UNL A   1      40.015  35.166  37.120  1.00  0.00     0.173 A 
ATOM     76  F   UNL A   1      38.105  32.252  38.145  1.00  0.00    -0.203 F 
ATOM     77  C   UNL A   1      38.532  34.268  39.286  1.00  0.00     0.198 A 
ATOM     78  C   UNL A   1      39.875  35.965  38.253  1.00  0.00     0.198 A 
ATOM     79  F   UNL A   1      40.734  35.629  36.088  1.00  0.00    -0.203 F 
ATOM     80  F   UNL A   1      37.782  33.843  40.313  1.00  0.00    -0.200 F 
ATOM     81  C   UNL A   1      39.125  35.519  39.332  1.00  0.00     0.200 A 
ATOM     82  F   UNL A   1      40.464  37.168  38.300  1.00  0.00    -0.200 F 
ATOM     83  F   UNL A   1      38.970  36.298  40.410  1.00  0.00    -0.200 F 
ENDBRANCH  49  73
BRANCH  61  84
ATOM     84  C   UNL A   1      43.835  28.759  35.364  1.00  0.00     0.064 A 
ATOM     85  C   UNL A   1      45.143  29.228  35.168  1.00  0.00     0.173 A 
ATOM     86  C   UNL A   1      43.640  27.721  36.289  1.00  0.00     0.173 A 
ATOM     87  F   UNL A   1      45.383  30.208  34.284  1.00  0.00    -0.203 F 
ATOM     88  C   UNL A   1      46.215  28.662  35.852  1.00  0.00     0.198 A 
ATOM     89  C   UNL A   1      44.709  27.182  36.996  1.00  0.00     0.198 A 
ATOM     90  F   UNL A   1      42.408  27.243  36.518  1.00  0.00    -0.203 F 
ATOM     91  F   UNL A   1      47.461  29.092  35.613  1.00  0.00    -0.200 F 
ATOM     92  C   UNL A   1      45.997  27.647  36.772  1.00  0.00     0.200 A 
ATOM     93  F   UNL A   1      44.495  26.212  37.896  1.00  0.00    -0.200 F 
ATOM     94  F   UNL A   1      47.029  27.110  37.437  1.00  0.00    -0.200 F 
ENDBRANCH  61  84
ENDBRANCH  35  36
ENDBRANCH  27  30
ENDBRANCH  25  26
ENDBRANCH  24  25
ENDBRANCH   1  24
TORSDOF 15
ENDMDL
MODEL 3
REMARK VINA RESULT:     -11.5      6.111     11.331
REMARK SMILES Cn1nnnc1SCC[C@@H]1CCC[C@@]1([NH3+])C(=O)NCCCNC(=O)c1ccc(-c2c3nc(c(-c4c(F)c(F)c(F)c(F)c4F)c4ccc([nH]4)c(-c4c(F)c(F)c(F)c(F)c4F)c4nc(c(-c5c(F)c(F)c(F)c(F)c5F)c5ccc2[nH]5)C=C4)C=C3)cc1
REMARK SMILES IDX 19 1 18 2 16 3 17 4 14 6 10 7 11 8 12 9 13 10 9 11 8 12 7 13
REMARK SMILES IDX 6 14 1 15 2 16 3 17 4 18 5 19 15 20 20 24 21 25 22 26 23 27
REMARK SMILES IDX 24 29 25 30 26 31 87 32 27 33 86 34 28 35 29 36 30 37 80 38
REMARK SMILES IDX 31 39 85 40 79 41 81 42 32 43 84 44 78 45 77 46 33 48 65 49
REMARK SMILES IDX 45 50 64 51 46 52 49 53 63 54 82 55 47 56 48 57 62 59 83 60
REMARK SMILES IDX 50 61 34 62 35 63 43 64 36 65 37 66 41 67 44 68 38 69 39 70
REMARK SMILES IDX 42 71 40 72 66 73 67 74 75 75 68 76 69 77 73 78 76 79 70 80
REMARK SMILES IDX 71 81 74 82 72 83 51 84 52 85 60 86 53 87 54 88 58 89 61 90
REMARK SMILES IDX 55 91 56 92 59 93 57 94
REMARK H PARENT 18 5 15 21 15 22 15 23 22 28 81 47 49 58
REMARK Flexibility Score: inf
ROOT
ATOM      1  C   UNL A   1      31.811  30.757  26.209  1.00  0.00     0.118 C 
ENDROOT
BRANCH   1   2
ATOM      2  N   UNL A   1      31.478  29.645  27.076  1.00  0.00    -0.351 N 
ATOM      3  C   UNL A   1      31.625  28.301  27.012  1.00  0.00     0.281 C 
ATOM      4  O   UNL A   1      31.394  27.722  28.087  1.00  0.00    -0.268 OA
ATOM      5  H   UNL A   1      31.043  29.936  27.910  1.00  0.00     0.163 HD
BRANCH   3   6
ATOM      6  C   UNL A   1      31.959  27.413  25.758  1.00  0.00     0.176 C 
ATOM      7  C   UNL A   1      31.371  27.628  24.354  1.00  0.00     0.061 C 
ATOM      8  C   UNL A   1      32.369  26.893  23.435  1.00  0.00     0.011 C 
ATOM      9  C   UNL A   1      33.720  27.311  23.979  1.00  0.00     0.008 C 
ATOM     10  C   UNL A   1      33.475  27.658  25.451  1.00  0.00     0.079 C 
BRANCH   7  11
ATOM     11  C   UNL A   1      29.925  27.240  24.020  1.00  0.00     0.022 C 
BRANCH  11  12
ATOM     12  C   UNL A   1      29.208  28.249  23.075  1.00  0.00     0.079 C 
BRANCH  12  13
ATOM     13  S   UNL A   1      29.827  29.971  23.168  1.00  0.00    -0.085 SA
BRANCH  13  14
ATOM     14  C   UNL A   1      28.757  30.903  22.170  1.00  0.00     0.209 A 
ATOM     15  C   UNL A   1      28.963  33.317  23.061  1.00  0.00     0.179 C 
ATOM     16  N   UNL A   1      28.593  32.268  22.155  1.00  0.00    -0.224 N 
ATOM     17  N   UNL A   1      27.891  32.616  21.060  1.00  0.00    -0.045 NA
ATOM     18  N   UNL A   1      27.635  31.483  20.428  1.00  0.00    -0.023 NA
ATOM     19  N   UNL A   1      28.151  30.411  21.112  1.00  0.00    -0.102 NA
ENDBRANCH  13  14
ENDBRANCH  12  13
ENDBRANCH  11  12
ENDBRANCH   7  11
BRANCH   6  20
ATOM     20  N   UNL A   1      31.793  26.000  26.172  1.00  0.00    -0.345 N 
ATOM     21  H   UNL A   1      32.711  25.580  26.323  1.00  0.00     0.345 HD
ATOM     22  H   UNL A   1      31.300  25.487  25.442  1.00  0.00     0.345 HD
ATOM     23  H   UNL A   1      31.255  25.960  27.038  1.00  0.00     0.345 HD
ENDBRANCH   6  20
ENDBRANCH   3   6
ENDBRANCH   1   2
BRANCH   1  24
ATOM     24  C   UNL A   1      31.514  32.117  26.832  1.00  0.00     0.042 C 
BRANCH  24  25
ATOM     25  C   UNL A   1      32.767  32.960  27.044  1.00  0.00     0.118 C 
BRANCH  25  26
ATOM     26  N   UNL A   1      32.477  34.280  27.606  1.00  0.00    -0.352 N 
ATOM     27  C   UNL A   1      33.000  34.948  28.689  1.00  0.00     0.251 C 
ATOM     28  H   UNL A   1      31.782  34.781  27.121  1.00  0.00     0.163 HD
ATOM     29  O   UNL A   1      32.473  36.005  29.054  1.00  0.00    -0.269 OA
BRANCH  27  30
ATOM     30  C   UNL A   1      34.161  34.429  29.444  1.00  0.00     0.039 A 
ATOM     31  C   UNL A   1      33.955  33.762  30.658  1.00  0.00     0.014 A 
ATOM     32  C   UNL A   1      35.463  34.621  28.988  1.00  0.00     0.014 A 
ATOM     33  C   UNL A   1      35.042  33.223  31.357  1.00  0.00     0.010 A 
ATOM     34  C   UNL A   1      36.523  33.970  29.606  1.00  0.00     0.010 A 
ATOM     35  C   UNL A   1      36.334  33.279  30.810  1.00  0.00    -0.014 A 
BRANCH  35  36
ATOM     36  C   UNL A   1      37.512  32.666  31.484  1.00  0.00     0.031 A 
ATOM     37  C   UNL A   1      38.249  31.529  30.820  1.00  0.00     0.074 A 
ATOM     38  C   UNL A   1      37.863  33.059  32.725  1.00  0.00     0.049 A 
ATOM     39  N   UNL A   1      39.201  30.765  31.294  1.00  0.00    -0.248 NA
ATOM     40  C   UNL A   1      37.821  31.170  29.458  1.00  0.00     0.031 C 
ATOM     41  C   UNL A   1      37.198  34.106  33.503  1.00  0.00     0.029 A 
ATOM     42  N   UNL A   1      38.860  32.614  33.558  1.00  0.00    -0.354 N 
ATOM     43  C   UNL A   1      39.454  29.821  30.304  1.00  0.00     0.074 A 
ATOM     44  C   UNL A   1      38.509  30.061  29.238  1.00  0.00     0.031 C 
ATOM     45  C   UNL A   1      37.826  34.246  34.682  1.00  0.00     0.029 A 
ATOM     46  C   UNL A   1      38.906  33.268  34.766  1.00  0.00     0.049 A 
ATOM     47  H   UNL A   1      39.485  31.893  33.311  1.00  0.00     0.167 HD
ATOM     48  C   UNL A   1      40.412  28.863  30.270  1.00  0.00     0.037 A 
ATOM     49  C   UNL A   1      39.721  33.094  35.822  1.00  0.00     0.037 A 
ATOM     50  C   UNL A   1      41.387  28.665  31.309  1.00  0.00     0.049 A 
ATOM     51  C   UNL A   1      40.792  32.037  35.753  1.00  0.00     0.074 A 
ATOM     52  C   UNL A   1      42.446  27.777  31.341  1.00  0.00     0.029 A 
ATOM     53  N   UNL A   1      41.422  29.376  32.500  1.00  0.00    -0.354 N 
ATOM     54  N   UNL A   1      41.063  31.195  34.784  1.00  0.00    -0.248 NA
ATOM     55  C   UNL A   1      41.672  31.909  36.922  1.00  0.00     0.031 C 
ATOM     56  C   UNL A   1      43.095  27.918  32.572  1.00  0.00     0.029 A 
ATOM     57  C   UNL A   1      42.474  28.931  33.284  1.00  0.00     0.049 A 
ATOM     58  H   UNL A   1      40.793  30.091  32.751  1.00  0.00     0.167 HD
ATOM     59  C   UNL A   1      42.161  30.462  35.213  1.00  0.00     0.074 A 
ATOM     60  C   UNL A   1      42.515  30.969  36.523  1.00  0.00     0.031 C 
ATOM     61  C   UNL A   1      42.817  29.457  34.581  1.00  0.00     0.037 A 
BRANCH  48  62
ATOM     62  C   UNL A   1      40.460  27.968  29.062  1.00  0.00     0.064 A 
ATOM     63  C   UNL A   1      41.266  28.265  27.953  1.00  0.00     0.173 A 
ATOM     64  C   UNL A   1      39.707  26.785  29.022  1.00  0.00     0.173 A 
ATOM     65  F   UNL A   1      41.998  29.390  27.931  1.00  0.00    -0.203 F 
ATOM     66  C   UNL A   1      41.286  27.436  26.835  1.00  0.00     0.198 A 
ATOM     67  C   UNL A   1      39.758  25.937  27.918  1.00  0.00     0.198 A 
ATOM     68  F   UNL A   1      38.923  26.445  30.058  1.00  0.00    -0.203 F 
ATOM     69  F   UNL A   1      42.015  27.776  25.762  1.00  0.00    -0.200 F 
ATOM     70  C   UNL A   1      40.538  26.268  26.821  1.00  0.00     0.200 A 
ATOM     71  F   UNL A   1      39.046  24.801  27.914  1.00  0.00    -0.200 F 
ATOM     72  F   UNL A   1      40.563  25.468  25.748  1.00  0.00    -0.200 F 
ENDBRANCH  48  62
BRANCH  49  73
ATOM     73  C   UNL A   1      39.583  33.962  37.023  1.00  0.00     0.064 A 
ATOM     74  C   UNL A   1      40.211  35.215  37.079  1.00  0.00     0.173 A 
ATOM     75  C   UNL A   1      38.828  33.563  38.135  1.00  0.00     0.173 A 
ATOM     76  F   UNL A   1      40.961  35.634  36.050  1.00  0.00    -0.203 F 
ATOM     77  C   UNL A   1      40.108  36.023  38.210  1.00  0.00     0.198 A 
ATOM     78  C   UNL A   1      38.699  34.385  39.253  1.00  0.00     0.198 A 
ATOM     79  F   UNL A   1      38.201  32.377  38.130  1.00  0.00    -0.203 F 
ATOM     80  F   UNL A   1      40.760  37.193  38.256  1.00  0.00    -0.200 F 
ATOM     81  C   UNL A   1      39.347  35.611  39.293  1.00  0.00     0.200 A 
ATOM     82  F   UNL A   1      37.949  33.990  40.291  1.00  0.00    -0.200 F 
ATOM     83  F   UNL A   1      39.244  36.390  40.378  1.00  0.00    -0.200 F 
ENDBRANCH  49  73
BRANCH  61  84
ATOM     84  C   UNL A   1      44.007  28.864  35.279  1.00  0.00     0.064 A 
ATOM     85  C   UNL A   1      43.879  27.785  36.166  1.00  0.00     0.173 A 
ATOM     86  C   UNL A   1      45.296  29.357  35.023  1.00  0.00     0.173 A 
ATOM     87  F   UNL A   1      42.668  27.288  36.455  1.00  0.00    -0.203 F 
ATOM     88  C   UNL A   1      44.996  27.239  36.792  1.00  0.00     0.198 A 
ATOM     89  C   UNL A   1      46.413  28.787  35.624  1.00  0.00     0.198 A 
ATOM     90  F   UNL A   1      45.472  30.382  34.176  1.00  0.00    -0.203 F 
ATOM     91  F   UNL A   1      44.847  26.242  37.674  1.00  0.00    -0.200 F 
ATOM     92  C   UNL A   1      46.262  27.734  36.514  1.00  0.00     0.200 A 
ATOM     93  F   UNL A   1      47.637  29.255  35.342  1.00  0.00    -0.200 F 
ATOM     94  F   UNL A   1      47.337  27.200  37.110  1.00  0.00    -0.200 F 
ENDBRANCH  61  84
ENDBRANCH  35  36
ENDBRANCH  27  30
ENDBRANCH  25  26
ENDBRANCH  24  25
ENDBRANCH   1  24
TORSDOF 15
ENDMDL
