MODEL 1
REMARK VINA RESULT:     -13.2      0.000      0.000
REMARK SMILES CC1(C)CC[N@H+](CCC(=O)NCCCNC(=O)c2ccc(-c3c4nc(c(-c5c(F)c(F)c(F)c(F)c5F)c5ccc([nH]5)c(-c5c(F)c(F)c(F)c(F)c5F)c5nc(c(-c6c(F)c(F)c(F)c(F)c6F)c6ccc3[nH]6)C=C5)C=C4)cc2)C1
REMARK SMILES IDX 13 1 12 2 11 3 9 4 10 5 8 7 7 8 6 9 1 10 2 11 3 12 4 13
REMARK SMILES IDX 81 14 5 15 14 17 15 18 16 19 17 21 18 22 19 23 80 24 20 25
REMARK SMILES IDX 79 26 21 27 22 28 23 29 73 30 24 31 78 32 72 33 74 34 25 35
REMARK SMILES IDX 77 36 71 37 70 38 26 40 58 41 38 42 57 43 39 44 42 45 56 46
REMARK SMILES IDX 75 47 40 48 41 49 55 51 76 52 43 53 27 54 28 55 36 56 29 57
REMARK SMILES IDX 30 58 34 59 37 60 31 61 32 62 35 63 33 64 59 65 60 66 68 67
REMARK SMILES IDX 61 68 62 69 66 70 69 71 63 72 64 73 67 74 65 75 44 76 45 77
REMARK SMILES IDX 53 78 46 79 47 80 51 81 54 82 48 83 49 84 52 85 50 86
REMARK H PARENT 11 6 6 16 15 20 74 39 42 50
REMARK Flexibility Score: inf
ROOT
ATOM      1  C   UNL A   1      31.663  31.405  26.570  1.00  0.00     0.042 C 
ENDROOT
BRANCH   1   2
ATOM      2  C   UNL A   1      31.614  29.696  25.202  1.00  0.00     0.117 C 
BRANCH   2   3
ATOM      3  N   UNL A   1      31.139  29.537  23.722  1.00  0.00    -0.356 N 
ATOM      4  C   UNL A   1      30.622  28.395  23.178  1.00  0.00     0.225 C 
ATOM      5  O   UNL A   1      30.278  28.367  22.001  1.00  0.00    -0.275 OA
ATOM      6  H   UNL A   1      31.220  30.323  23.134  1.00  0.00     0.163 HD
BRANCH   4   7
ATOM      7  C   UNL A   1      30.462  27.236  24.120  1.00  0.00     0.161 C 
BRANCH   7   8
ATOM      8  C   UNL A   1      31.091  25.937  23.616  1.00  0.00     0.272 C 
BRANCH   8   9
ATOM      9  N   UNL A   1      32.545  25.720  23.646  1.00  0.00    -0.334 N 
ATOM     10  C   UNL A   1      35.885  23.016  23.158  1.00  0.00     0.017 C 
ATOM     11  C   UNL A   1      34.549  23.237  24.035  1.00  0.00     0.019 C 
ATOM     12  C   UNL A   1      34.260  21.697  24.308  1.00  0.00     0.017 C 
ATOM     13  C   UNL A   1      34.545  24.366  25.748  1.00  0.00     0.073 C 
ATOM     14  C   UNL A   1      33.204  24.124  22.818  1.00  0.00     0.268 C 
ATOM     15  C   UNL A   1      33.369  25.983  25.368  1.00  0.00     0.263 C 
ATOM     16  H   UNL A   1      32.845  26.480  23.034  1.00  0.00     0.348 HD
ENDBRANCH   8   9
ENDBRANCH   7   8
ENDBRANCH   4   7
ENDBRANCH   2   3
ENDBRANCH   1   2
BRANCH   1  17
ATOM     17  C   UNL A   1      32.888  32.515  27.138  1.00  0.00     0.118 C 
BRANCH  17  18
ATOM     18  N   UNL A   1      32.506  33.835  27.678  1.00  0.00    -0.352 N 
ATOM     19  C   UNL A   1      33.124  34.691  28.537  1.00  0.00     0.251 C 
ATOM     20  H   UNL A   1      31.634  34.159  27.356  1.00  0.00     0.163 HD
ATOM     21  O   UNL A   1      32.648  35.800  28.751  1.00  0.00    -0.269 OA
BRANCH  19  22
ATOM     22  C   UNL A   1      34.283  34.227  29.288  1.00  0.00     0.039 A 
ATOM     23  C   UNL A   1      34.029  33.389  30.375  1.00  0.00     0.014 A 
ATOM     24  C   UNL A   1      35.581  34.531  28.878  1.00  0.00     0.014 A 
ATOM     25  C   UNL A   1      35.093  32.781  31.018  1.00  0.00     0.010 A 
ATOM     26  C   UNL A   1      36.638  33.867  29.474  1.00  0.00     0.010 A 
ATOM     27  C   UNL A   1      36.394  32.983  30.537  1.00  0.00    -0.014 A 
BRANCH  27  28
ATOM     28  C   UNL A   1      37.519  32.250  31.139  1.00  0.00     0.031 A 
ATOM     29  C   UNL A   1      37.969  32.607  32.517  1.00  0.00     0.074 A 
ATOM     30  C   UNL A   1      38.132  31.305  30.408  1.00  0.00     0.049 A 
ATOM     31  N   UNL A   1      38.953  32.108  33.216  1.00  0.00    -0.248 NA
ATOM     32  C   UNL A   1      37.234  33.689  33.193  1.00  0.00     0.031 C 
ATOM     33  C   UNL A   1      37.772  30.929  29.037  1.00  0.00     0.029 A 
ATOM     34  N   UNL A   1      39.186  30.486  30.710  1.00  0.00    -0.354 N 
ATOM     35  C   UNL A   1      38.960  32.821  34.406  1.00  0.00     0.074 A 
ATOM     36  C   UNL A   1      37.926  33.826  34.313  1.00  0.00     0.031 C 
ATOM     37  C   UNL A   1      38.570  29.930  28.631  1.00  0.00     0.029 A 
ATOM     38  C   UNL A   1      39.521  29.627  29.692  1.00  0.00     0.049 A 
ATOM     39  H   UNL A   1      39.658  30.511  31.573  1.00  0.00     0.167 HD
ATOM     40  C   UNL A   1      39.752  32.627  35.485  1.00  0.00     0.037 A 
ATOM     41  C   UNL A   1      40.497  28.703  29.636  1.00  0.00     0.037 A 
ATOM     42  C   UNL A   1      40.767  31.609  35.548  1.00  0.00     0.049 A 
ATOM     43  C   UNL A   1      41.376  28.527  30.844  1.00  0.00     0.074 A 
ATOM     44  C   UNL A   1      41.600  31.285  36.600  1.00  0.00     0.029 A 
ATOM     45  N   UNL A   1      41.086  30.754  34.500  1.00  0.00    -0.354 N 
ATOM     46  N   UNL A   1      41.334  29.153  31.996  1.00  0.00    -0.248 NA
ATOM     47  C   UNL A   1      42.433  27.514  30.748  1.00  0.00     0.031 C 
ATOM     48  C   UNL A   1      42.464  30.272  36.170  1.00  0.00     0.029 A 
ATOM     49  C   UNL A   1      42.128  29.921  34.871  1.00  0.00     0.049 A 
ATOM     50  H   UNL A   1      40.639  30.743  33.624  1.00  0.00     0.167 HD
ATOM     51  C   UNL A   1      42.339  28.594  32.773  1.00  0.00     0.074 A 
ATOM     52  C   UNL A   1      42.959  27.564  31.963  1.00  0.00     0.031 C 
ATOM     53  C   UNL A   1      42.716  28.901  34.039  1.00  0.00     0.037 A 
BRANCH  40  54
ATOM     54  C   UNL A   1      39.555  33.541  36.659  1.00  0.00     0.064 A 
ATOM     55  C   UNL A   1      38.734  33.188  37.744  1.00  0.00     0.173 A 
ATOM     56  C   UNL A   1      40.194  34.788  36.703  1.00  0.00     0.173 A 
ATOM     57  F   UNL A   1      38.084  32.014  37.745  1.00  0.00    -0.203 F 
ATOM     58  C   UNL A   1      38.532  34.064  38.807  1.00  0.00     0.198 A 
ATOM     59  C   UNL A   1      40.019  35.647  37.785  1.00  0.00     0.198 A 
ATOM     60  F   UNL A   1      40.988  35.178  35.695  1.00  0.00    -0.203 F 
ATOM     61  F   UNL A   1      37.694  33.730  39.798  1.00  0.00    -0.200 F 
ATOM     62  C   UNL A   1      39.180  35.289  38.831  1.00  0.00     0.200 A 
ATOM     63  F   UNL A   1      40.653  36.827  37.812  1.00  0.00    -0.200 F 
ATOM     64  F   UNL A   1      38.987  36.131  39.855  1.00  0.00    -0.200 F 
ENDBRANCH  40  54
BRANCH  41  65
ATOM     65  C   UNL A   1      40.667  27.868  28.419  1.00  0.00     0.064 A 
ATOM     66  C   UNL A   1      41.465  28.305  27.352  1.00  0.00     0.173 A 
ATOM     67  C   UNL A   1      40.046  26.616  28.296  1.00  0.00     0.173 A 
ATOM     68  F   UNL A   1      42.071  29.500  27.416  1.00  0.00    -0.203 F 
ATOM     69  C   UNL A   1      41.614  27.535  26.201  1.00  0.00     0.198 A 
ATOM     70  C   UNL A   1      40.222  25.833  27.158  1.00  0.00     0.198 A 
ATOM     71  F   UNL A   1      39.281  26.144  29.292  1.00  0.00    -0.203 F 
ATOM     72  F   UNL A   1      42.345  27.999  25.178  1.00  0.00    -0.200 F 
ATOM     73  C   UNL A   1      40.997  26.297  26.107  1.00  0.00     0.200 A 
ATOM     74  F   UNL A   1      39.639  24.629  27.078  1.00  0.00    -0.200 F 
ATOM     75  F   UNL A   1      41.145  25.555  25.001  1.00  0.00    -0.200 F 
ENDBRANCH  41  65
BRANCH  53  76
ATOM     76  C   UNL A   1      43.829  28.087  34.631  1.00  0.00     0.064 A 
ATOM     77  C   UNL A   1      45.163  28.514  34.578  1.00  0.00     0.173 A 
ATOM     78  C   UNL A   1      43.545  26.888  35.302  1.00  0.00     0.173 A 
ATOM     79  F   UNL A   1      45.486  29.646  33.933  1.00  0.00    -0.203 F 
ATOM     80  C   UNL A   1      46.178  27.755  35.152  1.00  0.00     0.198 A 
ATOM     81  C   UNL A   1      44.558  26.150  35.906  1.00  0.00     0.198 A 
ATOM     82  F   UNL A   1      42.284  26.441  35.387  1.00  0.00    -0.203 F 
ATOM     83  F   UNL A   1      47.453  28.154  35.045  1.00  0.00    -0.200 F 
ATOM     84  C   UNL A   1      45.873  26.580  35.824  1.00  0.00     0.200 A 
ATOM     85  F   UNL A   1      44.260  25.025  36.571  1.00  0.00    -0.200 F 
ATOM     86  F   UNL A   1      46.852  25.857  36.387  1.00  0.00    -0.200 F 
ENDBRANCH  53  76
ENDBRANCH  27  28
ENDBRANCH  19  22
ENDBRANCH  17  18
ENDBRANCH   1  17
TORSDOF 12
ENDMDL
MODEL 2
REMARK VINA RESULT:     -13.2      0.492      1.766
REMARK SMILES CC1(C)CC[N@H+](CCC(=O)NCCCNC(=O)c2ccc(-c3c4nc(c(-c5c(F)c(F)c(F)c(F)c5F)c5ccc([nH]5)c(-c5c(F)c(F)c(F)c(F)c5F)c5nc(c(-c6c(F)c(F)c(F)c(F)c6F)c6ccc3[nH]6)C=C5)C=C4)cc2)C1
REMARK SMILES IDX 13 1 12 2 11 3 9 4 10 5 8 7 7 8 6 9 1 10 2 11 3 12 4 13
REMARK SMILES IDX 81 14 5 15 14 17 15 18 16 19 17 21 18 22 19 23 80 24 20 25
REMARK SMILES IDX 79 26 21 27 22 28 23 29 73 30 24 31 78 32 72 33 74 34 25 35
REMARK SMILES IDX 77 36 71 37 70 38 26 40 58 41 38 42 57 43 39 44 42 45 56 46
REMARK SMILES IDX 75 47 40 48 41 49 55 51 76 52 43 53 27 54 28 55 36 56 29 57
REMARK SMILES IDX 30 58 34 59 37 60 31 61 32 62 35 63 33 64 59 65 60 66 68 67
REMARK SMILES IDX 61 68 62 69 66 70 69 71 63 72 64 73 67 74 65 75 44 76 45 77
REMARK SMILES IDX 53 78 46 79 47 80 51 81 54 82 48 83 49 84 52 85 50 86
REMARK H PARENT 11 6 6 16 15 20 74 39 42 50
REMARK Flexibility Score: inf
ROOT
ATOM      1  C   UNL A   1      31.543  31.585  26.502  1.00  0.00     0.042 C 
ENDROOT
BRANCH   1   2
ATOM      2  C   UNL A   1      31.536  29.829  25.194  1.00  0.00     0.117 C 
BRANCH   2   3
ATOM      3  N   UNL A   1      31.092  29.615  23.711  1.00  0.00    -0.356 N 
ATOM      4  C   UNL A   1      30.568  28.459  23.205  1.00  0.00     0.225 C 
ATOM      5  O   UNL A   1      30.251  28.387  22.022  1.00  0.00    -0.275 OA
ATOM      6  H   UNL A   1      31.200  30.374  23.092  1.00  0.00     0.163 HD
BRANCH   4   7
ATOM      7  C   UNL A   1      30.367  27.345  24.190  1.00  0.00     0.161 C 
BRANCH   7   8
ATOM      8  C   UNL A   1      31.312  26.160  23.987  1.00  0.00     0.272 C 
BRANCH   8   9
ATOM      9  N   UNL A   1      32.394  25.863  24.937  1.00  0.00    -0.334 N 
ATOM     10  C   UNL A   1      36.226  24.011  25.708  1.00  0.00     0.017 C 
ATOM     11  C   UNL A   1      34.719  23.665  25.248  1.00  0.00     0.019 C 
ATOM     12  C   UNL A   1      35.094  22.409  24.347  1.00  0.00     0.017 C 
ATOM     13  C   UNL A   1      33.233  23.260  26.604  1.00  0.00     0.073 C 
ATOM     14  C   UNL A   1      34.057  25.261  24.203  1.00  0.00     0.268 C 
ATOM     15  C   UNL A   1      31.877  24.769  26.438  1.00  0.00     0.263 C 
ATOM     16  H   UNL A   1      32.582  26.804  25.284  1.00  0.00     0.348 HD
ENDBRANCH   8   9
ENDBRANCH   7   8
ENDBRANCH   4   7
ENDBRANCH   2   3
ENDBRANCH   1   2
BRANCH   1  17
ATOM     17  C   UNL A   1      32.771  32.586  27.242  1.00  0.00     0.118 C 
BRANCH  17  18
ATOM     18  N   UNL A   1      32.433  33.934  27.742  1.00  0.00    -0.352 N 
ATOM     19  C   UNL A   1      33.097  34.812  28.542  1.00  0.00     0.251 C 
ATOM     20  H   UNL A   1      31.556  34.262  27.437  1.00  0.00     0.163 HD
ATOM     21  O   UNL A   1      32.649  35.938  28.727  1.00  0.00    -0.269 OA
BRANCH  19  22
ATOM     22  C   UNL A   1      34.274  34.355  29.269  1.00  0.00     0.039 A 
ATOM     23  C   UNL A   1      34.043  33.604  30.423  1.00  0.00     0.014 A 
ATOM     24  C   UNL A   1      35.561  34.580  28.780  1.00  0.00     0.014 A 
ATOM     25  C   UNL A   1      35.115  33.001  31.058  1.00  0.00     0.010 A 
ATOM     26  C   UNL A   1      36.621  33.918  29.372  1.00  0.00     0.010 A 
ATOM     27  C   UNL A   1      36.397  33.119  30.504  1.00  0.00    -0.014 A 
BRANCH  27  28
ATOM     28  C   UNL A   1      37.524  32.386  31.104  1.00  0.00     0.031 A 
ATOM     29  C   UNL A   1      37.988  32.753  32.474  1.00  0.00     0.074 A 
ATOM     30  C   UNL A   1      38.125  31.429  30.377  1.00  0.00     0.049 A 
ATOM     31  N   UNL A   1      38.975  32.257  33.169  1.00  0.00    -0.248 NA
ATOM     32  C   UNL A   1      37.264  33.847  33.145  1.00  0.00     0.031 C 
ATOM     33  C   UNL A   1      37.751  31.042  29.013  1.00  0.00     0.029 A 
ATOM     34  N   UNL A   1      39.176  30.608  30.678  1.00  0.00    -0.354 N 
ATOM     35  C   UNL A   1      38.997  32.981  34.352  1.00  0.00     0.074 A 
ATOM     36  C   UNL A   1      37.967  33.991  34.258  1.00  0.00     0.031 C 
ATOM     37  C   UNL A   1      38.540  30.035  28.610  1.00  0.00     0.029 A 
ATOM     38  C   UNL A   1      39.499  29.737  29.666  1.00  0.00     0.049 A 
ATOM     39  H   UNL A   1      39.657  30.639  31.536  1.00  0.00     0.167 HD
ATOM     40  C   UNL A   1      39.797  32.793  35.426  1.00  0.00     0.037 A 
ATOM     41  C   UNL A   1      40.468  28.807  29.611  1.00  0.00     0.037 A 
ATOM     42  C   UNL A   1      40.806  31.771  35.490  1.00  0.00     0.049 A 
ATOM     43  C   UNL A   1      41.357  28.638  30.813  1.00  0.00     0.074 A 
ATOM     44  C   UNL A   1      41.648  31.452  36.539  1.00  0.00     0.029 A 
ATOM     45  N   UNL A   1      41.112  30.903  34.449  1.00  0.00    -0.354 N 
ATOM     46  N   UNL A   1      41.329  29.276  31.958  1.00  0.00    -0.248 NA
ATOM     47  C   UNL A   1      42.408  27.618  30.717  1.00  0.00     0.031 C 
ATOM     48  C   UNL A   1      42.502  30.431  36.112  1.00  0.00     0.029 A 
ATOM     49  C   UNL A   1      42.152  30.068  34.818  1.00  0.00     0.049 A 
ATOM     50  H   UNL A   1      40.657  30.886  33.576  1.00  0.00     0.167 HD
ATOM     51  C   UNL A   1      42.337  28.719  32.732  1.00  0.00     0.074 A 
ATOM     52  C   UNL A   1      42.945  27.677  31.927  1.00  0.00     0.031 C 
ATOM     53  C   UNL A   1      42.727  29.036  33.992  1.00  0.00     0.037 A 
BRANCH  40  54
ATOM     54  C   UNL A   1      39.615  33.720  36.593  1.00  0.00     0.064 A 
ATOM     55  C   UNL A   1      40.253  34.970  36.652  1.00  0.00     0.173 A 
ATOM     56  C   UNL A   1      38.793  33.355  37.669  1.00  0.00     0.173 A 
ATOM     57  F   UNL A   1      41.066  35.362  35.659  1.00  0.00    -0.203 F 
ATOM     58  C   UNL A   1      40.105  35.801  37.760  1.00  0.00     0.198 A 
ATOM     59  C   UNL A   1      38.617  34.204  38.758  1.00  0.00     0.198 A 
ATOM     60  F   UNL A   1      38.159  32.173  37.666  1.00  0.00    -0.203 F 
ATOM     61  F   UNL A   1      40.775  36.960  37.821  1.00  0.00    -0.200 F 
ATOM     62  C   UNL A   1      39.282  35.421  38.808  1.00  0.00     0.200 A 
ATOM     63  F   UNL A   1      37.813  33.840  39.766  1.00  0.00    -0.200 F 
ATOM     64  F   UNL A   1      39.137  36.222  39.873  1.00  0.00    -0.200 F 
ENDBRANCH  40  54
BRANCH  41  65
ATOM     65  C   UNL A   1      40.623  27.958  28.401  1.00  0.00     0.064 A 
ATOM     66  C   UNL A   1      41.403  28.386  27.317  1.00  0.00     0.173 A 
ATOM     67  C   UNL A   1      40.004  26.703  28.302  1.00  0.00     0.173 A 
ATOM     68  F   UNL A   1      42.007  29.583  27.359  1.00  0.00    -0.203 F 
ATOM     69  C   UNL A   1      41.538  27.603  26.173  1.00  0.00     0.198 A 
ATOM     70  C   UNL A   1      40.166  25.907  27.169  1.00  0.00     0.198 A 
ATOM     71  F   UNL A   1      39.256  26.240  29.314  1.00  0.00    -0.203 F 
ATOM     72  F   UNL A   1      42.252  28.058  25.134  1.00  0.00    -0.200 F 
ATOM     73  C   UNL A   1      40.924  26.362  26.102  1.00  0.00     0.200 A 
ATOM     74  F   UNL A   1      39.585  24.701  27.112  1.00  0.00    -0.200 F 
ATOM     75  F   UNL A   1      41.058  25.608  25.002  1.00  0.00    -0.200 F 
ENDBRANCH  41  65
BRANCH  53  76
ATOM     76  C   UNL A   1      43.841  28.223  34.583  1.00  0.00     0.064 A 
ATOM     77  C   UNL A   1      43.597  27.013  35.248  1.00  0.00     0.173 A 
ATOM     78  C   UNL A   1      45.173  28.640  34.437  1.00  0.00     0.173 A 
ATOM     79  F   UNL A   1      42.339  26.582  35.427  1.00  0.00    -0.203 F 
ATOM     80  C   UNL A   1      44.646  26.263  35.771  1.00  0.00     0.198 A 
ATOM     81  C   UNL A   1      46.221  27.869  34.929  1.00  0.00     0.198 A 
ATOM     82  F   UNL A   1      45.458  29.786  33.801  1.00  0.00    -0.203 F 
ATOM     83  F   UNL A   1      44.388  25.137  36.449  1.00  0.00    -0.200 F 
ATOM     84  C   UNL A   1      45.957  26.686  35.602  1.00  0.00     0.200 A 
ATOM     85  F   UNL A   1      47.487  28.269  34.748  1.00  0.00    -0.200 F 
ATOM     86  F   UNL A   1      46.966  25.955  36.095  1.00  0.00    -0.200 F 
ENDBRANCH  53  76
ENDBRANCH  27  28
ENDBRANCH  19  22
ENDBRANCH  17  18
ENDBRANCH   1  17
TORSDOF 12
ENDMDL
MODEL 3
REMARK VINA RESULT:     -13.2      0.860      7.772
REMARK SMILES CC1(C)CC[N@H+](CCC(=O)NCCCNC(=O)c2ccc(-c3c4nc(c(-c5c(F)c(F)c(F)c(F)c5F)c5ccc([nH]5)c(-c5c(F)c(F)c(F)c(F)c5F)c5nc(c(-c6c(F)c(F)c(F)c(F)c6F)c6ccc3[nH]6)C=C5)C=C4)cc2)C1
REMARK SMILES IDX 13 1 12 2 11 3 9 4 10 5 8 7 7 8 6 9 1 10 2 11 3 12 4 13
REMARK SMILES IDX 81 14 5 15 14 17 15 18 16 19 17 21 18 22 19 23 80 24 20 25
REMARK SMILES IDX 79 26 21 27 22 28 23 29 73 30 24 31 78 32 72 33 74 34 25 35
REMARK SMILES IDX 77 36 71 37 70 38 26 40 58 41 38 42 57 43 39 44 42 45 56 46
REMARK SMILES IDX 75 47 40 48 41 49 55 51 76 52 43 53 27 54 28 55 36 56 29 57
REMARK SMILES IDX 30 58 34 59 37 60 31 61 32 62 35 63 33 64 59 65 60 66 68 67
REMARK SMILES IDX 61 68 62 69 66 70 69 71 63 72 64 73 67 74 65 75 44 76 45 77
REMARK SMILES IDX 53 78 46 79 47 80 51 81 54 82 48 83 49 84 52 85 50 86
REMARK H PARENT 11 6 6 16 15 20 74 39 42 50
REMARK Flexibility Score: inf
ROOT
ATOM      1  C   UNL A   1      31.758  31.412  26.582  1.00  0.00     0.042 C 
ENDROOT
BRANCH   1   2
ATOM      2  C   UNL A   1      31.850  29.642  25.297  1.00  0.00     0.117 C 
BRANCH   2   3
ATOM      3  N   UNL A   1      31.497  29.406  23.792  1.00  0.00    -0.356 N 
ATOM      4  C   UNL A   1      30.836  28.316  23.300  1.00  0.00     0.225 C 
ATOM      5  O   UNL A   1      30.607  28.219  22.098  1.00  0.00    -0.275 OA
ATOM      6  H   UNL A   1      31.775  30.098  23.149  1.00  0.00     0.163 HD
BRANCH   4   7
ATOM      7  C   UNL A   1      30.380  27.311  24.318  1.00  0.00     0.161 C 
BRANCH   7   8
ATOM      8  C   UNL A   1      31.356  26.153  24.526  1.00  0.00     0.272 C 
BRANCH   8   9
ATOM      9  N   UNL A   1      31.687  25.218  23.441  1.00  0.00    -0.334 N 
ATOM     10  C   UNL A   1      31.930  21.136  22.031  1.00  0.00     0.017 C 
ATOM     11  C   UNL A   1      32.510  22.123  23.168  1.00  0.00     0.019 C 
ATOM     12  C   UNL A   1      32.738  21.003  24.274  1.00  0.00     0.017 C 
ATOM     13  C   UNL A   1      34.172  23.285  22.855  1.00  0.00     0.073 C 
ATOM     14  C   UNL A   1      31.032  23.426  23.607  1.00  0.00     0.268 C 
ATOM     15  C   UNL A   1      33.538  25.219  22.905  1.00  0.00     0.263 C 
ATOM     16  H   UNL A   1      31.141  25.631  22.684  1.00  0.00     0.348 HD
ENDBRANCH   8   9
ENDBRANCH   7   8
ENDBRANCH   4   7
ENDBRANCH   2   3
ENDBRANCH   1   2
BRANCH   1  17
ATOM     17  C   UNL A   1      32.926  32.515  27.273  1.00  0.00     0.118 C 
BRANCH  17  18
ATOM     18  N   UNL A   1      32.508  33.858  27.723  1.00  0.00    -0.352 N 
ATOM     19  C   UNL A   1      33.099  34.783  28.528  1.00  0.00     0.251 C 
ATOM     20  H   UNL A   1      31.631  34.139  27.375  1.00  0.00     0.163 HD
ATOM     21  O   UNL A   1      32.594  35.892  28.665  1.00  0.00    -0.269 OA
BRANCH  19  22
ATOM     22  C   UNL A   1      34.263  34.398  29.314  1.00  0.00     0.039 A 
ATOM     23  C   UNL A   1      34.012  33.773  30.536  1.00  0.00     0.014 A 
ATOM     24  C   UNL A   1      35.557  34.562  28.821  1.00  0.00     0.014 A 
ATOM     25  C   UNL A   1      35.071  33.233  31.244  1.00  0.00     0.010 A 
ATOM     26  C   UNL A   1      36.605  33.959  29.493  1.00  0.00     0.010 A 
ATOM     27  C   UNL A   1      36.361  33.284  30.699  1.00  0.00    -0.014 A 
BRANCH  27  28
ATOM     28  C   UNL A   1      37.474  32.610  31.387  1.00  0.00     0.031 A 
ATOM     29  C   UNL A   1      38.181  31.486  30.704  1.00  0.00     0.074 A 
ATOM     30  C   UNL A   1      37.794  33.008  32.629  1.00  0.00     0.049 A 
ATOM     31  N   UNL A   1      39.162  30.744  31.143  1.00  0.00    -0.248 NA
ATOM     32  C   UNL A   1      37.704  31.126  29.358  1.00  0.00     0.031 C 
ATOM     33  C   UNL A   1      37.121  34.075  33.376  1.00  0.00     0.029 A 
ATOM     34  N   UNL A   1      38.764  32.565  33.486  1.00  0.00    -0.354 N 
ATOM     35  C   UNL A   1      39.412  29.826  30.134  1.00  0.00     0.074 A 
ATOM     36  C   UNL A   1      38.443  30.061  29.087  1.00  0.00     0.031 C 
ATOM     37  C   UNL A   1      37.721  34.226  34.566  1.00  0.00     0.029 A 
ATOM     38  C   UNL A   1      38.789  33.240  34.682  1.00  0.00     0.049 A 
ATOM     39  H   UNL A   1      39.383  31.832  33.268  1.00  0.00     0.167 HD
ATOM     40  C   UNL A   1      40.385  28.888  30.087  1.00  0.00     0.037 A 
ATOM     41  C   UNL A   1      39.590  33.069  35.748  1.00  0.00     0.037 A 
ATOM     42  C   UNL A   1      41.339  28.686  31.144  1.00  0.00     0.049 A 
ATOM     43  C   UNL A   1      40.648  32.002  35.674  1.00  0.00     0.074 A 
ATOM     44  C   UNL A   1      42.398  27.800  31.194  1.00  0.00     0.029 A 
ATOM     45  N   UNL A   1      41.339  29.384  32.345  1.00  0.00    -0.354 N 
ATOM     46  N   UNL A   1      40.929  31.183  34.689  1.00  0.00    -0.248 NA
ATOM     47  C   UNL A   1      41.502  31.838  36.856  1.00  0.00     0.031 C 
ATOM     48  C   UNL A   1      43.004  27.922  32.449  1.00  0.00     0.029 A 
ATOM     49  C   UNL A   1      42.362  28.927  33.158  1.00  0.00     0.049 A 
ATOM     50  H   UNL A   1      40.704  30.097  32.584  1.00  0.00     0.167 HD
ATOM     51  C   UNL A   1      42.009  30.424  35.118  1.00  0.00     0.074 A 
ATOM     52  C   UNL A   1      42.341  30.897  36.448  1.00  0.00     0.031 C 
ATOM     53  C   UNL A   1      42.668  29.428  34.475  1.00  0.00     0.037 A 
BRANCH  40  54
ATOM     54  C   UNL A   1      40.443  28.014  28.868  1.00  0.00     0.064 A 
ATOM     55  C   UNL A   1      41.181  28.378  27.730  1.00  0.00     0.173 A 
ATOM     56  C   UNL A   1      39.751  26.794  28.835  1.00  0.00     0.173 A 
ATOM     57  F   UNL A   1      41.846  29.542  27.700  1.00  0.00    -0.203 F 
ATOM     58  C   UNL A   1      41.193  27.573  26.593  1.00  0.00     0.198 A 
ATOM     59  C   UNL A   1      39.795  25.974  27.710  1.00  0.00     0.198 A 
ATOM     60  F   UNL A   1      39.029  26.396  29.893  1.00  0.00    -0.203 F 
ATOM     61  F   UNL A   1      41.852  27.974  25.497  1.00  0.00    -0.200 F 
ATOM     62  C   UNL A   1      40.506  26.369  26.586  1.00  0.00     0.200 A 
ATOM     63  F   UNL A   1      39.140  24.806  27.709  1.00  0.00    -0.200 F 
ATOM     64  F   UNL A   1      40.520  25.595  25.493  1.00  0.00    -0.200 F 
ENDBRANCH  40  54
BRANCH  41  65
ATOM     65  C   UNL A   1      39.442  33.939  36.943  1.00  0.00     0.064 A 
ATOM     66  C   UNL A   1      40.036  35.209  36.987  1.00  0.00     0.173 A 
ATOM     67  C   UNL A   1      38.701  33.528  38.061  1.00  0.00     0.173 A 
ATOM     68  F   UNL A   1      40.763  35.643  35.948  1.00  0.00    -0.203 F 
ATOM     69  C   UNL A   1      39.915  36.022  38.112  1.00  0.00     0.198 A 
ATOM     70  C   UNL A   1      38.554  34.356  39.173  1.00  0.00     0.198 A 
ATOM     71  F   UNL A   1      38.102  32.328  38.067  1.00  0.00    -0.203 F 
ATOM     72  F   UNL A   1      40.532  37.211  38.144  1.00  0.00    -0.200 F 
ATOM     73  C   UNL A   1      39.170  35.597  39.201  1.00  0.00     0.200 A 
ATOM     74  F   UNL A   1      37.818  33.949  40.216  1.00  0.00    -0.200 F 
ATOM     75  F   UNL A   1      39.051  36.383  40.281  1.00  0.00    -0.200 F 
ENDBRANCH  41  65
BRANCH  53  76
ATOM     76  C   UNL A   1      43.832  28.811  35.192  1.00  0.00     0.064 A 
ATOM     77  C   UNL A   1      45.135  29.311  35.049  1.00  0.00     0.173 A 
ATOM     78  C   UNL A   1      43.630  27.735  36.070  1.00  0.00     0.173 A 
ATOM     79  F   UNL A   1      45.380  30.327  34.209  1.00  0.00    -0.203 F 
ATOM     80  C   UNL A   1      46.198  28.737  35.740  1.00  0.00     0.198 A 
ATOM     81  C   UNL A   1      44.690  27.188  36.786  1.00  0.00     0.198 A 
ATOM     82  F   UNL A   1      42.402  27.226  36.247  1.00  0.00    -0.203 F 
ATOM     83  F   UNL A   1      47.442  29.196  35.549  1.00  0.00    -0.200 F 
ATOM     84  C   UNL A   1      45.973  27.684  36.615  1.00  0.00     0.200 A 
ATOM     85  F   UNL A   1      44.469  26.183  37.645  1.00  0.00    -0.200 F 
ATOM     86  F   UNL A   1      46.998  27.142  37.288  1.00  0.00    -0.200 F 
ENDBRANCH  53  76
ENDBRANCH  27  28
ENDBRANCH  19  22
ENDBRANCH  17  18
ENDBRANCH   1  17
TORSDOF 12
ENDMDL
