MODEL 1
REMARK VINA RESULT:     -10.3      0.000      0.000
REMARK SMILES C[C@]([NH3+])(Cc1ccccc1Br)C(=O)NCCCNC(=O)c1ccc(-c2c3nc(c(-c4c(F)c(F)c(F)c(F)c4F)c4ccc([nH]4)c(-c4c(F)c(F)c(F)c(F)c4F)c4nc(c(-c5c(F)c(F)c(F)c(F)c5F)c5ccc2[nH]5)C=C4)C=C3)cc1
REMARK SMILES IDX 16 1 15 2 14 3 12 4 13 5 2 7 1 8 4 9 5 10 6 11 10 12 7 13
REMARK SMILES IDX 9 14 11 15 8 16 3 17 17 21 18 22 19 23 20 25 21 26 22 27
REMARK SMILES IDX 83 28 23 29 82 30 24 31 25 32 26 33 76 34 27 35 81 36 75 37
REMARK SMILES IDX 77 38 28 39 80 40 74 41 73 42 29 44 61 45 41 46 60 47 42 48
REMARK SMILES IDX 45 49 59 50 78 51 43 52 44 53 58 55 79 56 46 57 30 58 31 59
REMARK SMILES IDX 39 60 32 61 33 62 37 63 40 64 34 65 35 66 38 67 36 68 62 69
REMARK SMILES IDX 63 70 71 71 64 72 65 73 69 74 72 75 66 76 67 77 70 78 68 79
REMARK SMILES IDX 47 80 48 81 56 82 49 83 50 84 54 85 57 86 51 87 52 88 55 89
REMARK SMILES IDX 53 90
REMARK H PARENT 14 6 3 18 3 19 3 20 18 24 77 43 45 54
REMARK Flexibility Score: inf
ROOT
ATOM      1  C   UNL A   1      33.999  33.835  28.826  1.00  0.00     0.042 C 
ENDROOT
BRANCH   1   2
ATOM      2  C   UNL A   1      34.658  34.146  30.164  1.00  0.00     0.118 C 
BRANCH   2   3
ATOM      3  N   UNL A   1      33.952  33.556  31.284  1.00  0.00    -0.351 N 
ATOM      4  C   UNL A   1      34.061  33.693  32.631  1.00  0.00     0.281 C 
ATOM      5  O   UNL A   1      33.311  32.963  33.295  1.00  0.00    -0.268 OA
ATOM      6  H   UNL A   1      33.247  32.926  31.012  1.00  0.00     0.163 HD
BRANCH   4   7
ATOM      7  C   UNL A   1      35.086  34.641  33.335  1.00  0.00     0.175 C 
ATOM      8  C   UNL A   1      34.679  36.119  33.237  1.00  0.00     0.090 C 
BRANCH   7   9
ATOM      9  C   UNL A   1      36.525  34.416  32.788  1.00  0.00     0.115 C 
BRANCH   9  10
ATOM     10  C   UNL A   1      37.247  33.185  33.313  1.00  0.00    -0.027 A 
ATOM     11  C   UNL A   1      36.788  31.917  32.908  1.00  0.00     0.005 A 
ATOM     12  C   UNL A   1      38.337  33.233  34.201  1.00  0.00     0.021 A 
ATOM     13  C   UNL A   1      37.368  30.743  33.392  1.00  0.00     0.000 A 
ATOM     14  C   UNL A   1      38.904  32.054  34.700  1.00  0.00     0.016 A 
ATOM     15  Br  UNL A   1      39.138  34.863  34.763  1.00  0.00    -0.051 Br
ATOM     16  C   UNL A   1      38.418  30.811  34.299  1.00  0.00     0.001 A 
ENDBRANCH   9  10
ENDBRANCH   7   9
BRANCH   7  17
ATOM     17  N   UNL A   1      34.996  34.365  34.797  1.00  0.00    -0.345 N 
ATOM     18  H   UNL A   1      34.026  34.172  35.048  1.00  0.00     0.345 HD
ATOM     19  H   UNL A   1      35.326  35.177  35.318  1.00  0.00     0.345 HD
ATOM     20  H   UNL A   1      35.573  33.556  35.027  1.00  0.00     0.345 HD
ENDBRANCH   7  17
ENDBRANCH   4   7
ENDBRANCH   2   3
ENDBRANCH   1   2
BRANCH   1  21
ATOM     21  C   UNL A   1      34.765  32.846  27.955  1.00  0.00     0.118 C 
BRANCH  21  22
ATOM     22  N   UNL A   1      34.042  31.597  27.763  1.00  0.00    -0.352 N 
ATOM     23  C   UNL A   1      34.504  30.305  27.772  1.00  0.00     0.251 C 
ATOM     24  H   UNL A   1      33.076  31.695  27.603  1.00  0.00     0.163 HD
ATOM     25  O   UNL A   1      33.773  29.393  27.385  1.00  0.00    -0.269 OA
BRANCH  23  26
ATOM     26  C   UNL A   1      35.878  29.997  28.221  1.00  0.00     0.039 A 
ATOM     27  C   UNL A   1      36.082  29.574  29.537  1.00  0.00     0.014 A 
ATOM     28  C   UNL A   1      36.970  30.149  27.361  1.00  0.00     0.014 A 
ATOM     29  C   UNL A   1      37.368  29.241  29.970  1.00  0.00     0.010 A 
ATOM     30  C   UNL A   1      38.237  29.740  27.768  1.00  0.00     0.010 A 
ATOM     31  C   UNL A   1      38.452  29.288  29.079  1.00  0.00    -0.014 A 
BRANCH  31  32
ATOM     32  C   UNL A   1      39.817  28.882  29.499  1.00  0.00     0.031 A 
ATOM     33  C   UNL A   1      40.620  29.766  30.414  1.00  0.00     0.074 A 
ATOM     34  C   UNL A   1      40.361  27.753  29.004  1.00  0.00     0.049 A 
ATOM     35  N   UNL A   1      41.856  29.629  30.825  1.00  0.00    -0.248 NA
ATOM     36  C   UNL A   1      39.956  30.981  30.910  1.00  0.00     0.031 C 
ATOM     37  C   UNL A   1      39.704  26.835  28.073  1.00  0.00     0.029 A 
ATOM     38  N   UNL A   1      41.598  27.191  29.207  1.00  0.00    -0.354 N 
ATOM     39  C   UNL A   1      42.120  30.745  31.609  1.00  0.00     0.074 A 
ATOM     40  C   UNL A   1      40.935  31.575  31.573  1.00  0.00     0.031 C 
ATOM     41  C   UNL A   1      40.534  25.815  27.801  1.00  0.00     0.029 A 
ATOM     42  C   UNL A   1      41.794  26.025  28.507  1.00  0.00     0.049 A 
ATOM     43  H   UNL A   1      42.279  27.586  29.797  1.00  0.00     0.167 HD
ATOM     44  C   UNL A   1      43.239  31.039  32.312  1.00  0.00     0.037 A 
ATOM     45  C   UNL A   1      42.872  25.222  28.437  1.00  0.00     0.037 A 
ATOM     46  C   UNL A   1      44.403  30.195  32.372  1.00  0.00     0.049 A 
ATOM     47  C   UNL A   1      44.102  25.570  29.231  1.00  0.00     0.074 A 
ATOM     48  C   UNL A   1      45.562  30.374  33.107  1.00  0.00     0.029 A 
ATOM     49  N   UNL A   1      44.555  29.009  31.669  1.00  0.00    -0.354 N 
ATOM     50  N   UNL A   1      44.315  26.595  30.019  1.00  0.00    -0.248 NA
ATOM     51  C   UNL A   1      45.239  24.644  29.130  1.00  0.00     0.031 C 
ATOM     52  C   UNL A   1      46.432  29.318  32.816  1.00  0.00     0.029 A 
ATOM     53  C   UNL A   1      45.797  28.456  31.937  1.00  0.00     0.049 A 
ATOM     54  H   UNL A   1      43.880  28.619  31.068  1.00  0.00     0.167 HD
ATOM     55  C   UNL A   1      45.594  26.425  30.529  1.00  0.00     0.074 A 
ATOM     56  C   UNL A   1      46.105  25.189  29.973  1.00  0.00     0.031 C 
ATOM     57  C   UNL A   1      46.285  27.220  31.383  1.00  0.00     0.037 A 
BRANCH  44  58
ATOM     58  C   UNL A   1      43.256  32.327  33.083  1.00  0.00     0.064 A 
ATOM     59  C   UNL A   1      43.748  33.516  32.522  1.00  0.00     0.173 A 
ATOM     60  C   UNL A   1      42.741  32.384  34.387  1.00  0.00     0.173 A 
ATOM     61  F   UNL A   1      44.262  33.514  31.282  1.00  0.00    -0.203 F 
ATOM     62  C   UNL A   1      43.749  34.704  33.246  1.00  0.00     0.198 A 
ATOM     63  C   UNL A   1      42.716  33.581  35.098  1.00  0.00     0.198 A 
ATOM     64  F   UNL A   1      42.253  31.277  34.970  1.00  0.00    -0.203 F 
ATOM     65  F   UNL A   1      44.269  35.816  32.705  1.00  0.00    -0.200 F 
ATOM     66  C   UNL A   1      43.226  34.738  34.530  1.00  0.00     0.200 A 
ATOM     67  F   UNL A   1      42.198  33.614  36.333  1.00  0.00    -0.200 F 
ATOM     68  F   UNL A   1      43.221  35.885  35.222  1.00  0.00    -0.200 F 
ENDBRANCH  44  58
BRANCH  45  69
ATOM     69  C   UNL A   1      42.829  23.993  27.600  1.00  0.00     0.064 A 
ATOM     70  C   UNL A   1      42.466  22.759  28.156  1.00  0.00     0.173 A 
ATOM     71  C   UNL A   1      43.155  24.025  26.237  1.00  0.00     0.173 A 
ATOM     72  F   UNL A   1      42.165  22.675  29.460  1.00  0.00    -0.203 F 
ATOM     73  C   UNL A   1      42.449  21.599  27.384  1.00  0.00     0.198 A 
ATOM     74  C   UNL A   1      43.111  22.869  25.460  1.00  0.00     0.198 A 
ATOM     75  F   UNL A   1      43.505  25.182  25.656  1.00  0.00    -0.203 F 
ATOM     76  F   UNL A   1      42.141  20.424  27.950  1.00  0.00    -0.200 F 
ATOM     77  C   UNL A   1      42.766  21.656  26.035  1.00  0.00     0.200 A 
ATOM     78  F   UNL A   1      43.405  22.931  24.153  1.00  0.00    -0.200 F 
ATOM     79  F   UNL A   1      42.747  20.542  25.293  1.00  0.00    -0.200 F 
ENDBRANCH  45  69
BRANCH  57  80
ATOM     80  C   UNL A   1      47.653  26.761  31.796  1.00  0.00     0.064 A 
ATOM     81  C   UNL A   1      47.839  25.876  32.868  1.00  0.00     0.173 A 
ATOM     82  C   UNL A   1      48.786  27.182  31.085  1.00  0.00     0.173 A 
ATOM     83  F   UNL A   1      46.789  25.458  33.590  1.00  0.00    -0.203 F 
ATOM     84  C   UNL A   1      49.115  25.448  33.227  1.00  0.00     0.198 A 
ATOM     85  C   UNL A   1      50.057  26.728  31.427  1.00  0.00     0.198 A 
ATOM     86  F   UNL A   1      48.661  28.024  30.047  1.00  0.00    -0.203 F 
ATOM     87  F   UNL A   1      49.274  24.638  34.283  1.00  0.00    -0.200 F 
ATOM     88  C   UNL A   1      50.221  25.868  32.503  1.00  0.00     0.200 A 
ATOM     89  F   UNL A   1      51.122  27.125  30.719  1.00  0.00    -0.200 F 
ATOM     90  F   UNL A   1      51.446  25.449  32.845  1.00  0.00    -0.200 F 
ENDBRANCH  57  80
ENDBRANCH  31  32
ENDBRANCH  23  26
ENDBRANCH  21  22
ENDBRANCH   1  21
TORSDOF 13
ENDMDL
MODEL 2
REMARK VINA RESULT:     -10.2      5.504      9.756
REMARK SMILES C[C@]([NH3+])(Cc1ccccc1Br)C(=O)NCCCNC(=O)c1ccc(-c2c3nc(c(-c4c(F)c(F)c(F)c(F)c4F)c4ccc([nH]4)c(-c4c(F)c(F)c(F)c(F)c4F)c4nc(c(-c5c(F)c(F)c(F)c(F)c5F)c5ccc2[nH]5)C=C4)C=C3)cc1
REMARK SMILES IDX 16 1 15 2 14 3 12 4 13 5 2 7 1 8 4 9 5 10 6 11 10 12 7 13
REMARK SMILES IDX 9 14 11 15 8 16 3 17 17 21 18 22 19 23 20 25 21 26 22 27
REMARK SMILES IDX 83 28 23 29 82 30 24 31 25 32 26 33 76 34 27 35 81 36 75 37
REMARK SMILES IDX 77 38 28 39 80 40 74 41 73 42 29 44 61 45 41 46 60 47 42 48
REMARK SMILES IDX 45 49 59 50 78 51 43 52 44 53 58 55 79 56 46 57 30 58 31 59
REMARK SMILES IDX 39 60 32 61 33 62 37 63 40 64 34 65 35 66 38 67 36 68 62 69
REMARK SMILES IDX 63 70 71 71 64 72 65 73 69 74 72 75 66 76 67 77 70 78 68 79
REMARK SMILES IDX 47 80 48 81 56 82 49 83 50 84 54 85 57 86 51 87 52 88 55 89
REMARK SMILES IDX 53 90
REMARK H PARENT 14 6 3 18 3 19 3 20 18 24 77 43 45 54
REMARK Flexibility Score: inf
ROOT
ATOM      1  C   UNL A   1      37.825  19.763  24.798  1.00  0.00     0.042 C 
ENDROOT
BRANCH   1   2
ATOM      2  C   UNL A   1      36.487  20.462  25.001  1.00  0.00     0.118 C 
BRANCH   2   3
ATOM      3  N   UNL A   1      35.370  19.538  25.001  1.00  0.00    -0.351 N 
ATOM      4  C   UNL A   1      34.023  19.705  25.038  1.00  0.00     0.281 C 
ATOM      5  O   UNL A   1      33.364  18.656  25.090  1.00  0.00    -0.268 OA
ATOM      6  H   UNL A   1      35.644  18.594  24.967  1.00  0.00     0.163 HD
BRANCH   4   7
ATOM      7  C   UNL A   1      33.313  21.098  25.079  1.00  0.00     0.175 C 
ATOM      8  C   UNL A   1      33.443  21.860  23.752  1.00  0.00     0.090 C 
BRANCH   7   9
ATOM      9  C   UNL A   1      33.828  21.954  26.272  1.00  0.00     0.115 C 
BRANCH   9  10
ATOM     10  C   UNL A   1      33.491  23.437  26.216  1.00  0.00    -0.027 A 
ATOM     11  C   UNL A   1      32.192  23.842  26.578  1.00  0.00     0.005 A 
ATOM     12  C   UNL A   1      34.395  24.432  25.801  1.00  0.00     0.021 A 
ATOM     13  C   UNL A   1      31.797  25.179  26.501  1.00  0.00     0.000 A 
ATOM     14  C   UNL A   1      33.989  25.769  25.704  1.00  0.00     0.016 A 
ATOM     15  Br  UNL A   1      36.211  24.063  25.376  1.00  0.00    -0.051 Br
ATOM     16  C   UNL A   1      32.692  26.141  26.050  1.00  0.00     0.001 A 
ENDBRANCH   9  10
ENDBRANCH   7   9
BRANCH   7  17
ATOM     17  N   UNL A   1      31.849  20.834  25.173  1.00  0.00    -0.345 N 
ATOM     18  H   UNL A   1      31.674  20.135  25.896  1.00  0.00     0.345 HD
ATOM     19  H   UNL A   1      31.508  20.487  24.276  1.00  0.00     0.345 HD
ATOM     20  H   UNL A   1      31.361  21.697  25.411  1.00  0.00     0.345 HD
ENDBRANCH   7  17
ENDBRANCH   4   7
ENDBRANCH   2   3
ENDBRANCH   1   2
BRANCH   1  21
ATOM     21  C   UNL A   1      38.927  20.209  25.752  1.00  0.00     0.118 C 
BRANCH  21  22
ATOM     22  N   UNL A   1      39.956  19.196  25.928  1.00  0.00    -0.352 N 
ATOM     23  C   UNL A   1      41.306  19.341  26.126  1.00  0.00     0.251 C 
ATOM     24  H   UNL A   1      39.635  18.266  25.901  1.00  0.00     0.163 HD
ATOM     25  O   UNL A   1      42.044  18.359  26.047  1.00  0.00    -0.269 OA
BRANCH  23  26
ATOM     26  C   UNL A   1      41.889  20.669  26.412  1.00  0.00     0.039 A 
ATOM     27  C   UNL A   1      42.139  21.542  25.350  1.00  0.00     0.014 A 
ATOM     28  C   UNL A   1      42.215  21.049  27.717  1.00  0.00     0.014 A 
ATOM     29  C   UNL A   1      42.654  22.816  25.602  1.00  0.00     0.010 A 
ATOM     30  C   UNL A   1      42.650  22.346  27.975  1.00  0.00     0.010 A 
ATOM     31  C   UNL A   1      42.881  23.242  26.921  1.00  0.00    -0.014 A 
BRANCH  31  32
ATOM     32  C   UNL A   1      43.371  24.612  27.217  1.00  0.00     0.031 A 
ATOM     33  C   UNL A   1      42.433  25.645  27.780  1.00  0.00     0.074 A 
ATOM     34  C   UNL A   1      44.641  24.948  26.918  1.00  0.00     0.049 A 
ATOM     35  N   UNL A   1      42.647  26.914  28.027  1.00  0.00    -0.248 NA
ATOM     36  C   UNL A   1      41.063  25.200  28.080  1.00  0.00     0.031 C 
ATOM     37  C   UNL A   1      45.635  24.053  26.324  1.00  0.00     0.029 A 
ATOM     38  N   UNL A   1      45.310  26.139  27.059  1.00  0.00    -0.354 N 
ATOM     39  C   UNL A   1      41.438  27.418  28.489  1.00  0.00     0.074 A 
ATOM     40  C   UNL A   1      40.481  26.333  28.440  1.00  0.00     0.031 C 
ATOM     41  C   UNL A   1      46.791  24.717  26.173  1.00  0.00     0.029 A 
ATOM     42  C   UNL A   1      46.611  26.095  26.620  1.00  0.00     0.049 A 
ATOM     43  H   UNL A   1      44.897  26.948  27.438  1.00  0.00     0.167 HD
ATOM     44  C   UNL A   1      41.158  28.665  28.936  1.00  0.00     0.037 A 
ATOM     45  C   UNL A   1      47.549  27.060  26.577  1.00  0.00     0.037 A 
ATOM     46  C   UNL A   1      42.120  29.732  29.015  1.00  0.00     0.049 A 
ATOM     47  C   UNL A   1      47.213  28.437  27.083  1.00  0.00     0.074 A 
ATOM     48  C   UNL A   1      41.950  31.013  29.512  1.00  0.00     0.029 A 
ATOM     49  N   UNL A   1      43.436  29.642  28.584  1.00  0.00    -0.354 N 
ATOM     50  N   UNL A   1      46.085  28.883  27.578  1.00  0.00    -0.248 NA
ATOM     51  C   UNL A   1      48.284  29.442  27.029  1.00  0.00     0.031 C 
ATOM     52  C   UNL A   1      43.151  31.710  29.344  1.00  0.00     0.029 A 
ATOM     53  C   UNL A   1      44.083  30.851  28.786  1.00  0.00     0.049 A 
ATOM     54  H   UNL A   1      43.847  28.838  28.193  1.00  0.00     0.167 HD
ATOM     55  C   UNL A   1      46.316  30.208  27.921  1.00  0.00     0.074 A 
ATOM     56  C   UNL A   1      47.698  30.490  27.591  1.00  0.00     0.031 C 
ATOM     57  C   UNL A   1      45.462  31.111  28.461  1.00  0.00     0.037 A 
BRANCH  44  58
ATOM     58  C   UNL A   1      39.753  28.943  29.384  1.00  0.00     0.064 A 
ATOM     59  C   UNL A   1      39.345  28.725  30.709  1.00  0.00     0.173 A 
ATOM     60  C   UNL A   1      38.809  29.468  28.487  1.00  0.00     0.173 A 
ATOM     61  F   UNL A   1      40.204  28.214  31.604  1.00  0.00    -0.203 F 
ATOM     62  C   UNL A   1      38.040  28.996  31.113  1.00  0.00     0.198 A 
ATOM     63  C   UNL A   1      37.514  29.766  28.902  1.00  0.00     0.198 A 
ATOM     64  F   UNL A   1      39.147  29.701  27.209  1.00  0.00    -0.203 F 
ATOM     65  F   UNL A   1      37.663  28.735  32.372  1.00  0.00    -0.200 F 
ATOM     66  C   UNL A   1      37.128  29.524  30.211  1.00  0.00     0.200 A 
ATOM     67  F   UNL A   1      36.637  30.288  28.032  1.00  0.00    -0.200 F 
ATOM     68  F   UNL A   1      35.875  29.791  30.603  1.00  0.00    -0.200 F 
ENDBRANCH  44  58
BRANCH  45  69
ATOM     69  C   UNL A   1      48.908  26.752  26.057  1.00  0.00     0.064 A 
ATOM     70  C   UNL A   1      49.891  26.208  26.895  1.00  0.00     0.173 A 
ATOM     71  C   UNL A   1      49.252  26.999  24.720  1.00  0.00     0.173 A 
ATOM     72  F   UNL A   1      49.615  25.974  28.185  1.00  0.00    -0.203 F 
ATOM     73  C   UNL A   1      51.174  25.941  26.419  1.00  0.00     0.198 A 
ATOM     74  C   UNL A   1      50.526  26.705  24.240  1.00  0.00     0.198 A 
ATOM     75  F   UNL A   1      48.345  27.513  23.876  1.00  0.00    -0.203 F 
ATOM     76  F   UNL A   1      52.109  25.464  27.253  1.00  0.00    -0.200 F 
ATOM     77  C   UNL A   1      51.489  26.185  25.091  1.00  0.00     0.200 A 
ATOM     78  F   UNL A   1      50.823  26.929  22.951  1.00  0.00    -0.200 F 
ATOM     79  F   UNL A   1      52.721  25.926  24.634  1.00  0.00    -0.200 F 
ENDBRANCH  45  69
BRANCH  57  80
ATOM     80  C   UNL A   1      46.004  32.477  28.763  1.00  0.00     0.064 A 
ATOM     81  C   UNL A   1      45.921  33.523  27.832  1.00  0.00     0.173 A 
ATOM     82  C   UNL A   1      46.576  32.753  30.014  1.00  0.00     0.173 A 
ATOM     83  F   UNL A   1      45.398  33.307  26.616  1.00  0.00    -0.203 F 
ATOM     84  C   UNL A   1      46.415  34.790  28.135  1.00  0.00     0.198 A 
ATOM     85  C   UNL A   1      47.041  34.027  30.325  1.00  0.00     0.198 A 
ATOM     86  F   UNL A   1      46.673  31.787  30.941  1.00  0.00    -0.203 F 
ATOM     87  F   UNL A   1      46.368  35.762  27.215  1.00  0.00    -0.200 F 
ATOM     88  C   UNL A   1      46.968  35.042  29.383  1.00  0.00     0.200 A 
ATOM     89  F   UNL A   1      47.562  34.272  31.534  1.00  0.00    -0.200 F 
ATOM     90  F   UNL A   1      47.434  36.263  29.675  1.00  0.00    -0.200 F 
ENDBRANCH  57  80
ENDBRANCH  31  32
ENDBRANCH  23  26
ENDBRANCH  21  22
ENDBRANCH   1  21
TORSDOF 13
ENDMDL
MODEL 3
REMARK VINA RESULT:     -10.2      5.525      9.727
REMARK SMILES C[C@]([NH3+])(Cc1ccccc1Br)C(=O)NCCCNC(=O)c1ccc(-c2c3nc(c(-c4c(F)c(F)c(F)c(F)c4F)c4ccc([nH]4)c(-c4c(F)c(F)c(F)c(F)c4F)c4nc(c(-c5c(F)c(F)c(F)c(F)c5F)c5ccc2[nH]5)C=C4)C=C3)cc1
REMARK SMILES IDX 16 1 15 2 14 3 12 4 13 5 2 7 1 8 4 9 5 10 6 11 10 12 7 13
REMARK SMILES IDX 9 14 11 15 8 16 3 17 17 21 18 22 19 23 20 25 21 26 22 27
REMARK SMILES IDX 83 28 23 29 82 30 24 31 25 32 26 33 76 34 27 35 81 36 75 37
REMARK SMILES IDX 77 38 28 39 80 40 74 41 73 42 29 44 61 45 41 46 60 47 42 48
REMARK SMILES IDX 45 49 59 50 78 51 43 52 44 53 58 55 79 56 46 57 30 58 31 59
REMARK SMILES IDX 39 60 32 61 33 62 37 63 40 64 34 65 35 66 38 67 36 68 62 69
REMARK SMILES IDX 63 70 71 71 64 72 65 73 69 74 72 75 66 76 67 77 70 78 68 79
REMARK SMILES IDX 47 80 48 81 56 82 49 83 50 84 54 85 57 86 51 87 52 88 55 89
REMARK SMILES IDX 53 90
REMARK H PARENT 14 6 3 18 3 19 3 20 18 24 77 43 45 54
REMARK Flexibility Score: inf
ROOT
ATOM      1  C   UNL A   1      37.828  19.734  24.794  1.00  0.00     0.042 C 
ENDROOT
BRANCH   1   2
ATOM      2  C   UNL A   1      36.481  20.407  25.024  1.00  0.00     0.118 C 
BRANCH   2   3
ATOM      3  N   UNL A   1      35.377  19.468  25.000  1.00  0.00    -0.351 N 
ATOM      4  C   UNL A   1      34.027  19.615  25.044  1.00  0.00     0.281 C 
ATOM      5  O   UNL A   1      33.384  18.556  25.069  1.00  0.00    -0.268 OA
ATOM      6  H   UNL A   1      35.665  18.529  24.941  1.00  0.00     0.163 HD
BRANCH   4   7
ATOM      7  C   UNL A   1      33.298  20.997  25.123  1.00  0.00     0.175 C 
ATOM      8  C   UNL A   1      33.318  21.745  23.783  1.00  0.00     0.090 C 
BRANCH   7   9
ATOM      9  C   UNL A   1      33.883  21.874  26.267  1.00  0.00     0.115 C 
BRANCH   9  10
ATOM     10  C   UNL A   1      33.528  23.353  26.214  1.00  0.00    -0.027 A 
ATOM     11  C   UNL A   1      32.224  23.741  26.576  1.00  0.00     0.005 A 
ATOM     12  C   UNL A   1      34.420  24.359  25.802  1.00  0.00     0.021 A 
ATOM     13  C   UNL A   1      31.813  25.073  26.501  1.00  0.00     0.000 A 
ATOM     14  C   UNL A   1      33.998  25.691  25.707  1.00  0.00     0.016 A 
ATOM     15  Br  UNL A   1      36.241  24.015  25.377  1.00  0.00    -0.051 Br
ATOM     16  C   UNL A   1      32.696  26.047  26.053  1.00  0.00     0.001 A 
ENDBRANCH   9  10
ENDBRANCH   7   9
BRANCH   7  17
ATOM     17  N   UNL A   1      31.849  20.709  25.326  1.00  0.00    -0.345 N 
ATOM     18  H   UNL A   1      31.337  21.587  25.412  1.00  0.00     0.345 HD
ATOM     19  H   UNL A   1      31.728  20.160  26.177  1.00  0.00     0.345 HD
ATOM     20  H   UNL A   1      31.492  20.183  24.529  1.00  0.00     0.345 HD
ENDBRANCH   7  17
ENDBRANCH   4   7
ENDBRANCH   2   3
ENDBRANCH   1   2
BRANCH   1  21
ATOM     21  C   UNL A   1      38.939  20.201  25.727  1.00  0.00     0.118 C 
BRANCH  21  22
ATOM     22  N   UNL A   1      39.969  19.190  25.917  1.00  0.00    -0.352 N 
ATOM     23  C   UNL A   1      41.317  19.339  26.127  1.00  0.00     0.251 C 
ATOM     24  H   UNL A   1      39.650  18.260  25.892  1.00  0.00     0.163 HD
ATOM     25  O   UNL A   1      42.057  18.358  26.059  1.00  0.00    -0.269 OA
BRANCH  23  26
ATOM     26  C   UNL A   1      41.894  20.670  26.413  1.00  0.00     0.039 A 
ATOM     27  C   UNL A   1      42.141  21.543  25.351  1.00  0.00     0.014 A 
ATOM     28  C   UNL A   1      42.218  21.051  27.718  1.00  0.00     0.014 A 
ATOM     29  C   UNL A   1      42.651  22.819  25.602  1.00  0.00     0.010 A 
ATOM     30  C   UNL A   1      42.647  22.350  27.976  1.00  0.00     0.010 A 
ATOM     31  C   UNL A   1      42.876  23.247  26.921  1.00  0.00    -0.014 A 
BRANCH  31  32
ATOM     32  C   UNL A   1      43.360  24.619  27.218  1.00  0.00     0.031 A 
ATOM     33  C   UNL A   1      42.417  25.649  27.777  1.00  0.00     0.074 A 
ATOM     34  C   UNL A   1      44.630  24.958  26.920  1.00  0.00     0.049 A 
ATOM     35  N   UNL A   1      42.626  26.918  28.023  1.00  0.00    -0.248 NA
ATOM     36  C   UNL A   1      41.048  25.200  28.074  1.00  0.00     0.031 C 
ATOM     37  C   UNL A   1      45.629  24.066  26.331  1.00  0.00     0.029 A 
ATOM     38  N   UNL A   1      45.294  26.152  27.062  1.00  0.00    -0.354 N 
ATOM     39  C   UNL A   1      41.415  27.419  28.482  1.00  0.00     0.074 A 
ATOM     40  C   UNL A   1      40.462  26.331  28.432  1.00  0.00     0.031 C 
ATOM     41  C   UNL A   1      46.783  24.735  26.181  1.00  0.00     0.029 A 
ATOM     42  C   UNL A   1      46.597  26.112  26.626  1.00  0.00     0.049 A 
ATOM     43  H   UNL A   1      44.877  26.959  27.439  1.00  0.00     0.167 HD
ATOM     44  C   UNL A   1      41.129  28.666  28.926  1.00  0.00     0.037 A 
ATOM     45  C   UNL A   1      47.532  27.080  26.584  1.00  0.00     0.037 A 
ATOM     46  C   UNL A   1      42.087  29.736  29.007  1.00  0.00     0.049 A 
ATOM     47  C   UNL A   1      47.189  28.456  27.088  1.00  0.00     0.074 A 
ATOM     48  C   UNL A   1      41.912  31.017  29.502  1.00  0.00     0.029 A 
ATOM     49  N   UNL A   1      43.404  29.650  28.579  1.00  0.00    -0.354 N 
ATOM     50  N   UNL A   1      46.058  28.899  27.580  1.00  0.00    -0.248 NA
ATOM     51  C   UNL A   1      48.257  29.465  27.036  1.00  0.00     0.031 C 
ATOM     52  C   UNL A   1      43.110  31.718  29.336  1.00  0.00     0.029 A 
ATOM     53  C   UNL A   1      44.047  30.861  28.781  1.00  0.00     0.049 A 
ATOM     54  H   UNL A   1      43.820  28.847  28.189  1.00  0.00     0.167 HD
ATOM     55  C   UNL A   1      46.284  30.225  27.922  1.00  0.00     0.074 A 
ATOM     56  C   UNL A   1      47.666  30.512  27.595  1.00  0.00     0.031 C 
ATOM     57  C   UNL A   1      45.425  31.126  28.459  1.00  0.00     0.037 A 
BRANCH  44  58
ATOM     58  C   UNL A   1      39.722  28.939  29.371  1.00  0.00     0.064 A 
ATOM     59  C   UNL A   1      39.310  28.716  30.694  1.00  0.00     0.173 A 
ATOM     60  C   UNL A   1      38.780  29.466  28.473  1.00  0.00     0.173 A 
ATOM     61  F   UNL A   1      40.168  28.203  31.590  1.00  0.00    -0.203 F 
ATOM     62  C   UNL A   1      38.004  28.983  31.094  1.00  0.00     0.198 A 
ATOM     63  C   UNL A   1      37.483  29.759  28.884  1.00  0.00     0.198 A 
ATOM     64  F   UNL A   1      39.122  29.703  27.197  1.00  0.00    -0.203 F 
ATOM     65  F   UNL A   1      37.622  28.716  32.351  1.00  0.00    -0.200 F 
ATOM     66  C   UNL A   1      37.094  29.512  30.191  1.00  0.00     0.200 A 
ATOM     67  F   UNL A   1      36.608  30.283  28.014  1.00  0.00    -0.200 F 
ATOM     68  F   UNL A   1      35.839  29.775  30.580  1.00  0.00    -0.200 F 
ENDBRANCH  44  58
BRANCH  45  69
ATOM     69  C   UNL A   1      48.892  26.776  26.068  1.00  0.00     0.064 A 
ATOM     70  C   UNL A   1      49.885  26.264  26.915  1.00  0.00     0.173 A 
ATOM     71  C   UNL A   1      49.230  26.995  24.724  1.00  0.00     0.173 A 
ATOM     72  F   UNL A   1      49.615  26.057  28.212  1.00  0.00    -0.203 F 
ATOM     73  C   UNL A   1      51.169  26.002  26.443  1.00  0.00     0.198 A 
ATOM     74  C   UNL A   1      50.507  26.706  24.248  1.00  0.00     0.198 A 
ATOM     75  F   UNL A   1      48.315  27.479  23.871  1.00  0.00    -0.203 F 
ATOM     76  F   UNL A   1      52.111  25.556  27.285  1.00  0.00    -0.200 F 
ATOM     77  C   UNL A   1      51.478  26.218  25.109  1.00  0.00     0.200 A 
ATOM     78  F   UNL A   1      50.797  26.903  22.954  1.00  0.00    -0.200 F 
ATOM     79  F   UNL A   1      52.712  25.963  24.655  1.00  0.00    -0.200 F 
ENDBRANCH  45  69
BRANCH  57  80
ATOM     80  C   UNL A   1      45.963  32.495  28.761  1.00  0.00     0.064 A 
ATOM     81  C   UNL A   1      46.578  32.789  29.987  1.00  0.00     0.173 A 
ATOM     82  C   UNL A   1      45.897  33.510  27.796  1.00  0.00     0.173 A 
ATOM     83  F   UNL A   1      46.652  31.857  30.948  1.00  0.00    -0.203 F 
ATOM     84  C   UNL A   1      47.086  34.060  30.243  1.00  0.00     0.198 A 
ATOM     85  C   UNL A   1      46.432  34.770  28.044  1.00  0.00     0.198 A 
ATOM     86  F   UNL A   1      45.323  33.276  26.605  1.00  0.00    -0.203 F 
ATOM     87  F   UNL A   1      47.629  34.334  31.437  1.00  0.00    -0.200 F 
ATOM     88  C   UNL A   1      47.019  35.047  29.269  1.00  0.00     0.200 A 
ATOM     89  F   UNL A   1      46.378  35.718  27.098  1.00  0.00    -0.200 F 
ATOM     90  F   UNL A   1      47.515  36.267  29.516  1.00  0.00    -0.200 F 
ENDBRANCH  57  80
ENDBRANCH  31  32
ENDBRANCH  23  26
ENDBRANCH  21  22
ENDBRANCH   1  21
TORSDOF 13
ENDMDL
