MODEL 1
REMARK VINA RESULT:     -11.0      0.000      0.000
REMARK SMILES Nc1oc(-c2ccccc2)cc1C(=O)NCCCNC(=O)c1ccc(-c2c3nc(c(-c4c(F)c(F)c(F)c(F)c4F)c4ccc([nH]4)c(-c4c(F)c(F)c(F)c(F)c4F)c4nc(c(-c5c(F)c(F)c(F)c(F)c5F)c5ccc2[nH]5)C=C4)C=C3)cc1
REMARK SMILES IDX 17 1 16 2 15 3 13 4 14 5 12 7 2 8 3 9 4 10 11 11 1 12 5 15
REMARK SMILES IDX 6 16 10 17 7 18 9 19 8 20 18 21 19 22 20 23 21 25 22 26
REMARK SMILES IDX 23 27 84 28 24 29 83 30 25 31 26 32 27 33 77 34 28 35 82 36
REMARK SMILES IDX 76 37 78 38 29 39 81 40 75 41 74 42 30 44 62 45 42 46 61 47
REMARK SMILES IDX 43 48 46 49 60 50 79 51 44 52 45 53 59 55 80 56 47 57 31 58
REMARK SMILES IDX 32 59 40 60 33 61 34 62 38 63 41 64 35 65 36 66 39 67 37 68
REMARK SMILES IDX 63 69 64 70 72 71 65 72 66 73 70 74 73 75 67 76 68 77 71 78
REMARK SMILES IDX 69 79 48 80 49 81 57 82 50 83 51 84 55 85 58 86 52 87 53 88
REMARK SMILES IDX 56 89 54 90
REMARK H PARENT 15 6 1 13 1 14 19 24 78 43 46 54
REMARK Flexibility Score: inf
ROOT
ATOM      1  C   UNL A   1      33.968  33.608  32.851  1.00  0.00     0.042 C 
ENDROOT
BRANCH   1   2
ATOM      2  C   UNL A   1      34.800  34.642  33.621  1.00  0.00     0.118 C 
BRANCH   2   3
ATOM      3  N   UNL A   1      35.306  34.124  34.885  1.00  0.00    -0.352 N 
ATOM      4  C   UNL A   1      36.521  33.556  35.203  1.00  0.00     0.256 C 
ATOM      5  O   UNL A   1      36.747  33.341  36.395  1.00  0.00    -0.269 OA
ATOM      6  H   UNL A   1      34.674  34.189  35.637  1.00  0.00     0.163 HD
BRANCH   4   7
ATOM      7  C   UNL A   1      37.493  33.268  34.162  1.00  0.00     0.103 A 
ATOM      8  C   UNL A   1      38.056  32.023  33.923  1.00  0.00     0.203 A 
ATOM      9  O   UNL A   1      39.012  32.088  32.955  1.00  0.00    -0.440 OA
ATOM     10  C   UNL A   1      39.049  33.380  32.542  1.00  0.00     0.137 A 
ATOM     11  C   UNL A   1      38.077  34.110  33.179  1.00  0.00     0.067 A 
BRANCH   8  12
ATOM     12  N   UNL A   1      37.863  30.819  34.470  1.00  0.00    -0.369 N 
ATOM     13  H   UNL A   1      37.238  30.716  35.224  1.00  0.00     0.159 HD
ATOM     14  H   UNL A   1      38.344  30.036  34.119  1.00  0.00     0.159 HD
ENDBRANCH   8  12
BRANCH  10  15
ATOM     15  C   UNL A   1      40.076  33.785  31.608  1.00  0.00     0.017 A 
ATOM     16  C   UNL A   1      41.369  33.267  31.682  1.00  0.00     0.012 A 
ATOM     17  C   UNL A   1      39.719  34.605  30.526  1.00  0.00     0.012 A 
ATOM     18  C   UNL A   1      42.288  33.547  30.668  1.00  0.00     0.001 A 
ATOM     19  C   UNL A   1      40.641  34.890  29.520  1.00  0.00     0.001 A 
ATOM     20  C   UNL A   1      41.922  34.351  29.587  1.00  0.00     0.000 A 
ENDBRANCH  10  15
ENDBRANCH   4   7
ENDBRANCH   2   3
ENDBRANCH   1   2
BRANCH   1  21
ATOM     21  C   UNL A   1      34.841  32.597  32.130  1.00  0.00     0.118 C 
BRANCH  21  22
ATOM     22  N   UNL A   1      34.405  32.368  30.745  1.00  0.00    -0.352 N 
ATOM     23  C   UNL A   1      35.134  31.912  29.657  1.00  0.00     0.251 C 
ATOM     24  H   UNL A   1      33.457  32.566  30.564  1.00  0.00     0.163 HD
ATOM     25  O   UNL A   1      34.739  32.068  28.518  1.00  0.00    -0.269 OA
BRANCH  23  26
ATOM     26  C   UNL A   1      36.406  31.219  29.920  1.00  0.00     0.039 A 
ATOM     27  C   UNL A   1      36.473  29.898  30.377  1.00  0.00     0.014 A 
ATOM     28  C   UNL A   1      37.559  31.934  29.641  1.00  0.00     0.014 A 
ATOM     29  C   UNL A   1      37.724  29.290  30.480  1.00  0.00     0.010 A 
ATOM     30  C   UNL A   1      38.728  31.263  29.477  1.00  0.00     0.010 A 
ATOM     31  C   UNL A   1      38.843  29.988  30.017  1.00  0.00    -0.014 A 
BRANCH  31  32
ATOM     32  C   UNL A   1      40.196  29.456  30.035  1.00  0.00     0.031 A 
ATOM     33  C   UNL A   1      40.789  29.290  31.388  1.00  0.00     0.074 A 
ATOM     34  C   UNL A   1      40.663  28.823  28.934  1.00  0.00     0.049 A 
ATOM     35  N   UNL A   1      41.877  29.805  31.859  1.00  0.00    -0.248 NA
ATOM     36  C   UNL A   1      40.007  28.543  32.391  1.00  0.00     0.031 C 
ATOM     37  C   UNL A   1      39.973  28.608  27.647  1.00  0.00     0.029 A 
ATOM     38  N   UNL A   1      41.797  28.097  28.775  1.00  0.00    -0.354 N 
ATOM     39  C   UNL A   1      42.015  29.290  33.147  1.00  0.00     0.074 A 
ATOM     40  C   UNL A   1      40.745  28.712  33.487  1.00  0.00     0.031 C 
ATOM     41  C   UNL A   1      40.590  27.628  26.956  1.00  0.00     0.029 A 
ATOM     42  C   UNL A   1      41.806  27.271  27.656  1.00  0.00     0.049 A 
ATOM     43  H   UNL A   1      42.554  28.150  29.403  1.00  0.00     0.167 HD
ATOM     44  C   UNL A   1      43.244  29.135  33.717  1.00  0.00     0.037 A 
ATOM     45  C   UNL A   1      42.736  26.331  27.362  1.00  0.00     0.037 A 
ATOM     46  C   UNL A   1      44.234  29.911  33.010  1.00  0.00     0.049 A 
ATOM     47  C   UNL A   1      43.931  26.637  28.191  1.00  0.00     0.074 A 
ATOM     48  C   UNL A   1      44.412  31.254  32.745  1.00  0.00     0.029 A 
ATOM     49  N   UNL A   1      45.046  29.248  32.120  1.00  0.00    -0.354 N 
ATOM     50  N   UNL A   1      44.652  27.716  28.051  1.00  0.00    -0.248 NA
ATOM     51  C   UNL A   1      44.032  25.981  29.485  1.00  0.00     0.031 C 
ATOM     52  C   UNL A   1      44.926  31.303  31.414  1.00  0.00     0.029 A 
ATOM     53  C   UNL A   1      45.095  29.990  30.970  1.00  0.00     0.049 A 
ATOM     54  H   UNL A   1      45.509  28.395  32.281  1.00  0.00     0.167 HD
ATOM     55  C   UNL A   1      44.972  28.103  29.345  1.00  0.00     0.074 A 
ATOM     56  C   UNL A   1      44.631  26.952  30.179  1.00  0.00     0.031 C 
ATOM     57  C   UNL A   1      45.197  29.415  29.648  1.00  0.00     0.037 A 
BRANCH  44  58
ATOM     58  C   UNL A   1      43.633  28.000  34.646  1.00  0.00     0.064 A 
ATOM     59  C   UNL A   1      43.464  26.672  34.197  1.00  0.00     0.173 A 
ATOM     60  C   UNL A   1      43.871  28.138  36.032  1.00  0.00     0.173 A 
ATOM     61  F   UNL A   1      43.236  26.412  32.901  1.00  0.00    -0.203 F 
ATOM     62  C   UNL A   1      43.426  25.589  35.080  1.00  0.00     0.198 A 
ATOM     63  C   UNL A   1      43.887  27.047  36.901  1.00  0.00     0.198 A 
ATOM     64  F   UNL A   1      43.991  29.326  36.631  1.00  0.00    -0.203 F 
ATOM     65  F   UNL A   1      43.120  24.369  34.620  1.00  0.00    -0.200 F 
ATOM     66  C   UNL A   1      43.625  25.779  36.433  1.00  0.00     0.200 A 
ATOM     67  F   UNL A   1      44.075  27.256  38.213  1.00  0.00    -0.200 F 
ATOM     68  F   UNL A   1      43.519  24.756  37.291  1.00  0.00    -0.200 F 
ENDBRANCH  44  58
BRANCH  45  69
ATOM     69  C   UNL A   1      42.545  25.031  26.675  1.00  0.00     0.064 A 
ATOM     70  C   UNL A   1      43.254  24.716  25.506  1.00  0.00     0.173 A 
ATOM     71  C   UNL A   1      41.865  23.966  27.300  1.00  0.00     0.173 A 
ATOM     72  F   UNL A   1      43.965  25.662  24.876  1.00  0.00    -0.203 F 
ATOM     73  C   UNL A   1      43.300  23.410  25.004  1.00  0.00     0.198 A 
ATOM     74  C   UNL A   1      41.907  22.665  26.796  1.00  0.00     0.198 A 
ATOM     75  F   UNL A   1      41.226  24.149  28.465  1.00  0.00    -0.203 F 
ATOM     76  F   UNL A   1      44.036  23.136  23.918  1.00  0.00    -0.200 F 
ATOM     77  C   UNL A   1      42.635  22.385  25.655  1.00  0.00     0.200 A 
ATOM     78  F   UNL A   1      41.289  21.675  27.457  1.00  0.00    -0.200 F 
ATOM     79  F   UNL A   1      42.728  21.124  25.210  1.00  0.00    -0.200 F 
ENDBRANCH  45  69
BRANCH  57  80
ATOM     80  C   UNL A   1      45.324  30.386  28.505  1.00  0.00     0.064 A 
ATOM     81  C   UNL A   1      44.266  31.187  28.037  1.00  0.00     0.173 A 
ATOM     82  C   UNL A   1      46.596  30.640  27.980  1.00  0.00     0.173 A 
ATOM     83  F   UNL A   1      43.041  31.079  28.556  1.00  0.00    -0.203 F 
ATOM     84  C   UNL A   1      44.467  32.169  27.069  1.00  0.00     0.198 A 
ATOM     85  C   UNL A   1      46.803  31.645  27.037  1.00  0.00     0.198 A 
ATOM     86  F   UNL A   1      47.655  29.949  28.429  1.00  0.00    -0.203 F 
ATOM     87  F   UNL A   1      43.436  32.917  26.645  1.00  0.00    -0.200 F 
ATOM     88  C   UNL A   1      45.739  32.404  26.577  1.00  0.00     0.200 A 
ATOM     89  F   UNL A   1      48.043  31.901  26.602  1.00  0.00    -0.200 F 
ATOM     90  F   UNL A   1      45.944  33.381  25.683  1.00  0.00    -0.200 F 
ENDBRANCH  57  80
ENDBRANCH  31  32
ENDBRANCH  23  26
ENDBRANCH  21  22
ENDBRANCH   1  21
TORSDOF 12
ENDMDL
MODEL 2
REMARK VINA RESULT:     -11.0      3.660     10.397
REMARK SMILES Nc1oc(-c2ccccc2)cc1C(=O)NCCCNC(=O)c1ccc(-c2c3nc(c(-c4c(F)c(F)c(F)c(F)c4F)c4ccc([nH]4)c(-c4c(F)c(F)c(F)c(F)c4F)c4nc(c(-c5c(F)c(F)c(F)c(F)c5F)c5ccc2[nH]5)C=C4)C=C3)cc1
REMARK SMILES IDX 17 1 16 2 15 3 13 4 14 5 12 7 2 8 3 9 4 10 11 11 1 12 5 15
REMARK SMILES IDX 6 16 10 17 7 18 9 19 8 20 18 21 19 22 20 23 21 25 22 26
REMARK SMILES IDX 23 27 84 28 24 29 83 30 25 31 26 32 27 33 77 34 28 35 82 36
REMARK SMILES IDX 76 37 78 38 29 39 81 40 75 41 74 42 30 44 62 45 42 46 61 47
REMARK SMILES IDX 43 48 46 49 60 50 79 51 44 52 45 53 59 55 80 56 47 57 31 58
REMARK SMILES IDX 32 59 40 60 33 61 34 62 38 63 41 64 35 65 36 66 39 67 37 68
REMARK SMILES IDX 63 69 64 70 72 71 65 72 66 73 70 74 73 75 67 76 68 77 71 78
REMARK SMILES IDX 69 79 48 80 49 81 57 82 50 83 51 84 55 85 58 86 52 87 53 88
REMARK SMILES IDX 56 89 54 90
REMARK H PARENT 15 6 1 13 1 14 19 24 78 43 46 54
REMARK Flexibility Score: inf
ROOT
ATOM      1  C   UNL A   1      44.158  21.263  24.952  1.00  0.00     0.042 C 
ENDROOT
BRANCH   1   2
ATOM      2  C   UNL A   1      45.619  21.544  25.329  1.00  0.00     0.118 C 
BRANCH   2   3
ATOM      3  N   UNL A   1      46.229  22.561  24.484  1.00  0.00    -0.352 N 
ATOM      4  C   UNL A   1      46.475  23.897  24.719  1.00  0.00     0.256 C 
ATOM      5  O   UNL A   1      47.150  24.500  23.883  1.00  0.00    -0.269 OA
ATOM      6  H   UNL A   1      46.513  22.241  23.598  1.00  0.00     0.163 HD
BRANCH   4   7
ATOM      7  C   UNL A   1      45.980  24.534  25.927  1.00  0.00     0.103 A 
ATOM      8  C   UNL A   1      45.055  25.568  25.957  1.00  0.00     0.203 A 
ATOM      9  O   UNL A   1      44.869  26.030  27.226  1.00  0.00    -0.440 OA
ATOM     10  C   UNL A   1      45.658  25.270  28.028  1.00  0.00     0.137 A 
ATOM     11  C   UNL A   1      46.274  24.288  27.294  1.00  0.00     0.067 A 
BRANCH   8  12
ATOM     12  N   UNL A   1      44.360  26.194  25.003  1.00  0.00    -0.369 N 
ATOM     13  H   UNL A   1      43.651  26.830  25.250  1.00  0.00     0.159 HD
ATOM     14  H   UNL A   1      44.558  26.019  24.055  1.00  0.00     0.159 HD
ENDBRANCH   8  12
BRANCH  10  15
ATOM     15  C   UNL A   1      45.776  25.622  29.425  1.00  0.00     0.017 A 
ATOM     16  C   UNL A   1      44.678  25.569  30.282  1.00  0.00     0.012 A 
ATOM     17  C   UNL A   1      47.053  25.882  29.949  1.00  0.00     0.012 A 
ATOM     18  C   UNL A   1      44.859  25.750  31.656  1.00  0.00     0.001 A 
ATOM     19  C   UNL A   1      47.230  26.070  31.319  1.00  0.00     0.001 A 
ATOM     20  C   UNL A   1      46.133  25.993  32.172  1.00  0.00     0.000 A 
ENDBRANCH  10  15
ENDBRANCH   4   7
ENDBRANCH   2   3
ENDBRANCH   1   2
BRANCH   1  21
ATOM     21  C   UNL A   1      43.235  22.392  25.371  1.00  0.00     0.118 C 
BRANCH  21  22
ATOM     22  N   UNL A   1      41.865  21.928  25.632  1.00  0.00    -0.352 N 
ATOM     23  C   UNL A   1      40.902  22.458  26.477  1.00  0.00     0.251 C 
ATOM     24  H   UNL A   1      41.591  21.124  25.134  1.00  0.00     0.163 HD
ATOM     25  O   UNL A   1      39.940  21.805  26.833  1.00  0.00    -0.269 OA
BRANCH  23  26
ATOM     26  C   UNL A   1      41.071  23.849  26.929  1.00  0.00     0.039 A 
ATOM     27  C   UNL A   1      40.440  24.934  26.308  1.00  0.00     0.014 A 
ATOM     28  C   UNL A   1      41.861  24.034  28.052  1.00  0.00     0.014 A 
ATOM     29  C   UNL A   1      40.565  26.197  26.884  1.00  0.00     0.010 A 
ATOM     30  C   UNL A   1      41.752  25.192  28.752  1.00  0.00     0.010 A 
ATOM     31  C   UNL A   1      41.222  26.306  28.114  1.00  0.00    -0.014 A 
BRANCH  31  32
ATOM     32  C   UNL A   1      41.391  27.557  28.835  1.00  0.00     0.031 A 
ATOM     33  C   UNL A   1      42.543  28.387  28.396  1.00  0.00     0.074 A 
ATOM     34  C   UNL A   1      40.348  28.046  29.546  1.00  0.00     0.049 A 
ATOM     35  N   UNL A   1      43.542  28.812  29.097  1.00  0.00    -0.248 NA
ATOM     36  C   UNL A   1      42.660  28.688  26.958  1.00  0.00     0.031 C 
ATOM     37  C   UNL A   1      39.009  27.452  29.722  1.00  0.00     0.029 A 
ATOM     38  N   UNL A   1      40.203  29.258  30.138  1.00  0.00    -0.354 N 
ATOM     39  C   UNL A   1      44.308  29.595  28.233  1.00  0.00     0.074 A 
ATOM     40  C   UNL A   1      43.843  29.300  26.906  1.00  0.00     0.031 C 
ATOM     41  C   UNL A   1      38.145  28.392  30.157  1.00  0.00     0.029 A 
ATOM     42  C   UNL A   1      38.892  29.595  30.457  1.00  0.00     0.049 A 
ATOM     43  H   UNL A   1      40.966  29.852  30.325  1.00  0.00     0.167 HD
ATOM     44  C   UNL A   1      45.067  30.625  28.701  1.00  0.00     0.037 A 
ATOM     45  C   UNL A   1      38.460  30.802  30.896  1.00  0.00     0.037 A 
ATOM     46  C   UNL A   1      45.263  30.508  30.126  1.00  0.00     0.049 A 
ATOM     47  C   UNL A   1      39.659  31.536  31.378  1.00  0.00     0.074 A 
ATOM     48  C   UNL A   1      45.842  29.568  30.955  1.00  0.00     0.029 A 
ATOM     49  N   UNL A   1      44.481  31.289  30.943  1.00  0.00    -0.354 N 
ATOM     50  N   UNL A   1      40.370  31.165  32.408  1.00  0.00    -0.248 NA
ATOM     51  C   UNL A   1      40.340  32.401  30.427  1.00  0.00     0.031 C 
ATOM     52  C   UNL A   1      45.005  29.530  32.111  1.00  0.00     0.029 A 
ATOM     53  C   UNL A   1      44.007  30.492  31.950  1.00  0.00     0.049 A 
ATOM     54  H   UNL A   1      44.295  32.248  30.825  1.00  0.00     0.167 HD
ATOM     55  C   UNL A   1      41.686  31.401  32.038  1.00  0.00     0.074 A 
ATOM     56  C   UNL A   1      41.599  32.236  30.842  1.00  0.00     0.031 C 
ATOM     57  C   UNL A   1      42.705  30.654  32.557  1.00  0.00     0.037 A 
BRANCH  44  58
ATOM     58  C   UNL A   1      45.300  31.934  27.969  1.00  0.00     0.064 A 
ATOM     59  C   UNL A   1      44.180  32.703  27.588  1.00  0.00     0.173 A 
ATOM     60  C   UNL A   1      46.520  32.314  27.366  1.00  0.00     0.173 A 
ATOM     61  F   UNL A   1      42.966  32.442  28.096  1.00  0.00    -0.203 F 
ATOM     62  C   UNL A   1      44.259  33.694  26.606  1.00  0.00     0.198 A 
ATOM     63  C   UNL A   1      46.603  33.341  26.426  1.00  0.00     0.198 A 
ATOM     64  F   UNL A   1      47.663  31.653  27.567  1.00  0.00    -0.203 F 
ATOM     65  F   UNL A   1      43.140  34.296  26.179  1.00  0.00    -0.200 F 
ATOM     66  C   UNL A   1      45.468  34.004  26.016  1.00  0.00     0.200 A 
ATOM     67  F   UNL A   1      47.788  33.620  25.861  1.00  0.00    -0.200 F 
ATOM     68  F   UNL A   1      45.536  34.902  25.024  1.00  0.00    -0.200 F 
ENDBRANCH  44  58
BRANCH  45  69
ATOM     69  C   UNL A   1      37.162  31.467  30.630  1.00  0.00     0.064 A 
ATOM     70  C   UNL A   1      36.243  31.707  31.662  1.00  0.00     0.173 A 
ATOM     71  C   UNL A   1      36.914  32.123  29.407  1.00  0.00     0.173 A 
ATOM     72  F   UNL A   1      36.432  31.157  32.871  1.00  0.00    -0.203 F 
ATOM     73  C   UNL A   1      35.153  32.567  31.491  1.00  0.00     0.198 A 
ATOM     74  C   UNL A   1      35.822  32.977  29.234  1.00  0.00     0.198 A 
ATOM     75  F   UNL A   1      37.776  32.022  28.386  1.00  0.00    -0.203 F 
ATOM     76  F   UNL A   1      34.329  32.818  32.518  1.00  0.00    -0.200 F 
ATOM     77  C   UNL A   1      34.949  33.209  30.281  1.00  0.00     0.200 A 
ATOM     78  F   UNL A   1      35.659  33.621  28.069  1.00  0.00    -0.200 F 
ATOM     79  F   UNL A   1      33.942  34.081  30.134  1.00  0.00    -0.200 F 
ENDBRANCH  45  69
BRANCH  57  80
ATOM     80  C   UNL A   1      42.385  29.740  33.709  1.00  0.00     0.064 A 
ATOM     81  C   UNL A   1      42.055  28.380  33.562  1.00  0.00     0.173 A 
ATOM     82  C   UNL A   1      42.588  30.208  35.012  1.00  0.00     0.173 A 
ATOM     83  F   UNL A   1      41.941  27.828  32.351  1.00  0.00    -0.203 F 
ATOM     84  C   UNL A   1      41.903  27.542  34.664  1.00  0.00     0.198 A 
ATOM     85  C   UNL A   1      42.470  29.362  36.112  1.00  0.00     0.198 A 
ATOM     86  F   UNL A   1      42.962  31.481  35.214  1.00  0.00    -0.203 F 
ATOM     87  F   UNL A   1      41.589  26.249  34.489  1.00  0.00    -0.200 F 
ATOM     88  C   UNL A   1      42.121  28.032  35.939  1.00  0.00     0.200 A 
ATOM     89  F   UNL A   1      42.731  29.830  37.340  1.00  0.00    -0.200 F 
ATOM     90  F   UNL A   1      42.026  27.217  36.999  1.00  0.00    -0.200 F 
ENDBRANCH  57  80
ENDBRANCH  31  32
ENDBRANCH  23  26
ENDBRANCH  21  22
ENDBRANCH   1  21
TORSDOF 12
ENDMDL
MODEL 3
REMARK VINA RESULT:     -11.0      3.550     10.118
REMARK SMILES Nc1oc(-c2ccccc2)cc1C(=O)NCCCNC(=O)c1ccc(-c2c3nc(c(-c4c(F)c(F)c(F)c(F)c4F)c4ccc([nH]4)c(-c4c(F)c(F)c(F)c(F)c4F)c4nc(c(-c5c(F)c(F)c(F)c(F)c5F)c5ccc2[nH]5)C=C4)C=C3)cc1
REMARK SMILES IDX 17 1 16 2 15 3 13 4 14 5 12 7 2 8 3 9 4 10 11 11 1 12 5 15
REMARK SMILES IDX 6 16 10 17 7 18 9 19 8 20 18 21 19 22 20 23 21 25 22 26
REMARK SMILES IDX 23 27 84 28 24 29 83 30 25 31 26 32 27 33 77 34 28 35 82 36
REMARK SMILES IDX 76 37 78 38 29 39 81 40 75 41 74 42 30 44 62 45 42 46 61 47
REMARK SMILES IDX 43 48 46 49 60 50 79 51 44 52 45 53 59 55 80 56 47 57 31 58
REMARK SMILES IDX 32 59 40 60 33 61 34 62 38 63 41 64 35 65 36 66 39 67 37 68
REMARK SMILES IDX 63 69 64 70 72 71 65 72 66 73 70 74 73 75 67 76 68 77 71 78
REMARK SMILES IDX 69 79 48 80 49 81 57 82 50 83 51 84 55 85 58 86 52 87 53 88
REMARK SMILES IDX 56 89 54 90
REMARK H PARENT 15 6 1 13 1 14 19 24 78 43 46 54
REMARK Flexibility Score: inf
ROOT
ATOM      1  C   UNL A   1      43.460  22.911  25.029  1.00  0.00     0.042 C 
ENDROOT
BRANCH   1   2
ATOM      2  C   UNL A   1      44.894  23.384  25.303  1.00  0.00     0.118 C 
BRANCH   2   3
ATOM      3  N   UNL A   1      45.172  24.692  24.726  1.00  0.00    -0.352 N 
ATOM      4  C   UNL A   1      45.458  25.899  25.329  1.00  0.00     0.256 C 
ATOM      5  O   UNL A   1      45.806  26.826  24.595  1.00  0.00    -0.269 OA
ATOM      6  H   UNL A   1      45.152  24.719  23.743  1.00  0.00     0.163 HD
BRANCH   4   7
ATOM      7  C   UNL A   1      45.379  26.036  26.773  1.00  0.00     0.103 A 
ATOM      8  C   UNL A   1      46.183  26.871  27.536  1.00  0.00     0.203 A 
ATOM      9  O   UNL A   1      45.949  26.702  28.868  1.00  0.00    -0.440 OA
ATOM     10  C   UNL A   1      44.966  25.773  28.968  1.00  0.00     0.137 A 
ATOM     11  C   UNL A   1      44.524  25.414  27.720  1.00  0.00     0.067 A 
BRANCH   8  12
ATOM     12  N   UNL A   1      47.132  27.756  27.220  1.00  0.00    -0.369 N 
ATOM     13  H   UNL A   1      46.887  28.686  27.011  1.00  0.00     0.159 HD
ATOM     14  H   UNL A   1      48.076  27.478  27.197  1.00  0.00     0.159 HD
ENDBRANCH   8  12
BRANCH  10  15
ATOM     15  C   UNL A   1      44.599  25.283  30.278  1.00  0.00     0.017 A 
ATOM     16  C   UNL A   1      44.306  23.936  30.493  1.00  0.00     0.012 A 
ATOM     17  C   UNL A   1      44.681  26.158  31.373  1.00  0.00     0.012 A 
ATOM     18  C   UNL A   1      44.122  23.465  31.795  1.00  0.00     0.001 A 
ATOM     19  C   UNL A   1      44.488  25.686  32.671  1.00  0.00     0.001 A 
ATOM     20  C   UNL A   1      44.218  24.337  32.881  1.00  0.00     0.000 A 
ENDBRANCH  10  15
ENDBRANCH   4   7
ENDBRANCH   2   3
ENDBRANCH   1   2
BRANCH   1  21
ATOM     21  C   UNL A   1      42.913  22.068  26.165  1.00  0.00     0.118 C 
BRANCH  21  22
ATOM     22  N   UNL A   1      41.468  21.824  26.036  1.00  0.00    -0.352 N 
ATOM     23  C   UNL A   1      40.404  22.553  26.545  1.00  0.00     0.251 C 
ATOM     24  H   UNL A   1      41.221  21.029  25.511  1.00  0.00     0.163 HD
ATOM     25  O   UNL A   1      39.290  22.074  26.631  1.00  0.00    -0.269 OA
BRANCH  23  26
ATOM     26  C   UNL A   1      40.658  23.939  26.973  1.00  0.00     0.039 A 
ATOM     27  C   UNL A   1      40.228  25.053  26.242  1.00  0.00     0.014 A 
ATOM     28  C   UNL A   1      41.315  24.093  28.183  1.00  0.00     0.014 A 
ATOM     29  C   UNL A   1      40.411  26.321  26.791  1.00  0.00     0.010 A 
ATOM     30  C   UNL A   1      41.239  25.285  28.828  1.00  0.00     0.010 A 
ATOM     31  C   UNL A   1      40.913  26.417  28.092  1.00  0.00    -0.014 A 
BRANCH  31  32
ATOM     32  C   UNL A   1      41.118  27.676  28.792  1.00  0.00     0.031 A 
ATOM     33  C   UNL A   1      42.245  28.501  28.285  1.00  0.00     0.074 A 
ATOM     34  C   UNL A   1      40.113  28.172  29.550  1.00  0.00     0.049 A 
ATOM     35  N   UNL A   1      43.280  28.934  28.928  1.00  0.00    -0.248 NA
ATOM     36  C   UNL A   1      42.288  28.788  26.839  1.00  0.00     0.031 C 
ATOM     37  C   UNL A   1      38.786  27.579  29.802  1.00  0.00     0.029 A 
ATOM     38  N   UNL A   1      39.999  29.390  30.137  1.00  0.00    -0.354 N 
ATOM     39  C   UNL A   1      43.998  29.708  28.018  1.00  0.00     0.074 A 
ATOM     40  C   UNL A   1      43.466  29.400  26.720  1.00  0.00     0.031 C 
ATOM     41  C   UNL A   1      37.945  28.524  30.272  1.00  0.00     0.029 A 
ATOM     42  C   UNL A   1      38.706  29.729  30.521  1.00  0.00     0.049 A 
ATOM     43  H   UNL A   1      40.770  29.986  30.279  1.00  0.00     0.167 HD
ATOM     44  C   UNL A   1      44.781  30.743  28.435  1.00  0.00     0.037 A 
ATOM     45  C   UNL A   1      38.297  30.941  30.970  1.00  0.00     0.037 A 
ATOM     46  C   UNL A   1      45.051  30.640  29.849  1.00  0.00     0.049 A 
ATOM     47  C   UNL A   1      39.519  31.680  31.381  1.00  0.00     0.074 A 
ATOM     48  C   UNL A   1      45.673  29.709  30.656  1.00  0.00     0.029 A 
ATOM     49  N   UNL A   1      44.311  31.429  30.698  1.00  0.00    -0.354 N 
ATOM     50  N   UNL A   1      40.283  31.319  32.377  1.00  0.00    -0.248 NA
ATOM     51  C   UNL A   1      40.148  32.535  30.388  1.00  0.00     0.031 C 
ATOM     52  C   UNL A   1      44.897  29.682  31.855  1.00  0.00     0.029 A 
ATOM     53  C   UNL A   1      43.891  30.642  31.737  1.00  0.00     0.049 A 
ATOM     54  H   UNL A   1      44.119  32.387  30.580  1.00  0.00     0.167 HD
ATOM     55  C   UNL A   1      41.578  31.552  31.936  1.00  0.00     0.074 A 
ATOM     56  C   UNL A   1      41.427  32.375  30.737  1.00  0.00     0.031 C 
ATOM     57  C   UNL A   1      42.623  30.810  32.408  1.00  0.00     0.037 A 
BRANCH  44  58
ATOM     58  C   UNL A   1      44.974  32.044  27.679  1.00  0.00     0.064 A 
ATOM     59  C   UNL A   1      46.183  32.245  26.978  1.00  0.00     0.173 A 
ATOM     60  C   UNL A   1      44.182  33.202  27.851  1.00  0.00     0.173 A 
ATOM     61  F   UNL A   1      47.018  31.221  26.748  1.00  0.00    -0.203 F 
ATOM     62  C   UNL A   1      46.610  33.516  26.584  1.00  0.00     0.198 A 
ATOM     63  C   UNL A   1      44.588  34.460  27.406  1.00  0.00     0.198 A 
ATOM     64  F   UNL A   1      43.040  33.201  28.543  1.00  0.00    -0.203 F 
ATOM     65  F   UNL A   1      47.830  33.671  26.051  1.00  0.00    -0.200 F 
ATOM     66  C   UNL A   1      45.818  34.625  26.809  1.00  0.00     0.200 A 
ATOM     67  F   UNL A   1      43.806  35.524  27.642  1.00  0.00    -0.200 F 
ATOM     68  F   UNL A   1      46.255  35.852  26.498  1.00  0.00    -0.200 F 
ENDBRANCH  44  58
BRANCH  45  69
ATOM     69  C   UNL A   1      36.986  31.602  30.765  1.00  0.00     0.064 A 
ATOM     70  C   UNL A   1      36.103  31.812  31.834  1.00  0.00     0.173 A 
ATOM     71  C   UNL A   1      36.691  32.285  29.567  1.00  0.00     0.173 A 
ATOM     72  F   UNL A   1      36.337  31.236  33.022  1.00  0.00    -0.203 F 
ATOM     73  C   UNL A   1      35.002  32.669  31.721  1.00  0.00     0.198 A 
ATOM     74  C   UNL A   1      35.589  33.135  29.453  1.00  0.00     0.198 A 
ATOM     75  F   UNL A   1      37.518  32.213  28.514  1.00  0.00    -0.203 F 
ATOM     76  F   UNL A   1      34.213  32.889  32.783  1.00  0.00    -0.200 F 
ATOM     77  C   UNL A   1      34.752  33.337  30.535  1.00  0.00     0.200 A 
ATOM     78  F   UNL A   1      35.381  33.805  28.310  1.00  0.00    -0.200 F 
ATOM     79  F   UNL A   1      33.735  34.205  30.444  1.00  0.00    -0.200 F 
ENDBRANCH  45  69
BRANCH  57  80
ATOM     80  C   UNL A   1      42.364  29.907  33.585  1.00  0.00     0.064 A 
ATOM     81  C   UNL A   1      42.054  28.540  33.469  1.00  0.00     0.173 A 
ATOM     82  C   UNL A   1      42.607  30.399  34.872  1.00  0.00     0.173 A 
ATOM     83  F   UNL A   1      41.905  27.968  32.272  1.00  0.00    -0.203 F 
ATOM     84  C   UNL A   1      41.960  27.716  34.589  1.00  0.00     0.198 A 
ATOM     85  C   UNL A   1      42.547  29.567  35.988  1.00  0.00     0.198 A 
ATOM     86  F   UNL A   1      42.965  31.681  35.041  1.00  0.00    -0.203 F 
ATOM     87  F   UNL A   1      41.663  26.415  34.443  1.00  0.00    -0.200 F 
ATOM     88  C   UNL A   1      42.217  28.229  35.847  1.00  0.00     0.200 A 
ATOM     89  F   UNL A   1      42.846  30.057  37.198  1.00  0.00    -0.200 F 
ATOM     90  F   UNL A   1      42.177  27.427  36.921  1.00  0.00    -0.200 F 
ENDBRANCH  57  80
ENDBRANCH  31  32
ENDBRANCH  23  26
ENDBRANCH  21  22
ENDBRANCH   1  21
TORSDOF 12
ENDMDL
