MODEL 1
REMARK VINA RESULT:     -15.2      0.000      0.000
REMARK SMILES Cc1ccc(NC(=O)c2cnn3c2NC2=C(C(=O)CCC2)[C@H]3c2ccc(C(=O)NCCCNC(=O)c3ccc(-c4c5nc(c(-c6c(F)c(F)c(F)c(F)c6F)c6ccc([nH]6)c(-c6c(F)c(F)c(F)c(F)c6F)c6nc(c(-c7c(F)c(F)c(F)c(F)c7F)c7ccc4[nH]7)C=C6)C=C5)cc3)cc2)cc1
REMARK SMILES IDX 30 1 29 2 27 3 28 4 26 6 23 7 24 8 100 9 25 10 99 11 22 12
REMARK SMILES IDX 9 13 10 14 13 15 11 16 12 17 14 18 15 19 16 21 21 22 17 23
REMARK SMILES IDX 20 24 18 25 19 26 7 27 6 28 8 30 5 31 1 32 2 33 3 34 102 35
REMARK SMILES IDX 4 36 101 37 31 38 32 39 33 40 34 41 35 43 36 44 37 45 98 46
REMARK SMILES IDX 38 47 97 48 39 49 40 50 41 51 91 52 42 53 96 54 90 55 92 56
REMARK SMILES IDX 43 57 95 58 89 59 88 60 44 62 76 63 56 64 75 65 57 66 60 67
REMARK SMILES IDX 74 68 93 69 58 70 59 71 73 73 94 74 61 75 45 76 46 77 54 78
REMARK SMILES IDX 47 79 48 80 52 81 55 82 49 83 50 84 53 85 51 86 77 87 78 88
REMARK SMILES IDX 86 89 79 90 80 91 84 92 87 93 81 94 82 95 85 96 83 97 62 98
REMARK SMILES IDX 63 99 71 100 64 101 65 102 69 103 72 104 66 105 67 106
REMARK SMILES IDX 70 107 68 108
REMARK H PARENT 29 5 14 20 6 29 33 42 92 61 60 72
REMARK Flexibility Score: inf
ROOT
ATOM      1  C   UNL A   1      36.778  21.341  24.557  1.00  0.00     0.118 C 
ENDROOT
BRANCH   1   2
ATOM      2  N   UNL A   1      35.663  20.647  25.189  1.00  0.00    -0.352 N 
ATOM      3  C   UNL A   1      34.375  21.046  25.484  1.00  0.00     0.251 C 
ATOM      4  O   UNL A   1      33.588  20.181  25.868  1.00  0.00    -0.269 OA
ATOM      5  H   UNL A   1      35.865  19.721  25.454  1.00  0.00     0.163 HD
BRANCH   3   6
ATOM      6  C   UNL A   1      33.880  22.445  25.318  1.00  0.00     0.039 A 
ATOM      7  C   UNL A   1      33.142  25.138  24.778  1.00  0.00    -0.019 A 
ATOM      8  C   UNL A   1      32.903  24.125  23.834  1.00  0.00     0.007 A 
ATOM      9  C   UNL A   1      33.535  24.729  26.062  1.00  0.00     0.007 A 
ATOM     10  C   UNL A   1      33.278  22.797  24.102  1.00  0.00     0.014 A 
ATOM     11  C   UNL A   1      33.926  23.411  26.319  1.00  0.00     0.014 A 
BRANCH   7  12
ATOM     12  C   UNL A   1      33.178  26.645  24.361  1.00  0.00     0.175 C 
ATOM     13  C   UNL A   1      29.743  27.123  23.469  1.00  0.00     0.102 A 
ATOM     14  C   UNL A   1      30.458  27.421  22.269  1.00  0.00     0.151 A 
ATOM     15  C   UNL A   1      30.736  27.096  24.423  1.00  0.00     0.142 A 
ATOM     16  N   UNL A   1      31.784  27.301  22.398  1.00  0.00    -0.178 NA
ATOM     17  N   UNL A   1      31.913  27.000  23.699  1.00  0.00    -0.237 N 
ATOM     18  N   UNL A   1      30.833  27.120  25.790  1.00  0.00    -0.343 N 
ATOM     19  C   UNL A   1      32.046  27.530  26.372  1.00  0.00     0.026 C 
ATOM     20  H   UNL A   1      30.070  26.855  26.353  1.00  0.00     0.168 HD
ATOM     21  C   UNL A   1      33.155  27.528  25.590  1.00  0.00     0.044 C 
ATOM     22  C   UNL A   1      32.052  28.267  27.681  1.00  0.00     0.055 C 
ATOM     23  C   UNL A   1      33.836  28.847  25.532  1.00  0.00     0.163 C 
ATOM     24  C   UNL A   1      32.649  29.673  27.558  1.00  0.00     0.014 C 
ATOM     25  O   UNL A   1      34.870  28.993  24.887  1.00  0.00    -0.294 OA
ATOM     26  C   UNL A   1      33.065  30.014  26.132  1.00  0.00     0.081 C 
BRANCH  13  27
ATOM     27  C   UNL A   1      28.320  26.969  23.667  1.00  0.00     0.261 C 
ATOM     28  N   UNL A   1      27.498  28.079  23.577  1.00  0.00    -0.322 N 
ATOM     29  H   UNL A   1      26.617  27.963  24.002  1.00  0.00     0.170 HD
ATOM     30  O   UNL A   1      27.824  25.878  23.947  1.00  0.00    -0.269 OA
BRANCH  28  31
ATOM     31  C   UNL A   1      27.694  29.348  22.986  1.00  0.00     0.041 A 
ATOM     32  C   UNL A   1      27.999  33.167  20.978  1.00  0.00     0.044 C 
ATOM     33  C   UNL A   1      27.955  31.836  21.668  1.00  0.00    -0.051 A 
ATOM     34  C   UNL A   1      27.831  31.778  23.056  1.00  0.00     0.005 A 
ATOM     35  C   UNL A   1      27.994  30.638  20.948  1.00  0.00     0.005 A 
ATOM     36  C   UNL A   1      27.740  30.543  23.704  1.00  0.00     0.026 A 
ATOM     37  C   UNL A   1      27.874  29.404  21.602  1.00  0.00     0.026 A 
ENDBRANCH  28  31
ENDBRANCH  13  27
ENDBRANCH   7  12
ENDBRANCH   3   6
ENDBRANCH   1   2
BRANCH   1  38
ATOM     38  C   UNL A   1      38.068  21.225  25.369  1.00  0.00     0.042 C 
BRANCH  38  39
ATOM     39  C   UNL A   1      38.588  22.540  25.936  1.00  0.00     0.118 C 
BRANCH  39  40
ATOM     40  N   UNL A   1      40.040  22.569  26.105  1.00  0.00    -0.352 N 
ATOM     41  C   UNL A   1      40.852  23.617  26.531  1.00  0.00     0.251 C 
ATOM     42  H   UNL A   1      40.509  21.732  25.885  1.00  0.00     0.163 HD
ATOM     43  O   UNL A   1      42.036  23.473  26.695  1.00  0.00    -0.269 OA
BRANCH  41  44
ATOM     44  C   UNL A   1      40.184  24.891  26.893  1.00  0.00     0.039 A 
ATOM     45  C   UNL A   1      40.578  26.048  26.215  1.00  0.00     0.014 A 
ATOM     46  C   UNL A   1      39.412  24.962  28.048  1.00  0.00     0.014 A 
ATOM     47  C   UNL A   1      40.424  27.279  26.845  1.00  0.00     0.010 A 
ATOM     48  C   UNL A   1      39.349  26.168  28.718  1.00  0.00     0.010 A 
ATOM     49  C   UNL A   1      39.928  27.310  28.149  1.00  0.00    -0.014 A 
BRANCH  49  50
ATOM     50  C   UNL A   1      40.140  28.447  29.041  1.00  0.00     0.031 A 
ATOM     51  C   UNL A   1      39.110  29.490  29.208  1.00  0.00     0.074 A 
ATOM     52  C   UNL A   1      41.272  28.506  29.780  1.00  0.00     0.049 A 
ATOM     53  N   UNL A   1      39.365  30.700  29.580  1.00  0.00    -0.248 NA
ATOM     54  C   UNL A   1      37.699  29.258  28.934  1.00  0.00     0.031 C 
ATOM     55  C   UNL A   1      41.543  29.392  30.911  1.00  0.00     0.029 A 
ATOM     56  N   UNL A   1      42.508  27.886  29.520  1.00  0.00    -0.354 N 
ATOM     57  C   UNL A   1      38.167  31.314  29.861  1.00  0.00     0.074 A 
ATOM     58  C   UNL A   1      37.158  30.398  29.379  1.00  0.00     0.031 C 
ATOM     59  C   UNL A   1      42.871  29.509  31.059  1.00  0.00     0.029 A 
ATOM     60  C   UNL A   1      43.488  28.812  29.947  1.00  0.00     0.049 A 
ATOM     61  H   UNL A   1      42.658  26.997  29.124  1.00  0.00     0.167 HD
ATOM     62  C   UNL A   1      38.161  32.465  30.595  1.00  0.00     0.037 A 
ATOM     63  C   UNL A   1      44.394  29.358  29.086  1.00  0.00     0.037 A 
ATOM     64  C   UNL A   1      39.517  32.896  30.925  1.00  0.00     0.049 A 
ATOM     65  C   UNL A   1      44.386  30.867  29.057  1.00  0.00     0.074 A 
ATOM     66  C   UNL A   1      40.292  32.756  32.067  1.00  0.00     0.029 A 
ATOM     67  N   UNL A   1      40.376  33.316  29.917  1.00  0.00    -0.354 N 
ATOM     68  N   UNL A   1      43.380  31.593  29.452  1.00  0.00    -0.248 NA
ATOM     69  C   UNL A   1      45.491  31.672  28.547  1.00  0.00     0.031 C 
ATOM     70  C   UNL A   1      41.626  33.090  31.740  1.00  0.00     0.029 A 
ATOM     71  C   UNL A   1      41.665  33.437  30.401  1.00  0.00     0.049 A 
ATOM     72  H   UNL A   1      40.105  33.500  28.988  1.00  0.00     0.167 HD
ATOM     73  C   UNL A   1      43.664  32.922  29.249  1.00  0.00     0.074 A 
ATOM     74  C   UNL A   1      45.006  32.917  28.701  1.00  0.00     0.031 C 
ATOM     75  C   UNL A   1      42.751  33.894  29.548  1.00  0.00     0.037 A 
BRANCH  62  76
ATOM     76  C   UNL A   1      36.926  33.023  31.271  1.00  0.00     0.064 A 
ATOM     77  C   UNL A   1      35.984  33.795  30.552  1.00  0.00     0.173 A 
ATOM     78  C   UNL A   1      36.641  32.882  32.640  1.00  0.00     0.173 A 
ATOM     79  F   UNL A   1      36.039  33.910  29.220  1.00  0.00    -0.203 F 
ATOM     80  C   UNL A   1      34.941  34.485  31.177  1.00  0.00     0.198 A 
ATOM     81  C   UNL A   1      35.633  33.615  33.276  1.00  0.00     0.198 A 
ATOM     82  F   UNL A   1      37.294  31.988  33.395  1.00  0.00    -0.203 F 
ATOM     83  F   UNL A   1      34.092  35.215  30.441  1.00  0.00    -0.200 F 
ATOM     84  C   UNL A   1      34.794  34.431  32.546  1.00  0.00     0.200 A 
ATOM     85  F   UNL A   1      35.483  33.525  34.606  1.00  0.00    -0.200 F 
ATOM     86  F   UNL A   1      33.830  35.137  33.154  1.00  0.00    -0.200 F 
ENDBRANCH  62  76
BRANCH  63  87
ATOM     87  C   UNL A   1      44.714  28.488  27.927  1.00  0.00     0.064 A 
ATOM     88  C   UNL A   1      45.510  27.347  28.146  1.00  0.00     0.173 A 
ATOM     89  C   UNL A   1      43.970  28.544  26.744  1.00  0.00     0.173 A 
ATOM     90  F   UNL A   1      46.237  27.242  29.270  1.00  0.00    -0.203 F 
ATOM     91  C   UNL A   1      45.473  26.261  27.275  1.00  0.00     0.198 A 
ATOM     92  C   UNL A   1      43.946  27.458  25.865  1.00  0.00     0.198 A 
ATOM     93  F   UNL A   1      43.175  29.593  26.490  1.00  0.00    -0.203 F 
ATOM     94  F   UNL A   1      46.151  25.143  27.571  1.00  0.00    -0.200 F 
ATOM     95  C   UNL A   1      44.669  26.307  26.149  1.00  0.00     0.200 A 
ATOM     96  F   UNL A   1      43.143  27.487  24.793  1.00  0.00    -0.200 F 
ATOM     97  F   UNL A   1      44.555  25.229  25.361  1.00  0.00    -0.200 F 
ENDBRANCH  63  87
BRANCH  75  98
ATOM     98  C   UNL A   1      42.809  35.365  29.182  1.00  0.00     0.064 A 
ATOM     99  C   UNL A   1      42.108  35.952  28.115  1.00  0.00     0.173 A 
ATOM    100  C   UNL A   1      43.500  36.283  30.018  1.00  0.00     0.173 A 
ATOM    101  F   UNL A   1      41.313  35.229  27.318  1.00  0.00    -0.203 F 
ATOM    102  C   UNL A   1      42.144  37.329  27.867  1.00  0.00     0.198 A 
ATOM    103  C   UNL A   1      43.484  37.661  29.804  1.00  0.00     0.198 A 
ATOM    104  F   UNL A   1      44.190  35.878  31.093  1.00  0.00    -0.203 F 
ATOM    105  F   UNL A   1      41.488  37.828  26.810  1.00  0.00    -0.200 F 
ATOM    106  C   UNL A   1      42.819  38.183  28.717  1.00  0.00     0.200 A 
ATOM    107  F   UNL A   1      44.099  38.477  30.671  1.00  0.00    -0.200 F 
ATOM    108  F   UNL A   1      42.808  39.506  28.503  1.00  0.00    -0.200 F 
ENDBRANCH  75  98
ENDBRANCH  49  50
ENDBRANCH  41  44
ENDBRANCH  39  40
ENDBRANCH  38  39
ENDBRANCH   1  38
TORSDOF 13
ENDMDL
MODEL 2
REMARK VINA RESULT:     -14.9      3.035      5.001
REMARK SMILES Cc1ccc(NC(=O)c2cnn3c2NC2=C(C(=O)CCC2)[C@H]3c2ccc(C(=O)NCCCNC(=O)c3ccc(-c4c5nc(c(-c6c(F)c(F)c(F)c(F)c6F)c6ccc([nH]6)c(-c6c(F)c(F)c(F)c(F)c6F)c6nc(c(-c7c(F)c(F)c(F)c(F)c7F)c7ccc4[nH]7)C=C6)C=C5)cc3)cc2)cc1
REMARK SMILES IDX 30 1 29 2 27 3 28 4 26 6 23 7 24 8 100 9 25 10 99 11 22 12
REMARK SMILES IDX 9 13 10 14 13 15 11 16 12 17 14 18 15 19 16 21 21 22 17 23
REMARK SMILES IDX 20 24 18 25 19 26 7 27 6 28 8 30 5 31 1 32 2 33 3 34 102 35
REMARK SMILES IDX 4 36 101 37 31 38 32 39 33 40 34 41 35 43 36 44 37 45 98 46
REMARK SMILES IDX 38 47 97 48 39 49 40 50 41 51 91 52 42 53 96 54 90 55 92 56
REMARK SMILES IDX 43 57 95 58 89 59 88 60 44 62 76 63 56 64 75 65 57 66 60 67
REMARK SMILES IDX 74 68 93 69 58 70 59 71 73 73 94 74 61 75 45 76 46 77 54 78
REMARK SMILES IDX 47 79 48 80 52 81 55 82 49 83 50 84 53 85 51 86 77 87 78 88
REMARK SMILES IDX 86 89 79 90 80 91 84 92 87 93 81 94 82 95 85 96 83 97 62 98
REMARK SMILES IDX 63 99 71 100 64 101 65 102 69 103 72 104 66 105 67 106
REMARK SMILES IDX 70 107 68 108
REMARK H PARENT 29 5 14 20 6 29 33 42 92 61 60 72
REMARK Flexibility Score: inf
ROOT
ATOM      1  C   UNL A   1      39.879  22.174  26.418  1.00  0.00     0.118 C 
ENDROOT
BRANCH   1   2
ATOM      2  N   UNL A   1      39.521  20.804  26.073  1.00  0.00    -0.352 N 
ATOM      3  C   UNL A   1      38.471  20.277  25.350  1.00  0.00     0.251 C 
ATOM      4  O   UNL A   1      38.520  19.080  25.069  1.00  0.00    -0.269 OA
ATOM      5  H   UNL A   1      40.147  20.127  26.420  1.00  0.00     0.163 HD
BRANCH   3   6
ATOM      6  C   UNL A   1      37.317  21.085  24.854  1.00  0.00     0.039 A 
ATOM      7  C   UNL A   1      35.009  22.363  23.792  1.00  0.00    -0.019 A 
ATOM      8  C   UNL A   1      34.896  21.423  24.831  1.00  0.00     0.007 A 
ATOM      9  C   UNL A   1      36.303  22.805  23.475  1.00  0.00     0.007 A 
ATOM     10  C   UNL A   1      36.038  20.787  25.346  1.00  0.00     0.014 A 
ATOM     11  C   UNL A   1      37.437  22.156  23.974  1.00  0.00     0.014 A 
BRANCH   7  12
ATOM     12  C   UNL A   1      33.783  22.734  22.895  1.00  0.00     0.175 C 
ATOM     13  C   UNL A   1      31.298  23.246  25.422  1.00  0.00     0.102 A 
ATOM     14  C   UNL A   1      30.767  22.188  24.622  1.00  0.00     0.151 A 
ATOM     15  C   UNL A   1      32.335  23.726  24.653  1.00  0.00     0.142 A 
ATOM     16  N   UNL A   1      31.562  21.844  23.602  1.00  0.00    -0.178 NA
ATOM     17  N   UNL A   1      32.560  22.734  23.712  1.00  0.00    -0.237 N 
ATOM     18  N   UNL A   1      33.137  24.837  24.608  1.00  0.00    -0.343 N 
ATOM     19  C   UNL A   1      33.778  25.155  23.397  1.00  0.00     0.026 C 
ATOM     20  H   UNL A   1      33.262  25.399  25.406  1.00  0.00     0.168 HD
ATOM     21  C   UNL A   1      33.875  24.181  22.457  1.00  0.00     0.044 C 
ATOM     22  C   UNL A   1      34.027  26.588  23.021  1.00  0.00     0.055 C 
ATOM     23  C   UNL A   1      33.290  24.567  21.147  1.00  0.00     0.163 C 
ATOM     24  C   UNL A   1      33.306  26.987  21.729  1.00  0.00     0.014 C 
ATOM     25  O   UNL A   1      33.328  23.800  20.191  1.00  0.00    -0.294 OA
ATOM     26  C   UNL A   1      32.475  25.853  21.143  1.00  0.00     0.081 C 
BRANCH  13  27
ATOM     27  C   UNL A   1      30.824  23.756  26.687  1.00  0.00     0.261 C 
ATOM     28  N   UNL A   1      30.653  25.120  26.849  1.00  0.00    -0.322 N 
ATOM     29  H   UNL A   1      30.618  25.413  27.789  1.00  0.00     0.170 HD
ATOM     30  O   UNL A   1      30.598  23.007  27.639  1.00  0.00    -0.269 OA
BRANCH  28  31
ATOM     31  C   UNL A   1      30.521  26.168  25.911  1.00  0.00     0.041 A 
ATOM     32  C   UNL A   1      30.470  29.342  22.972  1.00  0.00     0.044 C 
ATOM     33  C   UNL A   1      30.451  28.276  24.028  1.00  0.00    -0.051 A 
ATOM     34  C   UNL A   1      29.636  27.156  23.869  1.00  0.00     0.005 A 
ATOM     35  C   UNL A   1      31.269  28.356  25.160  1.00  0.00     0.005 A 
ATOM     36  C   UNL A   1      29.648  26.135  24.824  1.00  0.00     0.026 A 
ATOM     37  C   UNL A   1      31.296  27.315  26.098  1.00  0.00     0.026 A 
ENDBRANCH  28  31
ENDBRANCH  13  27
ENDBRANCH   7  12
ENDBRANCH   3   6
ENDBRANCH   1   2
BRANCH   1  38
ATOM     38  C   UNL A   1      41.351  22.476  26.141  1.00  0.00     0.042 C 
BRANCH  38  39
ATOM     39  C   UNL A   1      42.320  21.374  26.552  1.00  0.00     0.118 C 
BRANCH  39  40
ATOM     40  N   UNL A   1      43.017  20.759  25.424  1.00  0.00    -0.352 N 
ATOM     41  C   UNL A   1      44.173  21.180  24.772  1.00  0.00     0.251 C 
ATOM     42  H   UNL A   1      42.611  19.932  25.076  1.00  0.00     0.163 HD
ATOM     43  O   UNL A   1      44.680  20.527  23.898  1.00  0.00    -0.269 OA
BRANCH  41  44
ATOM     44  C   UNL A   1      44.829  22.410  25.279  1.00  0.00     0.039 A 
ATOM     45  C   UNL A   1      45.425  22.358  26.542  1.00  0.00     0.014 A 
ATOM     46  C   UNL A   1      44.606  23.625  24.640  1.00  0.00     0.014 A 
ATOM     47  C   UNL A   1      45.548  23.535  27.274  1.00  0.00     0.010 A 
ATOM     48  C   UNL A   1      44.634  24.778  25.400  1.00  0.00     0.010 A 
ATOM     49  C   UNL A   1      45.029  24.715  26.742  1.00  0.00    -0.014 A 
BRANCH  49  50
ATOM     50  C   UNL A   1      44.703  25.871  27.573  1.00  0.00     0.031 A 
ATOM     51  C   UNL A   1      43.333  26.417  27.622  1.00  0.00     0.074 A 
ATOM     52  C   UNL A   1      45.661  26.406  28.366  1.00  0.00     0.049 A 
ATOM     53  N   UNL A   1      43.056  27.639  27.933  1.00  0.00    -0.248 NA
ATOM     54  C   UNL A   1      42.156  25.627  27.288  1.00  0.00     0.031 C 
ATOM     55  C   UNL A   1      45.472  27.366  29.453  1.00  0.00     0.029 A 
ATOM     56  N   UNL A   1      47.056  26.328  28.209  1.00  0.00    -0.354 N 
ATOM     57  C   UNL A   1      41.696  27.728  28.112  1.00  0.00     0.074 A 
ATOM     58  C   UNL A   1      41.175  26.467  27.634  1.00  0.00     0.031 C 
ATOM     59  C   UNL A   1      46.628  28.012  29.664  1.00  0.00     0.029 A 
ATOM     60  C   UNL A   1      47.552  27.584  28.630  1.00  0.00     0.049 A 
ATOM     61  H   UNL A   1      47.577  25.561  27.877  1.00  0.00     0.167 HD
ATOM     62  C   UNL A   1      41.177  28.804  28.773  1.00  0.00     0.037 A 
ATOM     63  C   UNL A   1      48.224  28.419  27.787  1.00  0.00     0.037 A 
ATOM     64  C   UNL A   1      42.220  29.756  29.148  1.00  0.00     0.049 A 
ATOM     65  C   UNL A   1      47.616  29.794  27.665  1.00  0.00     0.074 A 
ATOM     66  C   UNL A   1      42.901  29.979  30.335  1.00  0.00     0.029 A 
ATOM     67  N   UNL A   1      42.911  30.450  28.163  1.00  0.00    -0.354 N 
ATOM     68  N   UNL A   1      46.378  30.067  27.962  1.00  0.00    -0.248 NA
ATOM     69  C   UNL A   1      48.342  30.958  27.166  1.00  0.00     0.031 C 
ATOM     70  C   UNL A   1      44.011  30.811  30.059  1.00  0.00     0.029 A 
ATOM     71  C   UNL A   1      44.005  31.097  28.705  1.00  0.00     0.049 A 
ATOM     72  H   UNL A   1      42.657  30.477  27.211  1.00  0.00     0.167 HD
ATOM     73  C   UNL A   1      46.122  31.390  27.694  1.00  0.00     0.074 A 
ATOM     74  C   UNL A   1      47.390  31.907  27.219  1.00  0.00     0.031 C 
ATOM     75  C   UNL A   1      44.877  31.923  27.884  1.00  0.00     0.037 A 
BRANCH  62  76
ATOM     76  C   UNL A   1      39.776  28.841  29.348  1.00  0.00     0.064 A 
ATOM     77  C   UNL A   1      38.679  29.282  28.573  1.00  0.00     0.173 A 
ATOM     78  C   UNL A   1      39.456  28.509  30.676  1.00  0.00     0.173 A 
ATOM     79  F   UNL A   1      38.791  29.507  27.259  1.00  0.00    -0.203 F 
ATOM     80  C   UNL A   1      37.414  29.514  29.122  1.00  0.00     0.198 A 
ATOM     81  C   UNL A   1      38.208  28.791  31.240  1.00  0.00     0.198 A 
ATOM     82  F   UNL A   1      40.326  27.849  31.453  1.00  0.00    -0.203 F 
ATOM     83  F   UNL A   1      36.419  29.950  28.337  1.00  0.00    -0.200 F 
ATOM     84  C   UNL A   1      37.191  29.311  30.466  1.00  0.00     0.200 A 
ATOM     85  F   UNL A   1      37.999  28.557  32.544  1.00  0.00    -0.200 F 
ATOM     86  F   UNL A   1      35.996  29.587  31.005  1.00  0.00    -0.200 F 
ENDBRANCH  62  76
BRANCH  63  87
ATOM     87  C   UNL A   1      48.948  27.711  26.701  1.00  0.00     0.064 A 
ATOM     88  C   UNL A   1      48.311  27.571  25.453  1.00  0.00     0.173 A 
ATOM     89  C   UNL A   1      50.332  27.518  26.750  1.00  0.00     0.173 A 
ATOM     90  F   UNL A   1      46.985  27.753  25.353  1.00  0.00    -0.203 F 
ATOM     91  C   UNL A   1      49.044  27.364  24.287  1.00  0.00     0.198 A 
ATOM     92  C   UNL A   1      51.062  27.296  25.580  1.00  0.00     0.198 A 
ATOM     93  F   UNL A   1      50.998  27.661  27.905  1.00  0.00    -0.203 F 
ATOM     94  F   UNL A   1      48.421  27.352  23.100  1.00  0.00    -0.200 F 
ATOM     95  C   UNL A   1      50.422  27.254  24.349  1.00  0.00     0.200 A 
ATOM     96  F   UNL A   1      52.399  27.224  25.633  1.00  0.00    -0.200 F 
ATOM     97  F   UNL A   1      51.138  27.151  23.221  1.00  0.00    -0.200 F 
ENDBRANCH  63  87
BRANCH  75  98
ATOM     98  C   UNL A   1      44.370  33.279  27.433  1.00  0.00     0.064 A 
ATOM     99  C   UNL A   1      43.848  33.553  26.158  1.00  0.00     0.173 A 
ATOM    100  C   UNL A   1      44.269  34.349  28.362  1.00  0.00     0.173 A 
ATOM    101  F   UNL A   1      43.761  32.606  25.218  1.00  0.00    -0.203 F 
ATOM    102  C   UNL A   1      43.328  34.809  25.820  1.00  0.00     0.198 A 
ATOM    103  C   UNL A   1      43.694  35.579  28.039  1.00  0.00     0.198 A 
ATOM    104  F   UNL A   1      44.696  34.230  29.626  1.00  0.00    -0.203 F 
ATOM    105  F   UNL A   1      42.881  35.025  24.574  1.00  0.00    -0.200 F 
ATOM    106  C   UNL A   1      43.239  35.815  26.761  1.00  0.00     0.200 A 
ATOM    107  F   UNL A   1      43.568  36.523  28.983  1.00  0.00    -0.200 F 
ATOM    108  F   UNL A   1      42.694  36.997  26.445  1.00  0.00    -0.200 F 
ENDBRANCH  75  98
ENDBRANCH  49  50
ENDBRANCH  41  44
ENDBRANCH  39  40
ENDBRANCH  38  39
ENDBRANCH   1  38
TORSDOF 13
ENDMDL
MODEL 3
REMARK VINA RESULT:     -14.8      3.974      9.870
REMARK SMILES Cc1ccc(NC(=O)c2cnn3c2NC2=C(C(=O)CCC2)[C@H]3c2ccc(C(=O)NCCCNC(=O)c3ccc(-c4c5nc(c(-c6c(F)c(F)c(F)c(F)c6F)c6ccc([nH]6)c(-c6c(F)c(F)c(F)c(F)c6F)c6nc(c(-c7c(F)c(F)c(F)c(F)c7F)c7ccc4[nH]7)C=C6)C=C5)cc3)cc2)cc1
REMARK SMILES IDX 30 1 29 2 27 3 28 4 26 6 23 7 24 8 100 9 25 10 99 11 22 12
REMARK SMILES IDX 9 13 10 14 13 15 11 16 12 17 14 18 15 19 16 21 21 22 17 23
REMARK SMILES IDX 20 24 18 25 19 26 7 27 6 28 8 30 5 31 1 32 2 33 3 34 102 35
REMARK SMILES IDX 4 36 101 37 31 38 32 39 33 40 34 41 35 43 36 44 37 45 98 46
REMARK SMILES IDX 38 47 97 48 39 49 40 50 41 51 91 52 42 53 96 54 90 55 92 56
REMARK SMILES IDX 43 57 95 58 89 59 88 60 44 62 76 63 56 64 75 65 57 66 60 67
REMARK SMILES IDX 74 68 93 69 58 70 59 71 73 73 94 74 61 75 45 76 46 77 54 78
REMARK SMILES IDX 47 79 48 80 52 81 55 82 49 83 50 84 53 85 51 86 77 87 78 88
REMARK SMILES IDX 86 89 79 90 80 91 84 92 87 93 81 94 82 95 85 96 83 97 62 98
REMARK SMILES IDX 63 99 71 100 64 101 65 102 69 103 72 104 66 105 67 106
REMARK SMILES IDX 70 107 68 108
REMARK H PARENT 29 5 14 20 6 29 33 42 92 61 60 72
REMARK Flexibility Score: inf
ROOT
ATOM      1  C   UNL A   1      34.399  31.767  28.082  1.00  0.00     0.118 C 
ENDROOT
BRANCH   1   2
ATOM      2  N   UNL A   1      33.223  32.405  27.505  1.00  0.00    -0.352 N 
ATOM      3  C   UNL A   1      32.084  31.887  26.923  1.00  0.00     0.251 C 
ATOM      4  O   UNL A   1      31.166  32.670  26.677  1.00  0.00    -0.269 OA
ATOM      5  H   UNL A   1      33.244  33.389  27.536  1.00  0.00     0.163 HD
BRANCH   3   6
ATOM      6  C   UNL A   1      31.890  30.436  26.624  1.00  0.00     0.039 A 
ATOM      7  C   UNL A   1      31.249  27.751  25.938  1.00  0.00    -0.019 A 
ATOM      8  C   UNL A   1      31.463  28.717  24.940  1.00  0.00     0.007 A 
ATOM      9  C   UNL A   1      31.592  28.111  27.251  1.00  0.00     0.007 A 
ATOM     10  C   UNL A   1      31.770  30.045  25.283  1.00  0.00     0.014 A 
ATOM     11  C   UNL A   1      31.877  29.437  27.593  1.00  0.00     0.014 A 
BRANCH   7  12
ATOM     12  C   UNL A   1      30.472  26.429  25.637  1.00  0.00     0.175 C 
ATOM     13  C   UNL A   1      31.952  25.542  22.499  1.00  0.00     0.102 A 
ATOM     14  C   UNL A   1      30.563  25.689  22.198  1.00  0.00     0.151 A 
ATOM     15  C   UNL A   1      31.971  25.521  23.876  1.00  0.00     0.142 A 
ATOM     16  N   UNL A   1      29.823  26.023  23.262  1.00  0.00    -0.178 NA
ATOM     17  N   UNL A   1      30.731  26.014  24.249  1.00  0.00    -0.237 N 
ATOM     18  N   UNL A   1      32.845  25.181  24.875  1.00  0.00    -0.343 N 
ATOM     19  C   UNL A   1      32.329  24.878  26.147  1.00  0.00     0.026 C 
ATOM     20  H   UNL A   1      33.814  25.150  24.706  1.00  0.00     0.168 HD
ATOM     21  C   UNL A   1      31.064  25.283  26.429  1.00  0.00     0.044 C 
ATOM     22  C   UNL A   1      33.002  23.857  27.020  1.00  0.00     0.055 C 
ATOM     23  C   UNL A   1      30.171  24.172  26.851  1.00  0.00     0.163 C 
ATOM     24  C   UNL A   1      32.092  22.664  27.332  1.00  0.00     0.014 C 
ATOM     25  O   UNL A   1      29.006  24.388  27.165  1.00  0.00    -0.294 OA
ATOM     26  C   UNL A   1      30.730  22.769  26.659  1.00  0.00     0.081 C 
BRANCH  13  27
ATOM     27  C   UNL A   1      33.065  25.369  21.595  1.00  0.00     0.261 C 
ATOM     28  N   UNL A   1      33.983  24.361  21.832  1.00  0.00    -0.322 N 
ATOM     29  H   UNL A   1      34.845  24.484  21.370  1.00  0.00     0.170 HD
ATOM     30  O   UNL A   1      33.236  26.120  20.634  1.00  0.00    -0.269 OA
BRANCH  28  31
ATOM     31  C   UNL A   1      33.909  23.189  22.617  1.00  0.00     0.041 A 
ATOM     32  C   UNL A   1      33.715  19.811  25.312  1.00  0.00     0.044 C 
ATOM     33  C   UNL A   1      33.820  20.949  24.340  1.00  0.00    -0.051 A 
ATOM     34  C   UNL A   1      32.773  21.206  23.457  1.00  0.00     0.005 A 
ATOM     35  C   UNL A   1      34.934  21.795  24.325  1.00  0.00     0.005 A 
ATOM     36  C   UNL A   1      32.841  22.293  22.581  1.00  0.00     0.026 A 
ATOM     37  C   UNL A   1      34.982  22.899  23.463  1.00  0.00     0.026 A 
ENDBRANCH  28  31
ENDBRANCH  13  27
ENDBRANCH   7  12
ENDBRANCH   3   6
ENDBRANCH   1   2
BRANCH   1  38
ATOM     38  C   UNL A   1      34.745  32.331  29.461  1.00  0.00     0.042 C 
BRANCH  38  39
ATOM     39  C   UNL A   1      34.676  33.849  29.568  1.00  0.00     0.118 C 
BRANCH  39  40
ATOM     40  N   UNL A   1      33.671  34.322  30.519  1.00  0.00    -0.352 N 
ATOM     41  C   UNL A   1      33.767  34.455  31.902  1.00  0.00     0.251 C 
ATOM     42  H   UNL A   1      32.806  34.580  30.127  1.00  0.00     0.163 HD
ATOM     43  O   UNL A   1      32.876  34.933  32.555  1.00  0.00    -0.269 OA
BRANCH  41  44
ATOM     44  C   UNL A   1      35.061  34.096  32.532  1.00  0.00     0.039 A 
ATOM     45  C   UNL A   1      36.157  34.928  32.287  1.00  0.00     0.014 A 
ATOM     46  C   UNL A   1      35.227  32.837  33.101  1.00  0.00     0.014 A 
ATOM     47  C   UNL A   1      37.438  34.389  32.365  1.00  0.00     0.010 A 
ATOM     48  C   UNL A   1      36.487  32.272  33.082  1.00  0.00     0.010 A 
ATOM     49  C   UNL A   1      37.579  33.027  32.635  1.00  0.00    -0.014 A 
BRANCH  49  50
ATOM     50  C   UNL A   1      38.793  32.286  32.305  1.00  0.00     0.031 A 
ATOM     51  C   UNL A   1      38.747  31.082  31.454  1.00  0.00     0.074 A 
ATOM     52  C   UNL A   1      39.990  32.753  32.730  1.00  0.00     0.049 A 
ATOM     53  N   UNL A   1      39.632  30.143  31.485  1.00  0.00    -0.248 NA
ATOM     54  C   UNL A   1      37.667  30.822  30.512  1.00  0.00     0.031 C 
ATOM     55  C   UNL A   1      41.314  32.324  32.285  1.00  0.00     0.029 A 
ATOM     56  N   UNL A   1      40.248  33.600  33.823  1.00  0.00    -0.354 N 
ATOM     57  C   UNL A   1      39.408  29.317  30.409  1.00  0.00     0.074 A 
ATOM     58  C   UNL A   1      38.135  29.743  29.874  1.00  0.00     0.031 C 
ATOM     59  C   UNL A   1      42.211  32.632  33.234  1.00  0.00     0.029 A 
ATOM     60  C   UNL A   1      41.469  33.143  34.372  1.00  0.00     0.049 A 
ATOM     61  H   UNL A   1      39.696  34.351  34.140  1.00  0.00     0.167 HD
ATOM     62  C   UNL A   1      40.391  28.458  30.008  1.00  0.00     0.037 A 
ATOM     63  C   UNL A   1      41.558  32.660  35.644  1.00  0.00     0.037 A 
ATOM     64  C   UNL A   1      41.558  28.535  30.883  1.00  0.00     0.049 A 
ATOM     65  C   UNL A   1      42.119  31.262  35.737  1.00  0.00     0.074 A 
ATOM     66  C   UNL A   1      42.772  29.195  30.768  1.00  0.00     0.029 A 
ATOM     67  N   UNL A   1      41.463  28.115  32.204  1.00  0.00    -0.354 N 
ATOM     68  N   UNL A   1      42.130  30.419  34.744  1.00  0.00    -0.248 NA
ATOM     69  C   UNL A   1      42.677  30.695  36.960  1.00  0.00     0.031 C 
ATOM     70  C   UNL A   1      43.409  29.174  32.031  1.00  0.00     0.029 A 
ATOM     71  C   UNL A   1      42.584  28.499  32.914  1.00  0.00     0.049 A 
ATOM     72  H   UNL A   1      40.703  27.615  32.582  1.00  0.00     0.167 HD
ATOM     73  C   UNL A   1      42.657  29.222  35.164  1.00  0.00     0.074 A 
ATOM     74  C   UNL A   1      43.004  29.455  36.552  1.00  0.00     0.031 C 
ATOM     75  C   UNL A   1      42.744  28.152  34.318  1.00  0.00     0.037 A 
BRANCH  62  76
ATOM     76  C   UNL A   1      40.413  27.782  28.653  1.00  0.00     0.064 A 
ATOM     77  C   UNL A   1      39.816  26.515  28.458  1.00  0.00     0.173 A 
ATOM     78  C   UNL A   1      41.058  28.304  27.518  1.00  0.00     0.173 A 
ATOM     79  F   UNL A   1      39.051  25.945  29.396  1.00  0.00    -0.203 F 
ATOM     80  C   UNL A   1      39.983  25.777  27.283  1.00  0.00     0.198 A 
ATOM     81  C   UNL A   1      41.273  27.545  26.363  1.00  0.00     0.198 A 
ATOM     82  F   UNL A   1      41.451  29.584  27.473  1.00  0.00    -0.203 F 
ATOM     83  F   UNL A   1      39.405  24.573  27.166  1.00  0.00    -0.200 F 
ATOM     84  C   UNL A   1      40.750  26.273  26.252  1.00  0.00     0.200 A 
ATOM     85  F   UNL A   1      41.996  28.058  25.356  1.00  0.00    -0.200 F 
ATOM     86  F   UNL A   1      40.959  25.544  25.148  1.00  0.00    -0.200 F 
ENDBRANCH  62  76
BRANCH  63  87
ATOM     87  C   UNL A   1      40.549  33.233  36.569  1.00  0.00     0.064 A 
ATOM     88  C   UNL A   1      39.357  32.515  36.787  1.00  0.00     0.173 A 
ATOM     89  C   UNL A   1      40.883  34.231  37.490  1.00  0.00     0.173 A 
ATOM     90  F   UNL A   1      38.995  31.542  35.936  1.00  0.00    -0.203 F 
ATOM     91  C   UNL A   1      38.596  32.708  37.938  1.00  0.00     0.198 A 
ATOM     92  C   UNL A   1      40.111  34.432  38.636  1.00  0.00     0.198 A 
ATOM     93  F   UNL A   1      42.017  34.933  37.349  1.00  0.00    -0.203 F 
ATOM     94  F   UNL A   1      37.532  31.928  38.174  1.00  0.00    -0.200 F 
ATOM     95  C   UNL A   1      38.989  33.648  38.875  1.00  0.00     0.200 A 
ATOM     96  F   UNL A   1      40.508  35.317  39.561  1.00  0.00    -0.200 F 
ATOM     97  F   UNL A   1      38.316  33.770  40.027  1.00  0.00    -0.200 F 
ENDBRANCH  63  87
BRANCH  75  98
ATOM     98  C   UNL A   1      43.082  26.716  34.670  1.00  0.00     0.064 A 
ATOM     99  C   UNL A   1      42.141  25.744  35.048  1.00  0.00     0.173 A 
ATOM    100  C   UNL A   1      44.406  26.229  34.496  1.00  0.00     0.173 A 
ATOM    101  F   UNL A   1      40.836  26.026  35.130  1.00  0.00    -0.203 F 
ATOM    102  C   UNL A   1      42.502  24.413  35.294  1.00  0.00     0.198 A 
ATOM    103  C   UNL A   1      44.749  24.891  34.683  1.00  0.00     0.198 A 
ATOM    104  F   UNL A   1      45.407  27.030  34.108  1.00  0.00    -0.203 F 
ATOM    105  F   UNL A   1      41.567  23.538  35.693  1.00  0.00    -0.200 F 
ATOM    106  C   UNL A   1      43.800  23.985  35.099  1.00  0.00     0.200 A 
ATOM    107  F   UNL A   1      46.003  24.484  34.435  1.00  0.00    -0.200 F 
ATOM    108  F   UNL A   1      44.128  22.699  35.287  1.00  0.00    -0.200 F 
ENDBRANCH  75  98
ENDBRANCH  49  50
ENDBRANCH  41  44
ENDBRANCH  39  40
ENDBRANCH  38  39
ENDBRANCH   1  38
TORSDOF 13
ENDMDL
