MODEL 1
REMARK VINA RESULT:     -12.5      0.000      0.000
REMARK SMILES CC(=O)c1nnn(-c2ccc(C(=O)NCCCNC(=O)c3ccc(-c4c5nc(c(-c6c(F)c(F)c(F)c(F)c6F)c6ccc([nH]6)c(-c6c(F)c(F)c(F)c(F)c6F)c6nc(c(-c7c(F)c(F)c(F)c(F)c7F)c7ccc4[nH]7)C=C6)C=C5)cc3)cc2)c1C
REMARK SMILES IDX 16 1 15 2 14 3 12 4 13 5 11 7 8 8 9 9 85 10 10 11 84 12 7 13
REMARK SMILES IDX 4 14 5 15 86 16 6 17 87 18 2 19 1 20 3 21 17 22 18 23 19 24
REMARK SMILES IDX 20 26 21 27 22 28 83 29 23 30 82 31 24 32 25 33 26 34 76 35
REMARK SMILES IDX 27 36 81 37 75 38 77 39 28 40 80 41 74 42 73 43 29 45 61 46
REMARK SMILES IDX 41 47 60 48 42 49 45 50 59 51 78 52 43 53 44 54 58 56 79 57
REMARK SMILES IDX 46 58 30 59 31 60 39 61 32 62 33 63 37 64 40 65 34 66 35 67
REMARK SMILES IDX 38 68 36 69 62 70 63 71 71 72 64 73 65 74 69 75 72 76 66 77
REMARK SMILES IDX 67 78 70 79 68 80 47 81 48 82 56 83 49 84 50 85 54 86 57 87
REMARK SMILES IDX 51 88 52 89 55 90 53 91
REMARK H PARENT 14 6 18 25 77 44 45 55
REMARK Flexibility Score: inf
ROOT
ATOM      1  C   UNL A   1      37.711  19.818  24.739  1.00  0.00     0.042 C 
ENDROOT
BRANCH   1   2
ATOM      2  C   UNL A   1      36.383  20.527  25.047  1.00  0.00     0.118 C 
BRANCH   2   3
ATOM      3  N   UNL A   1      35.247  19.612  25.007  1.00  0.00    -0.352 N 
ATOM      4  C   UNL A   1      33.898  19.802  25.206  1.00  0.00     0.251 C 
ATOM      5  O   UNL A   1      33.146  18.850  25.002  1.00  0.00    -0.269 OA
ATOM      6  H   UNL A   1      35.492  18.682  24.796  1.00  0.00     0.163 HD
BRANCH   4   7
ATOM      7  C   UNL A   1      33.315  21.119  25.591  1.00  0.00     0.039 A 
ATOM      8  C   UNL A   1      32.434  23.721  26.075  1.00  0.00     0.067 A 
ATOM      9  C   UNL A   1      31.995  23.063  24.928  1.00  0.00     0.029 A 
ATOM     10  C   UNL A   1      33.185  23.052  27.040  1.00  0.00     0.029 A 
ATOM     11  C   UNL A   1      32.465  21.767  24.676  1.00  0.00     0.016 A 
ATOM     12  C   UNL A   1      33.580  21.743  26.809  1.00  0.00     0.016 A 
BRANCH   8  13
ATOM     13  N   UNL A   1      32.197  25.094  26.250  1.00  0.00    -0.217 N 
ATOM     14  C   UNL A   1      32.435  27.243  26.464  1.00  0.00     0.151 A 
ATOM     15  N   UNL A   1      31.278  26.850  27.092  1.00  0.00    -0.126 NA
ATOM     16  C   UNL A   1      33.022  26.140  25.869  1.00  0.00     0.073 A 
ATOM     17  N   UNL A   1      31.093  25.557  26.858  1.00  0.00    -0.061 NA
ATOM     18  C   UNL A   1      34.191  25.967  24.969  1.00  0.00     0.069 C 
BRANCH  14  19
ATOM     19  C   UNL A   1      32.864  28.633  26.447  1.00  0.00     0.181 C 
ATOM     20  C   UNL A   1      34.082  29.003  27.256  1.00  0.00     0.095 C 
ATOM     21  O   UNL A   1      32.266  29.485  25.791  1.00  0.00    -0.293 OA
ENDBRANCH  14  19
ENDBRANCH   8  13
ENDBRANCH   4   7
ENDBRANCH   2   3
ENDBRANCH   1   2
BRANCH   1  22
ATOM     22  C   UNL A   1      38.825  20.243  25.673  1.00  0.00     0.118 C 
BRANCH  22  23
ATOM     23  N   UNL A   1      39.906  19.256  25.752  1.00  0.00    -0.352 N 
ATOM     24  C   UNL A   1      41.253  19.475  25.951  1.00  0.00     0.251 C 
ATOM     25  H   UNL A   1      39.635  18.315  25.649  1.00  0.00     0.163 HD
ATOM     26  O   UNL A   1      42.081  18.616  25.645  1.00  0.00    -0.269 OA
BRANCH  24  27
ATOM     27  C   UNL A   1      41.691  20.752  26.534  1.00  0.00     0.039 A 
ATOM     28  C   UNL A   1      42.129  21.820  25.744  1.00  0.00     0.014 A 
ATOM     29  C   UNL A   1      41.619  20.879  27.915  1.00  0.00     0.014 A 
ATOM     30  C   UNL A   1      42.418  23.034  26.365  1.00  0.00     0.010 A 
ATOM     31  C   UNL A   1      41.672  22.118  28.484  1.00  0.00     0.010 A 
ATOM     32  C   UNL A   1      42.166  23.175  27.738  1.00  0.00    -0.014 A 
BRANCH  32  33
ATOM     33  C   UNL A   1      42.310  24.451  28.425  1.00  0.00     0.031 A 
ATOM     34  C   UNL A   1      41.161  25.366  28.220  1.00  0.00     0.074 A 
ATOM     35  C   UNL A   1      43.273  24.666  29.349  1.00  0.00     0.049 A 
ATOM     36  N   UNL A   1      41.147  26.468  27.547  1.00  0.00    -0.248 NA
ATOM     37  C   UNL A   1      39.828  24.926  28.664  1.00  0.00     0.031 C 
ATOM     38  C   UNL A   1      44.264  23.710  29.867  1.00  0.00     0.029 A 
ATOM     39  N   UNL A   1      43.509  25.768  30.112  1.00  0.00    -0.354 N 
ATOM     40  C   UNL A   1      39.856  26.975  27.675  1.00  0.00     0.074 A 
ATOM     41  C   UNL A   1      39.051  25.894  28.173  1.00  0.00     0.031 C 
ATOM     42  C   UNL A   1      44.824  24.192  30.997  1.00  0.00     0.029 A 
ATOM     43  C   UNL A   1      44.374  25.557  31.183  1.00  0.00     0.049 A 
ATOM     44  H   UNL A   1      43.101  26.645  29.923  1.00  0.00     0.167 HD
ATOM     45  C   UNL A   1      39.647  28.321  27.648  1.00  0.00     0.037 A 
ATOM     46  C   UNL A   1      44.692  26.445  32.156  1.00  0.00     0.037 A 
ATOM     47  C   UNL A   1      40.822  28.994  27.143  1.00  0.00     0.049 A 
ATOM     48  C   UNL A   1      44.356  27.787  31.633  1.00  0.00     0.074 A 
ATOM     49  C   UNL A   1      41.495  29.057  25.942  1.00  0.00     0.029 A 
ATOM     50  N   UNL A   1      41.691  29.434  28.109  1.00  0.00    -0.354 N 
ATOM     51  N   UNL A   1      44.987  28.356  30.645  1.00  0.00    -0.248 NA
ATOM     52  C   UNL A   1      43.047  28.343  31.942  1.00  0.00     0.031 C 
ATOM     53  C   UNL A   1      42.872  29.216  26.285  1.00  0.00     0.029 A 
ATOM     54  C   UNL A   1      42.980  29.307  27.673  1.00  0.00     0.049 A 
ATOM     55  H   UNL A   1      41.425  29.788  28.987  1.00  0.00     0.167 HD
ATOM     56  C   UNL A   1      43.998  29.020  29.938  1.00  0.00     0.074 A 
ATOM     57  C   UNL A   1      42.873  29.112  30.863  1.00  0.00     0.031 C 
ATOM     58  C   UNL A   1      44.095  29.146  28.582  1.00  0.00     0.037 A 
BRANCH  45  59
ATOM     59  C   UNL A   1      38.642  29.065  28.515  1.00  0.00     0.064 A 
ATOM     60  C   UNL A   1      37.740  29.950  27.882  1.00  0.00     0.173 A 
ATOM     61  C   UNL A   1      38.736  29.211  29.916  1.00  0.00     0.173 A 
ATOM     62  F   UNL A   1      37.556  29.904  26.553  1.00  0.00    -0.203 F 
ATOM     63  C   UNL A   1      37.086  30.971  28.578  1.00  0.00     0.198 A 
ATOM     64  C   UNL A   1      38.045  30.202  30.614  1.00  0.00     0.198 A 
ATOM     65  F   UNL A   1      39.574  28.488  30.664  1.00  0.00    -0.203 F 
ATOM     66  F   UNL A   1      36.357  31.872  27.908  1.00  0.00    -0.200 F 
ATOM     67  C   UNL A   1      37.251  31.105  29.942  1.00  0.00     0.200 A 
ATOM     68  F   UNL A   1      38.229  30.322  31.937  1.00  0.00    -0.200 F 
ATOM     69  F   UNL A   1      36.687  32.125  30.602  1.00  0.00    -0.200 F 
ENDBRANCH  45  59
BRANCH  46  70
ATOM     70  C   UNL A   1      45.030  26.218  33.580  1.00  0.00     0.064 A 
ATOM     71  C   UNL A   1      44.042  25.854  34.511  1.00  0.00     0.173 A 
ATOM     72  C   UNL A   1      46.366  26.053  33.987  1.00  0.00     0.173 A 
ATOM     73  F   UNL A   1      42.744  25.945  34.186  1.00  0.00    -0.203 F 
ATOM     74  C   UNL A   1      44.373  25.316  35.759  1.00  0.00     0.198 A 
ATOM     75  C   UNL A   1      46.695  25.518  35.235  1.00  0.00     0.198 A 
ATOM     76  F   UNL A   1      47.375  26.311  33.142  1.00  0.00    -0.203 F 
ATOM     77  F   UNL A   1      43.401  24.912  36.592  1.00  0.00    -0.200 F 
ATOM     78  C   UNL A   1      45.699  25.134  36.114  1.00  0.00     0.200 A 
ATOM     79  F   UNL A   1      47.980  25.310  35.552  1.00  0.00    -0.200 F 
ATOM     80  F   UNL A   1      46.014  24.551  37.278  1.00  0.00    -0.200 F 
ENDBRANCH  46  70
BRANCH  58  81
ATOM     81  C   UNL A   1      45.450  28.926  27.972  1.00  0.00     0.064 A 
ATOM     82  C   UNL A   1      45.914  27.696  27.475  1.00  0.00     0.173 A 
ATOM     83  C   UNL A   1      46.279  30.043  27.801  1.00  0.00     0.173 A 
ATOM     84  F   UNL A   1      45.149  26.599  27.520  1.00  0.00    -0.203 F 
ATOM     85  C   UNL A   1      47.169  27.586  26.876  1.00  0.00     0.198 A 
ATOM     86  C   UNL A   1      47.513  29.939  27.169  1.00  0.00     0.198 A 
ATOM     87  F   UNL A   1      45.867  31.252  28.215  1.00  0.00    -0.203 F 
ATOM     88  F   UNL A   1      47.598  26.397  26.427  1.00  0.00    -0.200 F 
ATOM     89  C   UNL A   1      47.963  28.708  26.718  1.00  0.00     0.200 A 
ATOM     90  F   UNL A   1      48.257  31.036  26.979  1.00  0.00    -0.200 F 
ATOM     91  F   UNL A   1      49.154  28.611  26.111  1.00  0.00    -0.200 F 
ENDBRANCH  58  81
ENDBRANCH  32  33
ENDBRANCH  24  27
ENDBRANCH  22  23
ENDBRANCH   1  22
TORSDOF 12
ENDMDL
MODEL 2
REMARK VINA RESULT:     -12.4      3.876      9.561
REMARK SMILES CC(=O)c1nnn(-c2ccc(C(=O)NCCCNC(=O)c3ccc(-c4c5nc(c(-c6c(F)c(F)c(F)c(F)c6F)c6ccc([nH]6)c(-c6c(F)c(F)c(F)c(F)c6F)c6nc(c(-c7c(F)c(F)c(F)c(F)c7F)c7ccc4[nH]7)C=C6)C=C5)cc3)cc2)c1C
REMARK SMILES IDX 16 1 15 2 14 3 12 4 13 5 11 7 8 8 9 9 85 10 10 11 84 12 7 13
REMARK SMILES IDX 4 14 5 15 86 16 6 17 87 18 2 19 1 20 3 21 17 22 18 23 19 24
REMARK SMILES IDX 20 26 21 27 22 28 83 29 23 30 82 31 24 32 25 33 26 34 76 35
REMARK SMILES IDX 27 36 81 37 75 38 77 39 28 40 80 41 74 42 73 43 29 45 61 46
REMARK SMILES IDX 41 47 60 48 42 49 45 50 59 51 78 52 43 53 44 54 58 56 79 57
REMARK SMILES IDX 46 58 30 59 31 60 39 61 32 62 33 63 37 64 40 65 34 66 35 67
REMARK SMILES IDX 38 68 36 69 62 70 63 71 71 72 64 73 65 74 69 75 72 76 66 77
REMARK SMILES IDX 67 78 70 79 68 80 47 81 48 82 56 83 49 84 50 85 54 86 57 87
REMARK SMILES IDX 51 88 52 89 55 90 53 91
REMARK H PARENT 14 6 18 25 77 44 45 55
REMARK Flexibility Score: inf
ROOT
ATOM      1  C   UNL A   1      31.264  31.844  26.658  1.00  0.00     0.042 C 
ENDROOT
BRANCH   1   2
ATOM      2  C   UNL A   1      31.522  30.672  25.699  1.00  0.00     0.118 C 
BRANCH   2   3
ATOM      3  N   UNL A   1      30.554  30.629  24.608  1.00  0.00    -0.352 N 
ATOM      4  C   UNL A   1      30.352  29.730  23.585  1.00  0.00     0.251 C 
ATOM      5  O   UNL A   1      29.375  29.897  22.857  1.00  0.00    -0.269 OA
ATOM      6  H   UNL A   1      29.926  31.386  24.604  1.00  0.00     0.163 HD
BRANCH   4   7
ATOM      7  C   UNL A   1      31.224  28.540  23.370  1.00  0.00     0.039 A 
ATOM      8  C   UNL A   1      32.836  26.265  23.308  1.00  0.00     0.067 A 
ATOM      9  C   UNL A   1      31.460  26.112  23.464  1.00  0.00     0.029 A 
ATOM     10  C   UNL A   1      33.391  27.515  23.044  1.00  0.00     0.029 A 
ATOM     11  C   UNL A   1      30.659  27.260  23.525  1.00  0.00     0.016 A 
ATOM     12  C   UNL A   1      32.573  28.635  23.033  1.00  0.00     0.016 A 
BRANCH   8  13
ATOM     13  N   UNL A   1      33.704  25.175  23.489  1.00  0.00    -0.217 N 
ATOM     14  C   UNL A   1      35.196  23.802  24.269  1.00  0.00     0.151 A 
ATOM     15  N   UNL A   1      35.101  23.643  22.907  1.00  0.00    -0.126 NA
ATOM     16  C   UNL A   1      34.271  24.747  24.678  1.00  0.00     0.073 A 
ATOM     17  N   UNL A   1      34.112  24.408  22.464  1.00  0.00    -0.061 NA
ATOM     18  C   UNL A   1      33.833  25.235  26.010  1.00  0.00     0.069 C 
BRANCH  14  19
ATOM     19  C   UNL A   1      36.124  23.019  25.069  1.00  0.00     0.181 C 
ATOM     20  C   UNL A   1      37.377  23.699  25.561  1.00  0.00     0.095 C 
ATOM     21  O   UNL A   1      35.901  21.841  25.349  1.00  0.00    -0.293 OA
ENDBRANCH  14  19
ENDBRANCH   8  13
ENDBRANCH   4   7
ENDBRANCH   2   3
ENDBRANCH   1   2
BRANCH   1  22
ATOM     22  C   UNL A   1      32.547  32.485  27.148  1.00  0.00     0.118 C 
BRANCH  22  23
ATOM     23  N   UNL A   1      32.352  33.862  27.611  1.00  0.00    -0.352 N 
ATOM     24  C   UNL A   1      33.032  34.538  28.603  1.00  0.00     0.251 C 
ATOM     25  H   UNL A   1      31.644  34.371  27.153  1.00  0.00     0.163 HD
ATOM     26  O   UNL A   1      32.546  35.541  29.126  1.00  0.00    -0.269 OA
BRANCH  24  27
ATOM     27  C   UNL A   1      34.348  34.042  29.031  1.00  0.00     0.039 A 
ATOM     28  C   UNL A   1      34.511  33.249  30.172  1.00  0.00     0.014 A 
ATOM     29  C   UNL A   1      35.439  34.360  28.232  1.00  0.00     0.014 A 
ATOM     30  C   UNL A   1      35.773  32.726  30.446  1.00  0.00     0.010 A 
ATOM     31  C   UNL A   1      36.603  33.662  28.368  1.00  0.00     0.010 A 
ATOM     32  C   UNL A   1      36.809  32.925  29.522  1.00  0.00    -0.014 A 
BRANCH  32  33
ATOM     33  C   UNL A   1      38.112  32.293  29.671  1.00  0.00     0.031 A 
ATOM     34  C   UNL A   1      38.144  30.886  29.202  1.00  0.00     0.074 A 
ATOM     35  C   UNL A   1      39.225  32.998  29.972  1.00  0.00     0.049 A 
ATOM     36  N   UNL A   1      38.267  29.822  29.921  1.00  0.00    -0.248 NA
ATOM     37  C   UNL A   1      37.829  30.614  27.789  1.00  0.00     0.031 C 
ATOM     38  C   UNL A   1      39.360  34.455  30.135  1.00  0.00     0.029 A 
ATOM     39  N   UNL A   1      40.513  32.574  30.093  1.00  0.00    -0.354 N 
ATOM     40  C   UNL A   1      38.273  28.756  29.025  1.00  0.00     0.074 A 
ATOM     41  C   UNL A   1      37.785  29.279  27.779  1.00  0.00     0.031 C 
ATOM     42  C   UNL A   1      40.664  34.805  30.100  1.00  0.00     0.029 A 
ATOM     43  C   UNL A   1      41.461  33.594  30.098  1.00  0.00     0.049 A 
ATOM     44  H   UNL A   1      40.755  31.623  30.170  1.00  0.00     0.167 HD
ATOM     45  C   UNL A   1      38.970  27.622  29.319  1.00  0.00     0.037 A 
ATOM     46  C   UNL A   1      42.808  33.449  30.096  1.00  0.00     0.037 A 
ATOM     47  C   UNL A   1      39.327  27.610  30.719  1.00  0.00     0.049 A 
ATOM     48  C   UNL A   1      43.088  32.075  30.565  1.00  0.00     0.074 A 
ATOM     49  C   UNL A   1      38.653  27.528  31.919  1.00  0.00     0.029 A 
ATOM     50  N   UNL A   1      40.573  28.110  30.999  1.00  0.00    -0.354 N 
ATOM     51  N   UNL A   1      42.856  31.664  31.780  1.00  0.00    -0.248 NA
ATOM     52  C   UNL A   1      43.255  31.025  29.571  1.00  0.00     0.031 C 
ATOM     53  C   UNL A   1      39.415  28.309  32.839  1.00  0.00     0.029 A 
ATOM     54  C   UNL A   1      40.554  28.784  32.187  1.00  0.00     0.049 A 
ATOM     55  H   UNL A   1      41.366  27.999  30.426  1.00  0.00     0.167 HD
ATOM     56  C   UNL A   1      42.410  30.363  31.627  1.00  0.00     0.074 A 
ATOM     57  C   UNL A   1      42.829  29.977  30.283  1.00  0.00     0.031 C 
ATOM     58  C   UNL A   1      41.482  29.852  32.490  1.00  0.00     0.037 A 
BRANCH  45  59
ATOM     59  C   UNL A   1      39.759  26.798  28.312  1.00  0.00     0.064 A 
ATOM     60  C   UNL A   1      39.591  25.394  28.321  1.00  0.00     0.173 A 
ATOM     61  C   UNL A   1      40.885  27.259  27.596  1.00  0.00     0.173 A 
ATOM     62  F   UNL A   1      38.554  24.833  28.962  1.00  0.00    -0.203 F 
ATOM     63  C   UNL A   1      40.537  24.527  27.766  1.00  0.00     0.198 A 
ATOM     64  C   UNL A   1      41.802  26.391  27.002  1.00  0.00     0.198 A 
ATOM     65  F   UNL A   1      41.218  28.550  27.526  1.00  0.00    -0.203 F 
ATOM     66  F   UNL A   1      40.404  23.205  27.928  1.00  0.00    -0.200 F 
ATOM     67  C   UNL A   1      41.650  25.027  27.119  1.00  0.00     0.200 A 
ATOM     68  F   UNL A   1      42.882  26.898  26.390  1.00  0.00    -0.200 F 
ATOM     69  F   UNL A   1      42.596  24.204  26.650  1.00  0.00    -0.200 F 
ENDBRANCH  45  59
BRANCH  46  70
ATOM     70  C   UNL A   1      43.858  34.304  29.497  1.00  0.00     0.064 A 
ATOM     71  C   UNL A   1      44.127  34.265  28.118  1.00  0.00     0.173 A 
ATOM     72  C   UNL A   1      44.398  35.391  30.209  1.00  0.00     0.173 A 
ATOM     73  F   UNL A   1      43.617  33.282  27.360  1.00  0.00    -0.203 F 
ATOM     74  C   UNL A   1      44.857  35.275  27.483  1.00  0.00     0.198 A 
ATOM     75  C   UNL A   1      45.129  36.398  29.574  1.00  0.00     0.198 A 
ATOM     76  F   UNL A   1      44.138  35.548  31.516  1.00  0.00    -0.203 F 
ATOM     77  F   UNL A   1      45.031  35.239  26.153  1.00  0.00    -0.200 F 
ATOM     78  C   UNL A   1      45.344  36.348  28.209  1.00  0.00     0.200 A 
ATOM     79  F   UNL A   1      45.561  37.452  30.280  1.00  0.00    -0.200 F 
ATOM     80  F   UNL A   1      45.979  37.353  27.589  1.00  0.00    -0.200 F 
ENDBRANCH  46  70
BRANCH  58  81
ATOM     81  C   UNL A   1      41.296  30.574  33.795  1.00  0.00     0.064 A 
ATOM     82  C   UNL A   1      40.325  31.561  34.031  1.00  0.00     0.173 A 
ATOM     83  C   UNL A   1      42.084  30.171  34.881  1.00  0.00     0.173 A 
ATOM     84  F   UNL A   1      39.475  31.939  33.070  1.00  0.00    -0.203 F 
ATOM     85  C   UNL A   1      40.183  32.148  35.289  1.00  0.00     0.198 A 
ATOM     86  C   UNL A   1      41.915  30.730  36.143  1.00  0.00     0.198 A 
ATOM     87  F   UNL A   1      42.996  29.198  34.723  1.00  0.00    -0.203 F 
ATOM     88  F   UNL A   1      39.262  33.102  35.486  1.00  0.00    -0.200 F 
ATOM     89  C   UNL A   1      40.973  31.726  36.344  1.00  0.00     0.200 A 
ATOM     90  F   UNL A   1      42.651  30.286  37.170  1.00  0.00    -0.200 F 
ATOM     91  F   UNL A   1      40.814  32.264  37.562  1.00  0.00    -0.200 F 
ENDBRANCH  58  81
ENDBRANCH  32  33
ENDBRANCH  24  27
ENDBRANCH  22  23
ENDBRANCH   1  22
TORSDOF 12
ENDMDL
MODEL 3
REMARK VINA RESULT:     -12.3      2.975      7.976
REMARK SMILES CC(=O)c1nnn(-c2ccc(C(=O)NCCCNC(=O)c3ccc(-c4c5nc(c(-c6c(F)c(F)c(F)c(F)c6F)c6ccc([nH]6)c(-c6c(F)c(F)c(F)c(F)c6F)c6nc(c(-c7c(F)c(F)c(F)c(F)c7F)c7ccc4[nH]7)C=C6)C=C5)cc3)cc2)c1C
REMARK SMILES IDX 16 1 15 2 14 3 12 4 13 5 11 7 8 8 9 9 85 10 10 11 84 12 7 13
REMARK SMILES IDX 4 14 5 15 86 16 6 17 87 18 2 19 1 20 3 21 17 22 18 23 19 24
REMARK SMILES IDX 20 26 21 27 22 28 83 29 23 30 82 31 24 32 25 33 26 34 76 35
REMARK SMILES IDX 27 36 81 37 75 38 77 39 28 40 80 41 74 42 73 43 29 45 61 46
REMARK SMILES IDX 41 47 60 48 42 49 45 50 59 51 78 52 43 53 44 54 58 56 79 57
REMARK SMILES IDX 46 58 30 59 31 60 39 61 32 62 33 63 37 64 40 65 34 66 35 67
REMARK SMILES IDX 38 68 36 69 62 70 63 71 71 72 64 73 65 74 69 75 72 76 66 77
REMARK SMILES IDX 67 78 70 79 68 80 47 81 48 82 56 83 49 84 50 85 54 86 57 87
REMARK SMILES IDX 51 88 52 89 55 90 53 91
REMARK H PARENT 14 6 18 25 77 44 45 55
REMARK Flexibility Score: inf
ROOT
ATOM      1  C   UNL A   1      32.966  29.829  27.231  1.00  0.00     0.042 C 
ENDROOT
BRANCH   1   2
ATOM      2  C   UNL A   1      32.253  29.867  25.871  1.00  0.00     0.118 C 
BRANCH   2   3
ATOM      3  N   UNL A   1      33.182  29.711  24.756  1.00  0.00    -0.352 N 
ATOM      4  C   UNL A   1      33.589  28.610  24.037  1.00  0.00     0.251 C 
ATOM      5  O   UNL A   1      34.319  28.795  23.064  1.00  0.00    -0.269 OA
ATOM      6  H   UNL A   1      33.595  30.555  24.462  1.00  0.00     0.163 HD
BRANCH   4   7
ATOM      7  C   UNL A   1      33.131  27.226  24.350  1.00  0.00     0.039 A 
ATOM      8  C   UNL A   1      32.581  24.532  24.820  1.00  0.00     0.067 A 
ATOM      9  C   UNL A   1      33.429  25.210  25.694  1.00  0.00     0.029 A 
ATOM     10  C   UNL A   1      31.903  25.212  23.810  1.00  0.00     0.029 A 
ATOM     11  C   UNL A   1      33.725  26.554  25.434  1.00  0.00     0.016 A 
ATOM     12  C   UNL A   1      32.150  26.563  23.614  1.00  0.00     0.016 A 
BRANCH   8  13
ATOM     13  N   UNL A   1      32.448  23.136  24.887  1.00  0.00    -0.217 N 
ATOM     14  C   UNL A   1      32.477  21.012  24.429  1.00  0.00     0.151 A 
ATOM     15  N   UNL A   1      31.508  21.260  25.371  1.00  0.00    -0.126 NA
ATOM     16  C   UNL A   1      33.134  22.194  24.136  1.00  0.00     0.073 A 
ATOM     17  N   UNL A   1      31.578  22.539  25.718  1.00  0.00    -0.061 NA
ATOM     18  C   UNL A   1      34.322  22.523  23.308  1.00  0.00     0.069 C 
BRANCH  14  19
ATOM     19  C   UNL A   1      32.725  19.672  23.919  1.00  0.00     0.181 C 
ATOM     20  C   UNL A   1      33.672  18.789  24.693  1.00  0.00     0.095 C 
ATOM     21  O   UNL A   1      32.179  19.259  22.897  1.00  0.00    -0.293 OA
ENDBRANCH  14  19
ENDBRANCH   8  13
ENDBRANCH   4   7
ENDBRANCH   2   3
ENDBRANCH   1   2
BRANCH   1  22
ATOM     22  C   UNL A   1      34.154  30.768  27.288  1.00  0.00     0.118 C 
BRANCH  22  23
ATOM     23  N   UNL A   1      34.101  31.681  28.434  1.00  0.00    -0.352 N 
ATOM     24  C   UNL A   1      34.964  31.761  29.507  1.00  0.00     0.251 C 
ATOM     25  H   UNL A   1      33.352  32.320  28.437  1.00  0.00     0.163 HD
ATOM     26  O   UNL A   1      34.616  32.310  30.553  1.00  0.00    -0.269 OA
BRANCH  24  27
ATOM     27  C   UNL A   1      36.308  31.176  29.388  1.00  0.00     0.039 A 
ATOM     28  C   UNL A   1      37.455  31.966  29.259  1.00  0.00     0.014 A 
ATOM     29  C   UNL A   1      36.407  29.792  29.447  1.00  0.00     0.014 A 
ATOM     30  C   UNL A   1      38.700  31.339  29.266  1.00  0.00     0.010 A 
ATOM     31  C   UNL A   1      37.617  29.210  29.691  1.00  0.00     0.010 A 
ATOM     32  C   UNL A   1      38.767  29.958  29.503  1.00  0.00    -0.014 A 
BRANCH  32  33
ATOM     33  C   UNL A   1      40.035  29.260  29.664  1.00  0.00     0.031 A 
ATOM     34  C   UNL A   1      40.450  29.107  31.080  1.00  0.00     0.074 A 
ATOM     35  C   UNL A   1      40.634  28.609  28.642  1.00  0.00     0.049 A 
ATOM     36  N   UNL A   1      41.436  29.689  31.676  1.00  0.00    -0.248 NA
ATOM     37  C   UNL A   1      39.567  28.356  31.989  1.00  0.00     0.031 C 
ATOM     38  C   UNL A   1      40.137  28.423  27.269  1.00  0.00     0.029 A 
ATOM     39  N   UNL A   1      41.778  27.872  28.637  1.00  0.00    -0.354 N 
ATOM     40  C   UNL A   1      41.434  29.199  32.980  1.00  0.00     0.074 A 
ATOM     41  C   UNL A   1      40.155  28.571  33.168  1.00  0.00     0.031 C 
ATOM     42  C   UNL A   1      40.843  27.452  26.650  1.00  0.00     0.029 A 
ATOM     43  C   UNL A   1      41.951  27.078  27.507  1.00  0.00     0.049 A 
ATOM     44  H   UNL A   1      42.432  27.898  29.374  1.00  0.00     0.167 HD
ATOM     45  C   UNL A   1      42.604  29.093  33.670  1.00  0.00     0.037 A 
ATOM     46  C   UNL A   1      42.936  26.172  27.294  1.00  0.00     0.037 A 
ATOM     47  C   UNL A   1      43.641  29.848  33.004  1.00  0.00     0.049 A 
ATOM     48  C   UNL A   1      44.034  26.512  28.226  1.00  0.00     0.074 A 
ATOM     49  C   UNL A   1      43.894  31.177  32.742  1.00  0.00     0.029 A 
ATOM     50  N   UNL A   1      44.415  29.119  32.136  1.00  0.00    -0.354 N 
ATOM     51  N   UNL A   1      44.751  27.597  28.133  1.00  0.00    -0.248 NA
ATOM     52  C   UNL A   1      44.078  25.841  29.517  1.00  0.00     0.031 C 
ATOM     53  C   UNL A   1      44.568  31.197  31.483  1.00  0.00     0.029 A 
ATOM     54  C   UNL A   1      44.755  29.882  31.056  1.00  0.00     0.049 A 
ATOM     55  H   UNL A   1      44.684  28.183  32.273  1.00  0.00     0.167 HD
ATOM     56  C   UNL A   1      44.968  27.981  29.446  1.00  0.00     0.074 A 
ATOM     57  C   UNL A   1      44.678  26.791  30.240  1.00  0.00     0.031 C 
ATOM     58  C   UNL A   1      45.060  29.307  29.763  1.00  0.00     0.037 A 
BRANCH  45  59
ATOM     59  C   UNL A   1      42.961  27.953  34.612  1.00  0.00     0.064 A 
ATOM     60  C   UNL A   1      43.260  28.268  35.957  1.00  0.00     0.173 A 
ATOM     61  C   UNL A   1      43.345  26.658  34.203  1.00  0.00     0.173 A 
ATOM     62  F   UNL A   1      42.937  29.466  36.468  1.00  0.00    -0.203 F 
ATOM     63  C   UNL A   1      43.990  27.404  36.780  1.00  0.00     0.198 A 
ATOM     64  C   UNL A   1      44.032  25.780  35.043  1.00  0.00     0.198 A 
ATOM     65  F   UNL A   1      43.180  26.215  32.954  1.00  0.00    -0.203 F 
ATOM     66  F   UNL A   1      44.372  27.809  37.997  1.00  0.00    -0.200 F 
ATOM     67  C   UNL A   1      44.387  26.166  36.316  1.00  0.00     0.200 A 
ATOM     68  F   UNL A   1      44.420  24.588  34.568  1.00  0.00    -0.200 F 
ATOM     69  F   UNL A   1      45.150  25.365  37.072  1.00  0.00    -0.200 F 
ENDBRANCH  45  59
BRANCH  46  70
ATOM     70  C   UNL A   1      42.916  24.901  26.535  1.00  0.00     0.064 A 
ATOM     71  C   UNL A   1      43.701  24.733  25.381  1.00  0.00     0.173 A 
ATOM     72  C   UNL A   1      42.370  23.733  27.097  1.00  0.00     0.173 A 
ATOM     73  F   UNL A   1      44.289  25.792  24.806  1.00  0.00    -0.203 F 
ATOM     74  C   UNL A   1      43.958  23.465  24.847  1.00  0.00     0.198 A 
ATOM     75  C   UNL A   1      42.625  22.468  26.561  1.00  0.00     0.198 A 
ATOM     76  F   UNL A   1      41.663  23.789  28.236  1.00  0.00    -0.203 F 
ATOM     77  F   UNL A   1      44.771  23.339  23.787  1.00  0.00    -0.200 F 
ATOM     78  C   UNL A   1      43.433  22.334  25.447  1.00  0.00     0.200 A 
ATOM     79  F   UNL A   1      42.145  21.377  27.173  1.00  0.00    -0.200 F 
ATOM     80  F   UNL A   1      43.740  21.115  24.980  1.00  0.00    -0.200 F 
ENDBRANCH  46  70
BRANCH  58  81
ATOM     81  C   UNL A   1      45.330  30.260  28.634  1.00  0.00     0.064 A 
ATOM     82  C   UNL A   1      44.338  30.907  27.879  1.00  0.00     0.173 A 
ATOM     83  C   UNL A   1      46.663  30.602  28.373  1.00  0.00     0.173 A 
ATOM     84  F   UNL A   1      43.038  30.703  28.123  1.00  0.00    -0.203 F 
ATOM     85  C   UNL A   1      44.672  31.820  26.878  1.00  0.00     0.198 A 
ATOM     86  C   UNL A   1      46.993  31.541  27.402  1.00  0.00     0.198 A 
ATOM     87  F   UNL A   1      47.651  30.049  29.096  1.00  0.00    -0.203 F 
ATOM     88  F   UNL A   1      43.708  32.410  26.156  1.00  0.00    -0.200 F 
ATOM     89  C   UNL A   1      45.998  32.140  26.646  1.00  0.00     0.200 A 
ATOM     90  F   UNL A   1      48.275  31.880  27.213  1.00  0.00    -0.200 F 
ATOM     91  F   UNL A   1      46.320  33.043  25.709  1.00  0.00    -0.200 F 
ENDBRANCH  58  81
ENDBRANCH  32  33
ENDBRANCH  24  27
ENDBRANCH  22  23
ENDBRANCH   1  22
TORSDOF 12
ENDMDL
