MODEL 1
REMARK VINA RESULT:     -12.4      0.000      0.000
REMARK SMILES C[C@H](C(=O)NCCCNC(=O)c1ccc(-c2c3nc(c(-c4c(F)c(F)c(F)c(F)c4F)c4ccc([nH]4)c(-c4c(F)c(F)c(F)c(F)c4F)c4nc(c(-c5c(F)c(F)c(F)c(F)c5F)c5ccc2[nH]5)C=C4)C=C3)cc1)[C@@H](C)Nc1cc(F)cc(F)c1F
REMARK SMILES IDX 6 1 5 2 3 3 4 4 2 6 1 7 75 8 76 9 77 10 78 12 79 13 85 14
REMARK SMILES IDX 80 15 83 16 86 17 81 18 82 19 84 20 7 21 8 22 9 23 10 24
REMARK SMILES IDX 11 26 12 27 13 28 74 29 14 30 73 31 15 32 16 33 17 34 67 35
REMARK SMILES IDX 18 36 72 37 66 38 68 39 19 40 71 41 65 42 64 43 20 45 52 46
REMARK SMILES IDX 32 47 51 48 33 49 36 50 50 51 69 52 34 53 35 54 49 56 70 57
REMARK SMILES IDX 37 58 21 59 22 60 30 61 23 62 24 63 28 64 31 65 25 66 26 67
REMARK SMILES IDX 29 68 27 69 53 70 54 71 62 72 55 73 56 74 60 75 63 76 57 77
REMARK SMILES IDX 58 78 61 79 59 80 38 81 39 82 47 83 40 84 41 85 45 86 48 87
REMARK SMILES IDX 42 88 43 89 46 90 44 91
REMARK H PARENT 5 5 77 11 9 25 68 44 36 55
REMARK Flexibility Score: inf
ROOT
ATOM      1  C   UNL A   1      31.714  30.736  26.063  1.00  0.00     0.117 C 
ENDROOT
BRANCH   1   2
ATOM      2  N   UNL A   1      32.960  30.104  26.473  1.00  0.00    -0.356 N 
ATOM      3  C   UNL A   1      33.750  29.107  26.012  1.00  0.00     0.224 C 
ATOM      4  O   UNL A   1      34.841  29.019  26.596  1.00  0.00    -0.275 OA
ATOM      5  H   UNL A   1      33.320  30.505  27.296  1.00  0.00     0.163 HD
BRANCH   3   6
ATOM      6  C   UNL A   1      33.421  28.078  24.916  1.00  0.00     0.097 C 
ATOM      7  C   UNL A   1      32.489  27.045  25.578  1.00  0.00     0.020 C 
BRANCH   6   8
ATOM      8  C   UNL A   1      32.862  28.606  23.588  1.00  0.00     0.088 C 
ATOM      9  C   UNL A   1      33.889  28.444  22.455  1.00  0.00     0.031 C 
BRANCH   8  10
ATOM     10  N   UNL A   1      31.662  27.888  23.162  1.00  0.00    -0.379 N 
ATOM     11  H   UNL A   1      31.746  26.919  23.007  1.00  0.00     0.160 HD
BRANCH  10  12
ATOM     12  C   UNL A   1      30.414  28.459  22.960  1.00  0.00     0.077 A 
ATOM     13  C   UNL A   1      30.358  29.615  22.166  1.00  0.00     0.068 A 
ATOM     14  C   UNL A   1      29.185  27.942  23.413  1.00  0.00     0.182 A 
ATOM     15  C   UNL A   1      29.139  30.209  21.836  1.00  0.00     0.128 A 
ATOM     16  C   UNL A   1      27.973  28.544  23.069  1.00  0.00     0.163 A 
ATOM     17  F   UNL A   1      29.135  26.865  24.214  1.00  0.00    -0.201 F 
ATOM     18  F   UNL A   1      29.133  31.306  21.069  1.00  0.00    -0.207 F 
ATOM     19  C   UNL A   1      27.939  29.679  22.276  1.00  0.00     0.081 A 
ATOM     20  F   UNL A   1      26.820  28.018  23.508  1.00  0.00    -0.204 F 
ENDBRANCH  10  12
ENDBRANCH   8  10
ENDBRANCH   6   8
ENDBRANCH   3   6
ENDBRANCH   1   2
BRANCH   1  21
ATOM     21  C   UNL A   1      31.422  32.011  26.832  1.00  0.00     0.042 C 
BRANCH  21  22
ATOM     22  C   UNL A   1      32.688  32.695  27.316  1.00  0.00     0.118 C 
BRANCH  22  23
ATOM     23  N   UNL A   1      32.478  34.116  27.594  1.00  0.00    -0.352 N 
ATOM     24  C   UNL A   1      33.003  34.921  28.577  1.00  0.00     0.251 C 
ATOM     25  H   UNL A   1      31.859  34.570  26.976  1.00  0.00     0.163 HD
ATOM     26  O   UNL A   1      32.516  36.021  28.802  1.00  0.00    -0.269 OA
BRANCH  24  27
ATOM     27  C   UNL A   1      34.157  34.446  29.365  1.00  0.00     0.039 A 
ATOM     28  C   UNL A   1      33.952  33.830  30.601  1.00  0.00     0.014 A 
ATOM     29  C   UNL A   1      35.448  34.613  28.866  1.00  0.00     0.014 A 
ATOM     30  C   UNL A   1      35.045  33.307  31.298  1.00  0.00     0.010 A 
ATOM     31  C   UNL A   1      36.509  33.981  29.490  1.00  0.00     0.010 A 
ATOM     32  C   UNL A   1      36.325  33.341  30.725  1.00  0.00    -0.014 A 
BRANCH  32  33
ATOM     33  C   UNL A   1      37.521  32.776  31.395  1.00  0.00     0.031 A 
ATOM     34  C   UNL A   1      38.249  31.633  30.741  1.00  0.00     0.074 A 
ATOM     35  C   UNL A   1      37.870  33.193  32.625  1.00  0.00     0.049 A 
ATOM     36  N   UNL A   1      39.171  30.845  31.230  1.00  0.00    -0.248 NA
ATOM     37  C   UNL A   1      37.836  31.295  29.369  1.00  0.00     0.031 C 
ATOM     38  C   UNL A   1      37.209  34.259  33.380  1.00  0.00     0.029 A 
ATOM     39  N   UNL A   1      38.852  32.745  33.471  1.00  0.00    -0.354 N 
ATOM     40  C   UNL A   1      39.411  29.897  30.244  1.00  0.00     0.074 A 
ATOM     41  C   UNL A   1      38.490  30.164  29.162  1.00  0.00     0.031 C 
ATOM     42  C   UNL A   1      37.816  34.394  34.570  1.00  0.00     0.029 A 
ATOM     43  C   UNL A   1      38.871  33.392  34.682  1.00  0.00     0.049 A 
ATOM     44  H   UNL A   1      39.484  32.029  33.233  1.00  0.00     0.167 HD
ATOM     45  C   UNL A   1      40.337  28.909  30.230  1.00  0.00     0.037 A 
ATOM     46  C   UNL A   1      39.641  33.183  35.767  1.00  0.00     0.037 A 
ATOM     47  C   UNL A   1      41.277  28.684  31.295  1.00  0.00     0.049 A 
ATOM     48  C   UNL A   1      40.678  32.092  35.726  1.00  0.00     0.074 A 
ATOM     49  C   UNL A   1      42.304  27.760  31.360  1.00  0.00     0.029 A 
ATOM     50  N   UNL A   1      41.303  29.400  32.483  1.00  0.00    -0.354 N 
ATOM     51  N   UNL A   1      40.939  31.235  34.769  1.00  0.00    -0.248 NA
ATOM     52  C   UNL A   1      41.530  31.944  36.914  1.00  0.00     0.031 C 
ATOM     53  C   UNL A   1      42.921  27.885  32.608  1.00  0.00     0.029 A 
ATOM     54  C   UNL A   1      42.319  28.928  33.297  1.00  0.00     0.049 A 
ATOM     55  H   UNL A   1      40.689  30.135  32.714  1.00  0.00     0.167 HD
ATOM     56  C   UNL A   1      42.006  30.471  35.220  1.00  0.00     0.074 A 
ATOM     57  C   UNL A   1      42.346  30.969  36.537  1.00  0.00     0.031 C 
ATOM     58  C   UNL A   1      42.652  29.454  34.598  1.00  0.00     0.037 A 
BRANCH  45  59
ATOM     59  C   UNL A   1      40.369  28.008  29.028  1.00  0.00     0.064 A 
ATOM     60  C   UNL A   1      41.114  28.326  27.881  1.00  0.00     0.173 A 
ATOM     61  C   UNL A   1      39.635  26.811  29.017  1.00  0.00     0.173 A 
ATOM     62  F   UNL A   1      41.825  29.464  27.831  1.00  0.00    -0.203 F 
ATOM     63  C   UNL A   1      41.083  27.511  26.754  1.00  0.00     0.198 A 
ATOM     64  C   UNL A   1      39.639  25.977  27.902  1.00  0.00     0.198 A 
ATOM     65  F   UNL A   1      38.910  26.451  30.086  1.00  0.00    -0.203 F 
ATOM     66  F   UNL A   1      41.742  27.878  25.645  1.00  0.00    -0.200 F 
ATOM     67  C   UNL A   1      40.351  26.334  26.766  1.00  0.00     0.200 A 
ATOM     68  F   UNL A   1      38.943  24.832  27.921  1.00  0.00    -0.200 F 
ATOM     69  F   UNL A   1      40.320  25.550  25.680  1.00  0.00    -0.200 F 
ENDBRANCH  45  59
BRANCH  46  70
ATOM     70  C   UNL A   1      39.479  34.049  36.964  1.00  0.00     0.064 A 
ATOM     71  C   UNL A   1      38.723  33.618  38.063  1.00  0.00     0.173 A 
ATOM     72  C   UNL A   1      40.095  35.306  37.049  1.00  0.00     0.173 A 
ATOM     73  F   UNL A   1      38.101  32.431  38.022  1.00  0.00    -0.203 F 
ATOM     74  C   UNL A   1      38.576  34.418  39.194  1.00  0.00     0.198 A 
ATOM     75  C   UNL A   1      39.970  36.093  38.192  1.00  0.00     0.198 A 
ATOM     76  F   UNL A   1      40.836  35.761  36.028  1.00  0.00    -0.203 F 
ATOM     77  F   UNL A   1      37.816  33.997  40.214  1.00  0.00    -0.200 F 
ATOM     78  C   UNL A   1      39.205  35.651  39.261  1.00  0.00     0.200 A 
ATOM     79  F   UNL A   1      40.594  37.278  38.260  1.00  0.00    -0.200 F 
ATOM     80  F   UNL A   1      39.073  36.415  40.354  1.00  0.00    -0.200 F 
ENDBRANCH  46  70
BRANCH  58  81
ATOM     81  C   UNL A   1      43.830  28.844  35.301  1.00  0.00     0.064 A 
ATOM     82  C   UNL A   1      45.136  29.308  35.097  1.00  0.00     0.173 A 
ATOM     83  C   UNL A   1      43.631  27.827  36.247  1.00  0.00     0.173 A 
ATOM     84  F   UNL A   1      45.378  30.269  34.194  1.00  0.00    -0.203 F 
ATOM     85  C   UNL A   1      46.205  28.764  35.804  1.00  0.00     0.198 A 
ATOM     86  C   UNL A   1      44.698  27.307  36.975  1.00  0.00     0.198 A 
ATOM     87  F   UNL A   1      42.398  27.354  36.484  1.00  0.00    -0.203 F 
ATOM     88  F   UNL A   1      47.452  29.194  35.567  1.00  0.00    -0.200 F 
ATOM     89  C   UNL A   1      45.983  27.772  36.750  1.00  0.00     0.200 A 
ATOM     90  F   UNL A   1      44.478  26.362  37.900  1.00  0.00    -0.200 F 
ATOM     91  F   UNL A   1      47.012  27.262  37.442  1.00  0.00    -0.200 F 
ENDBRANCH  58  81
ENDBRANCH  32  33
ENDBRANCH  24  27
ENDBRANCH  22  23
ENDBRANCH  21  22
ENDBRANCH   1  21
TORSDOF 13
ENDMDL
MODEL 2
REMARK VINA RESULT:     -12.4      0.226      1.635
REMARK SMILES C[C@H](C(=O)NCCCNC(=O)c1ccc(-c2c3nc(c(-c4c(F)c(F)c(F)c(F)c4F)c4ccc([nH]4)c(-c4c(F)c(F)c(F)c(F)c4F)c4nc(c(-c5c(F)c(F)c(F)c(F)c5F)c5ccc2[nH]5)C=C4)C=C3)cc1)[C@@H](C)Nc1cc(F)cc(F)c1F
REMARK SMILES IDX 6 1 5 2 3 3 4 4 2 6 1 7 75 8 76 9 77 10 78 12 79 13 85 14
REMARK SMILES IDX 80 15 83 16 86 17 81 18 82 19 84 20 7 21 8 22 9 23 10 24
REMARK SMILES IDX 11 26 12 27 13 28 74 29 14 30 73 31 15 32 16 33 17 34 67 35
REMARK SMILES IDX 18 36 72 37 66 38 68 39 19 40 71 41 65 42 64 43 20 45 52 46
REMARK SMILES IDX 32 47 51 48 33 49 36 50 50 51 69 52 34 53 35 54 49 56 70 57
REMARK SMILES IDX 37 58 21 59 22 60 30 61 23 62 24 63 28 64 31 65 25 66 26 67
REMARK SMILES IDX 29 68 27 69 53 70 54 71 62 72 55 73 56 74 60 75 63 76 57 77
REMARK SMILES IDX 58 78 61 79 59 80 38 81 39 82 47 83 40 84 41 85 45 86 48 87
REMARK SMILES IDX 42 88 43 89 46 90 44 91
REMARK H PARENT 5 5 77 11 9 25 68 44 36 55
REMARK Flexibility Score: inf
ROOT
ATOM      1  C   UNL A   1      31.672  30.603  26.301  1.00  0.00     0.117 C 
ENDROOT
BRANCH   1   2
ATOM      2  N   UNL A   1      32.983  30.120  26.713  1.00  0.00    -0.356 N 
ATOM      3  C   UNL A   1      33.890  29.231  26.249  1.00  0.00     0.224 C 
ATOM      4  O   UNL A   1      34.980  29.269  26.840  1.00  0.00    -0.275 OA
ATOM      5  H   UNL A   1      33.286  30.553  27.544  1.00  0.00     0.163 HD
BRANCH   3   6
ATOM      6  C   UNL A   1      33.696  28.183  25.139  1.00  0.00     0.097 C 
ATOM      7  C   UNL A   1      32.888  27.039  25.781  1.00  0.00     0.020 C 
BRANCH   6   8
ATOM      8  C   UNL A   1      33.088  28.656  23.811  1.00  0.00     0.088 C 
ATOM      9  C   UNL A   1      34.119  28.570  22.673  1.00  0.00     0.031 C 
BRANCH   8  10
ATOM     10  N   UNL A   1      31.947  27.841  23.397  1.00  0.00    -0.379 N 
ATOM     11  H   UNL A   1      32.101  26.876  23.278  1.00  0.00     0.160 HD
BRANCH  10  12
ATOM     12  C   UNL A   1      30.666  28.316  23.159  1.00  0.00     0.077 A 
ATOM     13  C   UNL A   1      30.542  29.444  22.334  1.00  0.00     0.068 A 
ATOM     14  C   UNL A   1      29.469  27.725  23.606  1.00  0.00     0.182 A 
ATOM     15  C   UNL A   1      29.290  29.941  21.968  1.00  0.00     0.128 A 
ATOM     16  C   UNL A   1      28.223  28.229  23.227  1.00  0.00     0.163 A 
ATOM     17  F   UNL A   1      29.481  26.667  24.434  1.00  0.00    -0.201 F 
ATOM     18  F   UNL A   1      29.220  31.015  21.172  1.00  0.00    -0.207 F 
ATOM     19  C   UNL A   1      28.123  29.338  22.403  1.00  0.00     0.081 A 
ATOM     20  F   UNL A   1      27.103  27.634  23.660  1.00  0.00    -0.204 F 
ENDBRANCH  10  12
ENDBRANCH   8  10
ENDBRANCH   6   8
ENDBRANCH   3   6
ENDBRANCH   1   2
BRANCH   1  21
ATOM     21  C   UNL A   1      31.461  32.072  26.614  1.00  0.00     0.042 C 
BRANCH  21  22
ATOM     22  C   UNL A   1      32.640  32.678  27.356  1.00  0.00     0.118 C 
BRANCH  22  23
ATOM     23  N   UNL A   1      32.449  34.104  27.626  1.00  0.00    -0.352 N 
ATOM     24  C   UNL A   1      33.001  34.911  28.593  1.00  0.00     0.251 C 
ATOM     25  H   UNL A   1      31.823  34.559  27.017  1.00  0.00     0.163 HD
ATOM     26  O   UNL A   1      32.529  36.017  28.818  1.00  0.00    -0.269 OA
BRANCH  24  27
ATOM     27  C   UNL A   1      34.165  34.429  29.362  1.00  0.00     0.039 A 
ATOM     28  C   UNL A   1      33.975  33.789  30.589  1.00  0.00     0.014 A 
ATOM     29  C   UNL A   1      35.450  34.616  28.857  1.00  0.00     0.014 A 
ATOM     30  C   UNL A   1      35.077  33.261  31.267  1.00  0.00     0.010 A 
ATOM     31  C   UNL A   1      36.521  33.980  29.459  1.00  0.00     0.010 A 
ATOM     32  C   UNL A   1      36.352  33.316  30.684  1.00  0.00    -0.014 A 
BRANCH  32  33
ATOM     33  C   UNL A   1      37.558  32.748  31.333  1.00  0.00     0.031 A 
ATOM     34  C   UNL A   1      38.283  31.615  30.658  1.00  0.00     0.074 A 
ATOM     35  C   UNL A   1      37.919  33.152  32.565  1.00  0.00     0.049 A 
ATOM     36  N   UNL A   1      39.213  30.826  31.126  1.00  0.00    -0.248 NA
ATOM     37  C   UNL A   1      37.856  31.292  29.286  1.00  0.00     0.031 C 
ATOM     38  C   UNL A   1      37.263  34.206  33.340  1.00  0.00     0.029 A 
ATOM     39  N   UNL A   1      38.913  32.697  33.394  1.00  0.00    -0.354 N 
ATOM     40  C   UNL A   1      39.446  29.891  30.126  1.00  0.00     0.074 A 
ATOM     41  C   UNL A   1      38.512  30.166  29.058  1.00  0.00     0.031 C 
ATOM     42  C   UNL A   1      37.882  34.329  34.524  1.00  0.00     0.029 A 
ATOM     43  C   UNL A   1      38.942  33.330  34.613  1.00  0.00     0.049 A 
ATOM     44  H   UNL A   1      39.545  31.987  33.140  1.00  0.00     0.167 HD
ATOM     45  C   UNL A   1      40.376  28.906  30.090  1.00  0.00     0.037 A 
ATOM     46  C   UNL A   1      39.726  33.111  35.686  1.00  0.00     0.037 A 
ATOM     47  C   UNL A   1      41.328  28.672  31.141  1.00  0.00     0.049 A 
ATOM     48  C   UNL A   1      40.766  32.024  35.621  1.00  0.00     0.074 A 
ATOM     49  C   UNL A   1      42.359  27.752  31.184  1.00  0.00     0.029 A 
ATOM     50  N   UNL A   1      41.365  29.375  32.338  1.00  0.00    -0.354 N 
ATOM     51  N   UNL A   1      41.020  31.180  34.650  1.00  0.00    -0.248 NA
ATOM     52  C   UNL A   1      41.632  31.865  36.796  1.00  0.00     0.031 C 
ATOM     53  C   UNL A   1      42.990  27.864  32.427  1.00  0.00     0.029 A 
ATOM     54  C   UNL A   1      42.392  28.897  33.135  1.00  0.00     0.049 A 
ATOM     55  H   UNL A   1      40.751  30.104  32.585  1.00  0.00     0.167 HD
ATOM     56  C   UNL A   1      42.095  30.415  35.080  1.00  0.00     0.074 A 
ATOM     57  C   UNL A   1      42.448  30.899  36.399  1.00  0.00     0.031 C 
ATOM     58  C   UNL A   1      42.737  29.408  34.438  1.00  0.00     0.037 A 
BRANCH  45  59
ATOM     59  C   UNL A   1      40.397  28.020  28.877  1.00  0.00     0.064 A 
ATOM     60  C   UNL A   1      39.701  26.801  28.836  1.00  0.00     0.173 A 
ATOM     61  C   UNL A   1      41.132  28.390  27.739  1.00  0.00     0.173 A 
ATOM     62  F   UNL A   1      38.992  26.392  29.899  1.00  0.00    -0.203 F 
ATOM     63  C   UNL A   1      39.781  25.964  27.727  1.00  0.00     0.198 A 
ATOM     64  C   UNL A   1      41.176  27.568  26.615  1.00  0.00     0.198 A 
ATOM     65  F   UNL A   1      41.811  29.546  27.718  1.00  0.00    -0.203 F 
ATOM     66  F   UNL A   1      39.170  24.771  27.745  1.00  0.00    -0.200 F 
ATOM     67  C   UNL A   1      40.513  26.350  26.615  1.00  0.00     0.200 A 
ATOM     68  F   UNL A   1      41.873  27.950  25.536  1.00  0.00    -0.200 F 
ATOM     69  F   UNL A   1      40.592  25.543  25.548  1.00  0.00    -0.200 F 
ENDBRANCH  45  59
BRANCH  46  70
ATOM     70  C   UNL A   1      39.573  33.962  36.895  1.00  0.00     0.064 A 
ATOM     71  C   UNL A   1      40.184  35.221  36.966  1.00  0.00     0.173 A 
ATOM     72  C   UNL A   1      38.797  33.550  37.988  1.00  0.00     0.173 A 
ATOM     73  F   UNL A   1      40.951  35.651  35.954  1.00  0.00    -0.203 F 
ATOM     74  C   UNL A   1      40.036  36.031  38.090  1.00  0.00     0.198 A 
ATOM     75  C   UNL A   1      38.627  34.373  39.100  1.00  0.00     0.198 A 
ATOM     76  F   UNL A   1      38.184  32.358  37.966  1.00  0.00    -0.203 F 
ATOM     77  F   UNL A   1      40.662  37.214  38.147  1.00  0.00    -0.200 F 
ATOM     78  C   UNL A   1      39.252  35.610  39.153  1.00  0.00     0.200 A 
ATOM     79  F   UNL A   1      37.854  33.969  40.118  1.00  0.00    -0.200 F 
ATOM     80  F   UNL A   1      39.101  36.394  40.230  1.00  0.00    -0.200 F 
ENDBRANCH  46  70
BRANCH  58  81
ATOM     81  C   UNL A   1      43.926  28.795  35.120  1.00  0.00     0.064 A 
ATOM     82  C   UNL A   1      45.223  29.295  34.942  1.00  0.00     0.173 A 
ATOM     83  C   UNL A   1      43.746  27.734  36.022  1.00  0.00     0.173 A 
ATOM     84  F   UNL A   1      45.447  30.298  34.081  1.00  0.00    -0.203 F 
ATOM     85  C   UNL A   1      46.301  28.744  35.631  1.00  0.00     0.198 A 
ATOM     86  C   UNL A   1      44.820  27.208  36.733  1.00  0.00     0.198 A 
ATOM     87  F   UNL A   1      42.522  27.226  36.234  1.00  0.00    -0.203 F 
ATOM     88  F   UNL A   1      47.538  29.211  35.418  1.00  0.00    -0.200 F 
ATOM     89  C   UNL A   1      46.097  27.709  36.533  1.00  0.00     0.200 A 
ATOM     90  F   UNL A   1      44.617  26.220  37.616  1.00  0.00    -0.200 F 
ATOM     91  F   UNL A   1      47.133  27.193  37.207  1.00  0.00    -0.200 F 
ENDBRANCH  58  81
ENDBRANCH  32  33
ENDBRANCH  24  27
ENDBRANCH  22  23
ENDBRANCH  21  22
ENDBRANCH   1  21
TORSDOF 13
ENDMDL
MODEL 3
REMARK VINA RESULT:     -12.2      3.109      5.059
REMARK SMILES C[C@H](C(=O)NCCCNC(=O)c1ccc(-c2c3nc(c(-c4c(F)c(F)c(F)c(F)c4F)c4ccc([nH]4)c(-c4c(F)c(F)c(F)c(F)c4F)c4nc(c(-c5c(F)c(F)c(F)c(F)c5F)c5ccc2[nH]5)C=C4)C=C3)cc1)[C@@H](C)Nc1cc(F)cc(F)c1F
REMARK SMILES IDX 6 1 5 2 3 3 4 4 2 6 1 7 75 8 76 9 77 10 78 12 79 13 85 14
REMARK SMILES IDX 80 15 83 16 86 17 81 18 82 19 84 20 7 21 8 22 9 23 10 24
REMARK SMILES IDX 11 26 12 27 13 28 74 29 14 30 73 31 15 32 16 33 17 34 67 35
REMARK SMILES IDX 18 36 72 37 66 38 68 39 19 40 71 41 65 42 64 43 20 45 52 46
REMARK SMILES IDX 32 47 51 48 33 49 36 50 50 51 69 52 34 53 35 54 49 56 70 57
REMARK SMILES IDX 37 58 21 59 22 60 30 61 23 62 24 63 28 64 31 65 25 66 26 67
REMARK SMILES IDX 29 68 27 69 53 70 54 71 62 72 55 73 56 74 60 75 63 76 57 77
REMARK SMILES IDX 58 78 61 79 59 80 38 81 39 82 47 83 40 84 41 85 45 86 48 87
REMARK SMILES IDX 42 88 43 89 46 90 44 91
REMARK H PARENT 5 5 77 11 9 25 68 44 36 55
REMARK Flexibility Score: inf
ROOT
ATOM      1  C   UNL A   1      32.818  26.386  25.360  1.00  0.00     0.117 C 
ENDROOT
BRANCH   1   2
ATOM      2  N   UNL A   1      32.069  25.490  26.230  1.00  0.00    -0.356 N 
ATOM      3  C   UNL A   1      31.640  24.208  26.179  1.00  0.00     0.224 C 
ATOM      4  O   UNL A   1      31.176  23.790  27.251  1.00  0.00    -0.275 OA
ATOM      5  H   UNL A   1      31.807  25.930  27.070  1.00  0.00     0.163 HD
BRANCH   3   6
ATOM      6  C   UNL A   1      31.624  23.270  24.959  1.00  0.00     0.097 C 
ATOM      7  C   UNL A   1      30.952  24.070  23.826  1.00  0.00     0.020 C 
BRANCH   6   8
ATOM      8  C   UNL A   1      32.956  22.643  24.525  1.00  0.00     0.088 C 
ATOM      9  C   UNL A   1      33.573  23.423  23.352  1.00  0.00     0.031 C 
BRANCH   8  10
ATOM     10  N   UNL A   1      33.952  22.652  25.595  1.00  0.00    -0.379 N 
ATOM     11  H   UNL A   1      33.645  22.900  26.497  1.00  0.00     0.160 HD
BRANCH  10  12
ATOM     12  C   UNL A   1      35.295  22.339  25.443  1.00  0.00     0.077 A 
ATOM     13  C   UNL A   1      36.229  23.322  25.802  1.00  0.00     0.068 A 
ATOM     14  C   UNL A   1      35.812  21.094  25.033  1.00  0.00     0.182 A 
ATOM     15  C   UNL A   1      37.600  23.067  25.765  1.00  0.00     0.128 A 
ATOM     16  C   UNL A   1      37.187  20.852  25.007  1.00  0.00     0.163 A 
ATOM     17  F   UNL A   1      35.001  20.102  24.628  1.00  0.00    -0.201 F 
ATOM     18  F   UNL A   1      38.455  24.032  26.125  1.00  0.00    -0.207 F 
ATOM     19  C   UNL A   1      38.092  21.833  25.376  1.00  0.00     0.081 A 
ATOM     20  F   UNL A   1      37.644  19.651  24.624  1.00  0.00    -0.204 F 
ENDBRANCH  10  12
ENDBRANCH   8  10
ENDBRANCH   6   8
ENDBRANCH   3   6
ENDBRANCH   1   2
BRANCH   1  21
ATOM     21  C   UNL A   1      32.227  27.782  25.306  1.00  0.00     0.042 C 
BRANCH  21  22
ATOM     22  C   UNL A   1      33.291  28.862  25.404  1.00  0.00     0.118 C 
BRANCH  22  23
ATOM     23  N   UNL A   1      32.738  30.145  25.843  1.00  0.00    -0.352 N 
ATOM     24  C   UNL A   1      33.119  30.977  26.868  1.00  0.00     0.251 C 
ATOM     25  H   UNL A   1      31.968  30.463  25.318  1.00  0.00     0.163 HD
ATOM     26  O   UNL A   1      32.381  31.879  27.239  1.00  0.00    -0.269 OA
BRANCH  24  27
ATOM     27  C   UNL A   1      34.425  30.769  27.525  1.00  0.00     0.039 A 
ATOM     28  C   UNL A   1      35.314  31.837  27.665  1.00  0.00     0.014 A 
ATOM     29  C   UNL A   1      34.762  29.505  28.004  1.00  0.00     0.014 A 
ATOM     30  C   UNL A   1      36.509  31.649  28.363  1.00  0.00     0.010 A 
ATOM     31  C   UNL A   1      35.879  29.353  28.806  1.00  0.00     0.010 A 
ATOM     32  C   UNL A   1      36.778  30.416  28.975  1.00  0.00    -0.014 A 
BRANCH  32  33
ATOM     33  C   UNL A   1      38.012  30.158  29.758  1.00  0.00     0.031 A 
ATOM     34  C   UNL A   1      39.041  29.211  29.203  1.00  0.00     0.074 A 
ATOM     35  C   UNL A   1      38.145  30.661  30.998  1.00  0.00     0.049 A 
ATOM     36  N   UNL A   1      40.076  28.670  29.790  1.00  0.00    -0.248 NA
ATOM     37  C   UNL A   1      38.839  28.768  27.814  1.00  0.00     0.031 C 
ATOM     38  C   UNL A   1      37.190  31.550  31.662  1.00  0.00     0.029 A 
ATOM     39  N   UNL A   1      39.128  30.469  31.935  1.00  0.00    -0.354 N 
ATOM     40  C   UNL A   1      40.616  27.793  28.859  1.00  0.00     0.074 A 
ATOM     41  C   UNL A   1      39.755  27.820  27.698  1.00  0.00     0.031 C 
ATOM     42  C   UNL A   1      37.643  31.840  32.892  1.00  0.00     0.029 A 
ATOM     43  C   UNL A   1      38.889  31.117  33.122  1.00  0.00     0.049 A 
ATOM     44  H   UNL A   1      39.928  29.919  31.773  1.00  0.00     0.167 HD
ATOM     45  C   UNL A   1      41.745  27.051  28.953  1.00  0.00     0.037 A 
ATOM     46  C   UNL A   1      39.590  31.109  34.272  1.00  0.00     0.037 A 
ATOM     47  C   UNL A   1      42.616  27.068  30.097  1.00  0.00     0.049 A 
ATOM     48  C   UNL A   1      40.853  30.294  34.352  1.00  0.00     0.074 A 
ATOM     49  C   UNL A   1      43.821  26.414  30.275  1.00  0.00     0.029 A 
ATOM     50  N   UNL A   1      42.370  27.785  31.260  1.00  0.00    -0.354 N 
ATOM     51  N   UNL A   1      41.390  29.511  33.447  1.00  0.00    -0.248 NA
ATOM     52  C   UNL A   1      41.610  30.366  35.608  1.00  0.00     0.031 C 
ATOM     53  C   UNL A   1      44.281  26.697  31.565  1.00  0.00     0.029 A 
ATOM     54  C   UNL A   1      43.394  27.576  32.168  1.00  0.00     0.049 A 
ATOM     55  H   UNL A   1      41.584  28.357  31.416  1.00  0.00     0.167 HD
ATOM     56  C   UNL A   1      42.563  29.026  34.008  1.00  0.00     0.074 A 
ATOM     57  C   UNL A   1      42.661  29.607  35.332  1.00  0.00     0.031 C 
ATOM     58  C   UNL A   1      43.480  28.182  33.474  1.00  0.00     0.037 A 
BRANCH  45  59
ATOM     59  C   UNL A   1      42.091  26.168  27.787  1.00  0.00     0.064 A 
ATOM     60  C   UNL A   1      41.446  24.940  27.570  1.00  0.00     0.173 A 
ATOM     61  C   UNL A   1      43.089  26.550  26.876  1.00  0.00     0.173 A 
ATOM     62  F   UNL A   1      40.493  24.519  28.415  1.00  0.00    -0.203 F 
ATOM     63  C   UNL A   1      41.821  24.106  26.520  1.00  0.00     0.198 A 
ATOM     64  C   UNL A   1      43.433  25.732  25.803  1.00  0.00     0.198 A 
ATOM     65  F   UNL A   1      43.735  27.716  27.029  1.00  0.00    -0.203 F 
ATOM     66  F   UNL A   1      41.243  22.905  26.381  1.00  0.00    -0.200 F 
ATOM     67  C   UNL A   1      42.810  24.505  25.634  1.00  0.00     0.200 A 
ATOM     68  F   UNL A   1      44.379  26.126  24.939  1.00  0.00    -0.200 F 
ATOM     69  F   UNL A   1      43.171  23.701  24.624  1.00  0.00    -0.200 F 
ENDBRANCH  45  59
BRANCH  46  70
ATOM     70  C   UNL A   1      39.126  31.927  35.423  1.00  0.00     0.064 A 
ATOM     71  C   UNL A   1      39.440  33.291  35.506  1.00  0.00     0.173 A 
ATOM     72  C   UNL A   1      38.340  31.376  36.445  1.00  0.00     0.173 A 
ATOM     73  F   UNL A   1      40.204  33.860  34.562  1.00  0.00    -0.203 F 
ATOM     74  C   UNL A   1      39.000  34.068  36.574  1.00  0.00     0.198 A 
ATOM     75  C   UNL A   1      37.876  32.161  37.499  1.00  0.00     0.198 A 
ATOM     76  F   UNL A   1      38.004  30.078  36.409  1.00  0.00    -0.203 F 
ATOM     77  F   UNL A   1      39.347  35.360  36.647  1.00  0.00    -0.200 F 
ATOM     78  C   UNL A   1      38.211  33.505  37.566  1.00  0.00     0.200 A 
ATOM     79  F   UNL A   1      37.100  31.617  38.447  1.00  0.00    -0.200 F 
ATOM     80  F   UNL A   1      37.778  34.256  38.588  1.00  0.00    -0.200 F 
ENDBRANCH  46  70
BRANCH  58  81
ATOM     81  C   UNL A   1      44.703  27.877  34.290  1.00  0.00     0.064 A 
ATOM     82  C   UNL A   1      45.849  28.682  34.238  1.00  0.00     0.173 A 
ATOM     83  C   UNL A   1      44.694  26.801  35.190  1.00  0.00     0.173 A 
ATOM     84  F   UNL A   1      45.911  29.715  33.384  1.00  0.00    -0.203 F 
ATOM     85  C   UNL A   1      46.949  28.411  35.047  1.00  0.00     0.198 A 
ATOM     86  C   UNL A   1      45.783  26.551  36.020  1.00  0.00     0.198 A 
ATOM     87  F   UNL A   1      43.617  26.005  35.283  1.00  0.00    -0.203 F 
ATOM     88  F   UNL A   1      48.050  29.169  34.955  1.00  0.00    -0.200 F 
ATOM     89  C   UNL A   1      46.910  27.353  35.945  1.00  0.00     0.200 A 
ATOM     90  F   UNL A   1      45.735  25.540  36.898  1.00  0.00    -0.200 F 
ATOM     91  F   UNL A   1      47.964  27.104  36.735  1.00  0.00    -0.200 F 
ENDBRANCH  58  81
ENDBRANCH  32  33
ENDBRANCH  24  27
ENDBRANCH  22  23
ENDBRANCH  21  22
ENDBRANCH   1  21
TORSDOF 13
ENDMDL
