MODEL 1
REMARK VINA RESULT:     -12.7      0.000      0.000
REMARK SMILES O=C(CC1(NC(=O)c2cc([N+](=O)[O-])ccc2F)CCC1)NCCCNC(=O)c1ccc(-c2c3nc(c(-c4c(F)c(F)c(F)c(F)c4F)c4ccc([nH]4)c(-c4c(F)c(F)c(F)c(F)c4F)c4nc(c(-c5c(F)c(F)c(F)c(F)c5F)c5ccc2[nH]5)C=C4)C=C3)cc1
REMARK SMILES IDX 22 1 21 2 1 3 2 4 3 6 4 7 18 8 20 9 19 10 5 11 6 12 7 14
REMARK SMILES IDX 8 15 9 16 16 17 10 18 15 19 17 20 14 21 11 22 12 23 13 24
REMARK SMILES IDX 23 25 24 26 25 27 26 28 27 30 28 31 29 32 90 33 30 34 89 35
REMARK SMILES IDX 31 36 32 37 33 38 83 39 34 40 88 41 82 42 84 43 35 44 87 45
REMARK SMILES IDX 81 46 80 47 36 49 68 50 48 51 67 52 49 53 52 54 66 55 85 56
REMARK SMILES IDX 50 57 51 58 65 60 86 61 53 62 37 63 38 64 46 65 39 66 40 67
REMARK SMILES IDX 44 68 47 69 41 70 42 71 45 72 43 73 69 74 70 75 78 76 71 77
REMARK SMILES IDX 72 78 76 79 79 80 73 81 74 82 77 83 75 84 54 85 55 86 63 87
REMARK SMILES IDX 56 88 57 89 61 90 64 91 58 92 59 93 62 94 60 95
REMARK H PARENT 21 5 5 13 25 29 84 48 52 59
REMARK Flexibility Score: inf
ROOT
ATOM      1  C   UNL A   1      31.431  30.649  26.528  1.00  0.00     0.117 C 
ENDROOT
BRANCH   1   2
ATOM      2  N   UNL A   1      32.169  30.039  25.438  1.00  0.00    -0.356 N 
ATOM      3  O   UNL A   1      33.924  29.360  26.726  1.00  0.00    -0.275 OA
ATOM      4  C   UNL A   1      33.319  29.327  25.655  1.00  0.00     0.222 C 
ATOM      5  H   UNL A   1      31.835  30.140  24.518  1.00  0.00     0.163 HD
BRANCH   4   6
ATOM      6  C   UNL A   1      33.805  28.435  24.539  1.00  0.00     0.128 C 
BRANCH   6   7
ATOM      7  C   UNL A   1      33.429  26.956  24.501  1.00  0.00     0.049 C 
ATOM      8  C   UNL A   1      34.426  26.067  25.304  1.00  0.00     0.029 C 
ATOM      9  C   UNL A   1      32.352  26.612  25.580  1.00  0.00     0.029 C 
ATOM     10  C   UNL A   1      33.259  25.510  26.133  1.00  0.00     0.005 C 
BRANCH   7  11
ATOM     11  N   UNL A   1      33.091  26.330  23.190  1.00  0.00    -0.346 N 
ATOM     12  C   UNL A   1      31.983  26.294  22.375  1.00  0.00     0.254 C 
ATOM     13  H   UNL A   1      33.845  25.817  22.817  1.00  0.00     0.164 HD
ATOM     14  O   UNL A   1      32.035  25.671  21.316  1.00  0.00    -0.269 OA
BRANCH  12  15
ATOM     15  C   UNL A   1      30.697  26.854  22.779  1.00  0.00     0.082 A 
ATOM     16  C   UNL A   1      30.409  28.163  22.377  1.00  0.00     0.102 A 
ATOM     17  C   UNL A   1      29.787  26.134  23.543  1.00  0.00     0.136 A 
ATOM     18  C   UNL A   1      29.143  28.693  22.644  1.00  0.00     0.270 A 
ATOM     19  C   UNL A   1      28.524  26.663  23.809  1.00  0.00     0.047 A 
ATOM     20  F   UNL A   1      30.076  24.895  23.966  1.00  0.00    -0.206 F 
ATOM     21  C   UNL A   1      28.188  27.938  23.340  1.00  0.00     0.088 A 
BRANCH  18  22
ATOM     22  N   UNL A   1      28.815  30.041  22.167  1.00  0.00     0.062 N 
ATOM     23  O   UNL A   1      29.203  30.999  22.851  1.00  0.00    -0.258 OA
ATOM     24  O   UNL A   1      28.172  30.140  21.114  1.00  0.00    -0.258 OA
ENDBRANCH  18  22
ENDBRANCH  12  15
ENDBRANCH   7  11
ENDBRANCH   6   7
ENDBRANCH   4   6
ENDBRANCH   1   2
BRANCH   1  25
ATOM     25  C   UNL A   1      31.458  32.169  26.506  1.00  0.00     0.042 C 
BRANCH  25  26
ATOM     26  C   UNL A   1      32.579  32.785  27.336  1.00  0.00     0.118 C 
BRANCH  26  27
ATOM     27  N   UNL A   1      32.343  34.189  27.655  1.00  0.00    -0.352 N 
ATOM     28  C   UNL A   1      32.955  35.008  28.574  1.00  0.00     0.251 C 
ATOM     29  H   UNL A   1      31.631  34.618  27.128  1.00  0.00     0.163 HD
ATOM     30  O   UNL A   1      32.489  36.115  28.809  1.00  0.00    -0.269 OA
BRANCH  28  31
ATOM     31  C   UNL A   1      34.159  34.547  29.299  1.00  0.00     0.039 A 
ATOM     32  C   UNL A   1      34.014  34.011  30.582  1.00  0.00     0.014 A 
ATOM     33  C   UNL A   1      35.426  34.647  28.721  1.00  0.00     0.014 A 
ATOM     34  C   UNL A   1      35.128  33.494  31.248  1.00  0.00     0.010 A 
ATOM     35  C   UNL A   1      36.520  34.064  29.350  1.00  0.00     0.010 A 
ATOM     36  C   UNL A   1      36.383  33.473  30.616  1.00  0.00    -0.014 A 
BRANCH  36  37
ATOM     37  C   UNL A   1      37.565  32.823  31.239  1.00  0.00     0.031 A 
ATOM     38  C   UNL A   1      38.244  31.678  30.543  1.00  0.00     0.074 A 
ATOM     39  C   UNL A   1      37.962  33.196  32.471  1.00  0.00     0.049 A 
ATOM     40  N   UNL A   1      39.180  30.878  30.987  1.00  0.00    -0.248 NA
ATOM     41  C   UNL A   1      37.797  31.377  29.175  1.00  0.00     0.031 C 
ATOM     42  C   UNL A   1      37.368  34.276  33.259  1.00  0.00     0.029 A 
ATOM     43  N   UNL A   1      38.946  32.693  33.287  1.00  0.00    -0.354 N 
ATOM     44  C   UNL A   1      39.415  29.969  29.964  1.00  0.00     0.074 A 
ATOM     45  C   UNL A   1      38.497  30.288  28.893  1.00  0.00     0.031 C 
ATOM     46  C   UNL A   1      38.007  34.365  34.436  1.00  0.00     0.029 A 
ATOM     47  C   UNL A   1      39.017  33.313  34.511  1.00  0.00     0.049 A 
ATOM     48  H   UNL A   1      39.544  31.957  33.021  1.00  0.00     0.167 HD
ATOM     49  C   UNL A   1      40.330  28.972  29.919  1.00  0.00     0.037 A 
ATOM     50  C   UNL A   1      39.790  33.050  35.584  1.00  0.00     0.037 A 
ATOM     51  C   UNL A   1      41.259  28.680  30.978  1.00  0.00     0.049 A 
ATOM     52  C   UNL A   1      40.771  31.911  35.523  1.00  0.00     0.074 A 
ATOM     53  C   UNL A   1      42.261  27.725  31.001  1.00  0.00     0.029 A 
ATOM     54  N   UNL A   1      41.300  29.334  32.200  1.00  0.00    -0.354 N 
ATOM     55  N   UNL A   1      41.017  31.087  34.535  1.00  0.00    -0.248 NA
ATOM     56  C   UNL A   1      41.579  31.661  36.726  1.00  0.00     0.031 C 
ATOM     57  C   UNL A   1      42.873  27.765  32.255  1.00  0.00     0.029 A 
ATOM     58  C   UNL A   1      42.294  28.785  32.993  1.00  0.00     0.049 A 
ATOM     59  H   UNL A   1      40.712  30.078  32.464  1.00  0.00     0.167 HD
ATOM     60  C   UNL A   1      42.023  30.241  34.983  1.00  0.00     0.074 A 
ATOM     61  C   UNL A   1      42.347  30.653  36.331  1.00  0.00     0.031 C 
ATOM     62  C   UNL A   1      42.621  29.216  34.329  1.00  0.00     0.037 A 
BRANCH  49  63
ATOM     63  C   UNL A   1      40.389  28.125  28.682  1.00  0.00     0.064 A 
ATOM     64  C   UNL A   1      39.734  26.884  28.639  1.00  0.00     0.173 A 
ATOM     65  C   UNL A   1      41.162  28.499  27.574  1.00  0.00     0.173 A 
ATOM     66  F   UNL A   1      38.989  26.474  29.676  1.00  0.00    -0.203 F 
ATOM     67  C   UNL A   1      39.866  26.043  27.537  1.00  0.00     0.198 A 
ATOM     68  C   UNL A   1      41.266  27.669  26.461  1.00  0.00     0.198 A 
ATOM     69  F   UNL A   1      41.801  29.678  27.563  1.00  0.00    -0.203 F 
ATOM     70  F   UNL A   1      39.264  24.846  27.534  1.00  0.00    -0.200 F 
ATOM     71  C   UNL A   1      40.628  26.438  26.448  1.00  0.00     0.200 A 
ATOM     72  F   UNL A   1      41.985  28.061  25.400  1.00  0.00    -0.200 F 
ATOM     73  F   UNL A   1      40.748  25.630  25.385  1.00  0.00    -0.200 F 
ENDBRANCH  49  63
BRANCH  50  74
ATOM     74  C   UNL A   1      39.673  33.900  36.798  1.00  0.00     0.064 A 
ATOM     75  C   UNL A   1      38.864  33.526  37.882  1.00  0.00     0.173 A 
ATOM     76  C   UNL A   1      40.348  35.126  36.881  1.00  0.00     0.173 A 
ATOM     77  F   UNL A   1      38.196  32.363  37.852  1.00  0.00    -0.203 F 
ATOM     78  C   UNL A   1      38.716  34.357  38.991  1.00  0.00     0.198 A 
ATOM     79  C   UNL A   1      40.221  35.943  38.002  1.00  0.00     0.198 A 
ATOM     80  F   UNL A   1      41.150  35.516  35.880  1.00  0.00    -0.203 F 
ATOM     81  F   UNL A   1      37.909  33.994  39.996  1.00  0.00    -0.200 F 
ATOM     82  C   UNL A   1      39.398  35.564  39.051  1.00  0.00     0.200 A 
ATOM     83  F   UNL A   1      40.902  37.095  38.068  1.00  0.00    -0.200 F 
ATOM     84  F   UNL A   1      39.264  36.358  40.122  1.00  0.00    -0.200 F 
ENDBRANCH  50  74
BRANCH  62  85
ATOM     85  C   UNL A   1      43.717  28.471  35.033  1.00  0.00     0.064 A 
ATOM     86  C   UNL A   1      43.407  27.405  35.892  1.00  0.00     0.173 A 
ATOM     87  C   UNL A   1      45.051  28.893  34.961  1.00  0.00     0.173 A 
ATOM     88  F   UNL A   1      42.142  26.970  36.001  1.00  0.00    -0.203 F 
ATOM     89  C   UNL A   1      44.389  26.811  36.679  1.00  0.00     0.198 A 
ATOM     90  C   UNL A   1      46.036  28.278  35.730  1.00  0.00     0.198 A 
ATOM     91  F   UNL A   1      45.399  29.900  34.146  1.00  0.00    -0.203 F 
ATOM     92  F   UNL A   1      44.061  25.831  37.533  1.00  0.00    -0.200 F 
ATOM     93  C   UNL A   1      45.702  27.249  36.599  1.00  0.00     0.200 A 
ATOM     94  F   UNL A   1      47.309  28.689  35.639  1.00  0.00    -0.200 F 
ATOM     95  F   UNL A   1      46.646  26.684  37.364  1.00  0.00    -0.200 F 
ENDBRANCH  62  85
ENDBRANCH  36  37
ENDBRANCH  28  31
ENDBRANCH  26  27
ENDBRANCH  25  26
ENDBRANCH   1  25
TORSDOF 14
ENDMDL
MODEL 2
REMARK VINA RESULT:     -12.7      0.284      1.190
REMARK SMILES O=C(CC1(NC(=O)c2cc([N+](=O)[O-])ccc2F)CCC1)NCCCNC(=O)c1ccc(-c2c3nc(c(-c4c(F)c(F)c(F)c(F)c4F)c4ccc([nH]4)c(-c4c(F)c(F)c(F)c(F)c4F)c4nc(c(-c5c(F)c(F)c(F)c(F)c5F)c5ccc2[nH]5)C=C4)C=C3)cc1
REMARK SMILES IDX 22 1 21 2 1 3 2 4 3 6 4 7 18 8 20 9 19 10 5 11 6 12 7 14
REMARK SMILES IDX 8 15 9 16 16 17 10 18 15 19 17 20 14 21 11 22 12 23 13 24
REMARK SMILES IDX 23 25 24 26 25 27 26 28 27 30 28 31 29 32 90 33 30 34 89 35
REMARK SMILES IDX 31 36 32 37 33 38 83 39 34 40 88 41 82 42 84 43 35 44 87 45
REMARK SMILES IDX 81 46 80 47 36 49 68 50 48 51 67 52 49 53 52 54 66 55 85 56
REMARK SMILES IDX 50 57 51 58 65 60 86 61 53 62 37 63 38 64 46 65 39 66 40 67
REMARK SMILES IDX 44 68 47 69 41 70 42 71 45 72 43 73 69 74 70 75 78 76 71 77
REMARK SMILES IDX 72 78 76 79 79 80 73 81 74 82 77 83 75 84 54 85 55 86 63 87
REMARK SMILES IDX 56 88 57 89 61 90 64 91 58 92 59 93 62 94 60 95
REMARK H PARENT 21 5 5 13 25 29 84 48 52 59
REMARK Flexibility Score: inf
ROOT
ATOM      1  C   UNL A   1      31.726  30.395  26.733  1.00  0.00     0.117 C 
ENDROOT
BRANCH   1   2
ATOM      2  N   UNL A   1      32.437  29.793  25.622  1.00  0.00    -0.356 N 
ATOM      3  O   UNL A   1      34.077  28.859  26.902  1.00  0.00    -0.275 OA
ATOM      4  C   UNL A   1      33.507  28.960  25.816  1.00  0.00     0.222 C 
ATOM      5  H   UNL A   1      32.144  29.989  24.702  1.00  0.00     0.163 HD
BRANCH   4   6
ATOM      6  C   UNL A   1      33.942  28.103  24.651  1.00  0.00     0.128 C 
BRANCH   6   7
ATOM      7  C   UNL A   1      33.512  26.642  24.554  1.00  0.00     0.049 C 
ATOM      8  C   UNL A   1      34.475  25.685  25.320  1.00  0.00     0.029 C 
ATOM      9  C   UNL A   1      32.422  26.294  25.616  1.00  0.00     0.029 C 
ATOM     10  C   UNL A   1      33.287  25.138  26.125  1.00  0.00     0.005 C 
BRANCH   7  11
ATOM     11  N   UNL A   1      33.154  26.082  23.217  1.00  0.00    -0.346 N 
ATOM     12  C   UNL A   1      32.053  26.131  22.395  1.00  0.00     0.254 C 
ATOM     13  H   UNL A   1      33.885  25.547  22.830  1.00  0.00     0.164 HD
ATOM     14  O   UNL A   1      32.082  25.546  21.314  1.00  0.00    -0.269 OA
BRANCH  12  15
ATOM     15  C   UNL A   1      30.792  26.738  22.812  1.00  0.00     0.082 A 
ATOM     16  C   UNL A   1      30.584  28.082  22.481  1.00  0.00     0.102 A 
ATOM     17  C   UNL A   1      29.830  26.028  23.520  1.00  0.00     0.136 A 
ATOM     18  C   UNL A   1      29.344  28.665  22.760  1.00  0.00     0.270 A 
ATOM     19  C   UNL A   1      28.594  26.611  23.798  1.00  0.00     0.047 A 
ATOM     20  F   UNL A   1      30.044  24.753  23.876  1.00  0.00    -0.206 F 
ATOM     21  C   UNL A   1      28.337  27.927  23.398  1.00  0.00     0.088 A 
BRANCH  18  22
ATOM     22  N   UNL A   1      29.098  30.054  22.357  1.00  0.00     0.062 N 
ATOM     23  O   UNL A   1      29.212  30.328  21.153  1.00  0.00    -0.258 OA
ATOM     24  O   UNL A   1      28.792  30.867  23.239  1.00  0.00    -0.258 OA
ENDBRANCH  18  22
ENDBRANCH  12  15
ENDBRANCH   7  11
ENDBRANCH   6   7
ENDBRANCH   4   6
ENDBRANCH   1   2
BRANCH   1  25
ATOM     25  C   UNL A   1      31.627  31.910  26.644  1.00  0.00     0.042 C 
BRANCH  25  26
ATOM     26  C   UNL A   1      32.814  32.649  27.253  1.00  0.00     0.118 C 
BRANCH  26  27
ATOM     27  N   UNL A   1      32.499  34.027  27.614  1.00  0.00    -0.352 N 
ATOM     28  C   UNL A   1      33.032  34.835  28.590  1.00  0.00     0.251 C 
ATOM     29  H   UNL A   1      31.792  34.445  27.072  1.00  0.00     0.163 HD
ATOM     30  O   UNL A   1      32.506  35.910  28.846  1.00  0.00    -0.269 OA
BRANCH  28  31
ATOM     31  C   UNL A   1      34.224  34.400  29.351  1.00  0.00     0.039 A 
ATOM     32  C   UNL A   1      34.046  33.762  30.582  1.00  0.00     0.014 A 
ATOM     33  C   UNL A   1      35.510  34.622  28.857  1.00  0.00     0.014 A 
ATOM     34  C   UNL A   1      35.155  33.270  31.276  1.00  0.00     0.010 A 
ATOM     35  C   UNL A   1      36.606  34.065  29.507  1.00  0.00     0.010 A 
ATOM     36  C   UNL A   1      36.440  33.375  30.719  1.00  0.00    -0.014 A 
BRANCH  36  37
ATOM     37  C   UNL A   1      37.628  32.758  31.363  1.00  0.00     0.031 A 
ATOM     38  C   UNL A   1      38.332  31.612  30.695  1.00  0.00     0.074 A 
ATOM     39  C   UNL A   1      38.009  33.162  32.591  1.00  0.00     0.049 A 
ATOM     40  N   UNL A   1      39.278  30.836  31.162  1.00  0.00    -0.248 NA
ATOM     41  C   UNL A   1      37.901  31.276  29.330  1.00  0.00     0.031 C 
ATOM     42  C   UNL A   1      37.391  34.247  33.352  1.00  0.00     0.029 A 
ATOM     43  N   UNL A   1      38.995  32.691  33.424  1.00  0.00    -0.354 N 
ATOM     44  C   UNL A   1      39.537  29.911  30.159  1.00  0.00     0.074 A 
ATOM     45  C   UNL A   1      38.622  30.193  29.075  1.00  0.00     0.031 C 
ATOM     46  C   UNL A   1      38.019  34.370  34.532  1.00  0.00     0.029 A 
ATOM     47  C   UNL A   1      39.046  33.336  34.636  1.00  0.00     0.049 A 
ATOM     48  H   UNL A   1      39.607  31.961  33.177  1.00  0.00     0.167 HD
ATOM     49  C   UNL A   1      40.468  28.929  30.141  1.00  0.00     0.037 A 
ATOM     50  C   UNL A   1      39.815  33.109  35.719  1.00  0.00     0.037 A 
ATOM     51  C   UNL A   1      41.394  28.673  31.213  1.00  0.00     0.049 A 
ATOM     52  C   UNL A   1      40.815  31.985  35.689  1.00  0.00     0.074 A 
ATOM     53  C   UNL A   1      42.411  27.737  31.262  1.00  0.00     0.029 A 
ATOM     54  N   UNL A   1      41.414  29.352  32.421  1.00  0.00    -0.354 N 
ATOM     55  N   UNL A   1      41.083  31.146  34.719  1.00  0.00    -0.248 NA
ATOM     56  C   UNL A   1      41.618  31.773  36.903  1.00  0.00     0.031 C 
ATOM     57  C   UNL A   1      43.012  27.812  32.520  1.00  0.00     0.029 A 
ATOM     58  C   UNL A   1      42.411  28.836  33.233  1.00  0.00     0.049 A 
ATOM     59  H   UNL A   1      40.811  30.092  32.666  1.00  0.00     0.167 HD
ATOM     60  C   UNL A   1      42.100  30.326  35.191  1.00  0.00     0.074 A 
ATOM     61  C   UNL A   1      42.406  30.771  36.534  1.00  0.00     0.031 C 
ATOM     62  C   UNL A   1      42.720  29.299  34.563  1.00  0.00     0.037 A 
BRANCH  49  63
ATOM     63  C   UNL A   1      40.551  28.059  28.922  1.00  0.00     0.064 A 
ATOM     64  C   UNL A   1      41.316  28.458  27.815  1.00  0.00     0.173 A 
ATOM     65  C   UNL A   1      39.808  26.875  28.814  1.00  0.00     0.173 A 
ATOM     66  F   UNL A   1      42.039  29.588  27.861  1.00  0.00    -0.203 F 
ATOM     67  C   UNL A   1      41.319  27.711  26.639  1.00  0.00     0.198 A 
ATOM     68  C   UNL A   1      39.839  26.114  27.649  1.00  0.00     0.198 A 
ATOM     69  F   UNL A   1      39.068  26.446  29.846  1.00  0.00    -0.203 F 
ATOM     70  F   UNL A   1      42.025  28.133  25.581  1.00  0.00    -0.200 F 
ATOM     71  C   UNL A   1      40.584  26.539  26.559  1.00  0.00     0.200 A 
ATOM     72  F   UNL A   1      39.145  24.970  27.580  1.00  0.00    -0.200 F 
ATOM     73  F   UNL A   1      40.594  25.817  25.429  1.00  0.00    -0.200 F 
ENDBRANCH  49  63
BRANCH  50  74
ATOM     74  C   UNL A   1      39.673  33.980  36.916  1.00  0.00     0.064 A 
ATOM     75  C   UNL A   1      38.865  33.612  38.002  1.00  0.00     0.173 A 
ATOM     76  C   UNL A   1      40.325  35.220  36.978  1.00  0.00     0.173 A 
ATOM     77  F   UNL A   1      38.220  32.437  37.991  1.00  0.00    -0.203 F 
ATOM     78  C   UNL A   1      38.694  34.462  39.093  1.00  0.00     0.198 A 
ATOM     79  C   UNL A   1      40.176  36.057  38.081  1.00  0.00     0.198 A 
ATOM     80  F   UNL A   1      41.126  35.605  35.974  1.00  0.00    -0.203 F 
ATOM     81  F   UNL A   1      37.888  34.104  40.100  1.00  0.00    -0.200 F 
ATOM     82  C   UNL A   1      39.353  35.683  39.133  1.00  0.00     0.200 A 
ATOM     83  F   UNL A   1      40.834  37.223  38.128  1.00  0.00    -0.200 F 
ATOM     84  F   UNL A   1      39.197  36.495  40.187  1.00  0.00    -0.200 F 
ENDBRANCH  50  74
BRANCH  62  85
ATOM     85  C   UNL A   1      43.823  28.587  35.289  1.00  0.00     0.064 A 
ATOM     86  C   UNL A   1      43.521  27.557  36.195  1.00  0.00     0.173 A 
ATOM     87  C   UNL A   1      45.155  29.008  35.190  1.00  0.00     0.173 A 
ATOM     88  F   UNL A   1      42.259  27.124  36.331  1.00  0.00    -0.203 F 
ATOM     89  C   UNL A   1      44.510  26.999  36.999  1.00  0.00     0.198 A 
ATOM     90  C   UNL A   1      46.147  28.428  35.977  1.00  0.00     0.198 A 
ATOM     91  F   UNL A   1      45.495  29.980  34.331  1.00  0.00    -0.203 F 
ATOM     92  F   UNL A   1      44.190  26.056  37.896  1.00  0.00    -0.200 F 
ATOM     93  C   UNL A   1      45.822  27.437  36.891  1.00  0.00     0.200 A 
ATOM     94  F   UNL A   1      47.418  28.838  35.860  1.00  0.00    -0.200 F 
ATOM     95  F   UNL A   1      46.772  26.905  37.673  1.00  0.00    -0.200 F 
ENDBRANCH  62  85
ENDBRANCH  36  37
ENDBRANCH  28  31
ENDBRANCH  26  27
ENDBRANCH  25  26
ENDBRANCH   1  25
TORSDOF 14
ENDMDL
MODEL 3
REMARK VINA RESULT:     -12.7      1.387      2.886
REMARK SMILES O=C(CC1(NC(=O)c2cc([N+](=O)[O-])ccc2F)CCC1)NCCCNC(=O)c1ccc(-c2c3nc(c(-c4c(F)c(F)c(F)c(F)c4F)c4ccc([nH]4)c(-c4c(F)c(F)c(F)c(F)c4F)c4nc(c(-c5c(F)c(F)c(F)c(F)c5F)c5ccc2[nH]5)C=C4)C=C3)cc1
REMARK SMILES IDX 22 1 21 2 1 3 2 4 3 6 4 7 18 8 20 9 19 10 5 11 6 12 7 14
REMARK SMILES IDX 8 15 9 16 16 17 10 18 15 19 17 20 14 21 11 22 12 23 13 24
REMARK SMILES IDX 23 25 24 26 25 27 26 28 27 30 28 31 29 32 90 33 30 34 89 35
REMARK SMILES IDX 31 36 32 37 33 38 83 39 34 40 88 41 82 42 84 43 35 44 87 45
REMARK SMILES IDX 81 46 80 47 36 49 68 50 48 51 67 52 49 53 52 54 66 55 85 56
REMARK SMILES IDX 50 57 51 58 65 60 86 61 53 62 37 63 38 64 46 65 39 66 40 67
REMARK SMILES IDX 44 68 47 69 41 70 42 71 45 72 43 73 69 74 70 75 78 76 71 77
REMARK SMILES IDX 72 78 76 79 79 80 73 81 74 82 77 83 75 84 54 85 55 86 63 87
REMARK SMILES IDX 56 88 57 89 61 90 64 91 58 92 59 93 62 94 60 95
REMARK H PARENT 21 5 5 13 25 29 84 48 52 59
REMARK Flexibility Score: inf
ROOT
ATOM      1  C   UNL A   1      31.675  30.609  26.526  1.00  0.00     0.117 C 
ENDROOT
BRANCH   1   2
ATOM      2  N   UNL A   1      31.881  30.360  25.112  1.00  0.00    -0.356 N 
ATOM      3  O   UNL A   1      33.461  28.743  25.412  1.00  0.00    -0.275 OA
ATOM      4  C   UNL A   1      32.686  29.344  24.669  1.00  0.00     0.222 C 
ATOM      5  H   UNL A   1      31.431  30.936  24.452  1.00  0.00     0.163 HD
BRANCH   4   6
ATOM      6  C   UNL A   1      32.552  28.930  23.223  1.00  0.00     0.128 C 
BRANCH   6   7
ATOM      7  C   UNL A   1      31.407  28.027  22.773  1.00  0.00     0.049 C 
ATOM      8  C   UNL A   1      30.385  27.744  23.915  1.00  0.00     0.029 C 
ATOM      9  C   UNL A   1      30.283  28.841  22.055  1.00  0.00     0.029 C 
ATOM     10  C   UNL A   1      29.248  28.266  23.025  1.00  0.00     0.005 C 
BRANCH   7  11
ATOM     11  N   UNL A   1      31.726  26.778  22.020  1.00  0.00    -0.346 N 
ATOM     12  C   UNL A   1      32.053  25.485  22.356  1.00  0.00     0.254 C 
ATOM     13  H   UNL A   1      31.694  26.913  21.045  1.00  0.00     0.164 HD
ATOM     14  O   UNL A   1      32.254  24.663  21.463  1.00  0.00    -0.269 OA
BRANCH  12  15
ATOM     15  C   UNL A   1      32.304  25.075  23.734  1.00  0.00     0.082 A 
ATOM     16  C   UNL A   1      31.316  24.318  24.373  1.00  0.00     0.102 A 
ATOM     17  C   UNL A   1      33.470  25.424  24.406  1.00  0.00     0.136 A 
ATOM     18  C   UNL A   1      31.569  23.809  25.650  1.00  0.00     0.270 A 
ATOM     19  C   UNL A   1      33.722  24.916  25.680  1.00  0.00     0.047 A 
ATOM     20  F   UNL A   1      34.401  26.185  23.813  1.00  0.00    -0.206 F 
ATOM     21  C   UNL A   1      32.781  24.086  26.300  1.00  0.00     0.088 A 
BRANCH  18  22
ATOM     22  N   UNL A   1      30.562  22.961  26.297  1.00  0.00     0.062 N 
ATOM     23  O   UNL A   1      29.954  23.435  27.268  1.00  0.00    -0.258 OA
ATOM     24  O   UNL A   1      30.379  21.827  25.836  1.00  0.00    -0.258 OA
ENDBRANCH  18  22
ENDBRANCH  12  15
ENDBRANCH   7  11
ENDBRANCH   6   7
ENDBRANCH   4   6
ENDBRANCH   1   2
BRANCH   1  25
ATOM     25  C   UNL A   1      31.448  32.076  26.858  1.00  0.00     0.042 C 
BRANCH  25  26
ATOM     26  C   UNL A   1      32.692  32.800  27.362  1.00  0.00     0.118 C 
BRANCH  26  27
ATOM     27  N   UNL A   1      32.443  34.202  27.679  1.00  0.00    -0.352 N 
ATOM     28  C   UNL A   1      33.025  35.020  28.618  1.00  0.00     0.251 C 
ATOM     29  H   UNL A   1      31.746  34.631  27.132  1.00  0.00     0.163 HD
ATOM     30  O   UNL A   1      32.549  36.125  28.843  1.00  0.00    -0.269 OA
BRANCH  28  31
ATOM     31  C   UNL A   1      34.208  34.559  29.377  1.00  0.00     0.039 A 
ATOM     32  C   UNL A   1      34.024  33.992  30.642  1.00  0.00     0.014 A 
ATOM     33  C   UNL A   1      35.494  34.690  28.850  1.00  0.00     0.014 A 
ATOM     34  C   UNL A   1      35.119  33.476  31.338  1.00  0.00     0.010 A 
ATOM     35  C   UNL A   1      36.572  34.108  29.507  1.00  0.00     0.010 A 
ATOM     36  C   UNL A   1      36.397  33.487  30.753  1.00  0.00    -0.014 A 
BRANCH  36  37
ATOM     37  C   UNL A   1      37.564  32.840  31.405  1.00  0.00     0.031 A 
ATOM     38  C   UNL A   1      38.249  31.682  30.737  1.00  0.00     0.074 A 
ATOM     39  C   UNL A   1      37.943  33.228  32.639  1.00  0.00     0.049 A 
ATOM     40  N   UNL A   1      39.173  30.882  31.209  1.00  0.00    -0.248 NA
ATOM     41  C   UNL A   1      37.824  31.363  29.366  1.00  0.00     0.031 C 
ATOM     42  C   UNL A   1      37.341  34.322  33.401  1.00  0.00     0.029 A 
ATOM     43  N   UNL A   1      38.910  32.731  33.478  1.00  0.00    -0.354 N 
ATOM     44  C   UNL A   1      39.421  29.958  30.203  1.00  0.00     0.074 A 
ATOM     45  C   UNL A   1      38.523  30.267  29.111  1.00  0.00     0.031 C 
ATOM     46  C   UNL A   1      37.960  34.424  34.587  1.00  0.00     0.029 A 
ATOM     47  C   UNL A   1      38.963  33.368  34.695  1.00  0.00     0.049 A 
ATOM     48  H   UNL A   1      39.508  31.989  33.233  1.00  0.00     0.167 HD
ATOM     49  C   UNL A   1      40.330  28.956  30.188  1.00  0.00     0.037 A 
ATOM     50  C   UNL A   1      39.716  33.117  35.784  1.00  0.00     0.037 A 
ATOM     51  C   UNL A   1      41.240  28.674  31.266  1.00  0.00     0.049 A 
ATOM     52  C   UNL A   1      40.692  31.971  35.756  1.00  0.00     0.074 A 
ATOM     53  C   UNL A   1      42.236  27.715  31.319  1.00  0.00     0.029 A 
ATOM     54  N   UNL A   1      41.263  29.345  32.479  1.00  0.00    -0.354 N 
ATOM     55  N   UNL A   1      40.950  31.133  34.784  1.00  0.00    -0.248 NA
ATOM     56  C   UNL A   1      41.478  31.735  36.976  1.00  0.00     0.031 C 
ATOM     57  C   UNL A   1      42.826  27.769  32.583  1.00  0.00     0.029 A 
ATOM     58  C   UNL A   1      42.241  28.802  33.297  1.00  0.00     0.049 A 
ATOM     59  H   UNL A   1      40.675  30.096  32.723  1.00  0.00     0.167 HD
ATOM     60  C   UNL A   1      41.944  30.288  35.261  1.00  0.00     0.074 A 
ATOM     61  C   UNL A   1      42.247  30.717  36.609  1.00  0.00     0.031 C 
ATOM     62  C   UNL A   1      42.547  29.250  34.632  1.00  0.00     0.037 A 
BRANCH  49  63
ATOM     63  C   UNL A   1      40.406  28.091  28.964  1.00  0.00     0.064 A 
ATOM     64  C   UNL A   1      41.172  28.490  27.858  1.00  0.00     0.173 A 
ATOM     65  C   UNL A   1      39.654  26.913  28.851  1.00  0.00     0.173 A 
ATOM     66  F   UNL A   1      41.903  29.614  27.909  1.00  0.00    -0.203 F 
ATOM     67  C   UNL A   1      41.169  27.749  26.678  1.00  0.00     0.198 A 
ATOM     68  C   UNL A   1      39.679  26.158  27.682  1.00  0.00     0.198 A 
ATOM     69  F   UNL A   1      38.912  26.484  29.882  1.00  0.00    -0.203 F 
ATOM     70  F   UNL A   1      41.877  28.170  25.622  1.00  0.00    -0.200 F 
ATOM     71  C   UNL A   1      40.426  26.582  26.593  1.00  0.00     0.200 A 
ATOM     72  F   UNL A   1      38.977  25.018  27.609  1.00  0.00    -0.200 F 
ATOM     73  F   UNL A   1      40.429  25.866  25.461  1.00  0.00    -0.200 F 
ENDBRANCH  49  63
BRANCH  50  74
ATOM     74  C   UNL A   1      39.583  33.984  36.984  1.00  0.00     0.064 A 
ATOM     75  C   UNL A   1      38.770  33.620  38.067  1.00  0.00     0.173 A 
ATOM     76  C   UNL A   1      40.247  35.217  37.053  1.00  0.00     0.173 A 
ATOM     77  F   UNL A   1      38.112  32.451  38.051  1.00  0.00    -0.203 F 
ATOM     78  C   UNL A   1      38.606  34.467  39.162  1.00  0.00     0.198 A 
ATOM     79  C   UNL A   1      40.105  36.050  38.160  1.00  0.00     0.198 A 
ATOM     80  F   UNL A   1      41.053  35.598  36.051  1.00  0.00    -0.203 F 
ATOM     81  F   UNL A   1      37.795  34.112  40.167  1.00  0.00    -0.200 F 
ATOM     82  C   UNL A   1      39.278  35.680  39.209  1.00  0.00     0.200 A 
ATOM     83  F   UNL A   1      40.776  37.209  38.212  1.00  0.00    -0.200 F 
ATOM     84  F   UNL A   1      39.129  36.489  40.266  1.00  0.00    -0.200 F 
ENDBRANCH  50  74
BRANCH  62  85
ATOM     85  C   UNL A   1      43.627  28.509  35.365  1.00  0.00     0.064 A 
ATOM     86  C   UNL A   1      44.976  28.838  35.153  1.00  0.00     0.173 A 
ATOM     87  C   UNL A   1      43.338  27.399  36.168  1.00  0.00     0.173 A 
ATOM     88  F   UNL A   1      45.304  29.888  34.385  1.00  0.00    -0.203 F 
ATOM     89  C   UNL A   1      45.994  28.058  35.691  1.00  0.00     0.198 A 
ATOM     90  C   UNL A   1      44.360  26.638  36.728  1.00  0.00     0.198 A 
ATOM     91  F   UNL A   1      42.064  27.052  36.410  1.00  0.00    -0.203 F 
ATOM     92  F   UNL A   1      47.275  28.357  35.431  1.00  0.00    -0.200 F 
ATOM     93  C   UNL A   1      45.686  26.958  36.477  1.00  0.00     0.200 A 
ATOM     94  F   UNL A   1      44.062  25.584  37.502  1.00  0.00    -0.200 F 
ATOM     95  F   UNL A   1      46.668  26.202  36.988  1.00  0.00    -0.200 F 
ENDBRANCH  62  85
ENDBRANCH  36  37
ENDBRANCH  28  31
ENDBRANCH  26  27
ENDBRANCH  25  26
ENDBRANCH   1  25
TORSDOF 14
ENDMDL
