MODEL 1
REMARK VINA RESULT:     -12.9      0.000      0.000
REMARK SMILES O=C(NCCCNC(=O)[C@H](Cc1ccc([N+](=O)[O-])cc1)c1ccccc1Br)c1ccc(-c2c3nc(c(-c4c(F)c(F)c(F)c(F)c4F)c4ccc([nH]4)c(-c4c(F)c(F)c(F)c(F)c4F)c4nc(c(-c5c(F)c(F)c(F)c(F)c5F)c5ccc2[nH]5)C=C4)C=C3)cc1
REMARK SMILES IDX 5 1 4 2 3 3 1 4 2 5 28 7 29 8 90 9 30 10 89 11 31 12 32 13
REMARK SMILES IDX 33 14 83 15 34 16 88 17 82 18 84 19 35 20 87 21 81 22 80 23
REMARK SMILES IDX 36 25 68 26 48 27 67 28 49 29 52 30 66 31 85 32 50 33 51 34
REMARK SMILES IDX 65 36 86 37 53 38 37 39 38 40 46 41 39 42 40 43 44 44 47 45
REMARK SMILES IDX 41 46 42 47 45 48 43 49 69 50 70 51 78 52 71 53 72 54 76 55
REMARK SMILES IDX 79 56 73 57 74 58 77 59 75 60 54 61 55 62 63 63 56 64 57 65
REMARK SMILES IDX 61 66 64 67 58 68 59 69 62 70 60 71 6 72 7 73 8 74 9 76
REMARK SMILES IDX 10 77 21 78 22 79 26 80 23 81 25 82 27 83 24 84 11 85 12 86
REMARK SMILES IDX 13 87 20 88 14 89 19 90 15 91 16 92 17 93 18 94
REMARK H PARENT 3 6 84 24 52 35 7 75
REMARK Flexibility Score: inf
ROOT
ATOM      1  C   UNL A   1      31.963  28.825  26.285  1.00  0.00     0.042 C 
ENDROOT
BRANCH   1   2
ATOM      2  C   UNL A   1      33.137  29.725  25.926  1.00  0.00     0.118 C 
BRANCH   2   3
ATOM      3  N   UNL A   1      32.874  31.114  26.269  1.00  0.00    -0.352 N 
ATOM      4  O   UNL A   1      32.889  32.955  27.561  1.00  0.00    -0.269 OA
ATOM      5  C   UNL A   1      33.438  31.897  27.239  1.00  0.00     0.251 C 
ATOM      6  H   UNL A   1      32.188  31.557  25.721  1.00  0.00     0.163 HD
BRANCH   5   7
ATOM      7  C   UNL A   1      34.692  31.495  27.909  1.00  0.00     0.039 A 
ATOM      8  C   UNL A   1      35.762  32.386  28.037  1.00  0.00     0.014 A 
ATOM      9  C   UNL A   1      34.769  30.225  28.489  1.00  0.00     0.014 A 
ATOM     10  C   UNL A   1      36.944  31.974  28.646  1.00  0.00     0.010 A 
ATOM     11  C   UNL A   1      35.928  29.839  29.165  1.00  0.00     0.010 A 
ATOM     12  C   UNL A   1      37.031  30.704  29.234  1.00  0.00    -0.014 A 
BRANCH  12  13
ATOM     13  C   UNL A   1      38.253  30.305  29.975  1.00  0.00     0.031 A 
ATOM     14  C   UNL A   1      39.226  29.332  29.380  1.00  0.00     0.074 A 
ATOM     15  C   UNL A   1      38.461  30.803  31.209  1.00  0.00     0.049 A 
ATOM     16  N   UNL A   1      40.295  28.798  29.915  1.00  0.00    -0.248 NA
ATOM     17  C   UNL A   1      38.957  28.890  28.003  1.00  0.00     0.031 C 
ATOM     18  C   UNL A   1      37.582  31.752  31.892  1.00  0.00     0.029 A 
ATOM     19  N   UNL A   1      39.469  30.573  32.110  1.00  0.00    -0.354 N 
ATOM     20  C   UNL A   1      40.812  27.941  28.953  1.00  0.00     0.074 A 
ATOM     21  C   UNL A   1      39.928  28.008  27.809  1.00  0.00     0.031 C 
ATOM     22  C   UNL A   1      38.091  32.032  33.100  1.00  0.00     0.029 A 
ATOM     23  C   UNL A   1      39.300  31.239  33.299  1.00  0.00     0.049 A 
ATOM     24  H   UNL A   1      40.237  29.986  31.924  1.00  0.00     0.167 HD
ATOM     25  C   UNL A   1      41.927  27.173  29.023  1.00  0.00     0.037 A 
ATOM     26  C   UNL A   1      40.021  31.193  34.435  1.00  0.00     0.037 A 
ATOM     27  C   UNL A   1      42.808  27.123  30.161  1.00  0.00     0.049 A 
ATOM     28  C   UNL A   1      41.236  30.314  34.497  1.00  0.00     0.074 A 
ATOM     29  C   UNL A   1      43.981  26.407  30.314  1.00  0.00     0.029 A 
ATOM     30  N   UNL A   1      42.606  27.817  31.346  1.00  0.00    -0.354 N 
ATOM     31  N   UNL A   1      41.732  29.528  33.574  1.00  0.00    -0.248 NA
ATOM     32  C   UNL A   1      41.990  30.313  35.757  1.00  0.00     0.031 C 
ATOM     33  C   UNL A   1      44.466  26.630  31.608  1.00  0.00     0.029 A 
ATOM     34  C   UNL A   1      43.622  27.527  32.244  1.00  0.00     0.049 A 
ATOM     35  H   UNL A   1      41.852  28.426  31.523  1.00  0.00     0.167 HD
ATOM     36  C   UNL A   1      42.869  28.959  34.128  1.00  0.00     0.074 A 
ATOM     37  C   UNL A   1      42.992  29.494  35.469  1.00  0.00     0.031 C 
ATOM     38  C   UNL A   1      43.734  28.076  33.572  1.00  0.00     0.037 A 
BRANCH  25  39
ATOM     39  C   UNL A   1      42.239  26.299  27.841  1.00  0.00     0.064 A 
ATOM     40  C   UNL A   1      43.163  26.684  26.858  1.00  0.00     0.173 A 
ATOM     41  C   UNL A   1      41.618  25.048  27.702  1.00  0.00     0.173 A 
ATOM     42  F   UNL A   1      43.775  27.876  26.937  1.00  0.00    -0.203 F 
ATOM     43  C   UNL A   1      43.428  25.865  25.763  1.00  0.00     0.198 A 
ATOM     44  C   UNL A   1      41.907  24.220  26.621  1.00  0.00     0.198 A 
ATOM     45  F   UNL A   1      40.732  24.628  28.617  1.00  0.00    -0.203 F 
ATOM     46  F   UNL A   1      44.273  26.279  24.808  1.00  0.00    -0.200 F 
ATOM     47  C   UNL A   1      42.804  24.632  25.648  1.00  0.00     0.200 A 
ATOM     48  F   UNL A   1      41.312  23.023  26.517  1.00  0.00    -0.200 F 
ATOM     49  F   UNL A   1      43.059  23.846  24.593  1.00  0.00    -0.200 F 
ENDBRANCH  25  39
BRANCH  26  50
ATOM     50  C   UNL A   1      39.592  32.009  35.598  1.00  0.00     0.064 A 
ATOM     51  C   UNL A   1      40.104  33.297  35.803  1.00  0.00     0.173 A 
ATOM     52  C   UNL A   1      38.625  31.539  36.499  1.00  0.00     0.173 A 
ATOM     53  F   UNL A   1      41.043  33.783  34.977  1.00  0.00    -0.203 F 
ATOM     54  C   UNL A   1      39.667  34.082  36.866  1.00  0.00     0.198 A 
ATOM     55  C   UNL A   1      38.169  32.334  37.546  1.00  0.00     0.198 A 
ATOM     56  F   UNL A   1      38.099  30.315  36.340  1.00  0.00    -0.203 F 
ATOM     57  F   UNL A   1      40.189  35.302  37.054  1.00  0.00    -0.200 F 
ATOM     58  C   UNL A   1      38.692  33.605  37.732  1.00  0.00     0.200 A 
ATOM     59  F   UNL A   1      37.216  31.876  38.369  1.00  0.00    -0.200 F 
ATOM     60  F   UNL A   1      38.259  34.369  38.743  1.00  0.00    -0.200 F 
ENDBRANCH  26  50
BRANCH  38  61
ATOM     61  C   UNL A   1      44.917  27.660  34.395  1.00  0.00     0.064 A 
ATOM     62  C   UNL A   1      44.885  26.517  35.205  1.00  0.00     0.173 A 
ATOM     63  C   UNL A   1      46.116  28.386  34.324  1.00  0.00     0.173 A 
ATOM     64  F   UNL A   1      43.757  25.801  35.319  1.00  0.00    -0.203 F 
ATOM     65  C   UNL A   1      46.010  26.122  35.925  1.00  0.00     0.198 A 
ATOM     66  C   UNL A   1      47.245  27.973  35.025  1.00  0.00     0.198 A 
ATOM     67  F   UNL A   1      46.196  29.485  33.559  1.00  0.00    -0.203 F 
ATOM     68  F   UNL A   1      45.950  25.045  36.720  1.00  0.00    -0.200 F 
ATOM     69  C   UNL A   1      47.190  26.844  35.828  1.00  0.00     0.200 A 
ATOM     70  F   UNL A   1      48.387  28.667  34.921  1.00  0.00    -0.200 F 
ATOM     71  F   UNL A   1      48.275  26.455  36.512  1.00  0.00    -0.200 F 
ENDBRANCH  38  61
ENDBRANCH  12  13
ENDBRANCH   5   7
ENDBRANCH   2   3
ENDBRANCH   1   2
BRANCH   1  72
ATOM     72  C   UNL A   1      32.367  27.377  26.538  1.00  0.00     0.117 C 
BRANCH  72  73
ATOM     73  N   UNL A   1      31.240  26.503  26.821  1.00  0.00    -0.355 N 
ATOM     74  C   UNL A   1      30.375  25.883  25.960  1.00  0.00     0.227 C 
ATOM     75  H   UNL A   1      31.076  26.330  27.775  1.00  0.00     0.163 HD
ATOM     76  O   UNL A   1      29.548  25.114  26.451  1.00  0.00    -0.274 OA
BRANCH  74  77
ATOM     77  C   UNL A   1      30.471  26.166  24.453  1.00  0.00     0.114 C 
BRANCH  77  78
ATOM     78  C   UNL A   1      31.286  25.115  23.692  1.00  0.00    -0.021 A 
ATOM     79  C   UNL A   1      30.867  23.771  23.666  1.00  0.00     0.006 A 
ATOM     80  C   UNL A   1      32.527  25.431  23.100  1.00  0.00     0.021 A 
ATOM     81  C   UNL A   1      31.698  22.769  23.160  1.00  0.00     0.000 A 
ATOM     82  C   UNL A   1      33.349  24.423  22.584  1.00  0.00     0.016 A 
ATOM     83  Br  UNL A   1      33.203  27.206  22.993  1.00  0.00    -0.051 Br
ATOM     84  C   UNL A   1      32.944  23.092  22.635  1.00  0.00     0.001 A 
ENDBRANCH  77  78
BRANCH  77  85
ATOM     85  C   UNL A   1      29.072  26.429  23.838  1.00  0.00     0.053 C 
BRANCH  85  86
ATOM     86  C   UNL A   1      28.844  27.832  23.275  1.00  0.00    -0.046 A 
ATOM     87  C   UNL A   1      27.561  28.396  23.386  1.00  0.00     0.011 A 
ATOM     88  C   UNL A   1      29.855  28.595  22.667  1.00  0.00     0.011 A 
ATOM     89  C   UNL A   1      27.270  29.646  22.829  1.00  0.00     0.086 A 
ATOM     90  C   UNL A   1      29.570  29.831  22.080  1.00  0.00     0.086 A 
ATOM     91  C   UNL A   1      28.273  30.345  22.150  1.00  0.00     0.269 A 
BRANCH  91  92
ATOM     92  N   UNL A   1      27.963  31.622  21.497  1.00  0.00     0.062 N 
ATOM     93  O   UNL A   1      27.658  31.597  20.296  1.00  0.00    -0.258 OA
ATOM     94  O   UNL A   1      28.030  32.650  22.186  1.00  0.00    -0.258 OA
ENDBRANCH  91  92
ENDBRANCH  85  86
ENDBRANCH  77  85
ENDBRANCH  74  77
ENDBRANCH  72  73
ENDBRANCH   1  72
TORSDOF 14
ENDMDL
MODEL 2
REMARK VINA RESULT:     -12.9      1.236      2.266
REMARK SMILES O=C(NCCCNC(=O)[C@H](Cc1ccc([N+](=O)[O-])cc1)c1ccccc1Br)c1ccc(-c2c3nc(c(-c4c(F)c(F)c(F)c(F)c4F)c4ccc([nH]4)c(-c4c(F)c(F)c(F)c(F)c4F)c4nc(c(-c5c(F)c(F)c(F)c(F)c5F)c5ccc2[nH]5)C=C4)C=C3)cc1
REMARK SMILES IDX 5 1 4 2 3 3 1 4 2 5 28 7 29 8 90 9 30 10 89 11 31 12 32 13
REMARK SMILES IDX 33 14 83 15 34 16 88 17 82 18 84 19 35 20 87 21 81 22 80 23
REMARK SMILES IDX 36 25 68 26 48 27 67 28 49 29 52 30 66 31 85 32 50 33 51 34
REMARK SMILES IDX 65 36 86 37 53 38 37 39 38 40 46 41 39 42 40 43 44 44 47 45
REMARK SMILES IDX 41 46 42 47 45 48 43 49 69 50 70 51 78 52 71 53 72 54 76 55
REMARK SMILES IDX 79 56 73 57 74 58 77 59 75 60 54 61 55 62 63 63 56 64 57 65
REMARK SMILES IDX 61 66 64 67 58 68 59 69 62 70 60 71 6 72 7 73 8 74 9 76
REMARK SMILES IDX 10 77 21 78 22 79 26 80 23 81 25 82 27 83 24 84 11 85 12 86
REMARK SMILES IDX 13 87 20 88 14 89 19 90 15 91 16 92 17 93 18 94
REMARK H PARENT 3 6 84 24 52 35 7 75
REMARK Flexibility Score: inf
ROOT
ATOM      1  C   UNL A   1      32.080  28.055  25.949  1.00  0.00     0.042 C 
ENDROOT
BRANCH   1   2
ATOM      2  C   UNL A   1      33.025  29.126  25.422  1.00  0.00     0.118 C 
BRANCH   2   3
ATOM      3  N   UNL A   1      32.593  30.460  25.807  1.00  0.00    -0.352 N 
ATOM      4  O   UNL A   1      32.357  32.237  27.167  1.00  0.00    -0.269 OA
ATOM      5  C   UNL A   1      33.034  31.264  26.825  1.00  0.00     0.251 C 
ATOM      6  H   UNL A   1      31.876  30.844  25.254  1.00  0.00     0.163 HD
BRANCH   5   7
ATOM      7  C   UNL A   1      34.306  30.981  27.520  1.00  0.00     0.039 A 
ATOM      8  C   UNL A   1      35.259  31.985  27.721  1.00  0.00     0.014 A 
ATOM      9  C   UNL A   1      34.516  29.704  28.050  1.00  0.00     0.014 A 
ATOM     10  C   UNL A   1      36.464  31.687  28.353  1.00  0.00     0.010 A 
ATOM     11  C   UNL A   1      35.692  29.427  28.750  1.00  0.00     0.010 A 
ATOM     12  C   UNL A   1      36.683  30.411  28.891  1.00  0.00    -0.014 A 
BRANCH  12  13
ATOM     13  C   UNL A   1      37.920  30.125  29.658  1.00  0.00     0.031 A 
ATOM     14  C   UNL A   1      38.961  29.194  29.111  1.00  0.00     0.074 A 
ATOM     15  C   UNL A   1      38.084  30.687  30.870  1.00  0.00     0.049 A 
ATOM     16  N   UNL A   1      40.058  28.754  29.676  1.00  0.00    -0.248 NA
ATOM     17  C   UNL A   1      38.735  28.677  27.753  1.00  0.00     0.031 C 
ATOM     18  C   UNL A   1      37.138  31.605  31.506  1.00  0.00     0.029 A 
ATOM     19  N   UNL A   1      39.096  30.562  31.787  1.00  0.00    -0.354 N 
ATOM     20  C   UNL A   1      40.639  27.893  28.756  1.00  0.00     0.074 A 
ATOM     21  C   UNL A   1      39.763  27.853  27.604  1.00  0.00     0.031 C 
ATOM     22  C   UNL A   1      37.617  31.968  32.705  1.00  0.00     0.029 A 
ATOM     23  C   UNL A   1      38.873  31.265  32.946  1.00  0.00     0.049 A 
ATOM     24  H   UNL A   1      39.902  30.020  31.632  1.00  0.00     0.167 HD
ATOM     25  C   UNL A   1      41.801  27.203  28.866  1.00  0.00     0.037 A 
ATOM     26  C   UNL A   1      39.584  31.316  34.087  1.00  0.00     0.037 A 
ATOM     27  C   UNL A   1      42.671  27.260  30.011  1.00  0.00     0.049 A 
ATOM     28  C   UNL A   1      40.853  30.522  34.195  1.00  0.00     0.074 A 
ATOM     29  C   UNL A   1      43.888  26.629  30.203  1.00  0.00     0.029 A 
ATOM     30  N   UNL A   1      42.413  27.989  31.163  1.00  0.00    -0.354 N 
ATOM     31  N   UNL A   1      41.408  29.732  33.310  1.00  0.00    -0.248 NA
ATOM     32  C   UNL A   1      41.593  30.624  35.459  1.00  0.00     0.031 C 
ATOM     33  C   UNL A   1      44.344  26.938  31.489  1.00  0.00     0.029 A 
ATOM     34  C   UNL A   1      43.437  27.804  32.080  1.00  0.00     0.049 A 
ATOM     35  H   UNL A   1      41.620  28.553  31.309  1.00  0.00     0.167 HD
ATOM     36  C   UNL A   1      42.575  29.262  33.895  1.00  0.00     0.074 A 
ATOM     37  C   UNL A   1      42.650  29.860  35.213  1.00  0.00     0.031 C 
ATOM     38  C   UNL A   1      43.501  28.415  33.384  1.00  0.00     0.037 A 
BRANCH  25  39
ATOM     39  C   UNL A   1      42.180  26.303  27.725  1.00  0.00     0.064 A 
ATOM     40  C   UNL A   1      41.618  25.027  27.568  1.00  0.00     0.173 A 
ATOM     41  C   UNL A   1      43.107  26.733  26.762  1.00  0.00     0.173 A 
ATOM     42  F   UNL A   1      40.737  24.563  28.467  1.00  0.00    -0.203 F 
ATOM     43  C   UNL A   1      41.995  24.203  26.510  1.00  0.00     0.198 A 
ATOM     44  C   UNL A   1      43.459  25.918  25.690  1.00  0.00     0.198 A 
ATOM     45  F   UNL A   1      43.670  27.947  26.860  1.00  0.00    -0.203 F 
ATOM     46  F   UNL A   1      41.485  22.967  26.412  1.00  0.00    -0.200 F 
ATOM     47  C   UNL A   1      42.910  24.651  25.570  1.00  0.00     0.200 A 
ATOM     48  F   UNL A   1      44.335  26.356  24.775  1.00  0.00    -0.200 F 
ATOM     49  F   UNL A   1      43.272  23.856  24.553  1.00  0.00    -0.200 F 
ENDBRANCH  25  39
BRANCH  26  50
ATOM     50  C   UNL A   1      39.092  32.150  35.211  1.00  0.00     0.064 A 
ATOM     51  C   UNL A   1      38.349  31.586  36.256  1.00  0.00     0.173 A 
ATOM     52  C   UNL A   1      39.399  33.517  35.290  1.00  0.00     0.173 A 
ATOM     53  F   UNL A   1      38.017  30.287  36.216  1.00  0.00    -0.203 F 
ATOM     54  C   UNL A   1      37.928  32.359  37.336  1.00  0.00     0.198 A 
ATOM     55  C   UNL A   1      39.001  34.283  36.382  1.00  0.00     0.198 A 
ATOM     56  F   UNL A   1      40.116  34.101  34.317  1.00  0.00    -0.203 F 
ATOM     57  F   UNL A   1      37.199  31.801  38.312  1.00  0.00    -0.200 F 
ATOM     58  C   UNL A   1      38.263  33.704  37.404  1.00  0.00     0.200 A 
ATOM     59  F   UNL A   1      39.341  35.577  36.452  1.00  0.00    -0.200 F 
ATOM     60  F   UNL A   1      37.874  34.441  38.452  1.00  0.00    -0.200 F 
ENDBRANCH  26  50
BRANCH  38  61
ATOM     61  C   UNL A   1      44.701  28.113  34.232  1.00  0.00     0.064 A 
ATOM     62  C   UNL A   1      44.736  27.007  35.091  1.00  0.00     0.173 A 
ATOM     63  C   UNL A   1      45.850  28.913  34.138  1.00  0.00     0.173 A 
ATOM     64  F   UNL A   1      43.656  26.223  35.229  1.00  0.00    -0.203 F 
ATOM     65  C   UNL A   1      45.876  26.717  35.835  1.00  0.00     0.198 A 
ATOM     66  C   UNL A   1      46.997  28.605  34.863  1.00  0.00     0.198 A 
ATOM     67  F   UNL A   1      45.866  29.980  33.326  1.00  0.00    -0.203 F 
ATOM     68  F   UNL A   1      45.879  25.673  36.676  1.00  0.00    -0.200 F 
ATOM     69  C   UNL A   1      47.008  27.510  35.714  1.00  0.00     0.200 A 
ATOM     70  F   UNL A   1      48.093  29.367  34.737  1.00  0.00    -0.200 F 
ATOM     71  F   UNL A   1      48.110  27.222  36.422  1.00  0.00    -0.200 F 
ENDBRANCH  38  61
ENDBRANCH  12  13
ENDBRANCH   5   7
ENDBRANCH   2   3
ENDBRANCH   1   2
BRANCH   1  72
ATOM     72  C   UNL A   1      32.781  26.742  26.278  1.00  0.00     0.117 C 
BRANCH  72  73
ATOM     73  N   UNL A   1      31.900  25.750  26.873  1.00  0.00    -0.355 N 
ATOM     74  C   UNL A   1      31.511  24.526  26.398  1.00  0.00     0.227 C 
ATOM     75  H   UNL A   1      31.528  25.995  27.750  1.00  0.00     0.163 HD
ATOM     76  O   UNL A   1      30.820  23.828  27.141  1.00  0.00    -0.274 OA
BRANCH  74  77
ATOM     77  C   UNL A   1      31.947  24.085  24.993  1.00  0.00     0.114 C 
BRANCH  77  78
ATOM     78  C   UNL A   1      32.653  22.726  24.977  1.00  0.00    -0.021 A 
ATOM     79  C   UNL A   1      31.906  21.536  24.896  1.00  0.00     0.006 A 
ATOM     80  C   UNL A   1      34.048  22.617  25.160  1.00  0.00     0.021 A 
ATOM     81  C   UNL A   1      32.511  20.291  25.090  1.00  0.00     0.000 A 
ATOM     82  C   UNL A   1      34.650  21.367  25.342  1.00  0.00     0.016 A 
ATOM     83  Br  UNL A   1      35.205  24.126  25.223  1.00  0.00    -0.051 Br
ATOM     84  C   UNL A   1      33.878  20.208  25.330  1.00  0.00     0.001 A 
ENDBRANCH  77  78
BRANCH  77  85
ATOM     85  C   UNL A   1      30.773  24.184  23.982  1.00  0.00     0.053 C 
BRANCH  85  86
ATOM     86  C   UNL A   1      30.391  25.597  23.542  1.00  0.00    -0.046 A 
ATOM     87  C   UNL A   1      31.291  26.311  22.731  1.00  0.00     0.011 A 
ATOM     88  C   UNL A   1      29.178  26.214  23.891  1.00  0.00     0.011 A 
ATOM     89  C   UNL A   1      31.031  27.633  22.354  1.00  0.00     0.086 A 
ATOM     90  C   UNL A   1      28.920  27.543  23.545  1.00  0.00     0.086 A 
ATOM     91  C   UNL A   1      29.857  28.254  22.791  1.00  0.00     0.269 A 
BRANCH  91  92
ATOM     92  N   UNL A   1      29.607  29.662  22.464  1.00  0.00     0.062 N 
ATOM     93  O   UNL A   1      29.396  30.443  23.403  1.00  0.00    -0.258 OA
ATOM     94  O   UNL A   1      29.617  29.985  21.268  1.00  0.00    -0.258 OA
ENDBRANCH  91  92
ENDBRANCH  85  86
ENDBRANCH  77  85
ENDBRANCH  74  77
ENDBRANCH  72  73
ENDBRANCH   1  72
TORSDOF 14
ENDMDL
MODEL 3
REMARK VINA RESULT:     -12.8      5.288     10.273
REMARK SMILES O=C(NCCCNC(=O)[C@H](Cc1ccc([N+](=O)[O-])cc1)c1ccccc1Br)c1ccc(-c2c3nc(c(-c4c(F)c(F)c(F)c(F)c4F)c4ccc([nH]4)c(-c4c(F)c(F)c(F)c(F)c4F)c4nc(c(-c5c(F)c(F)c(F)c(F)c5F)c5ccc2[nH]5)C=C4)C=C3)cc1
REMARK SMILES IDX 5 1 4 2 3 3 1 4 2 5 28 7 29 8 90 9 30 10 89 11 31 12 32 13
REMARK SMILES IDX 33 14 83 15 34 16 88 17 82 18 84 19 35 20 87 21 81 22 80 23
REMARK SMILES IDX 36 25 68 26 48 27 67 28 49 29 52 30 66 31 85 32 50 33 51 34
REMARK SMILES IDX 65 36 86 37 53 38 37 39 38 40 46 41 39 42 40 43 44 44 47 45
REMARK SMILES IDX 41 46 42 47 45 48 43 49 69 50 70 51 78 52 71 53 72 54 76 55
REMARK SMILES IDX 79 56 73 57 74 58 77 59 75 60 54 61 55 62 63 63 56 64 57 65
REMARK SMILES IDX 61 66 64 67 58 68 59 69 62 70 60 71 6 72 7 73 8 74 9 76
REMARK SMILES IDX 10 77 21 78 22 79 26 80 23 81 25 82 27 83 24 84 11 85 12 86
REMARK SMILES IDX 13 87 20 88 14 89 19 90 15 91 16 92 17 93 18 94
REMARK H PARENT 3 6 84 24 52 35 7 75
REMARK Flexibility Score: inf
ROOT
ATOM      1  C   UNL A   1      37.137  19.991  24.987  1.00  0.00     0.042 C 
ENDROOT
BRANCH   1   2
ATOM      2  C   UNL A   1      38.492  20.579  25.353  1.00  0.00     0.118 C 
BRANCH   2   3
ATOM      3  N   UNL A   1      39.463  19.541  25.663  1.00  0.00    -0.352 N 
ATOM      4  O   UNL A   1      41.510  18.662  25.972  1.00  0.00    -0.269 OA
ATOM      5  C   UNL A   1      40.778  19.653  26.027  1.00  0.00     0.251 C 
ATOM      6  H   UNL A   1      39.124  18.620  25.602  1.00  0.00     0.163 HD
BRANCH   5   7
ATOM      7  C   UNL A   1      41.334  20.944  26.482  1.00  0.00     0.039 A 
ATOM      8  C   UNL A   1      41.851  21.870  25.571  1.00  0.00     0.014 A 
ATOM      9  C   UNL A   1      41.265  21.267  27.841  1.00  0.00     0.014 A 
ATOM     10  C   UNL A   1      42.397  23.068  26.027  1.00  0.00     0.010 A 
ATOM     11  C   UNL A   1      41.744  22.500  28.288  1.00  0.00     0.010 A 
ATOM     12  C   UNL A   1      42.330  23.402  27.387  1.00  0.00    -0.014 A 
BRANCH  12  13
ATOM     13  C   UNL A   1      42.814  24.724  27.856  1.00  0.00     0.031 A 
ATOM     14  C   UNL A   1      41.845  25.808  28.222  1.00  0.00     0.074 A 
ATOM     15  C   UNL A   1      44.139  24.952  27.916  1.00  0.00     0.049 A 
ATOM     16  N   UNL A   1      42.081  27.050  28.562  1.00  0.00    -0.248 NA
ATOM     17  C   UNL A   1      40.417  25.454  28.192  1.00  0.00     0.031 C 
ATOM     18  C   UNL A   1      45.176  23.976  27.580  1.00  0.00     0.029 A 
ATOM     19  N   UNL A   1      44.841  26.076  28.269  1.00  0.00    -0.354 N 
ATOM     20  C   UNL A   1      40.837  27.632  28.762  1.00  0.00     0.074 A 
ATOM     21  C   UNL A   1      39.846  26.614  28.484  1.00  0.00     0.031 C 
ATOM     22  C   UNL A   1      46.382  24.538  27.752  1.00  0.00     0.029 A 
ATOM     23  C   UNL A   1      46.201  25.930  28.154  1.00  0.00     0.049 A 
ATOM     24  H   UNL A   1      44.411  26.907  28.575  1.00  0.00     0.167 HD
ATOM     25  C   UNL A   1      40.553  28.900  29.147  1.00  0.00     0.037 A 
ATOM     26  C   UNL A   1      47.193  26.823  28.323  1.00  0.00     0.037 A 
ATOM     27  C   UNL A   1      41.547  29.902  29.434  1.00  0.00     0.049 A 
ATOM     28  C   UNL A   1      46.852  28.229  28.723  1.00  0.00     0.074 A 
ATOM     29  C   UNL A   1      41.361  31.203  29.867  1.00  0.00     0.029 A 
ATOM     30  N   UNL A   1      42.916  29.713  29.310  1.00  0.00    -0.354 N 
ATOM     31  N   UNL A   1      45.675  28.762  28.936  1.00  0.00    -0.248 NA
ATOM     32  C   UNL A   1      47.975  29.158  28.903  1.00  0.00     0.031 C 
ATOM     33  C   UNL A   1      42.615  31.817  29.960  1.00  0.00     0.029 A 
ATOM     34  C   UNL A   1      43.587  30.882  29.636  1.00  0.00     0.049 A 
ATOM     35  H   UNL A   1      43.348  28.873  29.032  1.00  0.00     0.167 HD
ATOM     36  C   UNL A   1      45.912  30.080  29.301  1.00  0.00     0.074 A 
ATOM     37  C   UNL A   1      47.350  30.264  29.284  1.00  0.00     0.031 C 
ATOM     38  C   UNL A   1      45.019  31.046  29.624  1.00  0.00     0.037 A 
BRANCH  25  39
ATOM     39  C   UNL A   1      39.104  29.283  29.250  1.00  0.00     0.064 A 
ATOM     40  C   UNL A   1      38.426  29.296  30.478  1.00  0.00     0.173 A 
ATOM     41  C   UNL A   1      38.389  29.663  28.104  1.00  0.00     0.173 A 
ATOM     42  F   UNL A   1      39.061  28.930  31.603  1.00  0.00    -0.203 F 
ATOM     43  C   UNL A   1      37.079  29.641  30.550  1.00  0.00     0.198 A 
ATOM     44  C   UNL A   1      37.050  30.035  28.184  1.00  0.00     0.198 A 
ATOM     45  F   UNL A   1      38.990  29.675  26.904  1.00  0.00    -0.203 F 
ATOM     46  F   UNL A   1      36.439  29.592  31.727  1.00  0.00    -0.200 F 
ATOM     47  C   UNL A   1      36.393  30.015  29.405  1.00  0.00     0.200 A 
ATOM     48  F   UNL A   1      36.391  30.407  27.077  1.00  0.00    -0.200 F 
ATOM     49  F   UNL A   1      35.096  30.345  29.476  1.00  0.00    -0.200 F 
ENDBRANCH  25  39
BRANCH  26  50
ATOM     50  C   UNL A   1      48.598  26.397  28.104  1.00  0.00     0.064 A 
ATOM     51  C   UNL A   1      49.139  26.334  26.813  1.00  0.00     0.173 A 
ATOM     52  C   UNL A   1      49.443  26.096  29.183  1.00  0.00     0.173 A 
ATOM     53  F   UNL A   1      48.365  26.598  25.750  1.00  0.00    -0.203 F 
ATOM     54  C   UNL A   1      50.471  25.981  26.610  1.00  0.00     0.198 A 
ATOM     55  C   UNL A   1      50.780  25.769  28.981  1.00  0.00     0.198 A 
ATOM     56  F   UNL A   1      48.972  26.150  30.439  1.00  0.00    -0.203 F 
ATOM     57  F   UNL A   1      50.959  25.905  25.365  1.00  0.00    -0.200 F 
ATOM     58  C   UNL A   1      51.294  25.709  27.694  1.00  0.00     0.200 A 
ATOM     59  F   UNL A   1      51.575  25.524  30.031  1.00  0.00    -0.200 F 
ATOM     60  F   UNL A   1      52.579  25.389  27.498  1.00  0.00    -0.200 F 
ENDBRANCH  26  50
BRANCH  38  61
ATOM     61  C   UNL A   1      45.566  32.382  30.029  1.00  0.00     0.064 A 
ATOM     62  C   UNL A   1      45.924  32.660  31.355  1.00  0.00     0.173 A 
ATOM     63  C   UNL A   1      45.788  33.376  29.063  1.00  0.00     0.173 A 
ATOM     64  F   UNL A   1      45.716  31.748  32.316  1.00  0.00    -0.203 F 
ATOM     65  C   UNL A   1      46.475  33.890  31.702  1.00  0.00     0.198 A 
ATOM     66  C   UNL A   1      46.362  34.595  29.410  1.00  0.00     0.198 A 
ATOM     67  F   UNL A   1      45.465  33.155  27.780  1.00  0.00    -0.203 F 
ATOM     68  F   UNL A   1      46.781  34.149  32.981  1.00  0.00    -0.200 F 
ATOM     69  C   UNL A   1      46.701  34.853  30.730  1.00  0.00     0.200 A 
ATOM     70  F   UNL A   1      46.590  35.519  28.466  1.00  0.00    -0.200 F 
ATOM     71  F   UNL A   1      47.244  36.032  31.064  1.00  0.00    -0.200 F 
ENDBRANCH  38  61
ENDBRANCH  12  13
ENDBRANCH   5   7
ENDBRANCH   2   3
ENDBRANCH   1   2
BRANCH   1  72
ATOM     72  C   UNL A   1      35.968  20.905  25.337  1.00  0.00     0.117 C 
BRANCH  72  73
ATOM     73  N   UNL A   1      35.637  21.849  24.282  1.00  0.00    -0.355 N 
ATOM     74  C   UNL A   1      34.415  22.306  23.867  1.00  0.00     0.227 C 
ATOM     75  H   UNL A   1      36.408  22.216  23.793  1.00  0.00     0.163 HD
ATOM     76  O   UNL A   1      34.406  23.181  23.001  1.00  0.00    -0.274 OA
BRANCH  74  77
ATOM     77  C   UNL A   1      33.137  21.723  24.489  1.00  0.00     0.114 C 
BRANCH  77  78
ATOM     78  C   UNL A   1      32.152  22.795  24.965  1.00  0.00    -0.021 A 
ATOM     79  C   UNL A   1      31.302  23.440  24.046  1.00  0.00     0.006 A 
ATOM     80  C   UNL A   1      32.146  23.251  26.300  1.00  0.00     0.021 A 
ATOM     81  C   UNL A   1      30.553  24.558  24.421  1.00  0.00     0.000 A 
ATOM     82  C   UNL A   1      31.384  24.364  26.672  1.00  0.00     0.016 A 
ATOM     83  Br  UNL A   1      33.185  22.444  27.675  1.00  0.00    -0.051 Br
ATOM     84  C   UNL A   1      30.606  25.029  25.728  1.00  0.00     0.001 A 
ENDBRANCH  77  78
BRANCH  77  85
ATOM     85  C   UNL A   1      32.492  20.659  23.560  1.00  0.00     0.053 C 
BRANCH  85  86
ATOM     86  C   UNL A   1      32.758  19.201  23.932  1.00  0.00    -0.046 A 
ATOM     87  C   UNL A   1      32.710  18.839  25.290  1.00  0.00     0.011 A 
ATOM     88  C   UNL A   1      33.032  18.199  22.986  1.00  0.00     0.011 A 
ATOM     89  C   UNL A   1      33.013  17.536  25.701  1.00  0.00     0.086 A 
ATOM     90  C   UNL A   1      33.366  16.902  23.386  1.00  0.00     0.086 A 
ATOM     91  C   UNL A   1      33.371  16.580  24.746  1.00  0.00     0.269 A 
BRANCH  91  92
ATOM     92  N   UNL A   1      33.763  15.231  25.170  1.00  0.00     0.062 N 
ATOM     93  O   UNL A   1      32.862  14.431  25.457  1.00  0.00    -0.258 OA
ATOM     94  O   UNL A   1      34.974  14.975  25.220  1.00  0.00    -0.258 OA
ENDBRANCH  91  92
ENDBRANCH  85  86
ENDBRANCH  77  85
ENDBRANCH  74  77
ENDBRANCH  72  73
ENDBRANCH   1  72
TORSDOF 14
ENDMDL
