MODEL 1
REMARK VINA RESULT:     -13.5      0.000      0.000
REMARK SMILES CCc1cc(OCCC(=O)NCCCNC(=O)c2ccc(-c3c4nc(c(-c5c(F)c(F)c(F)c(F)c5F)c5ccc([nH]5)c(-c5c(F)c(F)c(F)c(F)c5F)c5nc(c(-c6c(F)c(F)c(F)c(F)c6F)c6ccc3[nH]6)C=C5)C=C4)cc2)nc(-c2cnccn2)n1
REMARK SMILES IDX 12 1 11 2 9 3 10 4 8 6 7 7 6 8 5 9 3 10 4 11 89 12 82 13
REMARK SMILES IDX 81 14 2 15 1 16 83 17 84 18 88 19 85 20 87 21 86 22 13 23
REMARK SMILES IDX 14 24 15 25 16 26 17 28 18 29 19 30 80 31 20 32 79 33 21 34
REMARK SMILES IDX 22 35 23 36 73 37 24 38 78 39 72 40 74 41 25 42 77 43 71 44
REMARK SMILES IDX 70 45 26 47 58 48 38 49 57 50 39 51 42 52 56 53 75 54 40 55
REMARK SMILES IDX 41 56 55 58 76 59 43 60 27 61 28 62 36 63 29 64 30 65 34 66
REMARK SMILES IDX 37 67 31 68 32 69 35 70 33 71 59 72 60 73 68 74 61 75 62 76
REMARK SMILES IDX 66 77 69 78 63 79 64 80 67 81 65 82 44 83 45 84 53 85 46 86
REMARK SMILES IDX 47 87 51 88 54 89 48 90 49 91 52 92 50 93
REMARK H PARENT 11 5 15 27 74 46 42 57
REMARK Flexibility Score: inf
ROOT
ATOM      1  C   UNL A   1      35.325  33.505  28.000  1.00  0.00     0.117 C 
ENDROOT
BRANCH   1   2
ATOM      2  N   UNL A   1      35.666  32.011  27.697  1.00  0.00    -0.356 N 
ATOM      3  C   UNL A   1      34.847  30.924  27.638  1.00  0.00     0.223 C 
ATOM      4  O   UNL A   1      35.355  29.804  27.616  1.00  0.00    -0.275 OA
ATOM      5  H   UNL A   1      36.617  31.826  27.523  1.00  0.00     0.163 HD
BRANCH   3   6
ATOM      6  C   UNL A   1      33.345  31.125  27.613  1.00  0.00     0.141 C 
BRANCH   6   7
ATOM      7  C   UNL A   1      32.547  30.072  26.835  1.00  0.00     0.241 C 
BRANCH   7   8
ATOM      8  O   UNL A   1      32.723  30.069  25.407  1.00  0.00    -0.477 OA
BRANCH   8   9
ATOM      9  C   UNL A   1      31.828  29.263  24.748  1.00  0.00     0.217 A 
ATOM     10  C   UNL A   1      29.506  29.173  22.829  1.00  0.00     0.048 A 
ATOM     11  C   UNL A   1      30.292  29.942  24.213  1.00  0.00     0.092 A 
ATOM     12  N   UNL A   1      30.264  27.797  22.010  1.00  0.00    -0.231 NA
ATOM     13  C   UNL A   1      31.762  27.085  22.667  1.00  0.00     0.183 A 
ATOM     14  N   UNL A   1      32.559  27.843  24.021  1.00  0.00    -0.192 NA
BRANCH  10  15
ATOM     15  C   UNL A   1      28.181  29.719  22.363  1.00  0.00     0.053 C 
ATOM     16  C   UNL A   1      28.318  30.728  21.226  1.00  0.00     0.011 C 
ENDBRANCH  10  15
BRANCH  13  17
ATOM     17  C   UNL A   1      31.988  25.623  22.517  1.00  0.00     0.126 A 
ATOM     18  C   UNL A   1      32.977  25.140  21.650  1.00  0.00     0.143 A 
ATOM     19  N   UNL A   1      31.329  24.768  23.339  1.00  0.00    -0.250 NA
ATOM     20  N   UNL A   1      33.366  23.839  21.585  1.00  0.00    -0.261 NA
ATOM     21  C   UNL A   1      31.714  23.466  23.273  1.00  0.00     0.132 A 
ATOM     22  C   UNL A   1      32.710  23.013  22.422  1.00  0.00     0.131 A 
ENDBRANCH  13  17
ENDBRANCH   8   9
ENDBRANCH   7   8
ENDBRANCH   6   7
ENDBRANCH   3   6
ENDBRANCH   1   2
BRANCH   1  23
ATOM     23  C   UNL A   1      33.578  34.420  28.968  1.00  0.00     0.042 C 
BRANCH  23  24
ATOM     24  C   UNL A   1      33.274  36.031  29.589  1.00  0.00     0.118 C 
BRANCH  24  25
ATOM     25  N   UNL A   1      32.427  36.286  30.768  1.00  0.00    -0.352 N 
ATOM     26  C   UNL A   1      32.479  35.837  32.053  1.00  0.00     0.251 C 
ATOM     27  H   UNL A   1      31.678  36.900  30.593  1.00  0.00     0.163 HD
ATOM     28  O   UNL A   1      31.589  36.017  32.872  1.00  0.00    -0.269 OA
BRANCH  26  29
ATOM     29  C   UNL A   1      33.659  35.059  32.398  1.00  0.00     0.039 A 
ATOM     30  C   UNL A   1      33.505  33.720  32.752  1.00  0.00     0.014 A 
ATOM     31  C   UNL A   1      34.908  35.650  32.202  1.00  0.00     0.014 A 
ATOM     32  C   UNL A   1      34.637  32.939  32.857  1.00  0.00     0.010 A 
ATOM     33  C   UNL A   1      36.021  34.850  32.179  1.00  0.00     0.010 A 
ATOM     34  C   UNL A   1      35.883  33.514  32.568  1.00  0.00    -0.014 A 
BRANCH  34  35
ATOM     35  C   UNL A   1      37.101  32.810  32.953  1.00  0.00     0.031 A 
ATOM     36  C   UNL A   1      37.681  33.173  34.282  1.00  0.00     0.074 A 
ATOM     37  C   UNL A   1      37.618  31.893  32.128  1.00  0.00     0.049 A 
ATOM     38  N   UNL A   1      38.768  32.744  34.857  1.00  0.00    -0.248 NA
ATOM     39  C   UNL A   1      36.948  34.190  35.064  1.00  0.00     0.031 C 
ATOM     40  C   UNL A   1      37.059  31.501  30.832  1.00  0.00     0.029 A 
ATOM     41  N   UNL A   1      38.723  31.111  32.274  1.00  0.00    -0.354 N 
ATOM     42  C   UNL A   1      38.842  33.440  36.055  1.00  0.00     0.074 A 
ATOM     43  C   UNL A   1      37.761  34.391  36.083  1.00  0.00     0.031 C 
ATOM     44  C   UNL A   1      37.811  30.513  30.319  1.00  0.00     0.029 A 
ATOM     45  C   UNL A   1      38.915  30.244  31.232  1.00  0.00     0.049 A 
ATOM     46  H   UNL A   1      39.325  31.164  33.053  1.00  0.00     0.167 HD
ATOM     47  C   UNL A   1      39.721  33.259  37.063  1.00  0.00     0.037 A 
ATOM     48  C   UNL A   1      39.890  29.335  31.069  1.00  0.00     0.037 A 
ATOM     49  C   UNL A   1      40.783  32.298  36.982  1.00  0.00     0.049 A 
ATOM     50  C   UNL A   1      40.908  29.210  32.171  1.00  0.00     0.074 A 
ATOM     51  C   UNL A   1      41.772  32.017  37.899  1.00  0.00     0.029 A 
ATOM     52  N   UNL A   1      40.988  31.459  35.889  1.00  0.00    -0.354 N 
ATOM     53  N   UNL A   1      40.983  29.856  33.315  1.00  0.00    -0.248 NA
ATOM     54  C   UNL A   1      41.968  28.222  31.969  1.00  0.00     0.031 C 
ATOM     55  C   UNL A   1      42.618  31.057  37.332  1.00  0.00     0.029 A 
ATOM     56  C   UNL A   1      42.106  30.675  36.097  1.00  0.00     0.049 A 
ATOM     57  H   UNL A   1      40.419  31.429  35.087  1.00  0.00     0.167 HD
ATOM     58  C   UNL A   1      42.077  29.331  33.984  1.00  0.00     0.074 A 
ATOM     59  C   UNL A   1      42.618  28.295  33.121  1.00  0.00     0.031 C 
ATOM     60  C   UNL A   1      42.599  29.662  35.194  1.00  0.00     0.037 A 
BRANCH  47  61
ATOM     61  C   UNL A   1      39.567  34.144  38.264  1.00  0.00     0.064 A 
ATOM     62  C   UNL A   1      40.237  35.376  38.375  1.00  0.00     0.173 A 
ATOM     63  C   UNL A   1      38.806  33.717  39.362  1.00  0.00     0.173 A 
ATOM     64  F   UNL A   1      41.009  35.820  37.370  1.00  0.00    -0.203 F 
ATOM     65  C   UNL A   1      40.195  36.115  39.555  1.00  0.00     0.198 A 
ATOM     66  C   UNL A   1      38.731  34.480  40.525  1.00  0.00     0.198 A 
ATOM     67  F   UNL A   1      38.157  32.544  39.320  1.00  0.00    -0.203 F 
ATOM     68  F   UNL A   1      40.921  37.236  39.670  1.00  0.00    -0.200 F 
ATOM     69  C   UNL A   1      39.439  35.669  40.627  1.00  0.00     0.200 A 
ATOM     70  F   UNL A   1      37.996  34.049  41.558  1.00  0.00    -0.200 F 
ATOM     71  F   UNL A   1      39.407  36.373  41.767  1.00  0.00    -0.200 F 
ENDBRANCH  47  61
BRANCH  48  72
ATOM     72  C   UNL A   1      39.917  28.473  29.860  1.00  0.00     0.064 A 
ATOM     73  C   UNL A   1      39.292  27.218  29.853  1.00  0.00     0.173 A 
ATOM     74  C   UNL A   1      40.557  28.886  28.682  1.00  0.00     0.173 A 
ATOM     75  F   UNL A   1      38.671  26.773  30.956  1.00  0.00    -0.203 F 
ATOM     76  C   UNL A   1      39.333  26.398  28.728  1.00  0.00     0.198 A 
ATOM     77  C   UNL A   1      40.570  28.079  27.546  1.00  0.00     0.198 A 
ATOM     78  F   UNL A   1      41.162  30.082  28.629  1.00  0.00    -0.203 F 
ATOM     79  F   UNL A   1      38.771  25.182  28.767  1.00  0.00    -0.200 F 
ATOM     80  C   UNL A   1      39.968  26.831  27.573  1.00  0.00     0.200 A 
ATOM     81  F   UNL A   1      41.168  28.510  26.427  1.00  0.00    -0.200 F 
ATOM     82  F   UNL A   1      40.005  26.043  26.490  1.00  0.00    -0.200 F 
ENDBRANCH  48  72
BRANCH  60  83
ATOM     83  C   UNL A   1      43.780  28.858  35.654  1.00  0.00     0.064 A 
ATOM     84  C   UNL A   1      45.095  29.211  35.318  1.00  0.00     0.173 A 
ATOM     85  C   UNL A   1      43.586  27.719  36.451  1.00  0.00     0.173 A 
ATOM     86  F   UNL A   1      45.331  30.288  34.554  1.00  0.00    -0.203 F 
ATOM     87  C   UNL A   1      46.167  28.418  35.711  1.00  0.00     0.198 A 
ATOM     88  C   UNL A   1      44.665  26.958  36.884  1.00  0.00     0.198 A 
ATOM     89  F   UNL A   1      42.350  27.348  36.816  1.00  0.00    -0.203 F 
ATOM     90  F   UNL A   1      47.407  28.724  35.302  1.00  0.00    -0.200 F 
ATOM     91  C   UNL A   1      45.953  27.297  36.499  1.00  0.00     0.200 A 
ATOM     92  F   UNL A   1      44.458  25.891  37.669  1.00  0.00    -0.200 F 
ATOM     93  F   UNL A   1      46.988  26.534  36.874  1.00  0.00    -0.200 F 
ENDBRANCH  60  83
ENDBRANCH  34  35
ENDBRANCH  26  29
ENDBRANCH  24  25
ENDBRANCH  23  24
ENDBRANCH   1  23
TORSDOF 15
ENDMDL
MODEL 2
REMARK VINA RESULT:     -13.5      6.364     10.971
REMARK SMILES CCc1cc(OCCC(=O)NCCCNC(=O)c2ccc(-c3c4nc(c(-c5c(F)c(F)c(F)c(F)c5F)c5ccc([nH]5)c(-c5c(F)c(F)c(F)c(F)c5F)c5nc(c(-c6c(F)c(F)c(F)c(F)c6F)c6ccc3[nH]6)C=C5)C=C4)cc2)nc(-c2cnccn2)n1
REMARK SMILES IDX 12 1 11 2 9 3 10 4 8 6 7 7 6 8 5 9 3 10 4 11 89 12 82 13
REMARK SMILES IDX 81 14 2 15 1 16 83 17 84 18 88 19 85 20 87 21 86 22 13 23
REMARK SMILES IDX 14 24 15 25 16 26 17 28 18 29 19 30 80 31 20 32 79 33 21 34
REMARK SMILES IDX 22 35 23 36 73 37 24 38 78 39 72 40 74 41 25 42 77 43 71 44
REMARK SMILES IDX 70 45 26 47 58 48 38 49 57 50 39 51 42 52 56 53 75 54 40 55
REMARK SMILES IDX 41 56 55 58 76 59 43 60 27 61 28 62 36 63 29 64 30 65 34 66
REMARK SMILES IDX 37 67 31 68 32 69 35 70 33 71 59 72 60 73 68 74 61 75 62 76
REMARK SMILES IDX 66 77 69 78 63 79 64 80 67 81 65 82 44 83 45 84 53 85 46 86
REMARK SMILES IDX 47 87 51 88 54 89 48 90 49 91 52 92 50 93
REMARK H PARENT 11 5 15 27 74 46 42 57
REMARK Flexibility Score: inf
ROOT
ATOM      1  C   UNL A   1      36.263  21.788  24.366  1.00  0.00     0.117 C 
ENDROOT
BRANCH   1   2
ATOM      2  N   UNL A   1      34.828  22.070  24.918  1.00  0.00    -0.356 N 
ATOM      3  C   UNL A   1      33.719  22.525  24.272  1.00  0.00     0.223 C 
ATOM      4  O   UNL A   1      32.759  22.900  24.943  1.00  0.00    -0.275 OA
ATOM      5  H   UNL A   1      34.708  21.892  25.878  1.00  0.00     0.163 HD
BRANCH   3   6
ATOM      6  C   UNL A   1      33.706  22.568  22.757  1.00  0.00     0.141 C 
BRANCH   6   7
ATOM      7  C   UNL A   1      32.919  23.726  22.132  1.00  0.00     0.241 C 
BRANCH   7   8
ATOM      8  O   UNL A   1      33.584  25.002  22.099  1.00  0.00    -0.477 OA
BRANCH   8   9
ATOM      9  C   UNL A   1      32.990  25.950  22.894  1.00  0.00     0.217 A 
ATOM     10  C   UNL A   1      33.432  28.074  24.986  1.00  0.00     0.048 A 
ATOM     11  C   UNL A   1      33.797  26.455  24.378  1.00  0.00     0.092 A 
ATOM     12  N   UNL A   1      32.322  29.139  24.107  1.00  0.00    -0.231 NA
ATOM     13  C   UNL A   1      31.451  28.530  22.675  1.00  0.00     0.183 A 
ATOM     14  N   UNL A   1      31.813  26.941  22.052  1.00  0.00    -0.192 NA
BRANCH  10  15
ATOM     15  C   UNL A   1      34.091  28.525  26.263  1.00  0.00     0.053 C 
ATOM     16  C   UNL A   1      33.120  28.608  27.439  1.00  0.00     0.011 C 
ENDBRANCH  10  15
BRANCH  13  17
ATOM     17  C   UNL A   1      30.082  29.040  22.397  1.00  0.00     0.126 A 
ATOM     18  C   UNL A   1      28.982  28.558  23.118  1.00  0.00     0.143 A 
ATOM     19  N   UNL A   1      29.929  30.082  21.542  1.00  0.00    -0.250 NA
ATOM     20  N   UNL A   1      27.733  29.090  23.052  1.00  0.00    -0.261 NA
ATOM     21  C   UNL A   1      28.680  30.615  21.472  1.00  0.00     0.132 A 
ATOM     22  C   UNL A   1      27.610  30.135  22.211  1.00  0.00     0.131 A 
ENDBRANCH  13  17
ENDBRANCH   8   9
ENDBRANCH   7   8
ENDBRANCH   6   7
ENDBRANCH   3   6
ENDBRANCH   1   2
BRANCH   1  23
ATOM     23  C   UNL A   1      37.808  20.371  25.020  1.00  0.00     0.042 C 
BRANCH  23  24
ATOM     24  C   UNL A   1      39.266  20.563  25.974  1.00  0.00     0.118 C 
BRANCH  24  25
ATOM     25  N   UNL A   1      40.345  19.559  25.996  1.00  0.00    -0.352 N 
ATOM     26  C   UNL A   1      41.694  19.661  26.163  1.00  0.00     0.251 C 
ATOM     27  H   UNL A   1      40.032  18.636  25.864  1.00  0.00     0.163 HD
ATOM     28  O   UNL A   1      42.473  18.736  25.983  1.00  0.00    -0.269 OA
BRANCH  26  29
ATOM     29  C   UNL A   1      42.183  20.984  26.523  1.00  0.00     0.039 A 
ATOM     30  C   UNL A   1      42.389  21.285  27.867  1.00  0.00     0.014 A 
ATOM     31  C   UNL A   1      42.575  21.835  25.489  1.00  0.00     0.014 A 
ATOM     32  C   UNL A   1      43.059  22.449  28.180  1.00  0.00     0.010 A 
ATOM     33  C   UNL A   1      43.351  22.924  25.789  1.00  0.00     0.010 A 
ATOM     34  C   UNL A   1      43.534  23.255  27.135  1.00  0.00    -0.014 A 
BRANCH  34  35
ATOM     35  C   UNL A   1      43.973  24.615  27.426  1.00  0.00     0.031 A 
ATOM     36  C   UNL A   1      42.900  25.593  27.783  1.00  0.00     0.074 A 
ATOM     37  C   UNL A   1      45.276  24.910  27.372  1.00  0.00     0.049 A 
ATOM     38  N   UNL A   1      42.993  26.865  28.046  1.00  0.00    -0.248 NA
ATOM     39  C   UNL A   1      41.519  25.071  27.819  1.00  0.00     0.031 C 
ATOM     40  C   UNL A   1      46.350  23.968  27.049  1.00  0.00     0.029 A 
ATOM     41  N   UNL A   1      45.916  26.088  27.611  1.00  0.00    -0.354 N 
ATOM     42  C   UNL A   1      41.689  27.284  28.272  1.00  0.00     0.074 A 
ATOM     43  C   UNL A   1      40.815  26.169  28.014  1.00  0.00     0.031 C 
ATOM     44  C   UNL A   1      47.528  24.604  27.152  1.00  0.00     0.029 A 
ATOM     45  C   UNL A   1      47.278  25.996  27.506  1.00  0.00     0.049 A 
ATOM     46  H   UNL A   1      45.445  26.924  27.837  1.00  0.00     0.167 HD
ATOM     47  C   UNL A   1      41.273  28.493  28.703  1.00  0.00     0.037 A 
ATOM     48  C   UNL A   1      48.198  26.956  27.690  1.00  0.00     0.037 A 
ATOM     49  C   UNL A   1      42.186  29.572  28.942  1.00  0.00     0.049 A 
ATOM     50  C   UNL A   1      47.701  28.320  28.090  1.00  0.00     0.074 A 
ATOM     51  C   UNL A   1      41.922  30.862  29.348  1.00  0.00     0.029 A 
ATOM     52  N   UNL A   1      43.566  29.469  28.781  1.00  0.00    -0.354 N 
ATOM     53  N   UNL A   1      46.470  28.726  28.317  1.00  0.00    -0.248 NA
ATOM     54  C   UNL A   1      48.719  29.356  28.274  1.00  0.00     0.031 C 
ATOM     55  C   UNL A   1      43.135  31.560  29.365  1.00  0.00     0.029 A 
ATOM     56  C   UNL A   1      44.167  30.682  29.055  1.00  0.00     0.049 A 
ATOM     57  H   UNL A   1      44.044  28.651  28.513  1.00  0.00     0.167 HD
ATOM     58  C   UNL A   1      46.566  30.054  28.702  1.00  0.00     0.074 A 
ATOM     59  C   UNL A   1      47.983  30.373  28.700  1.00  0.00     0.031 C 
ATOM     60  C   UNL A   1      45.587  30.939  29.029  1.00  0.00     0.037 A 
BRANCH  47  61
ATOM     61  C   UNL A   1      39.794  28.677  28.880  1.00  0.00     0.064 A 
ATOM     62  C   UNL A   1      38.975  29.175  27.851  1.00  0.00     0.173 A 
ATOM     63  C   UNL A   1      39.197  28.433  30.126  1.00  0.00     0.173 A 
ATOM     64  F   UNL A   1      39.497  29.462  26.648  1.00  0.00    -0.203 F 
ATOM     65  C   UNL A   1      37.633  29.474  28.080  1.00  0.00     0.198 A 
ATOM     66  C   UNL A   1      37.845  28.691  30.338  1.00  0.00     0.198 A 
ATOM     67  F   UNL A   1      39.932  27.972  31.149  1.00  0.00    -0.203 F 
ATOM     68  F   UNL A   1      36.899  30.040  27.112  1.00  0.00    -0.200 F 
ATOM     69  C   UNL A   1      37.069  29.227  29.321  1.00  0.00     0.200 A 
ATOM     70  F   UNL A   1      37.300  28.448  31.537  1.00  0.00    -0.200 F 
ATOM     71  F   UNL A   1      35.782  29.525  29.545  1.00  0.00    -0.200 F 
ENDBRANCH  47  61
BRANCH  48  72
ATOM     72  C   UNL A   1      49.642  26.650  27.537  1.00  0.00     0.064 A 
ATOM     73  C   UNL A   1      50.448  26.389  28.655  1.00  0.00     0.173 A 
ATOM     74  C   UNL A   1      50.251  26.602  26.274  1.00  0.00     0.173 A 
ATOM     75  F   UNL A   1      49.918  26.429  29.886  1.00  0.00    -0.203 F 
ATOM     76  C   UNL A   1      51.809  26.122  28.517  1.00  0.00     0.198 A 
ATOM     77  C   UNL A   1      51.604  26.302  26.134  1.00  0.00     0.198 A 
ATOM     78  F   UNL A   1      49.525  26.833  25.169  1.00  0.00    -0.203 F 
ATOM     79  F   UNL A   1      52.564  25.926  29.606  1.00  0.00    -0.200 F 
ATOM     80  C   UNL A   1      52.385  26.073  27.256  1.00  0.00     0.200 A 
ATOM     81  F   UNL A   1      52.152  26.238  24.912  1.00  0.00    -0.200 F 
ATOM     82  F   UNL A   1      53.693  25.815  27.124  1.00  0.00    -0.200 F 
ENDBRANCH  48  72
BRANCH  60  83
ATOM     83  C   UNL A   1      46.040  32.307  29.449  1.00  0.00     0.064 A 
ATOM     84  C   UNL A   1      46.327  32.615  30.786  1.00  0.00     0.173 A 
ATOM     85  C   UNL A   1      46.194  33.321  28.491  1.00  0.00     0.173 A 
ATOM     86  F   UNL A   1      46.189  31.681  31.740  1.00  0.00    -0.203 F 
ATOM     87  C   UNL A   1      46.692  33.905  31.158  1.00  0.00     0.198 A 
ATOM     88  C   UNL A   1      46.608  34.596  28.860  1.00  0.00     0.198 A 
ATOM     89  F   UNL A   1      45.950  33.074  27.195  1.00  0.00    -0.203 F 
ATOM     90  F   UNL A   1      46.873  34.199  32.453  1.00  0.00    -0.200 F 
ATOM     91  C   UNL A   1      46.839  34.891  30.194  1.00  0.00     0.200 A 
ATOM     92  F   UNL A   1      46.777  35.540  27.924  1.00  0.00    -0.200 F 
ATOM     93  F   UNL A   1      47.188  36.133  30.555  1.00  0.00    -0.200 F 
ENDBRANCH  60  83
ENDBRANCH  34  35
ENDBRANCH  26  29
ENDBRANCH  24  25
ENDBRANCH  23  24
ENDBRANCH   1  23
TORSDOF 15
ENDMDL
MODEL 3
REMARK VINA RESULT:     -13.4      5.944     11.685
REMARK SMILES CCc1cc(OCCC(=O)NCCCNC(=O)c2ccc(-c3c4nc(c(-c5c(F)c(F)c(F)c(F)c5F)c5ccc([nH]5)c(-c5c(F)c(F)c(F)c(F)c5F)c5nc(c(-c6c(F)c(F)c(F)c(F)c6F)c6ccc3[nH]6)C=C5)C=C4)cc2)nc(-c2cnccn2)n1
REMARK SMILES IDX 12 1 11 2 9 3 10 4 8 6 7 7 6 8 5 9 3 10 4 11 89 12 82 13
REMARK SMILES IDX 81 14 2 15 1 16 83 17 84 18 88 19 85 20 87 21 86 22 13 23
REMARK SMILES IDX 14 24 15 25 16 26 17 28 18 29 19 30 80 31 20 32 79 33 21 34
REMARK SMILES IDX 22 35 23 36 73 37 24 38 78 39 72 40 74 41 25 42 77 43 71 44
REMARK SMILES IDX 70 45 26 47 58 48 38 49 57 50 39 51 42 52 56 53 75 54 40 55
REMARK SMILES IDX 41 56 55 58 76 59 43 60 27 61 28 62 36 63 29 64 30 65 34 66
REMARK SMILES IDX 37 67 31 68 32 69 35 70 33 71 59 72 60 73 68 74 61 75 62 76
REMARK SMILES IDX 66 77 69 78 63 79 64 80 67 81 65 82 44 83 45 84 53 85 46 86
REMARK SMILES IDX 47 87 51 88 54 89 48 90 49 91 52 92 50 93
REMARK H PARENT 11 5 15 27 74 46 42 57
REMARK Flexibility Score: inf
ROOT
ATOM      1  C   UNL A   1      36.798  21.252  24.347  1.00  0.00     0.117 C 
ENDROOT
BRANCH   1   2
ATOM      2  N   UNL A   1      35.600  21.912  25.103  1.00  0.00    -0.356 N 
ATOM      3  C   UNL A   1      34.541  22.615  24.614  1.00  0.00     0.223 C 
ATOM      4  O   UNL A   1      33.838  23.245  25.403  1.00  0.00    -0.275 OA
ATOM      5  H   UNL A   1      35.612  21.802  26.081  1.00  0.00     0.163 HD
BRANCH   3   6
ATOM      6  C   UNL A   1      34.269  22.610  23.123  1.00  0.00     0.141 C 
BRANCH   6   7
ATOM      7  C   UNL A   1      33.243  23.638  22.632  1.00  0.00     0.241 C 
BRANCH   7   8
ATOM      8  O   UNL A   1      33.746  24.959  22.362  1.00  0.00    -0.477 OA
BRANCH   8   9
ATOM      9  C   UNL A   1      33.126  25.941  23.095  1.00  0.00     0.217 A 
ATOM     10  C   UNL A   1      33.513  28.220  25.028  1.00  0.00     0.048 A 
ATOM     11  C   UNL A   1      33.927  26.575  24.532  1.00  0.00     0.092 A 
ATOM     12  N   UNL A   1      32.361  29.184  24.088  1.00  0.00    -0.231 NA
ATOM     13  C   UNL A   1      31.501  28.447  22.710  1.00  0.00     0.183 A 
ATOM     14  N   UNL A   1      31.911  26.831  22.197  1.00  0.00    -0.192 NA
BRANCH  10  15
ATOM     15  C   UNL A   1      34.165  28.781  26.265  1.00  0.00     0.053 C 
ATOM     16  C   UNL A   1      33.268  28.710  27.498  1.00  0.00     0.011 C 
ENDBRANCH  10  15
BRANCH  13  17
ATOM     17  C   UNL A   1      30.113  28.891  22.411  1.00  0.00     0.126 A 
ATOM     18  C   UNL A   1      29.024  28.342  23.101  1.00  0.00     0.143 A 
ATOM     19  N   UNL A   1      29.925  29.938  21.569  1.00  0.00    -0.250 NA
ATOM     20  N   UNL A   1      27.752  28.811  23.016  1.00  0.00    -0.261 NA
ATOM     21  C   UNL A   1      28.652  30.407  21.480  1.00  0.00     0.132 A 
ATOM     22  C   UNL A   1      27.593  29.862  22.188  1.00  0.00     0.131 A 
ENDBRANCH  13  17
ENDBRANCH   8   9
ENDBRANCH   7   8
ENDBRANCH   6   7
ENDBRANCH   3   6
ENDBRANCH   1   2
BRANCH   1  23
ATOM     23  C   UNL A   1      38.353  19.865  25.039  1.00  0.00     0.042 C 
BRANCH  23  24
ATOM     24  C   UNL A   1      39.678  20.038  26.174  1.00  0.00     0.118 C 
BRANCH  24  25
ATOM     25  N   UNL A   1      40.899  19.215  26.110  1.00  0.00    -0.352 N 
ATOM     26  C   UNL A   1      42.224  19.529  26.157  1.00  0.00     0.251 C 
ATOM     27  H   UNL A   1      40.724  18.252  26.013  1.00  0.00     0.163 HD
ATOM     28  O   UNL A   1      43.120  18.733  25.918  1.00  0.00    -0.269 OA
BRANCH  26  29
ATOM     29  C   UNL A   1      42.528  20.919  26.462  1.00  0.00     0.039 A 
ATOM     30  C   UNL A   1      42.527  21.853  25.428  1.00  0.00     0.014 A 
ATOM     31  C   UNL A   1      42.649  21.278  27.805  1.00  0.00     0.014 A 
ATOM     32  C   UNL A   1      42.593  23.190  25.757  1.00  0.00     0.010 A 
ATOM     33  C   UNL A   1      42.585  22.606  28.142  1.00  0.00     0.010 A 
ATOM     34  C   UNL A   1      42.620  23.551  27.112  1.00  0.00    -0.014 A 
BRANCH  34  35
ATOM     35  C   UNL A   1      42.986  24.914  27.481  1.00  0.00     0.031 A 
ATOM     36  C   UNL A   1      44.397  25.319  27.197  1.00  0.00     0.074 A 
ATOM     37  C   UNL A   1      42.066  25.716  28.028  1.00  0.00     0.049 A 
ATOM     38  N   UNL A   1      45.004  26.442  27.454  1.00  0.00    -0.248 NA
ATOM     39  C   UNL A   1      45.258  24.302  26.560  1.00  0.00     0.031 C 
ATOM     40  C   UNL A   1      40.672  25.354  28.295  1.00  0.00     0.029 A 
ATOM     41  N   UNL A   1      42.168  27.011  28.437  1.00  0.00    -0.354 N 
ATOM     42  C   UNL A   1      46.307  26.257  27.014  1.00  0.00     0.074 A 
ATOM     43  C   UNL A   1      46.437  24.892  26.574  1.00  0.00     0.031 C 
ATOM     44  C   UNL A   1      40.034  26.428  28.790  1.00  0.00     0.029 A 
ATOM     45  C   UNL A   1      40.989  27.525  28.907  1.00  0.00     0.049 A 
ATOM     46  H   UNL A   1      43.006  27.527  28.399  1.00  0.00     0.167 HD
ATOM     47  C   UNL A   1      47.294  27.174  26.946  1.00  0.00     0.037 A 
ATOM     48  C   UNL A   1      40.740  28.760  29.370  1.00  0.00     0.037 A 
ATOM     49  C   UNL A   1      47.113  28.523  27.401  1.00  0.00     0.049 A 
ATOM     50  C   UNL A   1      41.882  29.742  29.361  1.00  0.00     0.074 A 
ATOM     51  C   UNL A   1      48.020  29.559  27.431  1.00  0.00     0.029 A 
ATOM     52  N   UNL A   1      45.917  29.010  27.922  1.00  0.00    -0.354 N 
ATOM     53  N   UNL A   1      43.117  29.582  28.938  1.00  0.00    -0.248 NA
ATOM     54  C   UNL A   1      41.593  31.080  29.881  1.00  0.00     0.031 C 
ATOM     55  C   UNL A   1      47.393  30.656  28.034  1.00  0.00     0.029 A 
ATOM     56  C   UNL A   1      46.068  30.330  28.302  1.00  0.00     0.049 A 
ATOM     57  H   UNL A   1      45.085  28.491  28.006  1.00  0.00     0.167 HD
ATOM     58  C   UNL A   1      43.745  30.805  29.108  1.00  0.00     0.074 A 
ATOM     59  C   UNL A   1      42.741  31.702  29.652  1.00  0.00     0.031 C 
ATOM     60  C   UNL A   1      45.028  31.170  28.846  1.00  0.00     0.037 A 
BRANCH  47  61
ATOM     61  C   UNL A   1      48.617  26.709  26.410  1.00  0.00     0.064 A 
ATOM     62  C   UNL A   1      49.607  26.156  27.243  1.00  0.00     0.173 A 
ATOM     63  C   UNL A   1      48.935  26.898  25.058  1.00  0.00     0.173 A 
ATOM     64  F   UNL A   1      49.372  25.986  28.553  1.00  0.00    -0.203 F 
ATOM     65  C   UNL A   1      50.878  25.864  26.753  1.00  0.00     0.198 A 
ATOM     66  C   UNL A   1      50.193  26.563  24.563  1.00  0.00     0.198 A 
ATOM     67  F   UNL A   1      48.037  27.435  24.219  1.00  0.00    -0.203 F 
ATOM     68  F   UNL A   1      51.833  25.431  27.588  1.00  0.00    -0.200 F 
ATOM     69  C   UNL A   1      51.168  26.063  25.413  1.00  0.00     0.200 A 
ATOM     70  F   UNL A   1      50.471  26.752  23.266  1.00  0.00    -0.200 F 
ATOM     71  F   UNL A   1      52.394  25.793  24.944  1.00  0.00    -0.200 F 
ENDBRANCH  47  61
BRANCH  48  72
ATOM     72  C   UNL A   1      39.378  29.129  29.829  1.00  0.00     0.064 A 
ATOM     73  C   UNL A   1      38.990  28.946  31.164  1.00  0.00     0.173 A 
ATOM     74  C   UNL A   1      38.434  29.681  28.950  1.00  0.00     0.173 A 
ATOM     75  F   UNL A   1      39.852  28.416  32.045  1.00  0.00    -0.203 F 
ATOM     76  C   UNL A   1      37.706  29.272  31.595  1.00  0.00     0.198 A 
ATOM     77  C   UNL A   1      37.160  30.037  29.388  1.00  0.00     0.198 A 
ATOM     78  F   UNL A   1      38.754  29.888  27.663  1.00  0.00    -0.203 F 
ATOM     79  F   UNL A   1      37.348  29.039  32.864  1.00  0.00    -0.200 F 
ATOM     80  C   UNL A   1      36.792  29.822  30.707  1.00  0.00     0.200 A 
ATOM     81  F   UNL A   1      36.288  30.585  28.530  1.00  0.00    -0.200 F 
ATOM     82  F   UNL A   1      35.558  30.137  31.121  1.00  0.00    -0.200 F 
ENDBRANCH  48  72
BRANCH  60  83
ATOM     83  C   UNL A   1      45.380  32.605  29.107  1.00  0.00     0.064 A 
ATOM     84  C   UNL A   1      45.200  33.601  28.137  1.00  0.00     0.173 A 
ATOM     85  C   UNL A   1      45.898  32.986  30.354  1.00  0.00     0.173 A 
ATOM     86  F   UNL A   1      44.713  33.287  26.927  1.00  0.00    -0.203 F 
ATOM     87  C   UNL A   1      45.585  34.915  28.385  1.00  0.00     0.198 A 
ATOM     88  C   UNL A   1      46.233  34.309  30.616  1.00  0.00     0.198 A 
ATOM     89  F   UNL A   1      46.072  32.075  31.324  1.00  0.00    -0.203 F 
ATOM     90  F   UNL A   1      45.489  35.832  27.413  1.00  0.00    -0.200 F 
ATOM     91  C   UNL A   1      46.094  35.268  29.625  1.00  0.00     0.200 A 
ATOM     92  F   UNL A   1      46.699  34.654  31.825  1.00  0.00    -0.200 F 
ATOM     93  F   UNL A   1      46.466  36.534  29.861  1.00  0.00    -0.200 F 
ENDBRANCH  60  83
ENDBRANCH  34  35
ENDBRANCH  26  29
ENDBRANCH  24  25
ENDBRANCH  23  24
ENDBRANCH   1  23
TORSDOF 15
ENDMDL
