MODEL 1
REMARK VINA RESULT:     -13.1      0.000      0.000
REMARK SMILES O=C(NCCCNC(=O)c1sccc1S(=O)(=O)Nc1ccccc1N1CCCCC1)c1ccc(-c2c3nc(c(-c4c(F)c(F)c(F)c(F)c4F)c4ccc([nH]4)c(-c4c(F)c(F)c(F)c(F)c4F)c4nc(c(-c5c(F)c(F)c(F)c(F)c5F)c5ccc2[nH]5)C=C4)C=C3)cc1
REMARK SMILES IDX 6 1 5 2 4 3 3 4 1 5 2 6 31 8 32 9 93 10 33 11 92 12 34 13
REMARK SMILES IDX 35 14 36 15 86 16 37 17 91 18 85 19 87 20 38 21 90 22 84 23
REMARK SMILES IDX 83 24 39 26 71 27 51 28 70 29 52 30 55 31 69 32 88 33 53 34
REMARK SMILES IDX 54 35 68 37 89 38 56 39 40 40 41 41 49 42 42 43 43 44 47 45
REMARK SMILES IDX 50 46 44 47 45 48 48 49 46 50 72 51 73 52 81 53 74 54 75 55
REMARK SMILES IDX 79 56 82 57 76 58 77 59 80 60 78 61 57 62 58 63 66 64 59 65
REMARK SMILES IDX 60 66 64 67 67 68 61 69 62 70 65 71 63 72 7 73 8 74 9 76
REMARK SMILES IDX 10 77 11 78 14 79 12 80 13 81 15 82 16 83 17 84 18 85 19 87
REMARK SMILES IDX 20 88 24 89 21 90 23 91 22 92 25 93 26 94 30 95 27 96 29 97
REMARK SMILES IDX 28 98
REMARK H PARENT 3 7 87 25 55 36 7 75 18 86
REMARK Flexibility Score: inf
ROOT
ATOM      1  C   UNL A   1      31.862  27.384  26.619  1.00  0.00     0.118 C 
ENDROOT
BRANCH   1   2
ATOM      2  C   UNL A   1      31.589  28.719  25.963  1.00  0.00     0.042 C 
BRANCH   2   3
ATOM      3  C   UNL A   1      32.816  29.617  26.004  1.00  0.00     0.118 C 
BRANCH   3   4
ATOM      4  N   UNL A   1      32.527  30.975  26.461  1.00  0.00    -0.352 N 
ATOM      5  O   UNL A   1      32.866  32.921  27.571  1.00  0.00    -0.269 OA
ATOM      6  C   UNL A   1      33.293  31.827  27.221  1.00  0.00     0.251 C 
ATOM      7  H   UNL A   1      31.653  31.333  26.184  1.00  0.00     0.163 HD
BRANCH   6   8
ATOM      8  C   UNL A   1      34.617  31.361  27.662  1.00  0.00     0.039 A 
ATOM      9  C   UNL A   1      34.798  30.017  27.979  1.00  0.00     0.014 A 
ATOM     10  C   UNL A   1      35.618  32.301  27.912  1.00  0.00     0.014 A 
ATOM     11  C   UNL A   1      35.873  29.660  28.773  1.00  0.00     0.010 A 
ATOM     12  C   UNL A   1      36.772  31.903  28.587  1.00  0.00     0.010 A 
ATOM     13  C   UNL A   1      36.880  30.592  29.076  1.00  0.00    -0.014 A 
BRANCH  13  14
ATOM     14  C   UNL A   1      38.054  30.147  29.865  1.00  0.00     0.031 A 
ATOM     15  C   UNL A   1      39.098  29.238  29.279  1.00  0.00     0.074 A 
ATOM     16  C   UNL A   1      38.185  30.621  31.119  1.00  0.00     0.049 A 
ATOM     17  N   UNL A   1      40.169  28.743  29.848  1.00  0.00    -0.248 NA
ATOM     18  C   UNL A   1      38.918  28.817  27.882  1.00  0.00     0.031 C 
ATOM     19  C   UNL A   1      37.227  31.508  31.784  1.00  0.00     0.029 A 
ATOM     20  N   UNL A   1      39.178  30.453  32.046  1.00  0.00    -0.354 N 
ATOM     21  C   UNL A   1      40.766  27.926  28.898  1.00  0.00     0.074 A 
ATOM     22  C   UNL A   1      39.935  27.981  27.714  1.00  0.00     0.031 C 
ATOM     23  C   UNL A   1      37.713  31.868  32.978  1.00  0.00     0.029 A 
ATOM     24  C   UNL A   1      38.965  31.158  33.204  1.00  0.00     0.049 A 
ATOM     25  H   UNL A   1      39.968  29.885  31.896  1.00  0.00     0.167 HD
ATOM     26  C   UNL A   1      41.904  27.196  29.011  1.00  0.00     0.037 A 
ATOM     27  C   UNL A   1      39.680  31.205  34.340  1.00  0.00     0.037 A 
ATOM     28  C   UNL A   1      42.738  27.180  30.187  1.00  0.00     0.049 A 
ATOM     29  C   UNL A   1      40.927  30.383  34.438  1.00  0.00     0.074 A 
ATOM     30  C   UNL A   1      43.929  26.505  30.393  1.00  0.00     0.029 A 
ATOM     31  N   UNL A   1      42.467  27.875  31.358  1.00  0.00    -0.354 N 
ATOM     32  N   UNL A   1      41.477  29.611  33.533  1.00  0.00    -0.248 NA
ATOM     33  C   UNL A   1      41.643  30.426  35.718  1.00  0.00     0.031 C 
ATOM     34  C   UNL A   1      44.355  26.757  31.701  1.00  0.00     0.029 A 
ATOM     35  C   UNL A   1      43.455  27.628  32.297  1.00  0.00     0.049 A 
ATOM     36  H   UNL A   1      41.687  28.458  31.500  1.00  0.00     0.167 HD
ATOM     37  C   UNL A   1      42.605  29.073  34.131  1.00  0.00     0.074 A 
ATOM     38  C   UNL A   1      42.676  29.633  35.466  1.00  0.00     0.031 C 
ATOM     39  C   UNL A   1      43.497  28.188  33.623  1.00  0.00     0.037 A 
BRANCH  26  40
ATOM     40  C   UNL A   1      42.305  26.334  27.848  1.00  0.00     0.064 A 
ATOM     41  C   UNL A   1      41.772  25.051  27.653  1.00  0.00     0.173 A 
ATOM     42  C   UNL A   1      43.201  26.822  26.883  1.00  0.00     0.173 A 
ATOM     43  F   UNL A   1      40.919  24.532  28.549  1.00  0.00    -0.203 F 
ATOM     44  C   UNL A   1      42.136  24.282  26.549  1.00  0.00     0.198 A 
ATOM     45  C   UNL A   1      43.543  26.062  25.767  1.00  0.00     0.198 A 
ATOM     46  F   UNL A   1      43.737  28.045  27.016  1.00  0.00    -0.203 F 
ATOM     47  F   UNL A   1      41.642  23.045  26.404  1.00  0.00    -0.200 F 
ATOM     48  C   UNL A   1      43.015  24.791  25.604  1.00  0.00     0.200 A 
ATOM     49  F   UNL A   1      44.383  26.560  24.850  1.00  0.00    -0.200 F 
ATOM     50  F   UNL A   1      43.357  24.053  24.538  1.00  0.00    -0.200 F 
ENDBRANCH  26  40
BRANCH  27  51
ATOM     51  C   UNL A   1      39.203  32.048  35.465  1.00  0.00     0.064 A 
ATOM     52  C   UNL A   1      38.408  31.507  36.483  1.00  0.00     0.173 A 
ATOM     53  C   UNL A   1      39.582  33.395  35.575  1.00  0.00     0.173 A 
ATOM     54  F   UNL A   1      38.010  30.229  36.415  1.00  0.00    -0.203 F 
ATOM     55  C   UNL A   1      38.007  32.283  37.568  1.00  0.00     0.198 A 
ATOM     56  C   UNL A   1      39.207  34.160  36.675  1.00  0.00     0.198 A 
ATOM     57  F   UNL A   1      40.354  33.955  34.631  1.00  0.00    -0.203 F 
ATOM     58  F   UNL A   1      37.225  31.751  38.517  1.00  0.00    -0.200 F 
ATOM     59  C   UNL A   1      38.416  33.605  37.669  1.00  0.00     0.200 A 
ATOM     60  F   UNL A   1      39.626  35.429  36.780  1.00  0.00    -0.200 F 
ATOM     61  F   UNL A   1      38.047  34.344  38.724  1.00  0.00    -0.200 F 
ENDBRANCH  27  51
BRANCH  39  62
ATOM     62  C   UNL A   1      44.629  27.787  34.521  1.00  0.00     0.064 A 
ATOM     63  C   UNL A   1      44.537  26.662  35.353  1.00  0.00     0.173 A 
ATOM     64  C   UNL A   1      45.818  28.530  34.541  1.00  0.00     0.173 A 
ATOM     65  F   UNL A   1      43.411  25.934  35.382  1.00  0.00    -0.203 F 
ATOM     66  C   UNL A   1      45.587  26.311  36.196  1.00  0.00     0.198 A 
ATOM     67  C   UNL A   1      46.876  28.160  35.365  1.00  0.00     0.198 A 
ATOM     68  F   UNL A   1      45.952  29.613  33.762  1.00  0.00    -0.203 F 
ATOM     69  F   UNL A   1      45.459  25.263  37.021  1.00  0.00    -0.200 F 
ATOM     70  C   UNL A   1      46.757  27.057  36.197  1.00  0.00     0.200 A 
ATOM     71  F   UNL A   1      48.008  28.877  35.360  1.00  0.00    -0.200 F 
ATOM     72  F   UNL A   1      47.767  26.719  37.010  1.00  0.00    -0.200 F 
ENDBRANCH  39  62
ENDBRANCH  13  14
ENDBRANCH   6   8
ENDBRANCH   3   4
ENDBRANCH   2   3
ENDBRANCH   1   2
BRANCH   1  73
ATOM     73  N   UNL A   1      33.182  26.884  26.308  1.00  0.00    -0.351 N 
ATOM     74  C   UNL A   1      33.550  25.867  25.478  1.00  0.00     0.262 C 
ATOM     75  H   UNL A   1      33.923  27.346  26.762  1.00  0.00     0.163 HD
ATOM     76  O   UNL A   1      34.746  25.564  25.493  1.00  0.00    -0.268 OA
BRANCH  74  77
ATOM     77  C   UNL A   1      32.557  25.139  24.727  1.00  0.00     0.112 A 
ATOM     78  S   UNL A   1      32.308  25.758  23.126  1.00  0.00    -0.137 S 
ATOM     79  C   UNL A   1      31.706  24.076  24.992  1.00  0.00     0.111 A 
ATOM     80  C   UNL A   1      31.131  24.592  22.765  1.00  0.00     0.067 A 
ATOM     81  C   UNL A   1      30.910  23.754  23.829  1.00  0.00     0.035 A 
BRANCH  79  82
ATOM     82  S   UNL A   1      31.545  23.076  26.404  1.00  0.00     0.263 S 
ATOM     83  O   UNL A   1      31.631  24.022  27.502  1.00  0.00    -0.201 OA
ATOM     84  O   UNL A   1      30.263  22.432  26.184  1.00  0.00    -0.201 OA
BRANCH  82  85
ATOM     85  N   UNL A   1      32.607  21.845  26.783  1.00  0.00    -0.277 N 
ATOM     86  H   UNL A   1      32.304  21.175  27.437  1.00  0.00     0.180 HD
BRANCH  85  87
ATOM     87  C   UNL A   1      33.913  21.679  26.241  1.00  0.00     0.072 A 
ATOM     88  C   UNL A   1      34.886  22.610  26.640  1.00  0.00     0.029 A 
ATOM     89  C   UNL A   1      34.221  20.677  25.297  1.00  0.00     0.061 A 
ATOM     90  C   UNL A   1      36.199  22.506  26.191  1.00  0.00     0.002 A 
ATOM     91  C   UNL A   1      35.560  20.584  24.876  1.00  0.00     0.028 A 
ATOM     92  C   UNL A   1      36.541  21.478  25.323  1.00  0.00     0.002 A 
BRANCH  89  93
ATOM     93  N   UNL A   1      33.260  19.850  24.740  1.00  0.00    -0.370 N 
ATOM     94  C   UNL A   1      33.206  18.422  25.044  1.00  0.00     0.116 C 
ATOM     95  C   UNL A   1      32.347  20.388  23.731  1.00  0.00     0.116 C 
ATOM     96  C   UNL A   1      33.227  17.584  23.772  1.00  0.00     0.021 C 
ATOM     97  C   UNL A   1      32.402  19.545  22.460  1.00  0.00     0.021 C 
ATOM     98  C   UNL A   1      32.174  18.072  22.781  1.00  0.00     0.004 C 
ENDBRANCH  89  93
ENDBRANCH  85  87
ENDBRANCH  82  85
ENDBRANCH  79  82
ENDBRANCH  74  77
ENDBRANCH   1  73
TORSDOF 14
ENDMDL
MODEL 2
REMARK VINA RESULT:     -12.9      1.959      3.405
REMARK SMILES O=C(NCCCNC(=O)c1sccc1S(=O)(=O)Nc1ccccc1N1CCCCC1)c1ccc(-c2c3nc(c(-c4c(F)c(F)c(F)c(F)c4F)c4ccc([nH]4)c(-c4c(F)c(F)c(F)c(F)c4F)c4nc(c(-c5c(F)c(F)c(F)c(F)c5F)c5ccc2[nH]5)C=C4)C=C3)cc1
REMARK SMILES IDX 6 1 5 2 4 3 3 4 1 5 2 6 31 8 32 9 93 10 33 11 92 12 34 13
REMARK SMILES IDX 35 14 36 15 86 16 37 17 91 18 85 19 87 20 38 21 90 22 84 23
REMARK SMILES IDX 83 24 39 26 71 27 51 28 70 29 52 30 55 31 69 32 88 33 53 34
REMARK SMILES IDX 54 35 68 37 89 38 56 39 40 40 41 41 49 42 42 43 43 44 47 45
REMARK SMILES IDX 50 46 44 47 45 48 48 49 46 50 72 51 73 52 81 53 74 54 75 55
REMARK SMILES IDX 79 56 82 57 76 58 77 59 80 60 78 61 57 62 58 63 66 64 59 65
REMARK SMILES IDX 60 66 64 67 67 68 61 69 62 70 65 71 63 72 7 73 8 74 9 76
REMARK SMILES IDX 10 77 11 78 14 79 12 80 13 81 15 82 16 83 17 84 18 85 19 87
REMARK SMILES IDX 20 88 24 89 21 90 23 91 22 92 25 93 26 94 30 95 27 96 29 97
REMARK SMILES IDX 28 98
REMARK H PARENT 3 7 87 25 55 36 7 75 18 86
REMARK Flexibility Score: inf
ROOT
ATOM      1  C   UNL A   1      32.300  30.181  26.509  1.00  0.00     0.118 C 
ENDROOT
BRANCH   1   2
ATOM      2  C   UNL A   1      31.821  31.595  26.745  1.00  0.00     0.042 C 
BRANCH   2   3
ATOM      3  C   UNL A   1      32.910  32.451  27.375  1.00  0.00     0.118 C 
BRANCH   3   4
ATOM      4  N   UNL A   1      32.495  33.831  27.622  1.00  0.00    -0.352 N 
ATOM      5  O   UNL A   1      32.493  35.862  28.625  1.00  0.00    -0.269 OA
ATOM      6  C   UNL A   1      33.009  34.758  28.497  1.00  0.00     0.251 C 
ATOM      7  H   UNL A   1      31.732  34.142  27.083  1.00  0.00     0.163 HD
BRANCH   6   8
ATOM      8  C   UNL A   1      34.157  34.364  29.328  1.00  0.00     0.039 A 
ATOM      9  C   UNL A   1      35.449  34.551  28.842  1.00  0.00     0.014 A 
ATOM     10  C   UNL A   1      33.928  33.662  30.513  1.00  0.00     0.014 A 
ATOM     11  C   UNL A   1      36.483  33.822  29.402  1.00  0.00     0.010 A 
ATOM     12  C   UNL A   1      35.001  33.049  31.158  1.00  0.00     0.010 A 
ATOM     13  C   UNL A   1      36.277  33.074  30.574  1.00  0.00    -0.014 A 
BRANCH  13  14
ATOM     14  C   UNL A   1      37.430  32.370  31.185  1.00  0.00     0.031 A 
ATOM     15  C   UNL A   1      38.193  31.312  30.437  1.00  0.00     0.074 A 
ATOM     16  C   UNL A   1      37.809  32.740  32.424  1.00  0.00     0.049 A 
ATOM     17  N   UNL A   1      39.210  30.591  30.842  1.00  0.00    -0.248 NA
ATOM     18  C   UNL A   1      37.760  31.010  29.065  1.00  0.00     0.031 C 
ATOM     19  C   UNL A   1      37.136  33.756  33.237  1.00  0.00     0.029 A 
ATOM     20  N   UNL A   1      38.859  32.335  33.203  1.00  0.00    -0.354 N 
ATOM     21  C   UNL A   1      39.509  29.729  29.796  1.00  0.00     0.074 A 
ATOM     22  C   UNL A   1      38.563  30.007  28.737  1.00  0.00     0.031 C 
ATOM     23  C   UNL A   1      37.830  33.949  34.365  1.00  0.00     0.029 A 
ATOM     24  C   UNL A   1      38.936  33.002  34.399  1.00  0.00     0.049 A 
ATOM     25  H   UNL A   1      39.497  31.635  32.931  1.00  0.00     0.167 HD
ATOM     26  C   UNL A   1      40.487  28.790  29.734  1.00  0.00     0.037 A 
ATOM     27  C   UNL A   1      39.783  32.850  35.430  1.00  0.00     0.037 A 
ATOM     28  C   UNL A   1      41.443  28.550  30.786  1.00  0.00     0.049 A 
ATOM     29  C   UNL A   1      40.848  31.801  35.335  1.00  0.00     0.074 A 
ATOM     30  C   UNL A   1      42.495  27.650  30.810  1.00  0.00     0.029 A 
ATOM     31  N   UNL A   1      41.464  29.219  32.003  1.00  0.00    -0.354 N 
ATOM     32  N   UNL A   1      41.117  30.989  34.342  1.00  0.00    -0.248 NA
ATOM     33  C   UNL A   1      41.714  31.635  36.507  1.00  0.00     0.031 C 
ATOM     34  C   UNL A   1      43.124  27.744  32.056  1.00  0.00     0.029 A 
ATOM     35  C   UNL A   1      42.495  28.736  32.792  1.00  0.00     0.049 A 
ATOM     36  H   UNL A   1      40.838  29.931  32.265  1.00  0.00     0.167 HD
ATOM     37  C   UNL A   1      42.183  30.213  34.766  1.00  0.00     0.074 A 
ATOM     38  C   UNL A   1      42.531  30.675  36.096  1.00  0.00     0.031 C 
ATOM     39  C   UNL A   1      42.813  29.204  34.117  1.00  0.00     0.037 A 
BRANCH  26  40
ATOM     40  C   UNL A   1      40.561  27.933  28.502  1.00  0.00     0.064 A 
ATOM     41  C   UNL A   1      41.300  28.313  27.373  1.00  0.00     0.173 A 
ATOM     42  C   UNL A   1      39.920  26.682  28.473  1.00  0.00     0.173 A 
ATOM     43  F   UNL A   1      41.923  29.501  27.344  1.00  0.00    -0.203 F 
ATOM     44  C   UNL A   1      41.379  27.486  26.254  1.00  0.00     0.198 A 
ATOM     45  C   UNL A   1      40.023  25.847  27.364  1.00  0.00     0.198 A 
ATOM     46  F   UNL A   1      39.204  26.266  29.528  1.00  0.00    -0.203 F 
ATOM     47  F   UNL A   1      42.062  27.888  25.173  1.00  0.00    -0.200 F 
ATOM     48  C   UNL A   1      40.747  26.251  26.253  1.00  0.00     0.200 A 
ATOM     49  F   UNL A   1      39.420  24.650  27.370  1.00  0.00    -0.200 F 
ATOM     50  F   UNL A   1      40.832  25.454  25.180  1.00  0.00    -0.200 F 
ENDBRANCH  26  40
BRANCH  27  51
ATOM     51  C   UNL A   1      39.627  33.704  36.634  1.00  0.00     0.064 A 
ATOM     52  C   UNL A   1      40.220  34.971  36.698  1.00  0.00     0.173 A 
ATOM     53  C   UNL A   1      38.835  33.295  37.717  1.00  0.00     0.173 A 
ATOM     54  F   UNL A   1      40.997  35.400  35.693  1.00  0.00    -0.203 F 
ATOM     55  C   UNL A   1      40.028  35.797  37.804  1.00  0.00     0.198 A 
ATOM     56  C   UNL A   1      38.618  34.133  38.807  1.00  0.00     0.198 A 
ATOM     57  F   UNL A   1      38.236  32.095  37.696  1.00  0.00    -0.203 F 
ATOM     58  F   UNL A   1      40.626  36.995  37.854  1.00  0.00    -0.200 F 
ATOM     59  C   UNL A   1      39.219  35.382  38.851  1.00  0.00     0.200 A 
ATOM     60  F   UNL A   1      37.814  33.738  39.804  1.00  0.00    -0.200 F 
ATOM     61  F   UNL A   1      39.017  36.186  39.904  1.00  0.00    -0.200 F 
ENDBRANCH  27  51
BRANCH  39  62
ATOM     62  C   UNL A   1      43.948  28.546  34.842  1.00  0.00     0.064 A 
ATOM     63  C   UNL A   1      43.745  27.407  35.634  1.00  0.00     0.173 A 
ATOM     64  C   UNL A   1      45.250  29.055  34.736  1.00  0.00     0.173 A 
ATOM     65  F   UNL A   1      42.513  26.898  35.783  1.00  0.00    -0.203 F 
ATOM     66  C   UNL A   1      44.803  26.816  36.318  1.00  0.00     0.198 A 
ATOM     67  C   UNL A   1      46.311  28.445  35.398  1.00  0.00     0.198 A 
ATOM     68  F   UNL A   1      45.493  30.141  33.988  1.00  0.00    -0.203 F 
ATOM     69  F   UNL A   1      44.579  25.759  37.111  1.00  0.00    -0.200 F 
ATOM     70  C   UNL A   1      46.086  27.332  36.195  1.00  0.00     0.200 A 
ATOM     71  F   UNL A   1      47.550  28.940  35.273  1.00  0.00    -0.200 F 
ATOM     72  F   UNL A   1      47.104  26.763  36.855  1.00  0.00    -0.200 F 
ENDBRANCH  39  62
ENDBRANCH  13  14
ENDBRANCH   6   8
ENDBRANCH   3   4
ENDBRANCH   2   3
ENDBRANCH   1   2
BRANCH   1  73
ATOM     73  N   UNL A   1      33.044  30.056  25.277  1.00  0.00    -0.351 N 
ATOM     74  C   UNL A   1      32.828  29.232  24.213  1.00  0.00     0.262 C 
ATOM     75  H   UNL A   1      33.820  30.655  25.194  1.00  0.00     0.163 HD
ATOM     76  O   UNL A   1      33.697  29.241  23.337  1.00  0.00    -0.268 OA
BRANCH  74  77
ATOM     77  C   UNL A   1      31.698  28.335  24.199  1.00  0.00     0.112 A 
ATOM     78  S   UNL A   1      30.478  28.775  23.048  1.00  0.00    -0.137 S 
ATOM     79  C   UNL A   1      31.323  27.214  24.926  1.00  0.00     0.111 A 
ATOM     80  C   UNL A   1      29.491  27.460  23.463  1.00  0.00     0.067 A 
ATOM     81  C   UNL A   1      30.053  26.704  24.460  1.00  0.00     0.035 A 
BRANCH  79  82
ATOM     82  S   UNL A   1      32.158  26.336  26.171  1.00  0.00     0.263 S 
ATOM     83  O   UNL A   1      33.517  26.838  26.086  1.00  0.00    -0.201 OA
ATOM     84  O   UNL A   1      31.398  26.680  27.358  1.00  0.00    -0.201 OA
BRANCH  82  85
ATOM     85  N   UNL A   1      32.290  24.672  26.189  1.00  0.00    -0.277 N 
ATOM     86  H   UNL A   1      32.375  24.237  27.068  1.00  0.00     0.180 HD
BRANCH  85  87
ATOM     87  C   UNL A   1      32.290  23.827  25.043  1.00  0.00     0.072 A 
ATOM     88  C   UNL A   1      31.061  23.656  24.384  1.00  0.00     0.029 A 
ATOM     89  C   UNL A   1      33.440  23.134  24.611  1.00  0.00     0.061 A 
ATOM     90  C   UNL A   1      30.971  22.878  23.234  1.00  0.00     0.002 A 
ATOM     91  C   UNL A   1      33.324  22.372  23.435  1.00  0.00     0.028 A 
ATOM     92  C   UNL A   1      32.110  22.251  22.747  1.00  0.00     0.002 A 
BRANCH  89  93
ATOM     93  N   UNL A   1      34.627  23.130  25.326  1.00  0.00    -0.370 N 
ATOM     94  C   UNL A   1      35.601  24.210  25.202  1.00  0.00     0.116 C 
ATOM     95  C   UNL A   1      34.972  21.961  26.137  1.00  0.00     0.116 C 
ATOM     96  C   UNL A   1      36.981  23.672  24.843  1.00  0.00     0.021 C 
ATOM     97  C   UNL A   1      36.347  21.429  25.743  1.00  0.00     0.021 C 
ATOM     98  C   UNL A   1      37.388  22.542  25.784  1.00  0.00     0.004 C 
ENDBRANCH  89  93
ENDBRANCH  85  87
ENDBRANCH  82  85
ENDBRANCH  79  82
ENDBRANCH  74  77
ENDBRANCH   1  73
TORSDOF 14
ENDMDL
MODEL 3
REMARK VINA RESULT:     -12.9      4.341      7.972
REMARK SMILES O=C(NCCCNC(=O)c1sccc1S(=O)(=O)Nc1ccccc1N1CCCCC1)c1ccc(-c2c3nc(c(-c4c(F)c(F)c(F)c(F)c4F)c4ccc([nH]4)c(-c4c(F)c(F)c(F)c(F)c4F)c4nc(c(-c5c(F)c(F)c(F)c(F)c5F)c5ccc2[nH]5)C=C4)C=C3)cc1
REMARK SMILES IDX 6 1 5 2 4 3 3 4 1 5 2 6 31 8 32 9 93 10 33 11 92 12 34 13
REMARK SMILES IDX 35 14 36 15 86 16 37 17 91 18 85 19 87 20 38 21 90 22 84 23
REMARK SMILES IDX 83 24 39 26 71 27 51 28 70 29 52 30 55 31 69 32 88 33 53 34
REMARK SMILES IDX 54 35 68 37 89 38 56 39 40 40 41 41 49 42 42 43 43 44 47 45
REMARK SMILES IDX 50 46 44 47 45 48 48 49 46 50 72 51 73 52 81 53 74 54 75 55
REMARK SMILES IDX 79 56 82 57 76 58 77 59 80 60 78 61 57 62 58 63 66 64 59 65
REMARK SMILES IDX 60 66 64 67 67 68 61 69 62 70 65 71 63 72 7 73 8 74 9 76
REMARK SMILES IDX 10 77 11 78 14 79 12 80 13 81 15 82 16 83 17 84 18 85 19 87
REMARK SMILES IDX 20 88 24 89 21 90 23 91 22 92 25 93 26 94 30 95 27 96 29 97
REMARK SMILES IDX 28 98
REMARK H PARENT 3 7 87 25 55 36 7 75 18 86
REMARK Flexibility Score: inf
ROOT
ATOM      1  C   UNL A   1      36.535  21.906  25.226  1.00  0.00     0.118 C 
ENDROOT
BRANCH   1   2
ATOM      2  C   UNL A   1      37.561  20.848  24.885  1.00  0.00     0.042 C 
BRANCH   2   3
ATOM      3  C   UNL A   1      38.806  20.986  25.748  1.00  0.00     0.118 C 
BRANCH   3   4
ATOM      4  N   UNL A   1      39.618  19.772  25.795  1.00  0.00    -0.352 N 
ATOM      5  O   UNL A   1      41.497  18.523  26.004  1.00  0.00    -0.269 OA
ATOM      6  C   UNL A   1      40.956  19.620  26.072  1.00  0.00     0.251 C 
ATOM      7  H   UNL A   1      39.135  18.937  25.596  1.00  0.00     0.163 HD
BRANCH   6   8
ATOM      8  C   UNL A   1      41.738  20.825  26.388  1.00  0.00     0.039 A 
ATOM      9  C   UNL A   1      41.894  21.210  27.718  1.00  0.00     0.014 A 
ATOM     10  C   UNL A   1      42.167  21.648  25.346  1.00  0.00     0.014 A 
ATOM     11  C   UNL A   1      42.244  22.519  27.996  1.00  0.00     0.010 A 
ATOM     12  C   UNL A   1      42.660  22.919  25.642  1.00  0.00     0.010 A 
ATOM     13  C   UNL A   1      42.646  23.386  26.964  1.00  0.00    -0.014 A 
BRANCH  13  14
ATOM     14  C   UNL A   1      43.088  24.758  27.314  1.00  0.00     0.031 A 
ATOM     15  C   UNL A   1      44.482  25.235  27.019  1.00  0.00     0.074 A 
ATOM     16  C   UNL A   1      42.183  25.588  27.867  1.00  0.00     0.049 A 
ATOM     17  N   UNL A   1      45.027  26.397  27.283  1.00  0.00    -0.248 NA
ATOM     18  C   UNL A   1      45.392  24.290  26.353  1.00  0.00     0.031 C 
ATOM     19  C   UNL A   1      40.803  25.224  28.196  1.00  0.00     0.029 A 
ATOM     20  N   UNL A   1      42.271  26.907  28.222  1.00  0.00    -0.354 N 
ATOM     21  C   UNL A   1      46.345  26.310  26.855  1.00  0.00     0.074 A 
ATOM     22  C   UNL A   1      46.526  24.978  26.320  1.00  0.00     0.031 C 
ATOM     23  C   UNL A   1      40.152  26.310  28.633  1.00  0.00     0.029 A 
ATOM     24  C   UNL A   1      41.094  27.417  28.710  1.00  0.00     0.049 A 
ATOM     25  H   UNL A   1      43.096  27.438  28.136  1.00  0.00     0.167 HD
ATOM     26  C   UNL A   1      47.311  27.260  26.910  1.00  0.00     0.037 A 
ATOM     27  C   UNL A   1      40.807  28.636  29.198  1.00  0.00     0.037 A 
ATOM     28  C   UNL A   1      47.103  28.594  27.415  1.00  0.00     0.049 A 
ATOM     29  C   UNL A   1      41.897  29.662  29.252  1.00  0.00     0.074 A 
ATOM     30  C   UNL A   1      48.003  29.644  27.482  1.00  0.00     0.029 A 
ATOM     31  N   UNL A   1      45.906  29.063  27.940  1.00  0.00    -0.354 N 
ATOM     32  N   UNL A   1      43.140  29.564  28.848  1.00  0.00    -0.248 NA
ATOM     33  C   UNL A   1      41.549  30.959  29.843  1.00  0.00     0.031 C 
ATOM     34  C   UNL A   1      47.363  30.732  28.086  1.00  0.00     0.029 A 
ATOM     35  C   UNL A   1      46.050  30.378  28.353  1.00  0.00     0.049 A 
ATOM     36  H   UNL A   1      45.076  28.538  28.009  1.00  0.00     0.167 HD
ATOM     37  C   UNL A   1      43.727  30.786  29.135  1.00  0.00     0.074 A 
ATOM     38  C   UNL A   1      42.693  31.618  29.719  1.00  0.00     0.031 C 
ATOM     39  C   UNL A   1      45.009  31.181  28.942  1.00  0.00     0.037 A 
BRANCH  26  40
ATOM     40  C   UNL A   1      48.688  26.890  26.437  1.00  0.00     0.064 A 
ATOM     41  C   UNL A   1      49.641  26.318  27.292  1.00  0.00     0.173 A 
ATOM     42  C   UNL A   1      49.042  27.065  25.089  1.00  0.00     0.173 A 
ATOM     43  F   UNL A   1      49.359  26.138  28.592  1.00  0.00    -0.203 F 
ATOM     44  C   UNL A   1      50.902  25.955  26.823  1.00  0.00     0.198 A 
ATOM     45  C   UNL A   1      50.293  26.677  24.617  1.00  0.00     0.198 A 
ATOM     46  F   UNL A   1      48.168  27.602  24.225  1.00  0.00    -0.203 F 
ATOM     47  F   UNL A   1      51.808  25.445  27.668  1.00  0.00    -0.200 F 
ATOM     48  C   UNL A   1      51.224  26.128  25.484  1.00  0.00     0.200 A 
ATOM     49  F   UNL A   1      50.599  26.835  23.321  1.00  0.00    -0.200 F 
ATOM     50  F   UNL A   1      52.434  25.769  25.033  1.00  0.00    -0.200 F 
ENDBRANCH  26  40
BRANCH  27  51
ATOM     51  C   UNL A   1      39.434  28.920  29.685  1.00  0.00     0.064 A 
ATOM     52  C   UNL A   1      39.080  28.679  31.018  1.00  0.00     0.173 A 
ATOM     53  C   UNL A   1      38.469  29.494  28.844  1.00  0.00     0.173 A 
ATOM     54  F   UNL A   1      39.965  28.120  31.856  1.00  0.00    -0.203 F 
ATOM     55  C   UNL A   1      37.809  28.997  31.491  1.00  0.00     0.198 A 
ATOM     56  C   UNL A   1      37.210  29.841  29.325  1.00  0.00     0.198 A 
ATOM     57  F   UNL A   1      38.766  29.756  27.562  1.00  0.00    -0.203 F 
ATOM     58  F   UNL A   1      37.484  28.733  32.764  1.00  0.00    -0.200 F 
ATOM     59  C   UNL A   1      36.879  29.588  30.647  1.00  0.00     0.200 A 
ATOM     60  F   UNL A   1      36.325  30.434  28.512  1.00  0.00    -0.200 F 
ATOM     61  F   UNL A   1      35.664  29.913  31.109  1.00  0.00    -0.200 F 
ENDBRANCH  27  51
BRANCH  39  62
ATOM     62  C   UNL A   1      45.350  32.579  29.358  1.00  0.00     0.064 A 
ATOM     63  C   UNL A   1      45.182  33.663  28.484  1.00  0.00     0.173 A 
ATOM     64  C   UNL A   1      45.840  32.838  30.646  1.00  0.00     0.173 A 
ATOM     65  F   UNL A   1      44.735  33.460  27.235  1.00  0.00    -0.203 F 
ATOM     66  C   UNL A   1      45.520  34.955  28.876  1.00  0.00     0.198 A 
ATOM     67  C   UNL A   1      46.151  34.134  31.044  1.00  0.00     0.198 A 
ATOM     68  F   UNL A   1      46.016  31.834  31.517  1.00  0.00    -0.203 F 
ATOM     69  F   UNL A   1      45.401  35.969  28.008  1.00  0.00    -0.200 F 
ATOM     70  C   UNL A   1      45.999  35.190  30.157  1.00  0.00     0.200 A 
ATOM     71  F   UNL A   1      46.607  34.361  32.284  1.00  0.00    -0.200 F 
ATOM     72  F   UNL A   1      46.326  36.434  30.533  1.00  0.00    -0.200 F 
ENDBRANCH  39  62
ENDBRANCH  13  14
ENDBRANCH   6   8
ENDBRANCH   3   4
ENDBRANCH   2   3
ENDBRANCH   1   2
BRANCH   1  73
ATOM     73  N   UNL A   1      35.784  21.573  26.415  1.00  0.00    -0.351 N 
ATOM     74  C   UNL A   1      34.436  21.581  26.619  1.00  0.00     0.262 C 
ATOM     75  H   UNL A   1      36.325  21.300  27.190  1.00  0.00     0.163 HD
ATOM     76  O   UNL A   1      34.064  21.374  27.777  1.00  0.00    -0.268 OA
BRANCH  74  77
ATOM     77  C   UNL A   1      33.535  21.927  25.547  1.00  0.00     0.112 A 
ATOM     78  S   UNL A   1      33.434  20.716  24.309  1.00  0.00    -0.137 S 
ATOM     79  C   UNL A   1      32.752  23.030  25.236  1.00  0.00     0.111 A 
ATOM     80  C   UNL A   1      32.317  21.614  23.403  1.00  0.00     0.067 A 
ATOM     81  C   UNL A   1      32.029  22.813  24.003  1.00  0.00     0.035 A 
BRANCH  79  82
ATOM     82  S   UNL A   1      32.460  24.500  26.116  1.00  0.00     0.263 S 
ATOM     83  O   UNL A   1      31.780  24.047  27.316  1.00  0.00    -0.201 OA
ATOM     84  O   UNL A   1      33.799  25.036  26.277  1.00  0.00    -0.201 OA
BRANCH  82  85
ATOM     85  N   UNL A   1      31.541  25.758  25.521  1.00  0.00    -0.277 N 
ATOM     86  H   UNL A   1      30.773  25.525  24.951  1.00  0.00     0.180 HD
BRANCH  85  87
ATOM     87  C   UNL A   1      31.770  27.142  25.768  1.00  0.00     0.072 A 
ATOM     88  C   UNL A   1      31.450  27.616  27.052  1.00  0.00     0.029 A 
ATOM     89  C   UNL A   1      32.231  28.025  24.769  1.00  0.00     0.061 A 
ATOM     90  C   UNL A   1      31.675  28.945  27.396  1.00  0.00     0.002 A 
ATOM     91  C   UNL A   1      32.467  29.358  25.153  1.00  0.00     0.028 A 
ATOM     92  C   UNL A   1      32.204  29.813  26.451  1.00  0.00     0.002 A 
BRANCH  89  93
ATOM     93  N   UNL A   1      32.392  27.645  23.447  1.00  0.00    -0.370 N 
ATOM     94  C   UNL A   1      31.259  27.558  22.530  1.00  0.00     0.116 C 
ATOM     95  C   UNL A   1      33.708  27.206  22.982  1.00  0.00     0.116 C 
ATOM     96  C   UNL A   1      31.186  26.187  21.870  1.00  0.00     0.021 C 
ATOM     97  C   UNL A   1      33.612  25.823  22.345  1.00  0.00     0.021 C 
ATOM     98  C   UNL A   1      32.533  25.799  21.268  1.00  0.00     0.004 C 
ENDBRANCH  89  93
ENDBRANCH  85  87
ENDBRANCH  82  85
ENDBRANCH  79  82
ENDBRANCH  74  77
ENDBRANCH   1  73
TORSDOF 14
ENDMDL
