MODEL 1
REMARK VINA RESULT:     -12.4      0.000      0.000
REMARK SMILES O=C(NCCCNC(=O)c1ccnc(Oc2cccc(C(F)(F)F)c2)c1)c1ccc(-c2c3nc(c(-c4c(F)c(F)c(F)c(F)c4F)c4ccc([nH]4)c(-c4c(F)c(F)c(F)c(F)c4F)c4nc(c(-c5c(F)c(F)c(F)c(F)c5F)c5ccc2[nH]5)C=C4)C=C3)cc1
REMARK SMILES IDX 5 1 4 2 3 3 1 4 2 5 27 7 28 8 89 9 29 10 88 11 30 12 31 13
REMARK SMILES IDX 32 14 82 15 33 16 87 17 81 18 83 19 34 20 86 21 80 22 79 23
REMARK SMILES IDX 35 25 67 26 47 27 66 28 48 29 51 30 65 31 84 32 49 33 50 34
REMARK SMILES IDX 64 36 85 37 52 38 36 39 37 40 45 41 38 42 39 43 43 44 46 45
REMARK SMILES IDX 40 46 41 47 44 48 42 49 68 50 69 51 77 52 70 53 71 54 75 55
REMARK SMILES IDX 78 56 72 57 73 58 76 59 74 60 53 61 54 62 62 63 55 64 56 65
REMARK SMILES IDX 60 66 63 67 57 68 58 69 61 70 59 71 6 72 7 73 8 74 9 76
REMARK SMILES IDX 10 77 11 78 26 79 12 80 14 81 13 82 15 83 16 84 17 85 25 86
REMARK SMILES IDX 18 87 20 88 19 89 21 90 22 91 23 92 24 93
REMARK H PARENT 3 6 83 24 51 35 7 75
REMARK Flexibility Score: inf
ROOT
ATOM      1  C   UNL A   1      33.309  29.007  23.888  1.00  0.00     0.042 C 
ENDROOT
BRANCH   1   2
ATOM      2  C   UNL A   1      33.263  29.005  25.410  1.00  0.00     0.118 C 
BRANCH   2   3
ATOM      3  N   UNL A   1      32.789  30.265  25.970  1.00  0.00    -0.352 N 
ATOM      4  O   UNL A   1      32.622  31.999  27.393  1.00  0.00    -0.269 OA
ATOM      5  C   UNL A   1      33.291  31.056  26.977  1.00  0.00     0.251 C 
ATOM      6  H   UNL A   1      31.966  30.611  25.555  1.00  0.00     0.163 HD
BRANCH   5   7
ATOM      7  C   UNL A   1      34.609  30.771  27.587  1.00  0.00     0.039 A 
ATOM      8  C   UNL A   1      35.005  29.466  27.870  1.00  0.00     0.014 A 
ATOM      9  C   UNL A   1      35.479  31.831  27.861  1.00  0.00     0.014 A 
ATOM     10  C   UNL A   1      36.161  29.238  28.609  1.00  0.00     0.010 A 
ATOM     11  C   UNL A   1      36.700  31.589  28.500  1.00  0.00     0.010 A 
ATOM     12  C   UNL A   1      37.028  30.295  28.930  1.00  0.00    -0.014 A 
BRANCH  12  13
ATOM     13  C   UNL A   1      38.270  30.004  29.693  1.00  0.00     0.031 A 
ATOM     14  C   UNL A   1      38.455  30.502  31.101  1.00  0.00     0.074 A 
ATOM     15  C   UNL A   1      39.215  29.226  29.127  1.00  0.00     0.049 A 
ATOM     16  N   UNL A   1      39.445  30.283  31.932  1.00  0.00    -0.248 NA
ATOM     17  C   UNL A   1      37.401  31.369  31.649  1.00  0.00     0.031 C 
ATOM     18  C   UNL A   1      39.160  28.694  27.764  1.00  0.00     0.029 A 
ATOM     19  N   UNL A   1      40.387  28.721  29.631  1.00  0.00    -0.354 N 
ATOM     20  C   UNL A   1      39.146  31.001  33.083  1.00  0.00     0.074 A 
ATOM     21  C   UNL A   1      37.896  31.687  32.836  1.00  0.00     0.031 C 
ATOM     22  C   UNL A   1      40.210  27.886  27.563  1.00  0.00     0.029 A 
ATOM     23  C   UNL A   1      41.047  27.893  28.758  1.00  0.00     0.049 A 
ATOM     24  H   UNL A   1      40.723  28.933  30.532  1.00  0.00     0.167 HD
ATOM     25  C   UNL A   1      39.845  31.073  34.242  1.00  0.00     0.037 A 
ATOM     26  C   UNL A   1      42.200  27.214  28.898  1.00  0.00     0.037 A 
ATOM     27  C   UNL A   1      41.073  30.364  34.496  1.00  0.00     0.049 A 
ATOM     28  C   UNL A   1      42.954  27.315  30.194  1.00  0.00     0.074 A 
ATOM     29  C   UNL A   1      41.832  30.337  35.654  1.00  0.00     0.029 A 
ATOM     30  N   UNL A   1      41.726  29.557  33.575  1.00  0.00    -0.354 N 
ATOM     31  N   UNL A   1      42.638  27.965  31.286  1.00  0.00    -0.248 NA
ATOM     32  C   UNL A   1      44.226  26.585  30.273  1.00  0.00     0.031 C 
ATOM     33  C   UNL A   1      42.966  29.553  35.418  1.00  0.00     0.029 A 
ATOM     34  C   UNL A   1      42.888  29.046  34.131  1.00  0.00     0.049 A 
ATOM     35  H   UNL A   1      41.409  29.374  32.661  1.00  0.00     0.167 HD
ATOM     36  C   UNL A   1      43.657  27.706  32.192  1.00  0.00     0.074 A 
ATOM     37  C   UNL A   1      44.591  26.822  31.525  1.00  0.00     0.031 C 
ATOM     38  C   UNL A   1      43.805  28.161  33.459  1.00  0.00     0.037 A 
BRANCH  25  39
ATOM     39  C   UNL A   1      39.311  31.967  35.325  1.00  0.00     0.064 A 
ATOM     40  C   UNL A   1      38.508  31.474  36.365  1.00  0.00     0.173 A 
ATOM     41  C   UNL A   1      39.648  33.330  35.348  1.00  0.00     0.173 A 
ATOM     42  F   UNL A   1      38.148  30.183  36.386  1.00  0.00    -0.203 F 
ATOM     43  C   UNL A   1      38.041  32.318  37.371  1.00  0.00     0.198 A 
ATOM     44  C   UNL A   1      39.203  34.164  36.371  1.00  0.00     0.198 A 
ATOM     45  F   UNL A   1      40.419  33.853  34.382  1.00  0.00    -0.203 F 
ATOM     46  F   UNL A   1      37.238  31.835  38.329  1.00  0.00    -0.200 F 
ATOM     47  C   UNL A   1      38.395  33.659  37.378  1.00  0.00     0.200 A 
ATOM     48  F   UNL A   1      39.557  35.457  36.382  1.00  0.00    -0.200 F 
ATOM     49  F   UNL A   1      37.951  34.466  38.351  1.00  0.00    -0.200 F 
ENDBRANCH  25  39
BRANCH  26  50
ATOM     50  C   UNL A   1      42.704  26.372  27.783  1.00  0.00     0.064 A 
ATOM     51  C   UNL A   1      43.538  26.910  26.793  1.00  0.00     0.173 A 
ATOM     52  C   UNL A   1      42.368  25.013  27.687  1.00  0.00     0.173 A 
ATOM     53  F   UNL A   1      43.871  28.208  26.830  1.00  0.00    -0.203 F 
ATOM     54  C   UNL A   1      44.004  26.123  25.741  1.00  0.00     0.198 A 
ATOM     55  C   UNL A   1      42.860  24.221  26.653  1.00  0.00     0.198 A 
ATOM     56  F   UNL A   1      41.578  24.450  28.613  1.00  0.00    -0.203 F 
ATOM     57  F   UNL A   1      44.764  26.673  24.783  1.00  0.00    -0.200 F 
ATOM     58  C   UNL A   1      43.671  24.779  25.675  1.00  0.00     0.200 A 
ATOM     59  F   UNL A   1      42.551  22.919  26.604  1.00  0.00    -0.200 F 
ATOM     60  F   UNL A   1      44.124  24.022  24.668  1.00  0.00    -0.200 F 
ENDBRANCH  26  50
BRANCH  38  61
ATOM     61  C   UNL A   1      45.003  27.675  34.222  1.00  0.00     0.064 A 
ATOM     62  C   UNL A   1      44.968  26.492  34.975  1.00  0.00     0.173 A 
ATOM     63  C   UNL A   1      46.206  28.397  34.187  1.00  0.00     0.173 A 
ATOM     64  F   UNL A   1      43.837  25.775  35.054  1.00  0.00    -0.203 F 
ATOM     65  C   UNL A   1      46.084  26.068  35.691  1.00  0.00     0.198 A 
ATOM     66  C   UNL A   1      47.329  27.953  34.880  1.00  0.00     0.198 A 
ATOM     67  F   UNL A   1      46.293  29.532  33.477  1.00  0.00    -0.203 F 
ATOM     68  F   UNL A   1      46.011  24.965  36.450  1.00  0.00    -0.200 F 
ATOM     69  C   UNL A   1      47.264  26.795  35.639  1.00  0.00     0.200 A 
ATOM     70  F   UNL A   1      48.471  28.650  34.818  1.00  0.00    -0.200 F 
ATOM     71  F   UNL A   1      48.336  26.385  36.329  1.00  0.00    -0.200 F 
ENDBRANCH  38  61
ENDBRANCH  12  13
ENDBRANCH   5   7
ENDBRANCH   2   3
ENDBRANCH   1   2
BRANCH   1  72
ATOM     72  C   UNL A   1      32.123  28.315  23.229  1.00  0.00     0.118 C 
BRANCH  72  73
ATOM     73  N   UNL A   1      32.497  27.608  22.011  1.00  0.00    -0.352 N 
ATOM     74  C   UNL A   1      32.728  26.274  21.794  1.00  0.00     0.251 C 
ATOM     75  H   UNL A   1      32.599  28.180  21.215  1.00  0.00     0.163 HD
ATOM     76  O   UNL A   1      33.227  25.902  20.735  1.00  0.00    -0.269 OA
BRANCH  74  77
ATOM     77  C   UNL A   1      32.414  25.280  22.837  1.00  0.00     0.046 A 
ATOM     78  C   UNL A   1      31.183  24.634  22.870  1.00  0.00     0.034 A 
ATOM     79  C   UNL A   1      33.398  24.975  23.777  1.00  0.00     0.082 A 
ATOM     80  C   UNL A   1      30.950  23.775  23.921  1.00  0.00     0.116 A 
ATOM     81  C   UNL A   1      33.070  24.110  24.807  1.00  0.00     0.219 A 
ATOM     82  N   UNL A   1      31.853  23.522  24.891  1.00  0.00    -0.222 NA
BRANCH  81  83
ATOM     83  O   UNL A   1      33.906  23.748  25.840  1.00  0.00    -0.439 OA
BRANCH  83  84
ATOM     84  C   UNL A   1      35.180  23.320  25.568  1.00  0.00     0.130 A 
ATOM     85  C   UNL A   1      35.330  22.314  24.616  1.00  0.00     0.047 A 
ATOM     86  C   UNL A   1      36.287  23.795  26.278  1.00  0.00     0.060 A 
ATOM     87  C   UNL A   1      36.599  21.817  24.326  1.00  0.00     0.004 A 
ATOM     88  C   UNL A   1      37.573  23.327  25.967  1.00  0.00     0.059 A 
ATOM     89  C   UNL A   1      37.716  22.329  24.989  1.00  0.00     0.013 A 
BRANCH  88  90
ATOM     90  C   UNL A   1      38.791  23.885  26.659  1.00  0.00     0.416 C 
ATOM     91  F   UNL A   1      38.490  24.511  27.829  1.00  0.00    -0.166 F 
ATOM     92  F   UNL A   1      39.697  22.917  26.975  1.00  0.00    -0.166 F 
ATOM     93  F   UNL A   1      39.472  24.796  25.909  1.00  0.00    -0.166 F 
ENDBRANCH  88  90
ENDBRANCH  83  84
ENDBRANCH  81  83
ENDBRANCH  74  77
ENDBRANCH  72  73
ENDBRANCH   1  72
TORSDOF 13
ENDMDL
MODEL 2
REMARK VINA RESULT:     -12.3      1.276      2.421
REMARK SMILES O=C(NCCCNC(=O)c1ccnc(Oc2cccc(C(F)(F)F)c2)c1)c1ccc(-c2c3nc(c(-c4c(F)c(F)c(F)c(F)c4F)c4ccc([nH]4)c(-c4c(F)c(F)c(F)c(F)c4F)c4nc(c(-c5c(F)c(F)c(F)c(F)c5F)c5ccc2[nH]5)C=C4)C=C3)cc1
REMARK SMILES IDX 5 1 4 2 3 3 1 4 2 5 27 7 28 8 89 9 29 10 88 11 30 12 31 13
REMARK SMILES IDX 32 14 82 15 33 16 87 17 81 18 83 19 34 20 86 21 80 22 79 23
REMARK SMILES IDX 35 25 67 26 47 27 66 28 48 29 51 30 65 31 84 32 49 33 50 34
REMARK SMILES IDX 64 36 85 37 52 38 36 39 37 40 45 41 38 42 39 43 43 44 46 45
REMARK SMILES IDX 40 46 41 47 44 48 42 49 68 50 69 51 77 52 70 53 71 54 75 55
REMARK SMILES IDX 78 56 72 57 73 58 76 59 74 60 53 61 54 62 62 63 55 64 56 65
REMARK SMILES IDX 60 66 63 67 57 68 58 69 61 70 59 71 6 72 7 73 8 74 9 76
REMARK SMILES IDX 10 77 11 78 26 79 12 80 14 81 13 82 15 83 16 84 17 85 25 86
REMARK SMILES IDX 18 87 20 88 19 89 21 90 22 91 23 92 24 93
REMARK H PARENT 3 6 83 24 51 35 7 75
REMARK Flexibility Score: inf
ROOT
ATOM      1  C   UNL A   1      31.780  28.610  26.897  1.00  0.00     0.042 C 
ENDROOT
BRANCH   1   2
ATOM      2  C   UNL A   1      32.730  29.520  26.128  1.00  0.00     0.118 C 
BRANCH   2   3
ATOM      3  N   UNL A   1      32.554  30.932  26.446  1.00  0.00    -0.352 N 
ATOM      4  O   UNL A   1      32.838  32.897  27.500  1.00  0.00    -0.269 OA
ATOM      5  C   UNL A   1      33.279  31.778  27.251  1.00  0.00     0.251 C 
ATOM      6  H   UNL A   1      31.780  31.353  26.007  1.00  0.00     0.163 HD
BRANCH   5   7
ATOM      7  C   UNL A   1      34.563  31.349  27.847  1.00  0.00     0.039 A 
ATOM      8  C   UNL A   1      34.774  30.028  28.236  1.00  0.00     0.014 A 
ATOM      9  C   UNL A   1      35.592  32.286  28.001  1.00  0.00     0.014 A 
ATOM     10  C   UNL A   1      35.912  29.692  28.959  1.00  0.00     0.010 A 
ATOM     11  C   UNL A   1      36.788  31.917  28.625  1.00  0.00     0.010 A 
ATOM     12  C   UNL A   1      36.938  30.629  29.160  1.00  0.00    -0.014 A 
BRANCH  12  13
ATOM     13  C   UNL A   1      38.154  30.219  29.912  1.00  0.00     0.031 A 
ATOM     14  C   UNL A   1      38.358  30.627  31.346  1.00  0.00     0.074 A 
ATOM     15  C   UNL A   1      39.054  29.417  29.308  1.00  0.00     0.049 A 
ATOM     16  N   UNL A   1      39.326  30.301  32.169  1.00  0.00    -0.248 NA
ATOM     17  C   UNL A   1      37.355  31.527  31.936  1.00  0.00     0.031 C 
ATOM     18  C   UNL A   1      38.976  28.965  27.917  1.00  0.00     0.029 A 
ATOM     19  N   UNL A   1      40.188  28.813  29.789  1.00  0.00    -0.354 N 
ATOM     20  C   UNL A   1      39.063  30.972  33.356  1.00  0.00     0.074 A 
ATOM     21  C   UNL A   1      37.860  31.747  33.142  1.00  0.00     0.031 C 
ATOM     22  C   UNL A   1      39.976  28.105  27.677  1.00  0.00     0.029 A 
ATOM     23  C   UNL A   1      40.802  27.994  28.874  1.00  0.00     0.049 A 
ATOM     24  H   UNL A   1      40.529  28.953  30.702  1.00  0.00     0.167 HD
ATOM     25  C   UNL A   1      39.756  30.937  34.520  1.00  0.00     0.037 A 
ATOM     26  C   UNL A   1      41.909  27.238  28.981  1.00  0.00     0.037 A 
ATOM     27  C   UNL A   1      40.936  30.139  34.740  1.00  0.00     0.049 A 
ATOM     28  C   UNL A   1      42.657  27.220  30.284  1.00  0.00     0.074 A 
ATOM     29  C   UNL A   1      41.682  30.002  35.899  1.00  0.00     0.029 A 
ATOM     30  N   UNL A   1      41.544  29.345  33.779  1.00  0.00    -0.354 N 
ATOM     31  N   UNL A   1      42.374  27.827  31.410  1.00  0.00    -0.248 NA
ATOM     32  C   UNL A   1      43.881  26.409  30.329  1.00  0.00     0.031 C 
ATOM     33  C   UNL A   1      42.767  29.162  35.624  1.00  0.00     0.029 A 
ATOM     34  C   UNL A   1      42.668  28.733  34.311  1.00  0.00     0.049 A 
ATOM     35  H   UNL A   1      41.224  29.232  32.855  1.00  0.00     0.167 HD
ATOM     36  C   UNL A   1      43.367  27.456  32.304  1.00  0.00     0.074 A 
ATOM     37  C   UNL A   1      44.250  26.553  31.594  1.00  0.00     0.031 C 
ATOM     38  C   UNL A   1      43.533  27.831  33.595  1.00  0.00     0.037 A 
BRANCH  25  39
ATOM     39  C   UNL A   1      39.270  31.801  35.649  1.00  0.00     0.064 A 
ATOM     40  C   UNL A   1      38.355  31.331  36.603  1.00  0.00     0.173 A 
ATOM     41  C   UNL A   1      39.765  33.106  35.804  1.00  0.00     0.173 A 
ATOM     42  F   UNL A   1      37.843  30.096  36.496  1.00  0.00    -0.203 F 
ATOM     43  C   UNL A   1      37.934  32.143  37.653  1.00  0.00     0.198 A 
ATOM     44  C   UNL A   1      39.363  33.905  36.872  1.00  0.00     0.198 A 
ATOM     45  F   UNL A   1      40.648  33.604  34.925  1.00  0.00    -0.203 F 
ATOM     46  F   UNL A   1      37.024  31.689  38.526  1.00  0.00    -0.200 F 
ATOM     47  C   UNL A   1      38.443  33.426  37.792  1.00  0.00     0.200 A 
ATOM     48  F   UNL A   1      39.867  35.139  37.010  1.00  0.00    -0.200 F 
ATOM     49  F   UNL A   1      38.043  34.203  38.808  1.00  0.00    -0.200 F 
ENDBRANCH  25  39
BRANCH  26  50
ATOM     50  C   UNL A   1      42.368  26.428  27.824  1.00  0.00     0.064 A 
ATOM     51  C   UNL A   1      41.829  25.159  27.573  1.00  0.00     0.173 A 
ATOM     52  C   UNL A   1      43.347  26.908  26.941  1.00  0.00     0.173 A 
ATOM     53  F   UNL A   1      40.905  24.648  28.400  1.00  0.00    -0.203 F 
ATOM     54  C   UNL A   1      42.265  24.394  26.493  1.00  0.00     0.198 A 
ATOM     55  C   UNL A   1      43.758  26.156  25.844  1.00  0.00     0.198 A 
ATOM     56  F   UNL A   1      43.889  28.120  27.134  1.00  0.00    -0.203 F 
ATOM     57  F   UNL A   1      41.765  23.165  26.301  1.00  0.00    -0.200 F 
ATOM     58  C   UNL A   1      43.223  24.895  25.626  1.00  0.00     0.200 A 
ATOM     59  F   UNL A   1      44.671  26.652  24.998  1.00  0.00    -0.200 F 
ATOM     60  F   UNL A   1      43.636  24.162  24.583  1.00  0.00    -0.200 F 
ENDBRANCH  26  50
BRANCH  38  61
ATOM     61  C   UNL A   1      44.693  27.229  34.336  1.00  0.00     0.064 A 
ATOM     62  C   UNL A   1      45.947  27.856  34.378  1.00  0.00     0.173 A 
ATOM     63  C   UNL A   1      44.541  26.015  35.023  1.00  0.00     0.173 A 
ATOM     64  F   UNL A   1      46.147  29.010  33.722  1.00  0.00    -0.203 F 
ATOM     65  C   UNL A   1      47.015  27.273  35.054  1.00  0.00     0.198 A 
ATOM     66  C   UNL A   1      45.603  25.451  35.724  1.00  0.00     0.198 A 
ATOM     67  F   UNL A   1      43.361  25.379  35.019  1.00  0.00    -0.203 F 
ATOM     68  F   UNL A   1      48.220  27.861  35.032  1.00  0.00    -0.200 F 
ATOM     69  C   UNL A   1      46.841  26.075  35.731  1.00  0.00     0.200 A 
ATOM     70  F   UNL A   1      45.430  24.300  36.388  1.00  0.00    -0.200 F 
ATOM     71  F   UNL A   1      47.871  25.516  36.380  1.00  0.00    -0.200 F 
ENDBRANCH  38  61
ENDBRANCH  12  13
ENDBRANCH   5   7
ENDBRANCH   2   3
ENDBRANCH   1   2
BRANCH   1  72
ATOM     72  C   UNL A   1      31.439  27.314  26.173  1.00  0.00     0.118 C 
BRANCH  72  73
ATOM     73  N   UNL A   1      30.366  27.485  25.202  1.00  0.00    -0.352 N 
ATOM     74  C   UNL A   1      30.400  27.472  23.831  1.00  0.00     0.251 C 
ATOM     75  H   UNL A   1      29.474  27.632  25.592  1.00  0.00     0.163 HD
ATOM     76  O   UNL A   1      29.416  27.833  23.190  1.00  0.00    -0.269 OA
BRANCH  74  77
ATOM     77  C   UNL A   1      31.622  27.061  23.116  1.00  0.00     0.046 A 
ATOM     78  C   UNL A   1      32.579  27.993  22.729  1.00  0.00     0.034 A 
ATOM     79  C   UNL A   1      31.816  25.703  22.864  1.00  0.00     0.082 A 
ATOM     80  C   UNL A   1      33.653  27.530  22.002  1.00  0.00     0.116 A 
ATOM     81  C   UNL A   1      32.919  25.330  22.114  1.00  0.00     0.219 A 
ATOM     82  N   UNL A   1      33.826  26.233  21.673  1.00  0.00    -0.222 NA
BRANCH  81  83
ATOM     83  O   UNL A   1      33.225  24.042  21.735  1.00  0.00    -0.439 OA
BRANCH  83  84
ATOM     84  C   UNL A   1      33.635  23.133  22.676  1.00  0.00     0.130 A 
ATOM     85  C   UNL A   1      32.705  22.189  23.105  1.00  0.00     0.047 A 
ATOM     86  C   UNL A   1      34.903  23.196  23.262  1.00  0.00     0.060 A 
ATOM     87  C   UNL A   1      33.058  21.263  24.085  1.00  0.00     0.004 A 
ATOM     88  C   UNL A   1      35.281  22.245  24.222  1.00  0.00     0.059 A 
ATOM     89  C   UNL A   1      34.342  21.283  24.632  1.00  0.00     0.013 A 
BRANCH  88  90
ATOM     90  C   UNL A   1      36.671  22.240  24.807  1.00  0.00     0.416 C 
ATOM     91  F   UNL A   1      36.684  21.898  26.123  1.00  0.00    -0.166 F 
ATOM     92  F   UNL A   1      37.494  21.353  24.179  1.00  0.00    -0.166 F 
ATOM     93  F   UNL A   1      37.298  23.447  24.725  1.00  0.00    -0.166 F 
ENDBRANCH  88  90
ENDBRANCH  83  84
ENDBRANCH  81  83
ENDBRANCH  74  77
ENDBRANCH  72  73
ENDBRANCH   1  72
TORSDOF 13
ENDMDL
MODEL 3
REMARK VINA RESULT:     -12.3      4.084      9.490
REMARK SMILES O=C(NCCCNC(=O)c1ccnc(Oc2cccc(C(F)(F)F)c2)c1)c1ccc(-c2c3nc(c(-c4c(F)c(F)c(F)c(F)c4F)c4ccc([nH]4)c(-c4c(F)c(F)c(F)c(F)c4F)c4nc(c(-c5c(F)c(F)c(F)c(F)c5F)c5ccc2[nH]5)C=C4)C=C3)cc1
REMARK SMILES IDX 5 1 4 2 3 3 1 4 2 5 27 7 28 8 89 9 29 10 88 11 30 12 31 13
REMARK SMILES IDX 32 14 82 15 33 16 87 17 81 18 83 19 34 20 86 21 80 22 79 23
REMARK SMILES IDX 35 25 67 26 47 27 66 28 48 29 51 30 65 31 84 32 49 33 50 34
REMARK SMILES IDX 64 36 85 37 52 38 36 39 37 40 45 41 38 42 39 43 43 44 46 45
REMARK SMILES IDX 40 46 41 47 44 48 42 49 68 50 69 51 77 52 70 53 71 54 75 55
REMARK SMILES IDX 78 56 72 57 73 58 76 59 74 60 53 61 54 62 62 63 55 64 56 65
REMARK SMILES IDX 60 66 63 67 57 68 58 69 61 70 59 71 6 72 7 73 8 74 9 76
REMARK SMILES IDX 10 77 11 78 26 79 12 80 14 81 13 82 15 83 16 84 17 85 25 86
REMARK SMILES IDX 18 87 20 88 19 89 21 90 22 91 23 92 24 93
REMARK H PARENT 3 6 83 24 51 35 7 75
REMARK Flexibility Score: inf
ROOT
ATOM      1  C   UNL A   1      34.991  22.289  26.749  1.00  0.00     0.042 C 
ENDROOT
BRANCH   1   2
ATOM      2  C   UNL A   1      36.090  22.518  25.720  1.00  0.00     0.118 C 
BRANCH   2   3
ATOM      3  N   UNL A   1      37.097  21.463  25.714  1.00  0.00    -0.352 N 
ATOM      4  O   UNL A   1      39.130  20.503  25.743  1.00  0.00    -0.269 OA
ATOM      5  C   UNL A   1      38.446  21.497  25.975  1.00  0.00     0.251 C 
ATOM      6  H   UNL A   1      36.750  20.572  25.483  1.00  0.00     0.163 HD
BRANCH   5   7
ATOM      7  C   UNL A   1      39.092  22.720  26.501  1.00  0.00     0.039 A 
ATOM      8  C   UNL A   1      38.639  23.987  26.142  1.00  0.00     0.014 A 
ATOM      9  C   UNL A   1      40.163  22.597  27.394  1.00  0.00     0.014 A 
ATOM     10  C   UNL A   1      39.373  25.112  26.499  1.00  0.00     0.010 A 
ATOM     11  C   UNL A   1      40.831  23.740  27.848  1.00  0.00     0.010 A 
ATOM     12  C   UNL A   1      40.476  25.006  27.361  1.00  0.00    -0.014 A 
BRANCH  12  13
ATOM     13  C   UNL A   1      41.215  26.239  27.743  1.00  0.00     0.031 A 
ATOM     14  C   UNL A   1      42.612  26.496  27.246  1.00  0.00     0.074 A 
ATOM     15  C   UNL A   1      40.590  27.165  28.498  1.00  0.00     0.049 A 
ATOM     16  N   UNL A   1      43.373  27.548  27.428  1.00  0.00    -0.248 NA
ATOM     17  C   UNL A   1      43.247  25.434  26.451  1.00  0.00     0.031 C 
ATOM     18  C   UNL A   1      39.242  27.025  29.054  1.00  0.00     0.029 A 
ATOM     19  N   UNL A   1      40.987  28.414  28.903  1.00  0.00    -0.354 N 
ATOM     20  C   UNL A   1      44.577  27.264  26.795  1.00  0.00     0.074 A 
ATOM     21  C   UNL A   1      44.459  25.930  26.248  1.00  0.00     0.031 C 
ATOM     22  C   UNL A   1      38.899  28.167  29.668  1.00  0.00     0.029 A 
ATOM     23  C   UNL A   1      40.023  29.094  29.605  1.00  0.00     0.049 A 
ATOM     24  H   UNL A   1      41.877  28.787  28.709  1.00  0.00     0.167 HD
ATOM     25  C   UNL A   1      45.676  28.048  26.675  1.00  0.00     0.037 A 
ATOM     26  C   UNL A   1      40.040  30.326  30.145  1.00  0.00     0.037 A 
ATOM     27  C   UNL A   1      45.779  29.389  27.194  1.00  0.00     0.049 A 
ATOM     28  C   UNL A   1      41.272  31.172  29.996  1.00  0.00     0.074 A 
ATOM     29  C   UNL A   1      46.834  30.280  27.083  1.00  0.00     0.029 A 
ATOM     30  N   UNL A   1      44.791  30.032  27.925  1.00  0.00    -0.354 N 
ATOM     31  N   UNL A   1      42.387  30.906  29.361  1.00  0.00    -0.248 NA
ATOM     32  C   UNL A   1      41.246  32.491  30.640  1.00  0.00     0.031 C 
ATOM     33  C   UNL A   1      46.502  31.442  27.787  1.00  0.00     0.029 A 
ATOM     34  C   UNL A   1      45.220  31.299  28.291  1.00  0.00     0.049 A 
ATOM     35  H   UNL A   1      43.914  29.646  28.151  1.00  0.00     0.167 HD
ATOM     36  C   UNL A   1      43.186  32.030  29.507  1.00  0.00     0.074 A 
ATOM     37  C   UNL A   1      42.419  32.989  30.275  1.00  0.00     0.031 C 
ATOM     38  C   UNL A   1      44.443  32.246  29.049  1.00  0.00     0.037 A 
BRANCH  25  39
ATOM     39  C   UNL A   1      46.870  27.473  25.969  1.00  0.00     0.064 A 
ATOM     40  C   UNL A   1      47.046  27.602  24.582  1.00  0.00     0.173 A 
ATOM     41  C   UNL A   1      47.879  26.824  26.698  1.00  0.00     0.173 A 
ATOM     42  F   UNL A   1      46.108  28.203  23.836  1.00  0.00    -0.203 F 
ATOM     43  C   UNL A   1      48.172  27.078  23.951  1.00  0.00     0.198 A 
ATOM     44  C   UNL A   1      49.017  26.328  26.067  1.00  0.00     0.198 A 
ATOM     45  F   UNL A   1      47.767  26.680  28.027  1.00  0.00    -0.203 F 
ATOM     46  F   UNL A   1      48.296  27.172  22.620  1.00  0.00    -0.200 F 
ATOM     47  C   UNL A   1      49.160  26.449  24.694  1.00  0.00     0.200 A 
ATOM     48  F   UNL A   1      49.976  25.732  26.790  1.00  0.00    -0.200 F 
ATOM     49  F   UNL A   1      50.246  25.954  24.085  1.00  0.00    -0.200 F 
ENDBRANCH  25  39
BRANCH  26  50
ATOM     50  C   UNL A   1      38.844  30.835  30.865  1.00  0.00     0.064 A 
ATOM     51  C   UNL A   1      38.684  30.617  32.240  1.00  0.00     0.173 A 
ATOM     52  C   UNL A   1      37.843  31.555  30.196  1.00  0.00     0.173 A 
ATOM     53  F   UNL A   1      39.604  29.918  32.919  1.00  0.00    -0.203 F 
ATOM     54  C   UNL A   1      37.558  31.085  32.916  1.00  0.00     0.198 A 
ATOM     55  C   UNL A   1      36.735  32.050  30.879  1.00  0.00     0.198 A 
ATOM     56  F   UNL A   1      37.953  31.795  28.882  1.00  0.00    -0.203 F 
ATOM     57  F   UNL A   1      37.408  30.825  34.222  1.00  0.00    -0.200 F 
ATOM     58  C   UNL A   1      36.589  31.807  32.237  1.00  0.00     0.200 A 
ATOM     59  F   UNL A   1      35.809  32.762  30.222  1.00  0.00    -0.200 F 
ATOM     60  F   UNL A   1      35.510  32.263  32.888  1.00  0.00    -0.200 F 
ENDBRANCH  26  50
BRANCH  38  61
ATOM     61  C   UNL A   1      45.049  33.590  29.331  1.00  0.00     0.064 A 
ATOM     62  C   UNL A   1      45.830  33.823  30.474  1.00  0.00     0.173 A 
ATOM     63  C   UNL A   1      44.857  34.655  28.438  1.00  0.00     0.173 A 
ATOM     64  F   UNL A   1      46.028  32.841  31.366  1.00  0.00    -0.203 F 
ATOM     65  C   UNL A   1      46.368  35.081  30.727  1.00  0.00     0.198 A 
ATOM     66  C   UNL A   1      45.423  35.904  28.679  1.00  0.00     0.198 A 
ATOM     67  F   UNL A   1      44.125  34.483  27.328  1.00  0.00    -0.203 F 
ATOM     68  F   UNL A   1      47.062  35.296  31.854  1.00  0.00    -0.200 F 
ATOM     69  C   UNL A   1      46.170  36.118  29.828  1.00  0.00     0.200 A 
ATOM     70  F   UNL A   1      45.241  36.901  27.803  1.00  0.00    -0.200 F 
ATOM     71  F   UNL A   1      46.688  37.328  30.075  1.00  0.00    -0.200 F 
ENDBRANCH  38  61
ENDBRANCH  12  13
ENDBRANCH   5   7
ENDBRANCH   2   3
ENDBRANCH   1   2
BRANCH   1  72
ATOM     72  C   UNL A   1      33.758  21.586  26.197  1.00  0.00     0.118 C 
BRANCH  72  73
ATOM     73  N   UNL A   1      32.549  21.913  26.941  1.00  0.00    -0.352 N 
ATOM     74  C   UNL A   1      31.648  22.932  26.767  1.00  0.00     0.251 C 
ATOM     75  H   UNL A   1      32.346  21.305  27.690  1.00  0.00     0.163 HD
ATOM     76  O   UNL A   1      30.798  23.153  27.626  1.00  0.00    -0.269 OA
BRANCH  74  77
ATOM     77  C   UNL A   1      31.711  23.791  25.571  1.00  0.00     0.046 A 
ATOM     78  C   UNL A   1      31.029  23.457  24.406  1.00  0.00     0.034 A 
ATOM     79  C   UNL A   1      32.448  24.973  25.643  1.00  0.00     0.082 A 
ATOM     80  C   UNL A   1      31.203  24.279  23.315  1.00  0.00     0.116 A 
ATOM     81  C   UNL A   1      32.580  25.731  24.492  1.00  0.00     0.219 A 
ATOM     82  N   UNL A   1      31.975  25.385  23.331  1.00  0.00    -0.222 NA
BRANCH  81  83
ATOM     83  O   UNL A   1      33.314  26.892  24.383  1.00  0.00    -0.439 OA
BRANCH  83  84
ATOM     84  C   UNL A   1      33.210  27.858  25.350  1.00  0.00     0.130 A 
ATOM     85  C   UNL A   1      31.938  28.355  25.627  1.00  0.00     0.047 A 
ATOM     86  C   UNL A   1      34.335  28.403  25.975  1.00  0.00     0.060 A 
ATOM     87  C   UNL A   1      31.779  29.364  26.576  1.00  0.00     0.004 A 
ATOM     88  C   UNL A   1      34.183  29.392  26.959  1.00  0.00     0.059 A 
ATOM     89  C   UNL A   1      32.893  29.870  27.247  1.00  0.00     0.013 A 
BRANCH  88  90
ATOM     90  C   UNL A   1      35.374  29.934  27.708  1.00  0.00     0.416 C 
ATOM     91  F   UNL A   1      36.547  29.720  27.053  1.00  0.00    -0.166 F 
ATOM     92  F   UNL A   1      35.293  31.281  27.904  1.00  0.00    -0.166 F 
ATOM     93  F   UNL A   1      35.530  29.390  28.947  1.00  0.00    -0.166 F 
ENDBRANCH  88  90
ENDBRANCH  83  84
ENDBRANCH  81  83
ENDBRANCH  74  77
ENDBRANCH  72  73
ENDBRANCH   1  72
TORSDOF 13
ENDMDL
