MODEL 1
REMARK VINA RESULT:     -13.4      0.000      0.000
REMARK SMILES Cc1nsc(N(C)C(=O)Nc2cccc(Cl)c2)c1C(=O)NCCCNC(=O)c1ccc(-c2c3nc(c(-c4c(F)c(F)c(F)c(F)c4F)c4ccc([nH]4)c(-c4c(F)c(F)c(F)c(F)c4F)c4nc(c(-c5c(F)c(F)c(F)c(F)c5F)c5ccc2[nH]5)C=C4)C=C3)cc1
REMARK SMILES IDX 22 1 21 2 19 3 20 4 18 6 1 7 2 8 3 9 4 10 5 11 6 12 7 13
REMARK SMILES IDX 8 14 9 15 10 16 11 18 12 19 17 20 13 21 15 22 14 23 16 24
REMARK SMILES IDX 23 25 24 26 25 27 26 28 27 30 28 31 29 32 90 33 30 34 89 35
REMARK SMILES IDX 31 36 32 37 33 38 83 39 34 40 88 41 82 42 84 43 35 44 87 45
REMARK SMILES IDX 81 46 80 47 36 49 68 50 48 51 67 52 49 53 52 54 66 55 85 56
REMARK SMILES IDX 50 57 51 58 65 60 86 61 53 62 37 63 38 64 46 65 39 66 40 67
REMARK SMILES IDX 44 68 47 69 41 70 42 71 45 72 43 73 69 74 70 75 78 76 71 77
REMARK SMILES IDX 72 78 76 79 79 80 73 81 74 82 77 83 75 84 54 85 55 86 63 87
REMARK SMILES IDX 56 88 57 89 61 90 64 91 58 92 59 93 62 94 60 95
REMARK H PARENT 21 5 10 17 25 29 84 48 52 59
REMARK Flexibility Score: inf
ROOT
ATOM      1  C   UNL A   1      32.301  29.330  25.711  1.00  0.00     0.118 C 
ENDROOT
BRANCH   1   2
ATOM      2  N   UNL A   1      32.417  27.918  26.034  1.00  0.00    -0.352 N 
ATOM      3  C   UNL A   1      33.377  27.081  25.503  1.00  0.00     0.256 C 
ATOM      4  O   UNL A   1      34.304  26.744  26.242  1.00  0.00    -0.269 OA
ATOM      5  H   UNL A   1      31.771  27.537  26.670  1.00  0.00     0.163 HD
BRANCH   3   6
ATOM      6  C   UNL A   1      33.256  26.550  24.140  1.00  0.00     0.097 A 
ATOM      7  C   UNL A   1      33.860  28.579  22.479  1.00  0.00     0.069 C 
ATOM      8  C   UNL A   1      33.577  27.171  22.849  1.00  0.00     0.066 A 
ATOM      9  N   UNL A   1      33.654  26.347  21.807  1.00  0.00    -0.195 NA
ATOM     10  S   UNL A   1      33.300  24.837  22.286  1.00  0.00    -0.017 S 
ATOM     11  C   UNL A   1      32.781  25.248  23.879  1.00  0.00     0.133 A 
BRANCH  11  12
ATOM     12  N   UNL A   1      32.049  24.239  24.578  1.00  0.00    -0.286 N 
ATOM     13  C   UNL A   1      30.799  23.714  23.993  1.00  0.00     0.156 C 
BRANCH  12  14
ATOM     14  C   UNL A   1      32.321  24.025  25.928  1.00  0.00     0.326 C 
ATOM     15  O   UNL A   1      31.484  24.187  26.825  1.00  0.00    -0.248 OA
ATOM     16  N   UNL A   1      33.495  23.435  26.328  1.00  0.00    -0.307 N 
ATOM     17  H   UNL A   1      33.495  23.175  27.278  1.00  0.00     0.171 HD
BRANCH  16  18
ATOM     18  C   UNL A   1      34.697  23.124  25.671  1.00  0.00     0.044 A 
ATOM     19  C   UNL A   1      34.819  22.107  24.722  1.00  0.00     0.026 A 
ATOM     20  C   UNL A   1      35.840  23.804  26.104  1.00  0.00     0.046 A 
ATOM     21  C   UNL A   1      36.087  21.666  24.329  1.00  0.00     0.004 A 
ATOM     22  C   UNL A   1      37.101  23.347  25.725  1.00  0.00     0.043 A 
ATOM     23  C   UNL A   1      37.232  22.264  24.861  1.00  0.00     0.020 A 
ATOM     24  Cl  UNL A   1      38.506  24.075  26.402  1.00  0.00    -0.084 Cl
ENDBRANCH  16  18
ENDBRANCH  12  14
ENDBRANCH  11  12
ENDBRANCH   3   6
ENDBRANCH   1   2
BRANCH   1  25
ATOM     25  C   UNL A   1      32.411  30.223  26.951  1.00  0.00     0.042 C 
BRANCH  25  26
ATOM     26  C   UNL A   1      33.831  30.654  27.248  1.00  0.00     0.118 C 
BRANCH  26  27
ATOM     27  N   UNL A   1      33.889  31.703  28.267  1.00  0.00    -0.352 N 
ATOM     28  C   UNL A   1      34.846  31.898  29.247  1.00  0.00     0.251 C 
ATOM     29  H   UNL A   1      33.152  32.355  28.253  1.00  0.00     0.163 HD
ATOM     30  O   UNL A   1      34.620  32.579  30.227  1.00  0.00    -0.269 OA
BRANCH  28  31
ATOM     31  C   UNL A   1      36.151  31.239  29.074  1.00  0.00     0.039 A 
ATOM     32  C   UNL A   1      37.339  31.969  29.120  1.00  0.00     0.014 A 
ATOM     33  C   UNL A   1      36.163  29.854  28.950  1.00  0.00     0.014 A 
ATOM     34  C   UNL A   1      38.544  31.275  29.138  1.00  0.00     0.010 A 
ATOM     35  C   UNL A   1      37.330  29.173  29.166  1.00  0.00     0.010 A 
ATOM     36  C   UNL A   1      38.529  29.870  29.195  1.00  0.00    -0.014 A 
BRANCH  36  37
ATOM     37  C   UNL A   1      39.763  29.121  29.397  1.00  0.00     0.031 A 
ATOM     38  C   UNL A   1      40.127  28.894  30.823  1.00  0.00     0.074 A 
ATOM     39  C   UNL A   1      40.418  28.502  28.390  1.00  0.00     0.049 A 
ATOM     40  N   UNL A   1      41.151  29.360  31.455  1.00  0.00    -0.248 NA
ATOM     41  C   UNL A   1      39.175  28.174  31.685  1.00  0.00     0.031 C 
ATOM     42  C   UNL A   1      40.028  28.355  26.984  1.00  0.00     0.029 A 
ATOM     43  N   UNL A   1      41.561  27.770  28.451  1.00  0.00    -0.354 N 
ATOM     44  C   UNL A   1      41.080  28.844  32.746  1.00  0.00     0.074 A 
ATOM     45  C   UNL A   1      39.768  28.267  32.877  1.00  0.00     0.031 C 
ATOM     46  C   UNL A   1      40.774  27.390  26.401  1.00  0.00     0.029 A 
ATOM     47  C   UNL A   1      41.807  26.983  27.332  1.00  0.00     0.049 A 
ATOM     48  H   UNL A   1      42.167  27.794  29.227  1.00  0.00     0.167 HD
ATOM     49  C   UNL A   1      42.199  28.731  33.516  1.00  0.00     0.037 A 
ATOM     50  C   UNL A   1      42.777  26.043  27.209  1.00  0.00     0.037 A 
ATOM     51  C   UNL A   1      43.261  29.566  33.010  1.00  0.00     0.049 A 
ATOM     52  C   UNL A   1      43.795  26.332  28.255  1.00  0.00     0.074 A 
ATOM     53  C   UNL A   1      43.384  30.922  32.760  1.00  0.00     0.029 A 
ATOM     54  N   UNL A   1      44.274  28.973  32.294  1.00  0.00    -0.354 N 
ATOM     55  N   UNL A   1      44.568  27.382  28.240  1.00  0.00    -0.248 NA
ATOM     56  C   UNL A   1      43.610  25.707  29.557  1.00  0.00     0.031 C 
ATOM     57  C   UNL A   1      44.090  31.002  31.522  1.00  0.00     0.029 A 
ATOM     58  C   UNL A   1      44.430  29.704  31.143  1.00  0.00     0.049 A 
ATOM     59  H   UNL A   1      44.789  28.177  32.558  1.00  0.00     0.167 HD
ATOM     60  C   UNL A   1      44.610  27.805  29.559  1.00  0.00     0.074 A 
ATOM     61  C   UNL A   1      44.062  26.694  30.336  1.00  0.00     0.031 C 
ATOM     62  C   UNL A   1      44.801  29.120  29.877  1.00  0.00     0.037 A 
BRANCH  49  63
ATOM     63  C   UNL A   1      42.457  27.600  34.483  1.00  0.00     0.064 A 
ATOM     64  C   UNL A   1      43.023  26.402  34.000  1.00  0.00     0.173 A 
ATOM     65  C   UNL A   1      41.897  27.526  35.776  1.00  0.00     0.173 A 
ATOM     66  F   UNL A   1      43.572  26.349  32.777  1.00  0.00    -0.203 F 
ATOM     67  C   UNL A   1      42.947  25.206  34.720  1.00  0.00     0.198 A 
ATOM     68  C   UNL A   1      41.871  26.343  36.513  1.00  0.00     0.198 A 
ATOM     69  F   UNL A   1      41.249  28.554  36.336  1.00  0.00    -0.203 F 
ATOM     70  F   UNL A   1      43.376  24.066  34.160  1.00  0.00    -0.200 F 
ATOM     71  C   UNL A   1      42.364  25.176  35.972  1.00  0.00     0.200 A 
ATOM     72  F   UNL A   1      41.286  26.332  37.719  1.00  0.00    -0.200 F 
ATOM     73  F   UNL A   1      42.228  24.020  36.634  1.00  0.00    -0.200 F 
ENDBRANCH  49  63
BRANCH  50  74
ATOM     74  C   UNL A   1      42.740  24.756  26.475  1.00  0.00     0.064 A 
ATOM     75  C   UNL A   1      43.590  24.534  25.376  1.00  0.00     0.173 A 
ATOM     76  C   UNL A   1      42.096  23.620  27.003  1.00  0.00     0.173 A 
ATOM     77  F   UNL A   1      44.268  25.555  24.832  1.00  0.00    -0.203 F 
ATOM     78  C   UNL A   1      43.818  23.250  24.870  1.00  0.00     0.198 A 
ATOM     79  C   UNL A   1      42.318  22.340  26.491  1.00  0.00     0.198 A 
ATOM     80  F   UNL A   1      41.315  23.712  28.088  1.00  0.00    -0.203 F 
ATOM     81  F   UNL A   1      44.694  23.072  23.872  1.00  0.00    -0.200 F 
ATOM     82  C   UNL A   1      43.194  22.153  25.438  1.00  0.00     0.200 A 
ATOM     83  F   UNL A   1      41.733  21.282  27.070  1.00  0.00    -0.200 F 
ATOM     84  F   UNL A   1      43.467  20.916  25.001  1.00  0.00    -0.200 F 
ENDBRANCH  50  74
BRANCH  62  85
ATOM     85  C   UNL A   1      45.201  30.068  28.780  1.00  0.00     0.064 A 
ATOM     86  C   UNL A   1      44.295  30.706  27.913  1.00  0.00     0.173 A 
ATOM     87  C   UNL A   1      46.544  30.459  28.702  1.00  0.00     0.173 A 
ATOM     88  F   UNL A   1      42.979  30.471  27.991  1.00  0.00    -0.203 F 
ATOM     89  C   UNL A   1      44.724  31.654  26.983  1.00  0.00     0.198 A 
ATOM     90  C   UNL A   1      46.965  31.433  27.800  1.00  0.00     0.198 A 
ATOM     91  F   UNL A   1      47.447  29.928  29.539  1.00  0.00    -0.203 F 
ATOM     92  F   UNL A   1      43.840  32.236  26.159  1.00  0.00    -0.200 F 
ATOM     93  C   UNL A   1      46.057  32.021  26.933  1.00  0.00     0.200 A 
ATOM     94  F   UNL A   1      48.247  31.821  27.791  1.00  0.00    -0.200 F 
ATOM     95  F   UNL A   1      46.466  32.960  26.069  1.00  0.00    -0.200 F 
ENDBRANCH  62  85
ENDBRANCH  36  37
ENDBRANCH  28  31
ENDBRANCH  26  27
ENDBRANCH  25  26
ENDBRANCH   1  25
TORSDOF 13
ENDMDL
MODEL 2
REMARK VINA RESULT:     -13.3      1.555      2.097
REMARK SMILES Cc1nsc(N(C)C(=O)Nc2cccc(Cl)c2)c1C(=O)NCCCNC(=O)c1ccc(-c2c3nc(c(-c4c(F)c(F)c(F)c(F)c4F)c4ccc([nH]4)c(-c4c(F)c(F)c(F)c(F)c4F)c4nc(c(-c5c(F)c(F)c(F)c(F)c5F)c5ccc2[nH]5)C=C4)C=C3)cc1
REMARK SMILES IDX 22 1 21 2 19 3 20 4 18 6 1 7 2 8 3 9 4 10 5 11 6 12 7 13
REMARK SMILES IDX 8 14 9 15 10 16 11 18 12 19 17 20 13 21 15 22 14 23 16 24
REMARK SMILES IDX 23 25 24 26 25 27 26 28 27 30 28 31 29 32 90 33 30 34 89 35
REMARK SMILES IDX 31 36 32 37 33 38 83 39 34 40 88 41 82 42 84 43 35 44 87 45
REMARK SMILES IDX 81 46 80 47 36 49 68 50 48 51 67 52 49 53 52 54 66 55 85 56
REMARK SMILES IDX 50 57 51 58 65 60 86 61 53 62 37 63 38 64 46 65 39 66 40 67
REMARK SMILES IDX 44 68 47 69 41 70 42 71 45 72 43 73 69 74 70 75 78 76 71 77
REMARK SMILES IDX 72 78 76 79 79 80 73 81 74 82 77 83 75 84 54 85 55 86 63 87
REMARK SMILES IDX 56 88 57 89 61 90 64 91 58 92 59 93 62 94 60 95
REMARK H PARENT 21 5 10 17 25 29 84 48 52 59
REMARK Flexibility Score: inf
ROOT
ATOM      1  C   UNL A   1      32.407  27.667  27.022  1.00  0.00     0.118 C 
ENDROOT
BRANCH   1   2
ATOM      2  N   UNL A   1      31.093  27.120  26.733  1.00  0.00    -0.352 N 
ATOM      3  C   UNL A   1      30.793  26.391  25.600  1.00  0.00     0.256 C 
ATOM      4  O   UNL A   1      30.645  25.175  25.734  1.00  0.00    -0.269 OA
ATOM      5  H   UNL A   1      30.375  27.279  27.385  1.00  0.00     0.163 HD
BRANCH   3   6
ATOM      6  C   UNL A   1      30.578  27.048  24.306  1.00  0.00     0.097 A 
ATOM      7  C   UNL A   1      27.924  27.007  23.863  1.00  0.00     0.069 C 
ATOM      8  C   UNL A   1      29.332  27.410  23.621  1.00  0.00     0.066 A 
ATOM      9  N   UNL A   1      29.446  28.267  22.609  1.00  0.00    -0.195 NA
ATOM     10  S   UNL A   1      31.013  28.632  22.388  1.00  0.00    -0.017 S 
ATOM     11  C   UNL A   1      31.649  27.464  23.487  1.00  0.00     0.133 A 
BRANCH  11  12
ATOM     12  N   UNL A   1      33.047  27.195  23.372  1.00  0.00    -0.286 N 
ATOM     13  C   UNL A   1      34.019  28.178  23.891  1.00  0.00     0.156 C 
BRANCH  12  14
ATOM     14  C   UNL A   1      33.472  26.211  22.481  1.00  0.00     0.326 C 
ATOM     15  O   UNL A   1      33.763  26.440  21.301  1.00  0.00    -0.248 OA
ATOM     16  N   UNL A   1      33.773  24.943  22.919  1.00  0.00    -0.307 N 
ATOM     17  H   UNL A   1      34.229  24.397  22.238  1.00  0.00     0.171 HD
BRANCH  16  18
ATOM     18  C   UNL A   1      33.569  24.262  24.130  1.00  0.00     0.044 A 
ATOM     19  C   UNL A   1      34.138  24.654  25.343  1.00  0.00     0.026 A 
ATOM     20  C   UNL A   1      32.856  23.061  24.058  1.00  0.00     0.046 A 
ATOM     21  C   UNL A   1      34.131  23.777  26.434  1.00  0.00     0.004 A 
ATOM     22  C   UNL A   1      32.870  22.183  25.141  1.00  0.00     0.043 A 
ATOM     23  C   UNL A   1      33.527  22.524  26.320  1.00  0.00     0.020 A 
ATOM     24  Cl  UNL A   1      32.141  20.631  24.985  1.00  0.00    -0.084 Cl
ENDBRANCH  16  18
ENDBRANCH  12  14
ENDBRANCH  11  12
ENDBRANCH   3   6
ENDBRANCH   1   2
BRANCH   1  25
ATOM     25  C   UNL A   1      32.421  29.199  26.993  1.00  0.00     0.042 C 
BRANCH  25  26
ATOM     26  C   UNL A   1      33.805  29.783  27.181  1.00  0.00     0.118 C 
BRANCH  26  27
ATOM     27  N   UNL A   1      33.776  31.045  27.923  1.00  0.00    -0.352 N 
ATOM     28  C   UNL A   1      34.736  31.564  28.774  1.00  0.00     0.251 C 
ATOM     29  H   UNL A   1      32.970  31.595  27.801  1.00  0.00     0.163 HD
ATOM     30  O   UNL A   1      34.465  32.432  29.580  1.00  0.00    -0.269 OA
BRANCH  28  31
ATOM     31  C   UNL A   1      36.101  31.019  28.685  1.00  0.00     0.039 A 
ATOM     32  C   UNL A   1      37.212  31.805  28.995  1.00  0.00     0.014 A 
ATOM     33  C   UNL A   1      36.239  29.673  28.364  1.00  0.00     0.014 A 
ATOM     34  C   UNL A   1      38.457  31.190  29.074  1.00  0.00     0.010 A 
ATOM     35  C   UNL A   1      37.421  29.039  28.635  1.00  0.00     0.010 A 
ATOM     36  C   UNL A   1      38.548  29.795  28.925  1.00  0.00    -0.014 A 
BRANCH  36  37
ATOM     37  C   UNL A   1      39.803  29.100  29.180  1.00  0.00     0.031 A 
ATOM     38  C   UNL A   1      40.122  28.900  30.621  1.00  0.00     0.074 A 
ATOM     39  C   UNL A   1      40.521  28.502  28.205  1.00  0.00     0.049 A 
ATOM     40  N   UNL A   1      41.100  29.414  31.287  1.00  0.00    -0.248 NA
ATOM     41  C   UNL A   1      39.168  28.147  31.453  1.00  0.00     0.031 C 
ATOM     42  C   UNL A   1      40.192  28.328  26.786  1.00  0.00     0.029 A 
ATOM     43  N   UNL A   1      41.690  27.818  28.316  1.00  0.00    -0.354 N 
ATOM     44  C   UNL A   1      41.002  28.905  32.579  1.00  0.00     0.074 A 
ATOM     45  C   UNL A   1      39.711  28.274  32.665  1.00  0.00     0.031 C 
ATOM     46  C   UNL A   1      40.998  27.390  26.241  1.00  0.00     0.029 A 
ATOM     47  C   UNL A   1      42.012  27.034  27.214  1.00  0.00     0.049 A 
ATOM     48  H   UNL A   1      42.265  27.874  29.114  1.00  0.00     0.167 HD
ATOM     49  C   UNL A   1      42.095  28.845  33.392  1.00  0.00     0.037 A 
ATOM     50  C   UNL A   1      43.024  26.135  27.137  1.00  0.00     0.037 A 
ATOM     51  C   UNL A   1      43.139  29.720  32.918  1.00  0.00     0.049 A 
ATOM     52  C   UNL A   1      43.988  26.474  28.218  1.00  0.00     0.074 A 
ATOM     53  C   UNL A   1      43.215  31.077  32.661  1.00  0.00     0.029 A 
ATOM     54  N   UNL A   1      44.203  29.164  32.247  1.00  0.00    -0.354 N 
ATOM     55  N   UNL A   1      44.717  27.556  28.221  1.00  0.00    -0.248 NA
ATOM     56  C   UNL A   1      43.780  25.852  29.517  1.00  0.00     0.031 C 
ATOM     57  C   UNL A   1      43.964  31.178  31.450  1.00  0.00     0.029 A 
ATOM     58  C   UNL A   1      44.372  29.892  31.096  1.00  0.00     0.049 A 
ATOM     59  H   UNL A   1      44.740  28.392  32.537  1.00  0.00     0.167 HD
ATOM     60  C   UNL A   1      44.691  27.991  29.538  1.00  0.00     0.074 A 
ATOM     61  C   UNL A   1      44.161  26.863  30.303  1.00  0.00     0.031 C 
ATOM     62  C   UNL A   1      44.815  29.314  29.850  1.00  0.00     0.037 A 
BRANCH  49  63
ATOM     63  C   UNL A   1      42.362  27.734  34.378  1.00  0.00     0.064 A 
ATOM     64  C   UNL A   1      42.961  26.541  33.921  1.00  0.00     0.173 A 
ATOM     65  C   UNL A   1      41.785  27.665  35.664  1.00  0.00     0.173 A 
ATOM     66  F   UNL A   1      43.529  26.483  32.706  1.00  0.00    -0.203 F 
ATOM     67  C   UNL A   1      42.900  25.353  34.656  1.00  0.00     0.198 A 
ATOM     68  C   UNL A   1      41.774  26.492  36.417  1.00  0.00     0.198 A 
ATOM     69  F   UNL A   1      41.107  28.686  36.200  1.00  0.00    -0.203 F 
ATOM     70  F   UNL A   1      43.361  24.216  34.119  1.00  0.00    -0.200 F 
ATOM     71  C   UNL A   1      42.299  25.329  35.900  1.00  0.00     0.200 A 
ATOM     72  F   UNL A   1      41.171  26.485  37.615  1.00  0.00    -0.200 F 
ATOM     73  F   UNL A   1      42.179  24.179  36.577  1.00  0.00    -0.200 F 
ENDBRANCH  49  63
BRANCH  50  74
ATOM     74  C   UNL A   1      43.069  24.841  26.413  1.00  0.00     0.064 A 
ATOM     75  C   UNL A   1      43.908  24.674  25.298  1.00  0.00     0.173 A 
ATOM     76  C   UNL A   1      42.525  23.665  26.965  1.00  0.00     0.173 A 
ATOM     77  F   UNL A   1      44.494  25.738  24.729  1.00  0.00    -0.203 F 
ATOM     78  C   UNL A   1      44.222  23.406  24.797  1.00  0.00     0.198 A 
ATOM     79  C   UNL A   1      42.832  22.401  26.458  1.00  0.00     0.198 A 
ATOM     80  F   UNL A   1      41.763  23.707  28.067  1.00  0.00    -0.203 F 
ATOM     81  F   UNL A   1      45.086  23.286  23.779  1.00  0.00    -0.200 F 
ATOM     82  C   UNL A   1      43.696  22.271  25.387  1.00  0.00     0.200 A 
ATOM     83  F   UNL A   1      42.342  21.307  27.059  1.00  0.00    -0.200 F 
ATOM     84  F   UNL A   1      44.053  21.054  24.953  1.00  0.00    -0.200 F 
ENDBRANCH  50  74
BRANCH  62  85
ATOM     85  C   UNL A   1      45.216  30.270  28.760  1.00  0.00     0.064 A 
ATOM     86  C   UNL A   1      44.313  30.895  27.881  1.00  0.00     0.173 A 
ATOM     87  C   UNL A   1      46.554  30.682  28.702  1.00  0.00     0.173 A 
ATOM     88  F   UNL A   1      43.001  30.640  27.939  1.00  0.00    -0.203 F 
ATOM     89  C   UNL A   1      44.742  31.851  26.958  1.00  0.00     0.198 A 
ATOM     90  C   UNL A   1      46.973  31.663  27.808  1.00  0.00     0.198 A 
ATOM     91  F   UNL A   1      47.453  30.163  29.553  1.00  0.00    -0.203 F 
ATOM     92  F   UNL A   1      43.862  32.420  26.121  1.00  0.00    -0.200 F 
ATOM     93  C   UNL A   1      46.070  32.238  26.928  1.00  0.00     0.200 A 
ATOM     94  F   UNL A   1      48.250  32.071  27.818  1.00  0.00    -0.200 F 
ATOM     95  F   UNL A   1      46.477  33.185  26.071  1.00  0.00    -0.200 F 
ENDBRANCH  62  85
ENDBRANCH  36  37
ENDBRANCH  28  31
ENDBRANCH  26  27
ENDBRANCH  25  26
ENDBRANCH   1  25
TORSDOF 13
ENDMDL
MODEL 3
REMARK VINA RESULT:     -13.2      3.518      8.863
REMARK SMILES Cc1nsc(N(C)C(=O)Nc2cccc(Cl)c2)c1C(=O)NCCCNC(=O)c1ccc(-c2c3nc(c(-c4c(F)c(F)c(F)c(F)c4F)c4ccc([nH]4)c(-c4c(F)c(F)c(F)c(F)c4F)c4nc(c(-c5c(F)c(F)c(F)c(F)c5F)c5ccc2[nH]5)C=C4)C=C3)cc1
REMARK SMILES IDX 22 1 21 2 19 3 20 4 18 6 1 7 2 8 3 9 4 10 5 11 6 12 7 13
REMARK SMILES IDX 8 14 9 15 10 16 11 18 12 19 17 20 13 21 15 22 14 23 16 24
REMARK SMILES IDX 23 25 24 26 25 27 26 28 27 30 28 31 29 32 90 33 30 34 89 35
REMARK SMILES IDX 31 36 32 37 33 38 83 39 34 40 88 41 82 42 84 43 35 44 87 45
REMARK SMILES IDX 81 46 80 47 36 49 68 50 48 51 67 52 49 53 52 54 66 55 85 56
REMARK SMILES IDX 50 57 51 58 65 60 86 61 53 62 37 63 38 64 46 65 39 66 40 67
REMARK SMILES IDX 44 68 47 69 41 70 42 71 45 72 43 73 69 74 70 75 78 76 71 77
REMARK SMILES IDX 72 78 76 79 79 80 73 81 74 82 77 83 75 84 54 85 55 86 63 87
REMARK SMILES IDX 56 88 57 89 61 90 64 91 58 92 59 93 62 94 60 95
REMARK H PARENT 21 5 10 17 25 29 84 48 52 59
REMARK Flexibility Score: inf
ROOT
ATOM      1  C   UNL A   1      35.983  24.059  25.484  1.00  0.00     0.118 C 
ENDROOT
BRANCH   1   2
ATOM      2  N   UNL A   1      34.818  23.279  25.105  1.00  0.00    -0.352 N 
ATOM      3  C   UNL A   1      33.768  23.771  24.356  1.00  0.00     0.256 C 
ATOM      4  O   UNL A   1      33.691  23.405  23.183  1.00  0.00    -0.269 OA
ATOM      5  H   UNL A   1      34.775  22.342  25.401  1.00  0.00     0.163 HD
BRANCH   3   6
ATOM      6  C   UNL A   1      32.743  24.633  24.956  1.00  0.00     0.097 A 
ATOM      7  C   UNL A   1      31.024  22.996  26.224  1.00  0.00     0.069 C 
ATOM      8  C   UNL A   1      31.630  24.298  25.853  1.00  0.00     0.066 A 
ATOM      9  N   UNL A   1      31.053  25.323  26.478  1.00  0.00    -0.195 NA
ATOM     10  S   UNL A   1      31.749  26.708  25.996  1.00  0.00    -0.017 S 
ATOM     11  C   UNL A   1      32.704  26.025  24.732  1.00  0.00     0.133 A 
BRANCH  11  12
ATOM     12  N   UNL A   1      33.252  26.951  23.793  1.00  0.00    -0.286 N 
ATOM     13  C   UNL A   1      33.798  28.235  24.276  1.00  0.00     0.156 C 
BRANCH  12  14
ATOM     14  C   UNL A   1      32.951  26.795  22.441  1.00  0.00     0.326 C 
ATOM     15  O   UNL A   1      33.707  26.237  21.635  1.00  0.00    -0.248 OA
ATOM     16  N   UNL A   1      31.700  27.091  21.955  1.00  0.00    -0.307 N 
ATOM     17  H   UNL A   1      31.557  26.774  21.035  1.00  0.00     0.171 HD
BRANCH  16  18
ATOM     18  C   UNL A   1      30.584  27.752  22.494  1.00  0.00     0.044 A 
ATOM     19  C   UNL A   1      29.549  27.099  23.166  1.00  0.00     0.026 A 
ATOM     20  C   UNL A   1      30.472  29.118  22.214  1.00  0.00     0.046 A 
ATOM     21  C   UNL A   1      28.346  27.769  23.415  1.00  0.00     0.004 A 
ATOM     22  C   UNL A   1      29.264  29.774  22.445  1.00  0.00     0.043 A 
ATOM     23  C   UNL A   1      28.190  29.099  23.020  1.00  0.00     0.020 A 
ATOM     24  Cl  UNL A   1      29.073  31.407  21.935  1.00  0.00    -0.084 Cl
ENDBRANCH  16  18
ENDBRANCH  12  14
ENDBRANCH  11  12
ENDBRANCH   3   6
ENDBRANCH   1   2
BRANCH   1  25
ATOM     25  C   UNL A   1      37.289  23.277  25.313  1.00  0.00     0.042 C 
BRANCH  25  26
ATOM     26  C   UNL A   1      38.248  23.466  26.469  1.00  0.00     0.118 C 
BRANCH  26  27
ATOM     27  N   UNL A   1      39.470  22.675  26.309  1.00  0.00    -0.352 N 
ATOM     28  C   UNL A   1      40.777  23.120  26.231  1.00  0.00     0.251 C 
ATOM     29  H   UNL A   1      39.345  21.701  26.250  1.00  0.00     0.163 HD
ATOM     30  O   UNL A   1      41.657  22.422  25.767  1.00  0.00    -0.269 OA
BRANCH  28  31
ATOM     31  C   UNL A   1      41.072  24.479  26.715  1.00  0.00     0.039 A 
ATOM     32  C   UNL A   1      40.779  25.600  25.938  1.00  0.00     0.014 A 
ATOM     33  C   UNL A   1      41.573  24.609  28.005  1.00  0.00     0.014 A 
ATOM     34  C   UNL A   1      40.905  26.859  26.516  1.00  0.00     0.010 A 
ATOM     35  C   UNL A   1      41.506  25.825  28.629  1.00  0.00     0.010 A 
ATOM     36  C   UNL A   1      41.238  26.961  27.878  1.00  0.00    -0.014 A 
BRANCH  36  37
ATOM     37  C   UNL A   1      41.201  28.250  28.558  1.00  0.00     0.031 A 
ATOM     38  C   UNL A   1      42.303  29.180  28.187  1.00  0.00     0.074 A 
ATOM     39  C   UNL A   1      40.151  28.656  29.304  1.00  0.00     0.049 A 
ATOM     40  N   UNL A   1      43.253  29.615  28.946  1.00  0.00    -0.248 NA
ATOM     41  C   UNL A   1      42.446  29.572  26.775  1.00  0.00     0.031 C 
ATOM     42  C   UNL A   1      38.854  28.002  29.512  1.00  0.00     0.029 A 
ATOM     43  N   UNL A   1      39.994  29.828  29.973  1.00  0.00    -0.354 N 
ATOM     44  C   UNL A   1      44.010  30.483  28.165  1.00  0.00     0.074 A 
ATOM     45  C   UNL A   1      43.573  30.287  26.807  1.00  0.00     0.031 C 
ATOM     46  C   UNL A   1      37.975  28.885  30.034  1.00  0.00     0.029 A 
ATOM     47  C   UNL A   1      38.688  30.103  30.364  1.00  0.00     0.049 A 
ATOM     48  H   UNL A   1      40.745  30.435  30.165  1.00  0.00     0.167 HD
ATOM     49  C   UNL A   1      44.768  31.459  28.739  1.00  0.00     0.037 A 
ATOM     50  C   UNL A   1      38.237  31.268  30.892  1.00  0.00     0.037 A 
ATOM     51  C   UNL A   1      44.998  31.180  30.136  1.00  0.00     0.049 A 
ATOM     52  C   UNL A   1      39.425  31.998  31.409  1.00  0.00     0.074 A 
ATOM     53  C   UNL A   1      45.562  30.122  30.826  1.00  0.00     0.029 A 
ATOM     54  N   UNL A   1      44.260  31.869  31.070  1.00  0.00    -0.354 N 
ATOM     55  N   UNL A   1      40.124  31.603  32.437  1.00  0.00    -0.248 NA
ATOM     56  C   UNL A   1      40.111  32.893  30.489  1.00  0.00     0.031 C 
ATOM     57  C   UNL A   1      44.717  29.935  31.961  1.00  0.00     0.029 A 
ATOM     58  C   UNL A   1      43.750  30.940  31.940  1.00  0.00     0.049 A 
ATOM     59  H   UNL A   1      44.125  32.844  31.106  1.00  0.00     0.167 HD
ATOM     60  C   UNL A   1      41.442  31.833  32.073  1.00  0.00     0.074 A 
ATOM     61  C   UNL A   1      41.369  32.695  30.895  1.00  0.00     0.031 C 
ATOM     62  C   UNL A   1      42.458  31.067  32.570  1.00  0.00     0.037 A 
BRANCH  49  63
ATOM     63  C   UNL A   1      44.979  32.832  28.148  1.00  0.00     0.064 A 
ATOM     64  C   UNL A   1      46.293  33.261  27.863  1.00  0.00     0.173 A 
ATOM     65  C   UNL A   1      43.998  33.847  28.141  1.00  0.00     0.173 A 
ATOM     66  F   UNL A   1      47.311  32.387  27.857  1.00  0.00    -0.203 F 
ATOM     67  C   UNL A   1      46.607  34.611  27.680  1.00  0.00     0.198 A 
ATOM     68  C   UNL A   1      44.308  35.185  27.904  1.00  0.00     0.198 A 
ATOM     69  F   UNL A   1      42.724  33.612  28.475  1.00  0.00    -0.203 F 
ATOM     70  F   UNL A   1      47.887  34.982  27.549  1.00  0.00    -0.200 F 
ATOM     71  C   UNL A   1      45.615  35.572  27.708  1.00  0.00     0.200 A 
ATOM     72  F   UNL A   1      43.332  36.104  27.952  1.00  0.00    -0.200 F 
ATOM     73  F   UNL A   1      45.921  36.872  27.601  1.00  0.00    -0.200 F 
ENDBRANCH  49  63
BRANCH  50  74
ATOM     74  C   UNL A   1      36.921  31.926  30.707  1.00  0.00     0.064 A 
ATOM     75  C   UNL A   1      35.994  31.981  31.763  1.00  0.00     0.173 A 
ATOM     76  C   UNL A   1      36.660  32.765  29.606  1.00  0.00     0.173 A 
ATOM     77  F   UNL A   1      36.183  31.240  32.865  1.00  0.00    -0.203 F 
ATOM     78  C   UNL A   1      34.903  32.856  31.739  1.00  0.00     0.198 A 
ATOM     79  C   UNL A   1      35.565  33.631  29.580  1.00  0.00     0.198 A 
ATOM     80  F   UNL A   1      37.513  32.835  28.575  1.00  0.00    -0.203 F 
ATOM     81  F   UNL A   1      34.086  32.932  32.799  1.00  0.00    -0.200 F 
ATOM     82  C   UNL A   1      34.698  33.690  30.655  1.00  0.00     0.200 A 
ATOM     83  F   UNL A   1      35.396  34.457  28.537  1.00  0.00    -0.200 F 
ATOM     84  F   UNL A   1      33.694  34.578  30.662  1.00  0.00    -0.200 F 
ENDBRANCH  50  74
BRANCH  62  85
ATOM     85  C   UNL A   1      42.154  30.122  33.699  1.00  0.00     0.064 A 
ATOM     86  C   UNL A   1      41.730  28.792  33.528  1.00  0.00     0.173 A 
ATOM     87  C   UNL A   1      42.447  30.537  35.005  1.00  0.00     0.173 A 
ATOM     88  F   UNL A   1      41.530  28.280  32.308  1.00  0.00    -0.203 F 
ATOM     89  C   UNL A   1      41.564  27.937  34.619  1.00  0.00     0.198 A 
ATOM     90  C   UNL A   1      42.318  29.672  36.088  1.00  0.00     0.198 A 
ATOM     91  F   UNL A   1      42.908  31.778  35.227  1.00  0.00    -0.203 F 
ATOM     92  F   UNL A   1      41.144  26.677  34.428  1.00  0.00    -0.200 F 
ATOM     93  C   UNL A   1      41.865  28.376  35.896  1.00  0.00     0.200 A 
ATOM     94  F   UNL A   1      42.659  30.086  37.315  1.00  0.00    -0.200 F 
ATOM     95  F   UNL A   1      41.745  27.545  36.940  1.00  0.00    -0.200 F 
ENDBRANCH  62  85
ENDBRANCH  36  37
ENDBRANCH  28  31
ENDBRANCH  26  27
ENDBRANCH  25  26
ENDBRANCH   1  25
TORSDOF 13
ENDMDL
