MODEL 1
REMARK VINA RESULT:      -9.9      0.000      0.000
REMARK SMILES C[C@H](CO)CSc1cc(Cl)ccc1C(=O)NCCCNC(=O)c1ccc(-c2c3nc(c(-c4c(F)c(F)c(F)c(F)c4F)c4ccc([nH]4)c(-c4c(F)c(F)c(F)c(F)c4F)c4nc(c(-c5c(F)c(F)c(F)c(F)c5F)c5ccc2[nH]5)C=C4)C=C3)cc1
REMARK SMILES IDX 14 1 15 2 16 3 13 5 7 6 8 7 9 8 12 9 10 10 11 11 6 12 5 13
REMARK SMILES IDX 2 14 1 15 3 16 4 17 17 19 18 20 19 21 20 22 21 23 22 25
REMARK SMILES IDX 23 26 24 27 85 28 25 29 84 30 26 31 27 32 28 33 78 34 29 35
REMARK SMILES IDX 83 36 77 37 79 38 30 39 82 40 76 41 75 42 31 44 63 45 43 46
REMARK SMILES IDX 62 47 44 48 47 49 61 50 80 51 45 52 46 53 60 55 81 56 48 57
REMARK SMILES IDX 32 58 33 59 41 60 34 61 35 62 39 63 42 64 36 65 37 66 40 67
REMARK SMILES IDX 38 68 64 69 65 70 73 71 66 72 67 73 71 74 74 75 68 76 69 77
REMARK SMILES IDX 72 78 70 79 49 80 50 81 58 82 51 83 52 84 56 85 59 86 53 87
REMARK SMILES IDX 54 88 57 89 55 90
REMARK H PARENT 16 4 4 18 20 24 79 43 47 54
REMARK Flexibility Score: inf
ROOT
ATOM      1  C   UNL A   1      35.645  32.752  31.486  1.00  0.00     0.252 C 
ATOM      2  O   UNL A   1      35.735  31.766  32.220  1.00  0.00    -0.269 OA
ATOM      3  N   UNL A   1      34.406  33.036  30.971  1.00  0.00    -0.352 N 
ATOM      4  H   UNL A   1      33.702  32.374  31.157  1.00  0.00     0.163 HD
ENDROOT
BRANCH   1   5
ATOM      5  C   UNL A   1      36.902  33.468  31.099  1.00  0.00     0.053 A 
ATOM      6  C   UNL A   1      37.808  34.192  31.908  1.00  0.00     0.021 A 
ATOM      7  C   UNL A   1      39.018  34.625  31.328  1.00  0.00     0.036 A 
ATOM      8  C   UNL A   1      39.312  34.415  29.984  1.00  0.00     0.042 A 
ATOM      9  C   UNL A   1      37.232  33.255  29.736  1.00  0.00     0.016 A 
ATOM     10  Cl  UNL A   1      40.797  34.989  29.338  1.00  0.00    -0.084 Cl
ATOM     11  C   UNL A   1      38.419  33.733  29.178  1.00  0.00     0.021 A 
BRANCH   6  12
ATOM     12  S   UNL A   1      37.714  34.535  33.674  1.00  0.00    -0.125 SA
BRANCH  12  13
ATOM     13  C   UNL A   1      38.309  32.936  34.402  1.00  0.00     0.080 C 
BRANCH  13  14
ATOM     14  C   UNL A   1      37.695  32.496  35.742  1.00  0.00     0.022 C 
ATOM     15  C   UNL A   1      37.968  33.571  36.808  1.00  0.00     0.011 C 
BRANCH  14  16
ATOM     16  C   UNL A   1      38.240  31.131  36.179  1.00  0.00     0.160 C 
BRANCH  16  17
ATOM     17  O   UNL A   1      38.130  30.158  35.152  1.00  0.00    -0.396 OA
ATOM     18  H   UNL A   1      37.493  29.477  35.417  1.00  0.00     0.210 HD
ENDBRANCH  16  17
ENDBRANCH  14  16
ENDBRANCH  13  14
ENDBRANCH  12  13
ENDBRANCH   6  12
ENDBRANCH   1   5
BRANCH   3  19
ATOM     19  C   UNL A   1      34.006  34.173  30.194  1.00  0.00     0.118 C 
BRANCH  19  20
ATOM     20  C   UNL A   1      33.609  33.911  28.761  1.00  0.00     0.042 C 
BRANCH  20  21
ATOM     21  C   UNL A   1      34.532  32.983  27.999  1.00  0.00     0.118 C 
BRANCH  21  22
ATOM     22  N   UNL A   1      33.917  31.720  27.606  1.00  0.00    -0.352 N 
ATOM     23  C   UNL A   1      34.390  30.428  27.607  1.00  0.00     0.251 C 
ATOM     24  H   UNL A   1      32.992  31.809  27.279  1.00  0.00     0.163 HD
ATOM     25  O   UNL A   1      33.701  29.535  27.117  1.00  0.00    -0.269 OA
BRANCH  23  26
ATOM     26  C   UNL A   1      35.729  30.099  28.146  1.00  0.00     0.039 A 
ATOM     27  C   UNL A   1      35.843  29.658  29.470  1.00  0.00     0.014 A 
ATOM     28  C   UNL A   1      36.879  30.230  27.371  1.00  0.00     0.014 A 
ATOM     29  C   UNL A   1      37.090  29.272  29.973  1.00  0.00     0.010 A 
ATOM     30  C   UNL A   1      38.084  29.704  27.817  1.00  0.00     0.010 A 
ATOM     31  C   UNL A   1      38.215  29.247  29.134  1.00  0.00    -0.014 A 
BRANCH  31  32
ATOM     32  C   UNL A   1      39.551  28.808  29.616  1.00  0.00     0.031 A 
ATOM     33  C   UNL A   1      40.280  29.633  30.648  1.00  0.00     0.074 A 
ATOM     34  C   UNL A   1      40.141  27.723  29.079  1.00  0.00     0.049 A 
ATOM     35  N   UNL A   1      41.491  29.489  31.123  1.00  0.00    -0.248 NA
ATOM     36  C   UNL A   1      39.567  30.805  31.185  1.00  0.00     0.031 C 
ATOM     37  C   UNL A   1      39.570  26.876  28.030  1.00  0.00     0.029 A 
ATOM     38  N   UNL A   1      41.362  27.150  29.336  1.00  0.00    -0.354 N 
ATOM     39  C   UNL A   1      41.689  30.562  31.983  1.00  0.00     0.074 A 
ATOM     40  C   UNL A   1      40.508  31.391  31.907  1.00  0.00     0.031 C 
ATOM     41  C   UNL A   1      40.420  25.873  27.761  1.00  0.00     0.029 A 
ATOM     42  C   UNL A   1      41.615  26.030  28.583  1.00  0.00     0.049 A 
ATOM     43  H   UNL A   1      41.997  27.509  29.997  1.00  0.00     0.167 HD
ATOM     44  C   UNL A   1      42.743  30.817  32.794  1.00  0.00     0.037 A 
ATOM     45  C   UNL A   1      42.692  25.220  28.560  1.00  0.00     0.037 A 
ATOM     46  C   UNL A   1      43.895  29.962  32.902  1.00  0.00     0.049 A 
ATOM     47  C   UNL A   1      43.844  25.513  29.486  1.00  0.00     0.074 A 
ATOM     48  C   UNL A   1      44.991  30.093  33.736  1.00  0.00     0.029 A 
ATOM     49  N   UNL A   1      44.095  28.812  32.153  1.00  0.00    -0.354 N 
ATOM     50  N   UNL A   1      43.990  26.494  30.344  1.00  0.00    -0.248 NA
ATOM     51  C   UNL A   1      44.974  24.575  29.450  1.00  0.00     0.031 C 
ATOM     52  C   UNL A   1      45.875  29.045  33.461  1.00  0.00     0.029 A 
ATOM     53  C   UNL A   1      45.303  28.229  32.498  1.00  0.00     0.049 A 
ATOM     54  H   UNL A   1      43.470  28.462  31.477  1.00  0.00     0.167 HD
ATOM     55  C   UNL A   1      45.206  26.272  30.975  1.00  0.00     0.074 A 
ATOM     56  C   UNL A   1      45.752  25.055  30.410  1.00  0.00     0.031 C 
ATOM     57  C   UNL A   1      45.818  27.006  31.937  1.00  0.00     0.037 A 
BRANCH  44  58
ATOM     58  C   UNL A   1      42.689  32.059  33.636  1.00  0.00     0.064 A 
ATOM     59  C   UNL A   1      43.264  33.268  33.209  1.00  0.00     0.173 A 
ATOM     60  C   UNL A   1      42.031  32.053  34.876  1.00  0.00     0.173 A 
ATOM     61  F   UNL A   1      43.918  33.327  32.039  1.00  0.00    -0.203 F 
ATOM     62  C   UNL A   1      43.215  34.409  34.006  1.00  0.00     0.198 A 
ATOM     63  C   UNL A   1      41.952  33.205  35.653  1.00  0.00     0.198 A 
ATOM     64  F   UNL A   1      41.460  30.928  35.333  1.00  0.00    -0.203 F 
ATOM     65  F   UNL A   1      43.825  35.531  33.602  1.00  0.00    -0.200 F 
ATOM     66  C   UNL A   1      42.552  34.380  35.223  1.00  0.00     0.200 A 
ATOM     67  F   UNL A   1      41.299  33.179  36.824  1.00  0.00    -0.200 F 
ATOM     68  F   UNL A   1      42.499  35.480  35.985  1.00  0.00    -0.200 F 
ENDBRANCH  44  58
BRANCH  45  69
ATOM     69  C   UNL A   1      42.719  24.037  27.660  1.00  0.00     0.064 A 
ATOM     70  C   UNL A   1      42.362  22.765  28.134  1.00  0.00     0.173 A 
ATOM     71  C   UNL A   1      43.114  24.143  26.320  1.00  0.00     0.173 A 
ATOM     72  F   UNL A   1      41.994  22.608  29.415  1.00  0.00    -0.203 F 
ATOM     73  C   UNL A   1      42.425  21.643  27.311  1.00  0.00     0.198 A 
ATOM     74  C   UNL A   1      43.147  23.025  25.487  1.00  0.00     0.198 A 
ATOM     75  F   UNL A   1      43.458  25.336  25.813  1.00  0.00    -0.203 F 
ATOM     76  F   UNL A   1      42.131  20.434  27.805  1.00  0.00    -0.200 F 
ATOM     77  C   UNL A   1      42.813  21.775  25.986  1.00  0.00     0.200 A 
ATOM     78  F   UNL A   1      43.506  23.159  24.203  1.00  0.00    -0.200 F 
ATOM     79  F   UNL A   1      42.874  20.697  25.193  1.00  0.00    -0.200 F 
ENDBRANCH  45  69
BRANCH  57  80
ATOM     80  C   UNL A   1      47.116  26.484  32.482  1.00  0.00     0.064 A 
ATOM     81  C   UNL A   1      47.160  25.594  33.564  1.00  0.00     0.173 A 
ATOM     82  C   UNL A   1      48.331  26.856  31.886  1.00  0.00     0.173 A 
ATOM     83  F   UNL A   1      46.027  25.218  34.177  1.00  0.00    -0.203 F 
ATOM     84  C   UNL A   1      48.376  25.122  34.052  1.00  0.00     0.198 A 
ATOM     85  C   UNL A   1      49.542  26.354  32.353  1.00  0.00     0.198 A 
ATOM     86  F   UNL A   1      48.343  27.697  30.841  1.00  0.00    -0.203 F 
ATOM     87  F   UNL A   1      48.398  24.317  35.123  1.00  0.00    -0.200 F 
ATOM     88  C   UNL A   1      49.564  25.496  33.442  1.00  0.00     0.200 A 
ATOM     89  F   UNL A   1      50.687  26.703  31.752  1.00  0.00    -0.200 F 
ATOM     90  F   UNL A   1      50.732  25.036  33.909  1.00  0.00    -0.200 F 
ENDBRANCH  57  80
ENDBRANCH  31  32
ENDBRANCH  23  26
ENDBRANCH  21  22
ENDBRANCH  20  21
ENDBRANCH  19  20
ENDBRANCH   3  19
TORSDOF 15
ENDMDL
MODEL 2
REMARK VINA RESULT:      -9.7      4.728     10.302
REMARK SMILES C[C@H](CO)CSc1cc(Cl)ccc1C(=O)NCCCNC(=O)c1ccc(-c2c3nc(c(-c4c(F)c(F)c(F)c(F)c4F)c4ccc([nH]4)c(-c4c(F)c(F)c(F)c(F)c4F)c4nc(c(-c5c(F)c(F)c(F)c(F)c5F)c5ccc2[nH]5)C=C4)C=C3)cc1
REMARK SMILES IDX 14 1 15 2 16 3 13 5 7 6 8 7 9 8 12 9 10 10 11 11 6 12 5 13
REMARK SMILES IDX 2 14 1 15 3 16 4 17 17 19 18 20 19 21 20 22 21 23 22 25
REMARK SMILES IDX 23 26 24 27 85 28 25 29 84 30 26 31 27 32 28 33 78 34 29 35
REMARK SMILES IDX 83 36 77 37 79 38 30 39 82 40 76 41 75 42 31 44 63 45 43 46
REMARK SMILES IDX 62 47 44 48 47 49 61 50 80 51 45 52 46 53 60 55 81 56 48 57
REMARK SMILES IDX 32 58 33 59 41 60 34 61 35 62 39 63 42 64 36 65 37 66 40 67
REMARK SMILES IDX 38 68 64 69 65 70 73 71 66 72 67 73 71 74 74 75 68 76 69 77
REMARK SMILES IDX 72 78 70 79 49 80 50 81 58 82 51 83 52 84 56 85 59 86 53 87
REMARK SMILES IDX 54 88 57 89 55 90
REMARK H PARENT 16 4 4 18 20 24 79 43 47 54
REMARK Flexibility Score: inf
ROOT
ATOM      1  C   UNL A   1      31.954  24.275  26.706  1.00  0.00     0.252 C 
ATOM      2  O   UNL A   1      31.422  23.515  27.519  1.00  0.00    -0.269 OA
ATOM      3  N   UNL A   1      31.376  25.505  26.529  1.00  0.00    -0.352 N 
ATOM      4  H   UNL A   1      30.524  25.651  27.001  1.00  0.00     0.163 HD
ENDROOT
BRANCH   1   5
ATOM      5  C   UNL A   1      33.087  23.750  25.880  1.00  0.00     0.053 A 
ATOM      6  C   UNL A   1      33.177  22.547  25.140  1.00  0.00     0.021 A 
ATOM      7  C   UNL A   1      34.293  22.367  24.297  1.00  0.00     0.036 A 
ATOM      8  C   UNL A   1      35.322  23.301  24.220  1.00  0.00     0.042 A 
ATOM      9  C   UNL A   1      34.142  24.691  25.772  1.00  0.00     0.016 A 
ATOM     10  Cl  UNL A   1      36.662  23.007  23.186  1.00  0.00    -0.084 Cl
ATOM     11  C   UNL A   1      35.256  24.466  24.961  1.00  0.00     0.021 A 
BRANCH   6  12
ATOM     12  S   UNL A   1      31.967  21.220  24.996  1.00  0.00    -0.125 SA
BRANCH  12  13
ATOM     13  C   UNL A   1      32.945  19.911  24.119  1.00  0.00     0.080 C 
BRANCH  13  14
ATOM     14  C   UNL A   1      32.407  18.470  24.171  1.00  0.00     0.022 C 
ATOM     15  C   UNL A   1      32.910  17.782  25.451  1.00  0.00     0.011 C 
BRANCH  14  16
ATOM     16  C   UNL A   1      32.815  17.682  22.921  1.00  0.00     0.160 C 
BRANCH  16  17
ATOM     17  O   UNL A   1      31.805  17.703  21.923  1.00  0.00    -0.396 OA
ATOM     18  H   UNL A   1      31.038  18.198  22.249  1.00  0.00     0.210 HD
ENDBRANCH  16  17
ENDBRANCH  14  16
ENDBRANCH  13  14
ENDBRANCH  12  13
ENDBRANCH   6  12
ENDBRANCH   1   5
BRANCH   3  19
ATOM     19  C   UNL A   1      31.852  26.606  25.742  1.00  0.00     0.118 C 
BRANCH  19  20
ATOM     20  C   UNL A   1      31.989  27.935  26.446  1.00  0.00     0.042 C 
BRANCH  20  21
ATOM     21  C   UNL A   1      32.787  28.979  25.694  1.00  0.00     0.118 C 
BRANCH  21  22
ATOM     22  N   UNL A   1      32.449  30.354  26.042  1.00  0.00    -0.352 N 
ATOM     23  C   UNL A   1      33.050  31.264  26.880  1.00  0.00     0.251 C 
ATOM     24  H   UNL A   1      31.640  30.694  25.594  1.00  0.00     0.163 HD
ATOM     25  O   UNL A   1      32.500  32.344  27.089  1.00  0.00    -0.269 OA
BRANCH  23  26
ATOM     26  C   UNL A   1      34.323  30.953  27.569  1.00  0.00     0.039 A 
ATOM     27  C   UNL A   1      35.256  31.975  27.775  1.00  0.00     0.014 A 
ATOM     28  C   UNL A   1      34.619  29.664  28.005  1.00  0.00     0.014 A 
ATOM     29  C   UNL A   1      36.432  31.716  28.488  1.00  0.00     0.010 A 
ATOM     30  C   UNL A   1      35.705  29.442  28.841  1.00  0.00     0.010 A 
ATOM     31  C   UNL A   1      36.643  30.456  29.069  1.00  0.00    -0.014 A 
BRANCH  31  32
ATOM     32  C   UNL A   1      37.859  30.147  29.867  1.00  0.00     0.031 A 
ATOM     33  C   UNL A   1      38.905  29.218  29.304  1.00  0.00     0.074 A 
ATOM     34  C   UNL A   1      37.990  30.632  31.117  1.00  0.00     0.049 A 
ATOM     35  N   UNL A   1      39.981  28.735  29.872  1.00  0.00    -0.248 NA
ATOM     36  C   UNL A   1      38.688  28.729  27.931  1.00  0.00     0.031 C 
ATOM     37  C   UNL A   1      37.021  31.491  31.801  1.00  0.00     0.029 A 
ATOM     38  N   UNL A   1      38.991  30.464  32.041  1.00  0.00    -0.354 N 
ATOM     39  C   UNL A   1      40.543  27.870  28.940  1.00  0.00     0.074 A 
ATOM     40  C   UNL A   1      39.653  27.833  27.804  1.00  0.00     0.031 C 
ATOM     41  C   UNL A   1      37.491  31.804  33.019  1.00  0.00     0.029 A 
ATOM     42  C   UNL A   1      38.772  31.134  33.220  1.00  0.00     0.049 A 
ATOM     43  H   UNL A   1      39.791  29.916  31.875  1.00  0.00     0.167 HD
ATOM     44  C   UNL A   1      41.716  27.196  29.008  1.00  0.00     0.037 A 
ATOM     45  C   UNL A   1      39.521  31.199  34.338  1.00  0.00     0.037 A 
ATOM     46  C   UNL A   1      42.623  27.276  30.122  1.00  0.00     0.049 A 
ATOM     47  C   UNL A   1      40.831  30.457  34.381  1.00  0.00     0.074 A 
ATOM     48  C   UNL A   1      43.865  26.684  30.268  1.00  0.00     0.029 A 
ATOM     49  N   UNL A   1      42.384  28.000  31.280  1.00  0.00    -0.354 N 
ATOM     50  N   UNL A   1      41.384  29.696  33.467  1.00  0.00    -0.248 NA
ATOM     51  C   UNL A   1      41.628  30.595  35.608  1.00  0.00     0.031 C 
ATOM     52  C   UNL A   1      44.358  27.015  31.534  1.00  0.00     0.029 A 
ATOM     53  C   UNL A   1      43.451  27.860  32.152  1.00  0.00     0.049 A 
ATOM     54  H   UNL A   1      41.576  28.535  31.457  1.00  0.00     0.167 HD
ATOM     55  C   UNL A   1      42.607  29.297  33.990  1.00  0.00     0.074 A 
ATOM     56  C   UNL A   1      42.720  29.911  35.297  1.00  0.00     0.031 C 
ATOM     57  C   UNL A   1      43.553  28.496  33.440  1.00  0.00     0.037 A 
BRANCH  44  58
ATOM     58  C   UNL A   1      42.089  26.330  27.839  1.00  0.00     0.064 A 
ATOM     59  C   UNL A   1      41.560  25.039  27.677  1.00  0.00     0.173 A 
ATOM     60  C   UNL A   1      42.966  26.803  26.851  1.00  0.00     0.173 A 
ATOM     61  F   UNL A   1      40.728  24.530  28.600  1.00  0.00    -0.203 F 
ATOM     62  C   UNL A   1      41.923  24.243  26.595  1.00  0.00     0.198 A 
ATOM     63  C   UNL A   1      43.298  26.019  25.749  1.00  0.00     0.198 A 
ATOM     64  F   UNL A   1      43.499  28.030  26.951  1.00  0.00    -0.203 F 
ATOM     65  F   UNL A   1      41.452  22.993  26.497  1.00  0.00    -0.200 F 
ATOM     66  C   UNL A   1      42.785  24.736  25.626  1.00  0.00     0.200 A 
ATOM     67  F   UNL A   1      44.121  26.501  24.807  1.00  0.00    -0.200 F 
ATOM     68  F   UNL A   1      43.127  23.972  24.581  1.00  0.00    -0.200 F 
ENDBRANCH  44  58
BRANCH  45  69
ATOM     69  C   UNL A   1      39.074  32.024  35.492  1.00  0.00     0.064 A 
ATOM     70  C   UNL A   1      39.423  33.380  35.584  1.00  0.00     0.173 A 
ATOM     71  C   UNL A   1      38.305  31.479  36.529  1.00  0.00     0.173 A 
ATOM     72  F   UNL A   1      40.173  33.943  34.625  1.00  0.00    -0.203 F 
ATOM     73  C   UNL A   1      39.045  34.150  36.682  1.00  0.00     0.198 A 
ATOM     74  C   UNL A   1      37.901  32.258  37.612  1.00  0.00     0.198 A 
ATOM     75  F   UNL A   1      37.937  30.190  36.488  1.00  0.00    -0.203 F 
ATOM     76  F   UNL A   1      39.440  35.427  36.769  1.00  0.00    -0.200 F 
ATOM     77  C   UNL A   1      38.280  33.589  37.693  1.00  0.00     0.200 A 
ATOM     78  F   UNL A   1      37.147  31.717  38.579  1.00  0.00    -0.200 F 
ATOM     79  F   UNL A   1      37.916  34.329  38.749  1.00  0.00    -0.200 F 
ENDBRANCH  45  69
BRANCH  57  80
ATOM     80  C   UNL A   1      44.818  28.287  34.222  1.00  0.00     0.064 A 
ATOM     81  C   UNL A   1      45.914  29.152  34.104  1.00  0.00     0.173 A 
ATOM     82  C   UNL A   1      44.916  27.219  35.129  1.00  0.00     0.173 A 
ATOM     83  F   UNL A   1      45.874  30.180  33.242  1.00  0.00    -0.203 F 
ATOM     84  C   UNL A   1      47.076  28.938  34.840  1.00  0.00     0.198 A 
ATOM     85  C   UNL A   1      46.066  27.029  35.889  1.00  0.00     0.198 A 
ATOM     86  F   UNL A   1      43.892  26.368  35.286  1.00  0.00    -0.203 F 
ATOM     87  F   UNL A   1      48.132  29.745  34.670  1.00  0.00    -0.200 F 
ATOM     88  C   UNL A   1      47.148  27.882  35.737  1.00  0.00     0.200 A 
ATOM     89  F   UNL A   1      46.127  26.019  36.767  1.00  0.00    -0.200 F 
ATOM     90  F   UNL A   1      48.265  27.681  36.449  1.00  0.00    -0.200 F 
ENDBRANCH  57  80
ENDBRANCH  31  32
ENDBRANCH  23  26
ENDBRANCH  21  22
ENDBRANCH  20  21
ENDBRANCH  19  20
ENDBRANCH   3  19
TORSDOF 15
ENDMDL
MODEL 3
REMARK VINA RESULT:      -9.7      4.074      6.633
REMARK SMILES C[C@H](CO)CSc1cc(Cl)ccc1C(=O)NCCCNC(=O)c1ccc(-c2c3nc(c(-c4c(F)c(F)c(F)c(F)c4F)c4ccc([nH]4)c(-c4c(F)c(F)c(F)c(F)c4F)c4nc(c(-c5c(F)c(F)c(F)c(F)c5F)c5ccc2[nH]5)C=C4)C=C3)cc1
REMARK SMILES IDX 14 1 15 2 16 3 13 5 7 6 8 7 9 8 12 9 10 10 11 11 6 12 5 13
REMARK SMILES IDX 2 14 1 15 3 16 4 17 17 19 18 20 19 21 20 22 21 23 22 25
REMARK SMILES IDX 23 26 24 27 85 28 25 29 84 30 26 31 27 32 28 33 78 34 29 35
REMARK SMILES IDX 83 36 77 37 79 38 30 39 82 40 76 41 75 42 31 44 63 45 43 46
REMARK SMILES IDX 62 47 44 48 47 49 61 50 80 51 45 52 46 53 60 55 81 56 48 57
REMARK SMILES IDX 32 58 33 59 41 60 34 61 35 62 39 63 42 64 36 65 37 66 40 67
REMARK SMILES IDX 38 68 64 69 65 70 73 71 66 72 67 73 71 74 74 75 68 76 69 77
REMARK SMILES IDX 72 78 70 79 49 80 50 81 58 82 51 83 52 84 56 85 59 86 53 87
REMARK SMILES IDX 54 88 57 89 55 90
REMARK H PARENT 16 4 4 18 20 24 79 43 47 54
REMARK Flexibility Score: inf
ROOT
ATOM      1  C   UNL A   1      31.589  24.834  26.577  1.00  0.00     0.252 C 
ATOM      2  O   UNL A   1      30.709  24.106  27.042  1.00  0.00    -0.269 OA
ATOM      3  N   UNL A   1      31.500  26.175  26.852  1.00  0.00    -0.352 N 
ATOM      4  H   UNL A   1      30.686  26.463  27.325  1.00  0.00     0.163 HD
ENDROOT
BRANCH   1   5
ATOM      5  C   UNL A   1      32.590  24.231  25.642  1.00  0.00     0.053 A 
ATOM      6  C   UNL A   1      32.565  24.152  24.230  1.00  0.00     0.021 A 
ATOM      7  C   UNL A   1      33.722  23.688  23.569  1.00  0.00     0.036 A 
ATOM      8  C   UNL A   1      34.848  23.256  24.263  1.00  0.00     0.042 A 
ATOM      9  C   UNL A   1      33.756  23.798  26.323  1.00  0.00     0.016 A 
ATOM     10  Cl  UNL A   1      36.215  22.684  23.393  1.00  0.00    -0.084 Cl
ATOM     11  C   UNL A   1      34.871  23.303  25.644  1.00  0.00     0.021 A 
BRANCH   6  12
ATOM     12  S   UNL A   1      31.283  24.709  23.093  1.00  0.00    -0.125 SA
BRANCH  12  13
ATOM     13  C   UNL A   1      31.653  26.523  22.967  1.00  0.00     0.080 C 
BRANCH  13  14
ATOM     14  C   UNL A   1      30.570  27.501  23.454  1.00  0.00     0.022 C 
ATOM     15  C   UNL A   1      29.319  26.712  23.876  1.00  0.00     0.011 C 
BRANCH  14  16
ATOM     16  C   UNL A   1      30.234  28.536  22.374  1.00  0.00     0.160 C 
BRANCH  16  17
ATOM     17  O   UNL A   1      30.538  29.859  22.789  1.00  0.00    -0.396 OA
ATOM     18  H   UNL A   1      30.442  30.465  22.038  1.00  0.00     0.210 HD
ENDBRANCH  16  17
ENDBRANCH  14  16
ENDBRANCH  13  14
ENDBRANCH  12  13
ENDBRANCH   6  12
ENDBRANCH   1   5
BRANCH   3  19
ATOM     19  C   UNL A   1      32.440  27.211  26.536  1.00  0.00     0.118 C 
BRANCH  19  20
ATOM     20  C   UNL A   1      31.928  28.631  26.583  1.00  0.00     0.042 C 
BRANCH  20  21
ATOM     21  C   UNL A   1      32.805  29.652  25.890  1.00  0.00     0.118 C 
BRANCH  21  22
ATOM     22  N   UNL A   1      32.619  31.018  26.364  1.00  0.00    -0.352 N 
ATOM     23  C   UNL A   1      33.332  31.788  27.254  1.00  0.00     0.251 C 
ATOM     24  H   UNL A   1      31.837  31.475  25.975  1.00  0.00     0.163 HD
ATOM     25  O   UNL A   1      32.901  32.895  27.572  1.00  0.00    -0.269 OA
BRANCH  23  26
ATOM     26  C   UNL A   1      34.584  31.292  27.869  1.00  0.00     0.039 A 
ATOM     27  C   UNL A   1      35.671  32.164  28.002  1.00  0.00     0.014 A 
ATOM     28  C   UNL A   1      34.710  29.976  28.305  1.00  0.00     0.014 A 
ATOM     29  C   UNL A   1      36.836  31.735  28.647  1.00  0.00     0.010 A 
ATOM     30  C   UNL A   1      35.800  29.598  29.078  1.00  0.00     0.010 A 
ATOM     31  C   UNL A   1      36.892  30.461  29.234  1.00  0.00    -0.014 A 
BRANCH  31  32
ATOM     32  C   UNL A   1      38.095  29.977  29.961  1.00  0.00     0.031 A 
ATOM     33  C   UNL A   1      38.381  30.490  31.351  1.00  0.00     0.074 A 
ATOM     34  C   UNL A   1      38.965  29.147  29.356  1.00  0.00     0.049 A 
ATOM     35  N   UNL A   1      39.423  30.281  32.116  1.00  0.00    -0.248 NA
ATOM     36  C   UNL A   1      37.382  31.395  31.944  1.00  0.00     0.031 C 
ATOM     37  C   UNL A   1      38.836  28.628  27.993  1.00  0.00     0.029 A 
ATOM     38  N   UNL A   1      40.140  28.598  29.807  1.00  0.00    -0.354 N 
ATOM     39  C   UNL A   1      39.215  31.051  33.255  1.00  0.00     0.074 A 
ATOM     40  C   UNL A   1      37.991  31.789  33.051  1.00  0.00     0.031 C 
ATOM     41  C   UNL A   1      39.868  27.809  27.733  1.00  0.00     0.029 A 
ATOM     42  C   UNL A   1      40.754  27.779  28.892  1.00  0.00     0.049 A 
ATOM     43  H   UNL A   1      40.508  28.775  30.702  1.00  0.00     0.167 HD
ATOM     44  C   UNL A   1      39.956  31.108  34.387  1.00  0.00     0.037 A 
ATOM     45  C   UNL A   1      41.904  27.083  28.979  1.00  0.00     0.037 A 
ATOM     46  C   UNL A   1      41.148  30.334  34.604  1.00  0.00     0.049 A 
ATOM     47  C   UNL A   1      42.700  27.148  30.256  1.00  0.00     0.074 A 
ATOM     48  C   UNL A   1      41.941  30.269  35.736  1.00  0.00     0.029 A 
ATOM     49  N   UNL A   1      41.715  29.481  33.668  1.00  0.00    -0.354 N 
ATOM     50  N   UNL A   1      42.457  27.827  31.351  1.00  0.00    -0.248 NA
ATOM     51  C   UNL A   1      43.924  26.337  30.312  1.00  0.00     0.031 C 
ATOM     52  C   UNL A   1      43.013  29.411  35.469  1.00  0.00     0.029 A 
ATOM     53  C   UNL A   1      42.855  28.896  34.192  1.00  0.00     0.049 A 
ATOM     54  H   UNL A   1      41.359  29.318  32.764  1.00  0.00     0.167 HD
ATOM     55  C   UNL A   1      43.473  27.496  32.239  1.00  0.00     0.074 A 
ATOM     56  C   UNL A   1      44.328  26.546  31.557  1.00  0.00     0.031 C 
ATOM     57  C   UNL A   1      43.681  27.937  33.504  1.00  0.00     0.037 A 
BRANCH  44  58
ATOM     58  C   UNL A   1      39.488  32.028  35.479  1.00  0.00     0.064 A 
ATOM     59  C   UNL A   1      39.909  33.366  35.550  1.00  0.00     0.173 A 
ATOM     60  C   UNL A   1      38.585  31.576  36.454  1.00  0.00     0.173 A 
ATOM     61  F   UNL A   1      40.783  33.847  34.652  1.00  0.00    -0.203 F 
ATOM     62  C   UNL A   1      39.476  34.204  36.573  1.00  0.00     0.198 A 
ATOM     63  C   UNL A   1      38.124  32.428  37.455  1.00  0.00     0.198 A 
ATOM     64  F   UNL A   1      38.145  30.309  36.433  1.00  0.00    -0.203 F 
ATOM     65  F   UNL A   1      39.941  35.457  36.653  1.00  0.00    -0.200 F 
ATOM     66  C   UNL A   1      38.577  33.737  37.520  1.00  0.00     0.200 A 
ATOM     67  F   UNL A   1      37.245  31.979  38.362  1.00  0.00    -0.200 F 
ATOM     68  F   UNL A   1      38.154  34.546  38.501  1.00  0.00    -0.200 F 
ENDBRANCH  44  58
BRANCH  45  69
ATOM     69  C   UNL A   1      42.353  26.235  27.843  1.00  0.00     0.064 A 
ATOM     70  C   UNL A   1      43.324  26.696  26.941  1.00  0.00     0.173 A 
ATOM     71  C   UNL A   1      41.817  24.959  27.623  1.00  0.00     0.173 A 
ATOM     72  F   UNL A   1      43.855  27.919  27.098  1.00  0.00    -0.203 F 
ATOM     73  C   UNL A   1      43.720  25.927  25.849  1.00  0.00     0.198 A 
ATOM     74  C   UNL A   1      42.236  24.176  26.549  1.00  0.00     0.198 A 
ATOM     75  F   UNL A   1      40.892  24.466  28.459  1.00  0.00    -0.203 F 
ATOM     76  F   UNL A   1      44.609  26.415  24.974  1.00  0.00    -0.200 F 
ATOM     77  C   UNL A   1      43.179  24.665  25.657  1.00  0.00     0.200 A 
ATOM     78  F   UNL A   1      41.724  22.950  26.376  1.00  0.00    -0.200 F 
ATOM     79  F   UNL A   1      43.559  23.923  24.607  1.00  0.00    -0.200 F 
ENDBRANCH  45  69
BRANCH  57  80
ATOM     80  C   UNL A   1      44.842  27.353  34.256  1.00  0.00     0.064 A 
ATOM     81  C   UNL A   1      44.722  26.175  35.006  1.00  0.00     0.173 A 
ATOM     82  C   UNL A   1      46.103  27.967  34.192  1.00  0.00     0.173 A 
ATOM     83  F   UNL A   1      43.535  25.557  35.109  1.00  0.00    -0.203 F 
ATOM     84  C   UNL A   1      45.813  25.651  35.694  1.00  0.00     0.198 A 
ATOM     85  C   UNL A   1      47.200  27.421  34.852  1.00  0.00     0.198 A 
ATOM     86  F   UNL A   1      46.273  29.090  33.479  1.00  0.00    -0.203 F 
ATOM     87  F   UNL A   1      45.662  24.556  36.451  1.00  0.00    -0.200 F 
ATOM     88  C   UNL A   1      47.052  26.270  35.610  1.00  0.00     0.200 A 
ATOM     89  F   UNL A   1      48.399  28.011  34.755  1.00  0.00    -0.200 F 
ATOM     90  F   UNL A   1      48.102  25.761  36.268  1.00  0.00    -0.200 F 
ENDBRANCH  57  80
ENDBRANCH  31  32
ENDBRANCH  23  26
ENDBRANCH  21  22
ENDBRANCH  20  21
ENDBRANCH  19  20
ENDBRANCH   3  19
TORSDOF 15
ENDMDL
