MODEL 1
REMARK VINA RESULT:     -13.0      0.000      0.000
REMARK SMILES O=C(NCCCNC(=O)c1ccccc1[C@H](O)c1ccc(F)c(F)c1)c1ccc(-c2c3nc(c(-c4c(F)c(F)c(F)c(F)c4F)c4ccc([nH]4)c(-c4c(F)c(F)c(F)c(F)c4F)c4nc(c(-c5c(F)c(F)c(F)c(F)c5F)c5ccc2[nH]5)C=C4)C=C3)cc1
REMARK SMILES IDX 5 1 4 2 3 3 1 4 2 5 26 7 27 8 88 9 28 10 87 11 29 12 30 13
REMARK SMILES IDX 31 14 81 15 32 16 86 17 80 18 82 19 33 20 85 21 79 22 78 23
REMARK SMILES IDX 34 25 66 26 46 27 65 28 47 29 50 30 64 31 83 32 48 33 49 34
REMARK SMILES IDX 63 36 84 37 51 38 35 39 36 40 44 41 37 42 38 43 42 44 45 45
REMARK SMILES IDX 39 46 40 47 43 48 41 49 67 50 68 51 76 52 69 53 70 54 74 55
REMARK SMILES IDX 77 56 71 57 72 58 75 59 73 60 52 61 53 62 61 63 54 64 55 65
REMARK SMILES IDX 59 66 62 67 56 68 57 69 60 70 58 71 6 72 7 73 8 74 9 76
REMARK SMILES IDX 10 77 11 78 15 79 12 80 14 81 13 82 16 83 18 84 19 85 25 86
REMARK SMILES IDX 20 87 23 88 21 89 24 90 22 91 17 92
REMARK H PARENT 3 6 82 24 50 35 7 75 17 93
REMARK Flexibility Score: inf
ROOT
ATOM      1  C   UNL A   1      31.791  28.602  26.502  1.00  0.00     0.042 C 
ENDROOT
BRANCH   1   2
ATOM      2  C   UNL A   1      32.681  29.704  25.945  1.00  0.00     0.118 C 
BRANCH   2   3
ATOM      3  N   UNL A   1      32.418  31.030  26.498  1.00  0.00    -0.352 N 
ATOM      4  O   UNL A   1      32.717  32.910  27.709  1.00  0.00    -0.269 OA
ATOM      5  C   UNL A   1      33.178  31.850  27.304  1.00  0.00     0.251 C 
ATOM      6  H   UNL A   1      31.543  31.405  26.249  1.00  0.00     0.163 HD
BRANCH   5   7
ATOM      7  C   UNL A   1      34.531  31.431  27.732  1.00  0.00     0.039 A 
ATOM      8  C   UNL A   1      34.805  30.101  28.032  1.00  0.00     0.014 A 
ATOM      9  C   UNL A   1      35.535  32.394  27.876  1.00  0.00     0.014 A 
ATOM     10  C   UNL A   1      35.961  29.782  28.729  1.00  0.00     0.010 A 
ATOM     11  C   UNL A   1      36.765  32.039  28.442  1.00  0.00     0.010 A 
ATOM     12  C   UNL A   1      36.961  30.746  28.948  1.00  0.00    -0.014 A 
BRANCH  12  13
ATOM     13  C   UNL A   1      38.176  30.356  29.715  1.00  0.00     0.031 A 
ATOM     14  C   UNL A   1      38.344  30.745  31.163  1.00  0.00     0.074 A 
ATOM     15  C   UNL A   1      39.095  29.567  29.124  1.00  0.00     0.049 A 
ATOM     16  N   UNL A   1      39.311  30.433  31.994  1.00  0.00    -0.248 NA
ATOM     17  C   UNL A   1      37.308  31.604  31.756  1.00  0.00     0.031 C 
ATOM     18  C   UNL A   1      39.053  29.130  27.727  1.00  0.00     0.029 A 
ATOM     19  N   UNL A   1      40.211  28.949  29.630  1.00  0.00    -0.354 N 
ATOM     20  C   UNL A   1      39.023  31.093  33.182  1.00  0.00     0.074 A 
ATOM     21  C   UNL A   1      37.799  31.832  32.967  1.00  0.00     0.031 C 
ATOM     22  C   UNL A   1      40.035  28.244  27.512  1.00  0.00     0.029 A 
ATOM     23  C   UNL A   1      40.824  28.109  28.731  1.00  0.00     0.049 A 
ATOM     24  H   UNL A   1      40.540  29.094  30.546  1.00  0.00     0.167 HD
ATOM     25  C   UNL A   1      39.715  31.078  34.347  1.00  0.00     0.037 A 
ATOM     26  C   UNL A   1      41.905  27.320  28.867  1.00  0.00     0.037 A 
ATOM     27  C   UNL A   1      40.902  30.298  34.580  1.00  0.00     0.049 A 
ATOM     28  C   UNL A   1      42.629  27.295  30.181  1.00  0.00     0.074 A 
ATOM     29  C   UNL A   1      41.652  30.189  35.739  1.00  0.00     0.029 A 
ATOM     30  N   UNL A   1      41.508  29.482  33.635  1.00  0.00    -0.354 N 
ATOM     31  N   UNL A   1      42.340  27.921  31.295  1.00  0.00    -0.248 NA
ATOM     32  C   UNL A   1      43.836  26.463  30.251  1.00  0.00     0.031 C 
ATOM     33  C   UNL A   1      42.729  29.331  35.486  1.00  0.00     0.029 A 
ATOM     34  C   UNL A   1      42.628  28.875  34.182  1.00  0.00     0.049 A 
ATOM     35  H   UNL A   1      41.189  29.354  32.712  1.00  0.00     0.167 HD
ATOM     36  C   UNL A   1      43.321  27.553  32.202  1.00  0.00     0.074 A 
ATOM     37  C   UNL A   1      44.201  26.628  31.515  1.00  0.00     0.031 C 
ATOM     38  C   UNL A   1      43.486  27.953  33.486  1.00  0.00     0.037 A 
BRANCH  25  39
ATOM     39  C   UNL A   1      39.219  31.951  35.465  1.00  0.00     0.064 A 
ATOM     40  C   UNL A   1      38.406  31.451  36.491  1.00  0.00     0.173 A 
ATOM     41  C   UNL A   1      39.605  33.300  35.531  1.00  0.00     0.173 A 
ATOM     42  F   UNL A   1      37.999  30.173  36.470  1.00  0.00    -0.203 F 
ATOM     43  C   UNL A   1      37.981  32.274  37.533  1.00  0.00     0.198 A 
ATOM     44  C   UNL A   1      39.200  34.112  36.586  1.00  0.00     0.198 A 
ATOM     45  F   UNL A   1      40.388  33.826  34.577  1.00  0.00    -0.203 F 
ATOM     46  F   UNL A   1      37.173  31.785  38.485  1.00  0.00    -0.200 F 
ATOM     47  C   UNL A   1      38.383  33.601  37.584  1.00  0.00     0.200 A 
ATOM     48  F   UNL A   1      39.600  35.390  36.640  1.00  0.00    -0.200 F 
ATOM     49  F   UNL A   1      37.981  34.387  38.591  1.00  0.00    -0.200 F 
ENDBRANCH  25  39
BRANCH  26  50
ATOM     50  C   UNL A   1      42.354  26.483  27.725  1.00  0.00     0.064 A 
ATOM     51  C   UNL A   1      41.793  25.220  27.495  1.00  0.00     0.173 A 
ATOM     52  C   UNL A   1      43.333  26.939  26.830  1.00  0.00     0.173 A 
ATOM     53  F   UNL A   1      40.867  24.734  28.335  1.00  0.00    -0.203 F 
ATOM     54  C   UNL A   1      42.201  24.439  26.416  1.00  0.00     0.198 A 
ATOM     55  C   UNL A   1      43.718  26.169  25.734  1.00  0.00     0.198 A 
ATOM     56  F   UNL A   1      43.895  28.143  27.006  1.00  0.00    -0.203 F 
ATOM     57  F   UNL A   1      41.674  23.220  26.236  1.00  0.00    -0.200 F 
ATOM     58  C   UNL A   1      43.156  24.919  25.532  1.00  0.00     0.200 A 
ATOM     59  F   UNL A   1      44.628  26.645  24.874  1.00  0.00    -0.200 F 
ATOM     60  F   UNL A   1      43.539  24.173  24.487  1.00  0.00    -0.200 F 
ENDBRANCH  26  50
BRANCH  38  61
ATOM     61  C   UNL A   1      44.645  27.367  34.234  1.00  0.00     0.064 A 
ATOM     62  C   UNL A   1      45.891  28.008  34.274  1.00  0.00     0.173 A 
ATOM     63  C   UNL A   1      44.501  26.158  34.932  1.00  0.00     0.173 A 
ATOM     64  F   UNL A   1      46.080  29.158  33.608  1.00  0.00    -0.203 F 
ATOM     65  C   UNL A   1      46.962  27.446  34.961  1.00  0.00     0.198 A 
ATOM     66  C   UNL A   1      45.568  25.611  35.638  1.00  0.00     0.198 A 
ATOM     67  F   UNL A   1      43.327  25.510  34.927  1.00  0.00    -0.203 F 
ATOM     68  F   UNL A   1      48.158  28.049  34.944  1.00  0.00    -0.200 F 
ATOM     69  C   UNL A   1      46.799  26.250  35.645  1.00  0.00     0.200 A 
ATOM     70  F   UNL A   1      45.407  24.460  36.306  1.00  0.00    -0.200 F 
ATOM     71  F   UNL A   1      47.831  25.707  36.304  1.00  0.00    -0.200 F 
ENDBRANCH  38  61
ENDBRANCH  12  13
ENDBRANCH   5   7
ENDBRANCH   2   3
ENDBRANCH   1   2
BRANCH   1  72
ATOM     72  C   UNL A   1      32.468  27.250  26.610  1.00  0.00     0.118 C 
BRANCH  72  73
ATOM     73  N   UNL A   1      31.552  26.154  26.833  1.00  0.00    -0.352 N 
ATOM     74  C   UNL A   1      31.725  24.828  26.563  1.00  0.00     0.251 C 
ATOM     75  H   UNL A   1      30.687  26.397  27.233  1.00  0.00     0.163 HD
ATOM     76  O   UNL A   1      30.920  24.009  27.001  1.00  0.00    -0.269 OA
BRANCH  74  77
ATOM     77  C   UNL A   1      32.830  24.337  25.717  1.00  0.00     0.045 A 
ATOM     78  C   UNL A   1      34.008  24.044  26.429  1.00  0.00     0.014 A 
ATOM     79  C   UNL A   1      32.827  24.334  24.307  1.00  0.00    -0.002 A 
ATOM     80  C   UNL A   1      35.190  23.737  25.760  1.00  0.00     0.001 A 
ATOM     81  C   UNL A   1      34.053  24.055  23.657  1.00  0.00     0.007 A 
ATOM     82  C   UNL A   1      35.214  23.753  24.372  1.00  0.00     0.000 A 
BRANCH  79  83
ATOM     83  C   UNL A   1      31.617  24.567  23.409  1.00  0.00     0.175 C 
BRANCH  83  84
ATOM     84  C   UNL A   1      31.138  26.023  23.305  1.00  0.00    -0.012 A 
ATOM     85  C   UNL A   1      29.826  26.427  23.636  1.00  0.00     0.010 A 
ATOM     86  C   UNL A   1      32.020  27.015  22.828  1.00  0.00     0.049 A 
ATOM     87  C   UNL A   1      29.422  27.762  23.522  1.00  0.00     0.043 A 
ATOM     88  C   UNL A   1      31.612  28.344  22.721  1.00  0.00     0.159 A 
ATOM     89  C   UNL A   1      30.321  28.715  23.068  1.00  0.00     0.158 A 
ATOM     90  F   UNL A   1      32.479  29.267  22.283  1.00  0.00    -0.204 F 
ATOM     91  F   UNL A   1      29.930  29.992  22.969  1.00  0.00    -0.204 F 
ENDBRANCH  83  84
BRANCH  83  92
ATOM     92  O   UNL A   1      31.789  24.022  22.103  1.00  0.00    -0.384 OA
ATOM     93  H   UNL A   1      32.735  23.905  21.924  1.00  0.00     0.211 HD
ENDBRANCH  83  92
ENDBRANCH  79  83
ENDBRANCH  74  77
ENDBRANCH  72  73
ENDBRANCH   1  72
TORSDOF 13
ENDMDL
MODEL 2
REMARK VINA RESULT:     -13.0      1.370      2.597
REMARK SMILES O=C(NCCCNC(=O)c1ccccc1[C@H](O)c1ccc(F)c(F)c1)c1ccc(-c2c3nc(c(-c4c(F)c(F)c(F)c(F)c4F)c4ccc([nH]4)c(-c4c(F)c(F)c(F)c(F)c4F)c4nc(c(-c5c(F)c(F)c(F)c(F)c5F)c5ccc2[nH]5)C=C4)C=C3)cc1
REMARK SMILES IDX 5 1 4 2 3 3 1 4 2 5 26 7 27 8 88 9 28 10 87 11 29 12 30 13
REMARK SMILES IDX 31 14 81 15 32 16 86 17 80 18 82 19 33 20 85 21 79 22 78 23
REMARK SMILES IDX 34 25 66 26 46 27 65 28 47 29 50 30 64 31 83 32 48 33 49 34
REMARK SMILES IDX 63 36 84 37 51 38 35 39 36 40 44 41 37 42 38 43 42 44 45 45
REMARK SMILES IDX 39 46 40 47 43 48 41 49 67 50 68 51 76 52 69 53 70 54 74 55
REMARK SMILES IDX 77 56 71 57 72 58 75 59 73 60 52 61 53 62 61 63 54 64 55 65
REMARK SMILES IDX 59 66 62 67 56 68 57 69 60 70 58 71 6 72 7 73 8 74 9 76
REMARK SMILES IDX 10 77 11 78 15 79 12 80 14 81 13 82 16 83 18 84 19 85 25 86
REMARK SMILES IDX 20 87 23 88 21 89 24 90 22 91 17 92
REMARK H PARENT 3 6 82 24 50 35 7 75 17 93
REMARK Flexibility Score: inf
ROOT
ATOM      1  C   UNL A   1      31.668  29.120  27.257  1.00  0.00     0.042 C 
ENDROOT
BRANCH   1   2
ATOM      2  C   UNL A   1      32.522  30.059  26.415  1.00  0.00     0.118 C 
BRANCH   2   3
ATOM      3  N   UNL A   1      32.421  31.466  26.789  1.00  0.00    -0.352 N 
ATOM      4  O   UNL A   1      32.968  33.450  27.714  1.00  0.00    -0.269 OA
ATOM      5  C   UNL A   1      33.301  32.303  27.441  1.00  0.00     0.251 C 
ATOM      6  H   UNL A   1      31.574  31.893  26.527  1.00  0.00     0.163 HD
BRANCH   5   7
ATOM      7  C   UNL A   1      34.628  31.807  27.867  1.00  0.00     0.039 A 
ATOM      8  C   UNL A   1      34.824  30.465  28.172  1.00  0.00     0.014 A 
ATOM      9  C   UNL A   1      35.687  32.709  28.003  1.00  0.00     0.014 A 
ATOM     10  C   UNL A   1      35.962  30.081  28.866  1.00  0.00     0.010 A 
ATOM     11  C   UNL A   1      36.896  32.285  28.567  1.00  0.00     0.010 A 
ATOM     12  C   UNL A   1      37.017  30.984  29.078  1.00  0.00    -0.014 A 
BRANCH  12  13
ATOM     13  C   UNL A   1      38.210  30.527  29.843  1.00  0.00     0.031 A 
ATOM     14  C   UNL A   1      38.387  30.880  31.299  1.00  0.00     0.074 A 
ATOM     15  C   UNL A   1      39.096  29.710  29.241  1.00  0.00     0.049 A 
ATOM     16  N   UNL A   1      39.334  30.510  32.128  1.00  0.00    -0.248 NA
ATOM     17  C   UNL A   1      37.387  31.772  31.904  1.00  0.00     0.031 C 
ATOM     18  C   UNL A   1      39.043  29.302  27.835  1.00  0.00     0.029 A 
ATOM     19  N   UNL A   1      40.182  29.034  29.739  1.00  0.00    -0.354 N 
ATOM     20  C   UNL A   1      39.069  31.159  33.327  1.00  0.00     0.074 A 
ATOM     21  C   UNL A   1      37.880  31.955  33.122  1.00  0.00     0.031 C 
ATOM     22  C   UNL A   1      39.986  28.378  27.607  1.00  0.00     0.029 A 
ATOM     23  C   UNL A   1      40.762  28.185  28.827  1.00  0.00     0.049 A 
ATOM     24  H   UNL A   1      40.512  29.146  30.660  1.00  0.00     0.167 HD
ATOM     25  C   UNL A   1      39.753  31.091  34.496  1.00  0.00     0.037 A 
ATOM     26  C   UNL A   1      41.806  27.347  28.953  1.00  0.00     0.037 A 
ATOM     27  C   UNL A   1      40.904  30.255  34.718  1.00  0.00     0.049 A 
ATOM     28  C   UNL A   1      42.522  27.265  30.269  1.00  0.00     0.074 A 
ATOM     29  C   UNL A   1      41.642  30.091  35.879  1.00  0.00     0.029 A 
ATOM     30  N   UNL A   1      41.478  29.432  33.760  1.00  0.00    -0.354 N 
ATOM     31  N   UNL A   1      42.254  27.881  31.394  1.00  0.00    -0.248 NA
ATOM     32  C   UNL A   1      43.691  26.379  30.329  1.00  0.00     0.031 C 
ATOM     33  C   UNL A   1      42.681  29.191  35.614  1.00  0.00     0.029 A 
ATOM     34  C   UNL A   1      42.568  28.766  34.301  1.00  0.00     0.049 A 
ATOM     35  H   UNL A   1      41.160  29.335  32.834  1.00  0.00     0.167 HD
ATOM     36  C   UNL A   1      43.213  27.453  32.299  1.00  0.00     0.074 A 
ATOM     37  C   UNL A   1      44.055  26.503  31.597  1.00  0.00     0.031 C 
ATOM     38  C   UNL A   1      43.388  27.820  33.591  1.00  0.00     0.037 A 
BRANCH  25  39
ATOM     39  C   UNL A   1      39.290  31.963  35.628  1.00  0.00     0.064 A 
ATOM     40  C   UNL A   1      38.362  31.514  36.578  1.00  0.00     0.173 A 
ATOM     41  C   UNL A   1      39.822  33.253  35.788  1.00  0.00     0.173 A 
ATOM     42  F   UNL A   1      37.814  30.295  36.464  1.00  0.00    -0.203 F 
ATOM     43  C   UNL A   1      37.968  32.332  37.636  1.00  0.00     0.198 A 
ATOM     44  C   UNL A   1      39.445  34.057  36.860  1.00  0.00     0.198 A 
ATOM     45  F   UNL A   1      40.719  33.728  34.910  1.00  0.00    -0.203 F 
ATOM     46  F   UNL A   1      37.052  31.897  38.511  1.00  0.00    -0.200 F 
ATOM     47  C   UNL A   1      38.515  33.599  37.780  1.00  0.00     0.200 A 
ATOM     48  F   UNL A   1      39.984  35.276  37.004  1.00  0.00    -0.200 F 
ATOM     49  F   UNL A   1      38.141  34.379  38.803  1.00  0.00    -0.200 F 
ENDBRANCH  25  39
BRANCH  26  50
ATOM     50  C   UNL A   1      42.225  26.513  27.797  1.00  0.00     0.064 A 
ATOM     51  C   UNL A   1      43.227  26.950  26.921  1.00  0.00     0.173 A 
ATOM     52  C   UNL A   1      41.650  25.256  27.562  1.00  0.00     0.173 A 
ATOM     53  F   UNL A   1      43.792  28.153  27.095  1.00  0.00    -0.203 F 
ATOM     54  C   UNL A   1      43.633  26.163  25.845  1.00  0.00     0.198 A 
ATOM     55  C   UNL A   1      42.078  24.457  26.504  1.00  0.00     0.198 A 
ATOM     56  F   UNL A   1      40.692  24.793  28.376  1.00  0.00    -0.203 F 
ATOM     57  F   UNL A   1      44.569  26.616  25.001  1.00  0.00    -0.200 F 
ATOM     58  C   UNL A   1      43.064  24.914  25.643  1.00  0.00     0.200 A 
ATOM     59  F   UNL A   1      41.538  23.244  26.324  1.00  0.00    -0.200 F 
ATOM     60  F   UNL A   1      43.464  24.152  24.616  1.00  0.00    -0.200 F 
ENDBRANCH  26  50
BRANCH  38  61
ATOM     61  C   UNL A   1      44.516  27.170  34.333  1.00  0.00     0.064 A 
ATOM     62  C   UNL A   1      44.344  25.953  35.008  1.00  0.00     0.173 A 
ATOM     63  C   UNL A   1      45.787  27.763  34.355  1.00  0.00     0.173 A 
ATOM     64  F   UNL A   1      43.142  25.357  35.029  1.00  0.00    -0.203 F 
ATOM     65  C   UNL A   1      45.397  25.367  35.705  1.00  0.00     0.198 A 
ATOM     66  C   UNL A   1      46.844  27.162  35.032  1.00  0.00     0.198 A 
ATOM     67  F   UNL A   1      46.002  28.925  33.720  1.00  0.00    -0.203 F 
ATOM     68  F   UNL A   1      45.198  24.231  36.386  1.00  0.00    -0.200 F 
ATOM     69  C   UNL A   1      46.646  25.971  35.713  1.00  0.00     0.200 A 
ATOM     70  F   UNL A   1      48.053  27.741  35.033  1.00  0.00    -0.200 F 
ATOM     71  F   UNL A   1      47.658  25.407  36.386  1.00  0.00    -0.200 F 
ENDBRANCH  38  61
ENDBRANCH  12  13
ENDBRANCH   5   7
ENDBRANCH   2   3
ENDBRANCH   1   2
BRANCH   1  72
ATOM     72  C   UNL A   1      32.152  27.684  27.272  1.00  0.00     0.118 C 
BRANCH  72  73
ATOM     73  N   UNL A   1      31.189  26.739  26.754  1.00  0.00    -0.352 N 
ATOM     74  C   UNL A   1      30.961  26.373  25.459  1.00  0.00     0.251 C 
ATOM     75  H   UNL A   1      30.619  26.300  27.425  1.00  0.00     0.163 HD
ATOM     76  O   UNL A   1      30.239  25.408  25.217  1.00  0.00    -0.269 OA
BRANCH  74  77
ATOM     77  C   UNL A   1      31.519  27.130  24.321  1.00  0.00     0.045 A 
ATOM     78  C   UNL A   1      32.876  26.856  24.063  1.00  0.00     0.014 A 
ATOM     79  C   UNL A   1      30.863  28.183  23.651  1.00  0.00    -0.002 A 
ATOM     80  C   UNL A   1      33.594  27.609  23.139  1.00  0.00     0.001 A 
ATOM     81  C   UNL A   1      31.630  28.953  22.745  1.00  0.00     0.007 A 
ATOM     82  C   UNL A   1      32.973  28.666  22.487  1.00  0.00     0.000 A 
BRANCH  79  83
ATOM     83  C   UNL A   1      29.389  28.551  23.780  1.00  0.00     0.175 C 
BRANCH  83  84
ATOM     84  C   UNL A   1      28.940  29.783  22.981  1.00  0.00    -0.012 A 
ATOM     85  C   UNL A   1      28.421  29.703  21.670  1.00  0.00     0.010 A 
ATOM     86  C   UNL A   1      29.074  31.068  23.547  1.00  0.00     0.049 A 
ATOM     87  C   UNL A   1      28.028  30.848  20.969  1.00  0.00     0.043 A 
ATOM     88  C   UNL A   1      28.676  32.205  22.844  1.00  0.00     0.159 A 
ATOM     89  C   UNL A   1      28.155  32.095  21.563  1.00  0.00     0.158 A 
ATOM     90  F   UNL A   1      28.798  33.411  23.416  1.00  0.00    -0.204 F 
ATOM     91  F   UNL A   1      27.770  33.186  20.889  1.00  0.00    -0.204 F 
ENDBRANCH  83  84
BRANCH  83  92
ATOM     92  O   UNL A   1      28.523  27.454  23.501  1.00  0.00    -0.384 OA
ATOM     93  H   UNL A   1      27.856  27.727  22.852  1.00  0.00     0.211 HD
ENDBRANCH  83  92
ENDBRANCH  79  83
ENDBRANCH  74  77
ENDBRANCH  72  73
ENDBRANCH   1  72
TORSDOF 13
ENDMDL
MODEL 3
REMARK VINA RESULT:     -12.9      0.071      1.603
REMARK SMILES O=C(NCCCNC(=O)c1ccccc1[C@H](O)c1ccc(F)c(F)c1)c1ccc(-c2c3nc(c(-c4c(F)c(F)c(F)c(F)c4F)c4ccc([nH]4)c(-c4c(F)c(F)c(F)c(F)c4F)c4nc(c(-c5c(F)c(F)c(F)c(F)c5F)c5ccc2[nH]5)C=C4)C=C3)cc1
REMARK SMILES IDX 5 1 4 2 3 3 1 4 2 5 26 7 27 8 88 9 28 10 87 11 29 12 30 13
REMARK SMILES IDX 31 14 81 15 32 16 86 17 80 18 82 19 33 20 85 21 79 22 78 23
REMARK SMILES IDX 34 25 66 26 46 27 65 28 47 29 50 30 64 31 83 32 48 33 49 34
REMARK SMILES IDX 63 36 84 37 51 38 35 39 36 40 44 41 37 42 38 43 42 44 45 45
REMARK SMILES IDX 39 46 40 47 43 48 41 49 67 50 68 51 76 52 69 53 70 54 74 55
REMARK SMILES IDX 77 56 71 57 72 58 75 59 73 60 52 61 53 62 61 63 54 64 55 65
REMARK SMILES IDX 59 66 62 67 56 68 57 69 60 70 58 71 6 72 7 73 8 74 9 76
REMARK SMILES IDX 10 77 11 78 15 79 12 80 14 81 13 82 16 83 18 84 19 85 25 86
REMARK SMILES IDX 20 87 23 88 21 89 24 90 22 91 17 92
REMARK H PARENT 3 6 82 24 50 35 7 75 17 93
REMARK Flexibility Score: inf
ROOT
ATOM      1  C   UNL A   1      31.801  28.616  26.705  1.00  0.00     0.042 C 
ENDROOT
BRANCH   1   2
ATOM      2  C   UNL A   1      32.619  29.708  26.029  1.00  0.00     0.118 C 
BRANCH   2   3
ATOM      3  N   UNL A   1      32.374  31.052  26.542  1.00  0.00    -0.352 N 
ATOM      4  O   UNL A   1      32.705  32.968  27.688  1.00  0.00    -0.269 OA
ATOM      5  C   UNL A   1      33.152  31.892  27.310  1.00  0.00     0.251 C 
ATOM      6  H   UNL A   1      31.497  31.426  26.295  1.00  0.00     0.163 HD
BRANCH   5   7
ATOM      7  C   UNL A   1      34.508  31.477  27.731  1.00  0.00     0.039 A 
ATOM      8  C   UNL A   1      34.796  30.143  27.998  1.00  0.00     0.014 A 
ATOM      9  C   UNL A   1      35.502  32.446  27.900  1.00  0.00     0.014 A 
ATOM     10  C   UNL A   1      35.954  29.819  28.690  1.00  0.00     0.010 A 
ATOM     11  C   UNL A   1      36.735  32.090  28.461  1.00  0.00     0.010 A 
ATOM     12  C   UNL A   1      36.943  30.787  28.934  1.00  0.00    -0.014 A 
BRANCH  12  13
ATOM     13  C   UNL A   1      38.160  30.391  29.695  1.00  0.00     0.031 A 
ATOM     14  C   UNL A   1      38.336  30.773  31.143  1.00  0.00     0.074 A 
ATOM     15  C   UNL A   1      39.075  29.602  29.096  1.00  0.00     0.049 A 
ATOM     16  N   UNL A   1      39.306  30.455  31.968  1.00  0.00    -0.248 NA
ATOM     17  C   UNL A   1      37.305  31.632  31.745  1.00  0.00     0.031 C 
ATOM     18  C   UNL A   1      39.026  29.171  27.697  1.00  0.00     0.029 A 
ATOM     19  N   UNL A   1      40.192  28.979  29.594  1.00  0.00    -0.354 N 
ATOM     20  C   UNL A   1      39.025  31.111  33.160  1.00  0.00     0.074 A 
ATOM     21  C   UNL A   1      37.802  31.854  32.955  1.00  0.00     0.031 C 
ATOM     22  C   UNL A   1      40.004  28.283  27.474  1.00  0.00     0.029 A 
ATOM     23  C   UNL A   1      40.799  28.142  28.689  1.00  0.00     0.049 A 
ATOM     24  H   UNL A   1      40.526  29.119  30.509  1.00  0.00     0.167 HD
ATOM     25  C   UNL A   1      39.722  31.090  34.323  1.00  0.00     0.037 A 
ATOM     26  C   UNL A   1      41.878  27.349  28.817  1.00  0.00     0.037 A 
ATOM     27  C   UNL A   1      40.909  30.306  34.547  1.00  0.00     0.049 A 
ATOM     28  C   UNL A   1      42.608  27.317  30.127  1.00  0.00     0.074 A 
ATOM     29  C   UNL A   1      41.664  30.190  35.702  1.00  0.00     0.029 A 
ATOM     30  N   UNL A   1      41.508  29.492  33.595  1.00  0.00    -0.354 N 
ATOM     31  N   UNL A   1      42.325  27.939  31.245  1.00  0.00    -0.248 NA
ATOM     32  C   UNL A   1      43.814  26.482  30.188  1.00  0.00     0.031 C 
ATOM     33  C   UNL A   1      42.737  29.330  35.441  1.00  0.00     0.029 A 
ATOM     34  C   UNL A   1      42.629  28.880  34.135  1.00  0.00     0.049 A 
ATOM     35  H   UNL A   1      41.185  29.368  32.674  1.00  0.00     0.167 HD
ATOM     36  C   UNL A   1      43.310  27.565  32.147  1.00  0.00     0.074 A 
ATOM     37  C   UNL A   1      44.184  26.640  31.451  1.00  0.00     0.031 C 
ATOM     38  C   UNL A   1      43.482  27.959  33.431  1.00  0.00     0.037 A 
BRANCH  25  39
ATOM     39  C   UNL A   1      39.234  31.959  35.446  1.00  0.00     0.064 A 
ATOM     40  C   UNL A   1      38.420  31.458  36.472  1.00  0.00     0.173 A 
ATOM     41  C   UNL A   1      39.628  33.305  35.519  1.00  0.00     0.173 A 
ATOM     42  F   UNL A   1      38.005  30.182  36.444  1.00  0.00    -0.203 F 
ATOM     43  C   UNL A   1      38.001  32.278  37.519  1.00  0.00     0.198 A 
ATOM     44  C   UNL A   1      39.229  34.113  36.580  1.00  0.00     0.198 A 
ATOM     45  F   UNL A   1      40.412  33.832  34.567  1.00  0.00    -0.203 F 
ATOM     46  F   UNL A   1      37.193  31.787  38.469  1.00  0.00    -0.200 F 
ATOM     47  C   UNL A   1      38.412  33.602  37.576  1.00  0.00     0.200 A 
ATOM     48  F   UNL A   1      39.636  35.389  36.640  1.00  0.00    -0.200 F 
ATOM     49  F   UNL A   1      38.015  34.384  38.589  1.00  0.00    -0.200 F 
ENDBRANCH  25  39
BRANCH  26  50
ATOM     50  C   UNL A   1      42.320  26.516  27.670  1.00  0.00     0.064 A 
ATOM     51  C   UNL A   1      43.295  26.980  26.777  1.00  0.00     0.173 A 
ATOM     52  C   UNL A   1      41.796  25.232  27.459  1.00  0.00     0.173 A 
ATOM     53  F   UNL A   1      43.810  28.209  26.927  1.00  0.00    -0.203 F 
ATOM     54  C   UNL A   1      43.723  26.194  25.709  1.00  0.00     0.198 A 
ATOM     55  C   UNL A   1      42.247  24.435  26.409  1.00  0.00     0.198 A 
ATOM     56  F   UNL A   1      40.866  24.742  28.290  1.00  0.00    -0.203 F 
ATOM     57  F   UNL A   1      44.631  26.673  24.848  1.00  0.00    -0.200 F 
ATOM     58  C   UNL A   1      43.205  24.919  25.532  1.00  0.00     0.200 A 
ATOM     59  F   UNL A   1      41.757  23.198  26.253  1.00  0.00    -0.200 F 
ATOM     60  F   UNL A   1      43.626  24.159  24.512  1.00  0.00    -0.200 F 
ENDBRANCH  26  50
BRANCH  38  61
ATOM     61  C   UNL A   1      44.642  27.367  34.172  1.00  0.00     0.064 A 
ATOM     62  C   UNL A   1      44.527  26.155  34.869  1.00  0.00     0.173 A 
ATOM     63  C   UNL A   1      45.888  28.012  34.171  1.00  0.00     0.173 A 
ATOM     64  F   UNL A   1      43.350  25.512  34.912  1.00  0.00    -0.203 F 
ATOM     65  C   UNL A   1      45.609  25.625  35.564  1.00  0.00     0.198 A 
ATOM     66  C   UNL A   1      46.975  27.465  34.846  1.00  0.00     0.198 A 
ATOM     67  F   UNL A   1      46.049  29.170  33.514  1.00  0.00    -0.203 F 
ATOM     68  F   UNL A   1      45.463  24.493  36.265  1.00  0.00    -0.200 F 
ATOM     69  C   UNL A   1      46.833  26.278  35.549  1.00  0.00     0.200 A 
ATOM     70  F   UNL A   1      48.160  28.093  34.825  1.00  0.00    -0.200 F 
ATOM     71  F   UNL A   1      47.874  25.768  36.220  1.00  0.00    -0.200 F 
ENDBRANCH  38  61
ENDBRANCH  12  13
ENDBRANCH   5   7
ENDBRANCH   2   3
ENDBRANCH   1   2
BRANCH   1  72
ATOM     72  C   UNL A   1      32.430  27.238  26.642  1.00  0.00     0.118 C 
BRANCH  72  73
ATOM     73  N   UNL A   1      31.492  26.159  26.853  1.00  0.00    -0.352 N 
ATOM     74  C   UNL A   1      31.644  24.830  26.585  1.00  0.00     0.251 C 
ATOM     75  H   UNL A   1      30.626  26.417  27.242  1.00  0.00     0.163 HD
ATOM     76  O   UNL A   1      30.820  24.024  27.012  1.00  0.00    -0.269 OA
BRANCH  74  77
ATOM     77  C   UNL A   1      32.750  24.320  25.751  1.00  0.00     0.045 A 
ATOM     78  C   UNL A   1      33.911  23.996  26.479  1.00  0.00     0.014 A 
ATOM     79  C   UNL A   1      32.769  24.326  24.341  1.00  0.00    -0.002 A 
ATOM     80  C   UNL A   1      35.096  23.667  25.825  1.00  0.00     0.001 A 
ATOM     81  C   UNL A   1      33.998  24.022  23.708  1.00  0.00     0.007 A 
ATOM     82  C   UNL A   1      35.141  23.691  24.438  1.00  0.00     0.000 A 
BRANCH  79  83
ATOM     83  C   UNL A   1      31.578  24.591  23.427  1.00  0.00     0.175 C 
BRANCH  83  84
ATOM     84  C   UNL A   1      31.119  26.055  23.343  1.00  0.00    -0.012 A 
ATOM     85  C   UNL A   1      29.815  26.473  23.686  1.00  0.00     0.010 A 
ATOM     86  C   UNL A   1      32.012  27.039  22.872  1.00  0.00     0.049 A 
ATOM     87  C   UNL A   1      29.429  27.815  23.591  1.00  0.00     0.043 A 
ATOM     88  C   UNL A   1      31.622  28.375  22.784  1.00  0.00     0.159 A 
ATOM     89  C   UNL A   1      30.339  28.760  23.142  1.00  0.00     0.158 A 
ATOM     90  F   UNL A   1      32.500  29.291  22.351  1.00  0.00    -0.204 F 
ATOM     91  F   UNL A   1      29.966  30.044  23.060  1.00  0.00    -0.204 F 
ENDBRANCH  83  84
BRANCH  83  92
ATOM     92  O   UNL A   1      31.766  24.068  22.114  1.00  0.00    -0.384 OA
ATOM     93  H   UNL A   1      32.547  23.493  22.105  1.00  0.00     0.211 HD
ENDBRANCH  83  92
ENDBRANCH  79  83
ENDBRANCH  74  77
ENDBRANCH  72  73
ENDBRANCH   1  72
TORSDOF 13
ENDMDL
