MODEL 1
REMARK VINA RESULT:     -12.4      0.000      0.000
REMARK SMILES C[C@H](C(=O)NCCCNC(=O)c1ccc(-c2c3nc(c(-c4c(F)c(F)c(F)c(F)c4F)c4ccc([nH]4)c(-c4c(F)c(F)c(F)c(F)c4F)c4nc(c(-c5c(F)c(F)c(F)c(F)c5F)c5ccc2[nH]5)C=C4)C=C3)cc1)[C@H](C)[NH+]1CCN(c2ccccc2Cl)CC1
REMARK SMILES IDX 6 1 5 2 3 3 4 4 2 6 1 7 75 8 76 9 77 10 78 11 89 12 79 14
REMARK SMILES IDX 88 15 80 16 81 17 82 18 86 19 83 20 85 21 87 22 84 23 7 24
REMARK SMILES IDX 8 25 9 26 10 27 11 29 12 30 13 31 74 32 14 33 73 34 15 35
REMARK SMILES IDX 16 36 17 37 67 38 18 39 72 40 66 41 68 42 19 43 71 44 65 45
REMARK SMILES IDX 64 46 20 48 52 49 32 50 51 51 33 52 36 53 50 54 69 55 34 56
REMARK SMILES IDX 35 57 49 59 70 60 37 61 21 62 22 63 30 64 23 65 24 66 28 67
REMARK SMILES IDX 31 68 25 69 26 70 29 71 27 72 53 73 54 74 62 75 55 76 56 77
REMARK SMILES IDX 60 78 63 79 57 80 58 81 61 82 59 83 38 84 39 85 47 86 40 87
REMARK SMILES IDX 41 88 45 89 48 90 42 91 43 92 46 93 44 94
REMARK H PARENT 5 5 77 13 9 28 68 47 36 58
REMARK Flexibility Score: inf
ROOT
ATOM      1  C   UNL A   1      31.983  28.027  27.447  1.00  0.00     0.117 C 
ENDROOT
BRANCH   1   2
ATOM      2  N   UNL A   1      31.083  26.901  27.267  1.00  0.00    -0.356 N 
ATOM      3  C   UNL A   1      30.805  26.100  26.208  1.00  0.00     0.228 C 
ATOM      4  O   UNL A   1      29.709  25.524  26.306  1.00  0.00    -0.275 OA
ATOM      5  H   UNL A   1      30.573  26.673  28.077  1.00  0.00     0.163 HD
BRANCH   3   6
ATOM      6  C   UNL A   1      31.780  25.703  25.067  1.00  0.00     0.133 C 
ATOM      7  C   UNL A   1      31.328  26.459  23.792  1.00  0.00     0.024 C 
BRANCH   6   8
ATOM      8  C   UNL A   1      33.350  25.795  25.147  1.00  0.00     0.193 C 
ATOM      9  C   UNL A   1      33.815  26.770  24.043  1.00  0.00     0.076 C 
BRANCH   8  10
ATOM     10  N   UNL A   1      34.038  24.505  25.193  1.00  0.00    -0.329 N 
ATOM     11  C   UNL A   1      33.649  23.510  26.216  1.00  0.00     0.284 C 
ATOM     12  C   UNL A   1      34.208  23.890  23.854  1.00  0.00     0.284 C 
ATOM     13  H   UNL A   1      34.945  24.807  25.549  1.00  0.00     0.348 HD
ATOM     14  C   UNL A   1      32.630  22.424  25.807  1.00  0.00     0.178 C 
ATOM     15  C   UNL A   1      33.229  22.764  23.454  1.00  0.00     0.178 C 
ATOM     16  N   UNL A   1      33.062  21.809  24.548  1.00  0.00    -0.359 N 
BRANCH  16  17
ATOM     17  C   UNL A   1      33.471  20.487  24.498  1.00  0.00     0.056 A 
ATOM     18  C   UNL A   1      32.513  19.519  24.132  1.00  0.00     0.027 A 
ATOM     19  C   UNL A   1      34.772  19.997  24.765  1.00  0.00     0.064 A 
ATOM     20  C   UNL A   1      32.823  18.158  24.010  1.00  0.00     0.002 A 
ATOM     21  C   UNL A   1      35.082  18.631  24.647  1.00  0.00     0.023 A 
ATOM     22  Cl  UNL A   1      36.077  20.975  25.345  1.00  0.00    -0.082 Cl
ATOM     23  C   UNL A   1      34.113  17.714  24.263  1.00  0.00     0.002 A 
ENDBRANCH  16  17
ENDBRANCH   8  10
ENDBRANCH   6   8
ENDBRANCH   3   6
ENDBRANCH   1   2
BRANCH   1  24
ATOM     24  C   UNL A   1      31.546  29.204  26.567  1.00  0.00     0.042 C 
BRANCH  24  25
ATOM     25  C   UNL A   1      32.649  30.072  25.975  1.00  0.00     0.118 C 
BRANCH  25  26
ATOM     26  N   UNL A   1      32.584  31.446  26.439  1.00  0.00    -0.352 N 
ATOM     27  C   UNL A   1      33.368  32.171  27.301  1.00  0.00     0.251 C 
ATOM     28  H   UNL A   1      31.831  31.956  26.064  1.00  0.00     0.163 HD
ATOM     29  O   UNL A   1      32.954  33.284  27.640  1.00  0.00    -0.269 OA
BRANCH  27  30
ATOM     30  C   UNL A   1      34.677  31.704  27.845  1.00  0.00     0.039 A 
ATOM     31  C   UNL A   1      34.762  30.366  28.267  1.00  0.00     0.014 A 
ATOM     32  C   UNL A   1      35.776  32.535  28.068  1.00  0.00     0.014 A 
ATOM     33  C   UNL A   1      35.915  29.877  28.895  1.00  0.00     0.010 A 
ATOM     34  C   UNL A   1      36.964  32.024  28.611  1.00  0.00     0.010 A 
ATOM     35  C   UNL A   1      37.036  30.701  29.068  1.00  0.00    -0.014 A 
BRANCH  35  36
ATOM     36  C   UNL A   1      38.240  30.213  29.800  1.00  0.00     0.031 A 
ATOM     37  C   UNL A   1      38.496  30.650  31.222  1.00  0.00     0.074 A 
ATOM     38  C   UNL A   1      39.117  29.385  29.198  1.00  0.00     0.049 A 
ATOM     39  N   UNL A   1      39.495  30.354  32.019  1.00  0.00    -0.248 NA
ATOM     40  C   UNL A   1      37.511  31.564  31.821  1.00  0.00     0.031 C 
ATOM     41  C   UNL A   1      39.022  28.915  27.816  1.00  0.00     0.029 A 
ATOM     42  N   UNL A   1      40.264  28.795  29.672  1.00  0.00    -0.354 N 
ATOM     43  C   UNL A   1      39.268  31.061  33.194  1.00  0.00     0.074 A 
ATOM     44  C   UNL A   1      38.068  31.842  32.989  1.00  0.00     0.031 C 
ATOM     45  C   UNL A   1      40.051  28.089  27.562  1.00  0.00     0.029 A 
ATOM     46  C   UNL A   1      40.894  27.992  28.753  1.00  0.00     0.049 A 
ATOM     47  H   UNL A   1      40.604  28.935  30.586  1.00  0.00     0.167 HD
ATOM     48  C   UNL A   1      39.974  31.044  34.352  1.00  0.00     0.037 A 
ATOM     49  C   UNL A   1      42.018  27.257  28.856  1.00  0.00     0.037 A 
ATOM     50  C   UNL A   1      41.147  30.240  34.578  1.00  0.00     0.049 A 
ATOM     51  C   UNL A   1      42.764  27.220  30.164  1.00  0.00     0.074 A 
ATOM     52  C   UNL A   1      41.907  30.122  35.730  1.00  0.00     0.029 A 
ATOM     53  N   UNL A   1      41.724  29.405  33.633  1.00  0.00    -0.354 N 
ATOM     54  N   UNL A   1      42.508  27.854  31.282  1.00  0.00    -0.248 NA
ATOM     55  C   UNL A   1      43.948  26.349  30.227  1.00  0.00     0.031 C 
ATOM     56  C   UNL A   1      42.961  29.239  35.472  1.00  0.00     0.029 A 
ATOM     57  C   UNL A   1      42.832  28.773  34.173  1.00  0.00     0.049 A 
ATOM     58  H   UNL A   1      41.395  29.281  32.713  1.00  0.00     0.167 HD
ATOM     59  C   UNL A   1      43.477  27.441  32.187  1.00  0.00     0.074 A 
ATOM     60  C   UNL A   1      44.319  26.489  31.492  1.00  0.00     0.031 C 
ATOM     61  C   UNL A   1      43.653  27.817  33.477  1.00  0.00     0.037 A 
BRANCH  48  62
ATOM     62  C   UNL A   1      39.487  31.920  35.471  1.00  0.00     0.064 A 
ATOM     63  C   UNL A   1      39.930  33.244  35.613  1.00  0.00     0.173 A 
ATOM     64  C   UNL A   1      38.552  31.439  36.401  1.00  0.00     0.173 A 
ATOM     65  F   UNL A   1      40.831  33.750  34.756  1.00  0.00    -0.203 F 
ATOM     66  C   UNL A   1      39.485  34.041  36.664  1.00  0.00     0.198 A 
ATOM     67  C   UNL A   1      38.086  32.250  37.433  1.00  0.00     0.198 A 
ATOM     68  F   UNL A   1      38.089  30.184  36.307  1.00  0.00    -0.203 F 
ATOM     69  F   UNL A   1      39.967  35.283  36.811  1.00  0.00    -0.200 F 
ATOM     70  C   UNL A   1      38.560  33.546  37.570  1.00  0.00     0.200 A 
ATOM     71  F   UNL A   1      37.182  31.775  38.301  1.00  0.00    -0.200 F 
ATOM     72  F   UNL A   1      38.132  34.315  38.581  1.00  0.00    -0.200 F 
ENDBRANCH  48  62
BRANCH  49  73
ATOM     73  C   UNL A   1      42.486  26.458  27.693  1.00  0.00     0.064 A 
ATOM     74  C   UNL A   1      43.445  26.970  26.807  1.00  0.00     0.173 A 
ATOM     75  C   UNL A   1      41.992  25.170  27.447  1.00  0.00     0.173 A 
ATOM     76  F   UNL A   1      43.932  28.206  26.989  1.00  0.00    -0.203 F 
ATOM     77  C   UNL A   1      43.878  26.230  25.709  1.00  0.00     0.198 A 
ATOM     78  C   UNL A   1      42.446  24.419  26.365  1.00  0.00     0.198 A 
ATOM     79  F   UNL A   1      41.079  24.633  28.270  1.00  0.00    -0.203 F 
ATOM     80  F   UNL A   1      44.764  26.758  24.855  1.00  0.00    -0.200 F 
ATOM     81  C   UNL A   1      43.383  24.953  25.493  1.00  0.00     0.200 A 
ATOM     82  F   UNL A   1      41.977  23.179  26.168  1.00  0.00    -0.200 F 
ATOM     83  F   UNL A   1      43.806  24.237  24.441  1.00  0.00    -0.200 F 
ENDBRANCH  49  73
BRANCH  61  84
ATOM     84  C   UNL A   1      44.776  27.172  34.235  1.00  0.00     0.064 A 
ATOM     85  C   UNL A   1      46.055  27.745  34.286  1.00  0.00     0.173 A 
ATOM     86  C   UNL A   1      44.558  25.984  34.949  1.00  0.00     0.173 A 
ATOM     87  F   UNL A   1      46.317  28.874  33.611  1.00  0.00    -0.203 F 
ATOM     88  C   UNL A   1      47.083  27.135  35.002  1.00  0.00     0.198 A 
ATOM     89  C   UNL A   1      45.581  25.392  35.685  1.00  0.00     0.198 A 
ATOM     90  F   UNL A   1      43.350  25.400  34.938  1.00  0.00    -0.203 F 
ATOM     91  F   UNL A   1      48.310  27.675  34.999  1.00  0.00    -0.200 F 
ATOM     92  C   UNL A   1      46.844  25.963  35.704  1.00  0.00     0.200 A 
ATOM     93  F   UNL A   1      45.345  24.266  36.372  1.00  0.00    -0.200 F 
ATOM     94  F   UNL A   1      47.834  25.380  36.394  1.00  0.00    -0.200 F 
ENDBRANCH  61  84
ENDBRANCH  35  36
ENDBRANCH  27  30
ENDBRANCH  25  26
ENDBRANCH  24  25
ENDBRANCH   1  24
TORSDOF 13
ENDMDL
MODEL 2
REMARK VINA RESULT:     -12.3      4.259      9.314
REMARK SMILES C[C@H](C(=O)NCCCNC(=O)c1ccc(-c2c3nc(c(-c4c(F)c(F)c(F)c(F)c4F)c4ccc([nH]4)c(-c4c(F)c(F)c(F)c(F)c4F)c4nc(c(-c5c(F)c(F)c(F)c(F)c5F)c5ccc2[nH]5)C=C4)C=C3)cc1)[C@H](C)[NH+]1CCN(c2ccccc2Cl)CC1
REMARK SMILES IDX 6 1 5 2 3 3 4 4 2 6 1 7 75 8 76 9 77 10 78 11 89 12 79 14
REMARK SMILES IDX 88 15 80 16 81 17 82 18 86 19 83 20 85 21 87 22 84 23 7 24
REMARK SMILES IDX 8 25 9 26 10 27 11 29 12 30 13 31 74 32 14 33 73 34 15 35
REMARK SMILES IDX 16 36 17 37 67 38 18 39 72 40 66 41 68 42 19 43 71 44 65 45
REMARK SMILES IDX 64 46 20 48 52 49 32 50 51 51 33 52 36 53 50 54 69 55 34 56
REMARK SMILES IDX 35 57 49 59 70 60 37 61 21 62 22 63 30 64 23 65 24 66 28 67
REMARK SMILES IDX 31 68 25 69 26 70 29 71 27 72 53 73 54 74 62 75 55 76 56 77
REMARK SMILES IDX 60 78 63 79 57 80 58 81 61 82 59 83 38 84 39 85 47 86 40 87
REMARK SMILES IDX 41 88 45 89 48 90 42 91 43 92 46 93 44 94
REMARK H PARENT 5 5 77 13 9 28 68 47 36 58
REMARK Flexibility Score: inf
ROOT
ATOM      1  C   UNL A   1      35.647  20.681  25.054  1.00  0.00     0.117 C 
ENDROOT
BRANCH   1   2
ATOM      2  N   UNL A   1      34.348  20.033  24.988  1.00  0.00    -0.356 N 
ATOM      3  C   UNL A   1      33.090  20.501  24.793  1.00  0.00     0.228 C 
ATOM      4  O   UNL A   1      32.212  19.725  25.203  1.00  0.00    -0.275 OA
ATOM      5  H   UNL A   1      34.391  19.057  25.108  1.00  0.00     0.163 HD
BRANCH   3   6
ATOM      6  C   UNL A   1      32.685  21.745  23.957  1.00  0.00     0.133 C 
ATOM      7  C   UNL A   1      32.059  21.226  22.637  1.00  0.00     0.024 C 
BRANCH   6   8
ATOM      8  C   UNL A   1      31.791  22.931  24.478  1.00  0.00     0.193 C 
ATOM      9  C   UNL A   1      30.953  23.440  23.284  1.00  0.00     0.076 C 
BRANCH   8  10
ATOM     10  N   UNL A   1      32.511  23.954  25.236  1.00  0.00    -0.329 N 
ATOM     11  C   UNL A   1      33.437  24.865  24.530  1.00  0.00     0.284 C 
ATOM     12  C   UNL A   1      31.647  24.676  26.201  1.00  0.00     0.284 C 
ATOM     13  H   UNL A   1      33.169  23.361  25.742  1.00  0.00     0.348 HD
ATOM     14  C   UNL A   1      32.891  26.241  24.090  1.00  0.00     0.178 C 
ATOM     15  C   UNL A   1      31.139  26.077  25.797  1.00  0.00     0.178 C 
ATOM     16  N   UNL A   1      32.221  26.879  25.228  1.00  0.00    -0.359 N 
BRANCH  16  17
ATOM     17  C   UNL A   1      32.734  28.024  25.813  1.00  0.00     0.056 A 
ATOM     18  C   UNL A   1      33.826  27.877  26.693  1.00  0.00     0.027 A 
ATOM     19  C   UNL A   1      32.281  29.349  25.608  1.00  0.00     0.064 A 
ATOM     20  C   UNL A   1      34.450  28.968  27.311  1.00  0.00     0.002 A 
ATOM     21  C   UNL A   1      32.904  30.444  26.231  1.00  0.00     0.023 A 
ATOM     22  Cl  UNL A   1      30.887  29.764  24.669  1.00  0.00    -0.082 Cl
ATOM     23  C   UNL A   1      33.991  30.257  27.075  1.00  0.00     0.002 A 
ENDBRANCH  16  17
ENDBRANCH   8  10
ENDBRANCH   6   8
ENDBRANCH   3   6
ENDBRANCH   1   2
BRANCH   1  24
ATOM     24  C   UNL A   1      35.570  21.941  25.923  1.00  0.00     0.042 C 
BRANCH  24  25
ATOM     25  C   UNL A   1      36.724  22.929  25.812  1.00  0.00     0.118 C 
BRANCH  25  26
ATOM     26  N   UNL A   1      38.018  22.292  25.977  1.00  0.00    -0.352 N 
ATOM     27  C   UNL A   1      39.238  22.766  26.389  1.00  0.00     0.251 C 
ATOM     28  H   UNL A   1      38.022  21.335  25.747  1.00  0.00     0.163 HD
ATOM     29  O   UNL A   1      40.210  22.015  26.257  1.00  0.00    -0.269 OA
BRANCH  27  30
ATOM     30  C   UNL A   1      39.460  24.116  26.984  1.00  0.00     0.039 A 
ATOM     31  C   UNL A   1      40.050  25.095  26.166  1.00  0.00     0.014 A 
ATOM     32  C   UNL A   1      39.230  24.432  28.325  1.00  0.00     0.014 A 
ATOM     33  C   UNL A   1      40.398  26.352  26.678  1.00  0.00     0.010 A 
ATOM     34  C   UNL A   1      39.492  25.719  28.814  1.00  0.00     0.010 A 
ATOM     35  C   UNL A   1      40.116  26.683  28.010  1.00  0.00    -0.014 A 
BRANCH  35  36
ATOM     36  C   UNL A   1      40.549  27.990  28.584  1.00  0.00     0.031 A 
ATOM     37  C   UNL A   1      42.003  28.237  28.902  1.00  0.00     0.074 A 
ATOM     38  C   UNL A   1      39.646  28.959  28.834  1.00  0.00     0.049 A 
ATOM     39  N   UNL A   1      42.574  29.296  29.425  1.00  0.00    -0.248 NA
ATOM     40  C   UNL A   1      42.939  27.138  28.621  1.00  0.00     0.031 C 
ATOM     41  C   UNL A   1      38.203  28.845  28.617  1.00  0.00     0.029 A 
ATOM     42  N   UNL A   1      39.809  30.230  29.327  1.00  0.00    -0.354 N 
ATOM     43  C   UNL A   1      43.921  28.979  29.554  1.00  0.00     0.074 A 
ATOM     44  C   UNL A   1      44.075  27.612  29.107  1.00  0.00     0.031 C 
ATOM     45  C   UNL A   1      37.617  30.007  28.951  1.00  0.00     0.029 A 
ATOM     46  C   UNL A   1      38.636  30.938  29.431  1.00  0.00     0.049 A 
ATOM     47  H   UNL A   1      40.685  30.601  29.584  1.00  0.00     0.167 HD
ATOM     48  C   UNL A   1      44.946  29.759  29.978  1.00  0.00     0.037 A 
ATOM     49  C   UNL A   1      38.406  32.196  29.857  1.00  0.00     0.037 A 
ATOM     50  C   UNL A   1      44.809  31.132  30.387  1.00  0.00     0.049 A 
ATOM     51  C   UNL A   1      39.564  33.059  30.285  1.00  0.00     0.074 A 
ATOM     52  C   UNL A   1      45.793  32.018  30.794  1.00  0.00     0.029 A 
ATOM     53  N   UNL A   1      43.607  31.824  30.432  1.00  0.00    -0.354 N 
ATOM     54  N   UNL A   1      40.839  32.761  30.351  1.00  0.00    -0.248 NA
ATOM     55  C   UNL A   1      39.251  34.440  30.680  1.00  0.00     0.031 C 
ATOM     56  C   UNL A   1      45.183  33.236  31.113  1.00  0.00     0.029 A 
ATOM     57  C   UNL A   1      43.825  33.123  30.863  1.00  0.00     0.049 A 
ATOM     58  H   UNL A   1      42.729  31.447  30.194  1.00  0.00     0.167 HD
ATOM     59  C   UNL A   1      41.481  33.919  30.768  1.00  0.00     0.074 A 
ATOM     60  C   UNL A   1      40.458  34.932  30.924  1.00  0.00     0.031 C 
ATOM     61  C   UNL A   1      42.801  34.125  31.001  1.00  0.00     0.037 A 
BRANCH  48  62
ATOM     62  C   UNL A   1      46.316  29.143  30.010  1.00  0.00     0.064 A 
ATOM     63  C   UNL A   1      46.805  28.502  31.159  1.00  0.00     0.173 A 
ATOM     64  C   UNL A   1      47.142  29.174  28.876  1.00  0.00     0.173 A 
ATOM     65  F   UNL A   1      46.060  28.452  32.273  1.00  0.00    -0.203 F 
ATOM     66  C   UNL A   1      48.083  27.949  31.183  1.00  0.00     0.198 A 
ATOM     67  C   UNL A   1      48.407  28.592  28.894  1.00  0.00     0.198 A 
ATOM     68  F   UNL A   1      46.721  29.765  27.749  1.00  0.00    -0.203 F 
ATOM     69  F   UNL A   1      48.549  27.393  32.310  1.00  0.00    -0.200 F 
ATOM     70  C   UNL A   1      48.881  27.990  30.050  1.00  0.00     0.200 A 
ATOM     71  F   UNL A   1      49.173  28.621  27.795  1.00  0.00    -0.200 F 
ATOM     72  F   UNL A   1      50.110  27.457  30.075  1.00  0.00    -0.200 F 
ENDBRANCH  48  62
BRANCH  49  73
ATOM     73  C   UNL A   1      37.020  32.731  29.861  1.00  0.00     0.064 A 
ATOM     74  C   UNL A   1      36.217  32.642  31.008  1.00  0.00     0.173 A 
ATOM     75  C   UNL A   1      36.472  33.345  28.727  1.00  0.00     0.173 A 
ATOM     76  F   UNL A   1      36.690  32.045  32.111  1.00  0.00    -0.203 F 
ATOM     77  C   UNL A   1      34.913  33.132  31.013  1.00  0.00     0.198 A 
ATOM     78  C   UNL A   1      35.177  33.860  28.741  1.00  0.00     0.198 A 
ATOM     79  F   UNL A   1      37.202  33.461  27.607  1.00  0.00    -0.203 F 
ATOM     80  F   UNL A   1      34.153  32.998  32.108  1.00  0.00    -0.200 F 
ATOM     81  C   UNL A   1      34.397  33.746  29.882  1.00  0.00     0.200 A 
ATOM     82  F   UNL A   1      34.687  34.466  27.651  1.00  0.00    -0.200 F 
ATOM     83  F   UNL A   1      33.145  34.225  29.888  1.00  0.00    -0.200 F 
ENDBRANCH  49  73
BRANCH  61  84
ATOM     84  C   UNL A   1      43.220  35.506  31.413  1.00  0.00     0.064 A 
ATOM     85  C   UNL A   1      43.243  35.899  32.759  1.00  0.00     0.173 A 
ATOM     86  C   UNL A   1      43.639  36.436  30.449  1.00  0.00     0.173 A 
ATOM     87  F   UNL A   1      42.840  35.050  33.717  1.00  0.00    -0.203 F 
ATOM     88  C   UNL A   1      43.643  37.183  33.122  1.00  0.00     0.198 A 
ATOM     89  C   UNL A   1      44.064  37.709  30.819  1.00  0.00     0.198 A 
ATOM     90  F   UNL A   1      43.643  36.107  29.149  1.00  0.00    -0.203 F 
ATOM     91  F   UNL A   1      43.612  37.551  34.411  1.00  0.00    -0.200 F 
ATOM     92  C   UNL A   1      44.057  38.084  32.154  1.00  0.00     0.200 A 
ATOM     93  F   UNL A   1      44.474  38.575  29.882  1.00  0.00    -0.200 F 
ATOM     94  F   UNL A   1      44.445  39.318  32.506  1.00  0.00    -0.200 F 
ENDBRANCH  61  84
ENDBRANCH  35  36
ENDBRANCH  27  30
ENDBRANCH  25  26
ENDBRANCH  24  25
ENDBRANCH   1  24
TORSDOF 13
ENDMDL
MODEL 3
REMARK VINA RESULT:     -12.3      2.143      7.791
REMARK SMILES C[C@H](C(=O)NCCCNC(=O)c1ccc(-c2c3nc(c(-c4c(F)c(F)c(F)c(F)c4F)c4ccc([nH]4)c(-c4c(F)c(F)c(F)c(F)c4F)c4nc(c(-c5c(F)c(F)c(F)c(F)c5F)c5ccc2[nH]5)C=C4)C=C3)cc1)[C@H](C)[NH+]1CCN(c2ccccc2Cl)CC1
REMARK SMILES IDX 6 1 5 2 3 3 4 4 2 6 1 7 75 8 76 9 77 10 78 11 89 12 79 14
REMARK SMILES IDX 88 15 80 16 81 17 82 18 86 19 83 20 85 21 87 22 84 23 7 24
REMARK SMILES IDX 8 25 9 26 10 27 11 29 12 30 13 31 74 32 14 33 73 34 15 35
REMARK SMILES IDX 16 36 17 37 67 38 18 39 72 40 66 41 68 42 19 43 71 44 65 45
REMARK SMILES IDX 64 46 20 48 52 49 32 50 51 51 33 52 36 53 50 54 69 55 34 56
REMARK SMILES IDX 35 57 49 59 70 60 37 61 21 62 22 63 30 64 23 65 24 66 28 67
REMARK SMILES IDX 31 68 25 69 26 70 29 71 27 72 53 73 54 74 62 75 55 76 56 77
REMARK SMILES IDX 60 78 63 79 57 80 58 81 61 82 59 83 38 84 39 85 47 86 40 87
REMARK SMILES IDX 41 88 45 89 48 90 42 91 43 92 46 93 44 94
REMARK H PARENT 5 5 77 13 9 28 68 47 36 58
REMARK Flexibility Score: inf
ROOT
ATOM      1  C   UNL A   1      31.428  30.768  26.614  1.00  0.00     0.117 C 
ENDROOT
BRANCH   1   2
ATOM      2  N   UNL A   1      32.078  30.385  25.373  1.00  0.00    -0.356 N 
ATOM      3  C   UNL A   1      32.135  29.220  24.680  1.00  0.00     0.228 C 
ATOM      4  O   UNL A   1      33.102  29.161  23.903  1.00  0.00    -0.275 OA
ATOM      5  H   UNL A   1      32.579  31.119  24.950  1.00  0.00     0.163 HD
BRANCH   3   6
ATOM      6  C   UNL A   1      31.039  28.122  24.624  1.00  0.00     0.133 C 
ATOM      7  C   UNL A   1      30.167  28.407  23.374  1.00  0.00     0.024 C 
BRANCH   6   8
ATOM      8  C   UNL A   1      31.309  26.573  24.678  1.00  0.00     0.193 C 
ATOM      9  C   UNL A   1      30.369  25.974  25.749  1.00  0.00     0.076 C 
BRANCH   8  10
ATOM     10  N   UNL A   1      32.719  26.199  24.784  1.00  0.00    -0.329 N 
ATOM     11  C   UNL A   1      33.228  25.635  26.053  1.00  0.00     0.284 C 
ATOM     12  C   UNL A   1      33.211  25.449  23.603  1.00  0.00     0.284 C 
ATOM     13  H   UNL A   1      33.141  27.128  24.801  1.00  0.00     0.348 HD
ATOM     14  C   UNL A   1      33.294  24.097  26.176  1.00  0.00     0.178 C 
ATOM     15  C   UNL A   1      33.335  23.915  23.731  1.00  0.00     0.178 C 
ATOM     16  N   UNL A   1      33.971  23.549  24.996  1.00  0.00    -0.359 N 
BRANCH  16  17
ATOM     17  C   UNL A   1      35.207  22.935  25.098  1.00  0.00     0.056 A 
ATOM     18  C   UNL A   1      36.334  23.760  25.293  1.00  0.00     0.027 A 
ATOM     19  C   UNL A   1      35.464  21.544  25.040  1.00  0.00     0.064 A 
ATOM     20  C   UNL A   1      37.628  23.247  25.449  1.00  0.00     0.002 A 
ATOM     21  C   UNL A   1      36.763  21.029  25.193  1.00  0.00     0.023 A 
ATOM     22  Cl  UNL A   1      34.262  20.349  24.691  1.00  0.00    -0.082 Cl
ATOM     23  C   UNL A   1      37.843  21.877  25.404  1.00  0.00     0.002 A 
ENDBRANCH  16  17
ENDBRANCH   8  10
ENDBRANCH   6   8
ENDBRANCH   3   6
ENDBRANCH   1   2
BRANCH   1  24
ATOM     24  C   UNL A   1      31.385  32.295  26.745  1.00  0.00     0.042 C 
BRANCH  24  25
ATOM     25  C   UNL A   1      32.697  32.997  27.072  1.00  0.00     0.118 C 
BRANCH  25  26
ATOM     26  N   UNL A   1      32.494  34.327  27.617  1.00  0.00    -0.352 N 
ATOM     27  C   UNL A   1      33.010  34.966  28.715  1.00  0.00     0.251 C 
ATOM     28  H   UNL A   1      31.862  34.876  27.099  1.00  0.00     0.163 HD
ATOM     29  O   UNL A   1      32.507  36.051  29.025  1.00  0.00    -0.269 OA
BRANCH  27  30
ATOM     30  C   UNL A   1      34.131  34.440  29.547  1.00  0.00     0.039 A 
ATOM     31  C   UNL A   1      35.419  34.455  28.983  1.00  0.00     0.014 A 
ATOM     32  C   UNL A   1      33.966  33.830  30.792  1.00  0.00     0.014 A 
ATOM     33  C   UNL A   1      36.507  33.877  29.648  1.00  0.00     0.010 A 
ATOM     34  C   UNL A   1      35.071  33.334  31.500  1.00  0.00     0.010 A 
ATOM     35  C   UNL A   1      36.347  33.314  30.922  1.00  0.00    -0.014 A 
BRANCH  35  36
ATOM     36  C   UNL A   1      37.482  32.630  31.607  1.00  0.00     0.031 A 
ATOM     37  C   UNL A   1      38.184  31.470  30.943  1.00  0.00     0.074 A 
ATOM     38  C   UNL A   1      37.887  33.034  32.827  1.00  0.00     0.049 A 
ATOM     39  N   UNL A   1      39.175  30.732  31.384  1.00  0.00    -0.248 NA
ATOM     40  C   UNL A   1      37.689  31.067  29.619  1.00  0.00     0.031 C 
ATOM     41  C   UNL A   1      37.276  34.111  33.606  1.00  0.00     0.029 A 
ATOM     42  N   UNL A   1      38.908  32.582  33.628  1.00  0.00    -0.354 N 
ATOM     43  C   UNL A   1      39.401  29.772  30.405  1.00  0.00     0.074 A 
ATOM     44  C   UNL A   1      38.411  29.984  29.373  1.00  0.00     0.031 C 
ATOM     45  C   UNL A   1      37.950  34.255  34.760  1.00  0.00     0.029 A 
ATOM     46  C   UNL A   1      39.022  33.263  34.816  1.00  0.00     0.049 A 
ATOM     47  H   UNL A   1      39.503  31.839  33.375  1.00  0.00     0.167 HD
ATOM     48  C   UNL A   1      40.361  28.816  30.351  1.00  0.00     0.037 A 
ATOM     49  C   UNL A   1      39.893  33.112  35.832  1.00  0.00     0.037 A 
ATOM     50  C   UNL A   1      41.375  28.622  31.354  1.00  0.00     0.049 A 
ATOM     51  C   UNL A   1      40.977  32.071  35.733  1.00  0.00     0.074 A 
ATOM     52  C   UNL A   1      42.415  27.708  31.370  1.00  0.00     0.029 A 
ATOM     53  N   UNL A   1      41.481  29.366  32.520  1.00  0.00    -0.354 N 
ATOM     54  N   UNL A   1      41.209  31.205  34.777  1.00  0.00    -0.248 NA
ATOM     55  C   UNL A   1      41.932  32.000  36.849  1.00  0.00     0.031 C 
ATOM     56  C   UNL A   1      43.133  27.880  32.559  1.00  0.00     0.029 A 
ATOM     57  C   UNL A   1      42.565  28.929  33.263  1.00  0.00     0.049 A 
ATOM     58  H   UNL A   1      40.873  30.096  32.782  1.00  0.00     0.167 HD
ATOM     59  C   UNL A   1      42.347  30.507  35.161  1.00  0.00     0.074 A 
ATOM     60  C   UNL A   1      42.768  31.060  36.431  1.00  0.00     0.031 C 
ATOM     61  C   UNL A   1      42.983  29.497  34.519  1.00  0.00     0.037 A 
BRANCH  48  62
ATOM     62  C   UNL A   1      40.365  27.908  29.154  1.00  0.00     0.064 A 
ATOM     63  C   UNL A   1      41.130  28.199  28.014  1.00  0.00     0.173 A 
ATOM     64  C   UNL A   1      39.611  26.724  29.151  1.00  0.00     0.173 A 
ATOM     65  F   UNL A   1      41.861  29.323  27.960  1.00  0.00    -0.203 F 
ATOM     66  C   UNL A   1      41.112  27.359  26.903  1.00  0.00     0.198 A 
ATOM     67  C   UNL A   1      39.620  25.871  28.051  1.00  0.00     0.198 A 
ATOM     68  F   UNL A   1      38.869  26.393  30.218  1.00  0.00    -0.203 F 
ATOM     69  F   UNL A   1      41.807  27.689  25.806  1.00  0.00    -0.200 F 
ATOM     70  C   UNL A   1      40.362  26.194  26.924  1.00  0.00     0.200 A 
ATOM     71  F   UNL A   1      38.905  24.738  28.076  1.00  0.00    -0.200 F 
ATOM     72  F   UNL A   1      40.346  25.386  25.854  1.00  0.00    -0.200 F 
ENDBRANCH  48  62
BRANCH  49  73
ATOM     73  C   UNL A   1      39.801  34.000  37.020  1.00  0.00     0.064 A 
ATOM     74  C   UNL A   1      39.049  33.625  38.143  1.00  0.00     0.173 A 
ATOM     75  C   UNL A   1      40.466  35.233  37.061  1.00  0.00     0.173 A 
ATOM     76  F   UNL A   1      38.379  32.464  38.143  1.00  0.00    -0.203 F 
ATOM     77  C   UNL A   1      38.951  34.460  39.255  1.00  0.00     0.198 A 
ATOM     78  C   UNL A   1      40.389  36.055  38.184  1.00  0.00     0.198 A 
ATOM     79  F   UNL A   1      41.204  35.634  36.016  1.00  0.00    -0.203 F 
ATOM     80  F   UNL A   1      38.192  34.097  40.297  1.00  0.00    -0.200 F 
ATOM     81  C   UNL A   1      39.625  35.671  39.277  1.00  0.00     0.200 A 
ATOM     82  F   UNL A   1      41.056  37.218  38.208  1.00  0.00    -0.200 F 
ATOM     83  F   UNL A   1      39.538  36.470  40.349  1.00  0.00    -0.200 F 
ENDBRANCH  49  73
BRANCH  61  84
ATOM     84  C   UNL A   1      44.226  28.949  35.158  1.00  0.00     0.064 A 
ATOM     85  C   UNL A   1      45.493  29.480  34.880  1.00  0.00     0.173 A 
ATOM     86  C   UNL A   1      44.141  27.901  36.087  1.00  0.00     0.173 A 
ATOM     87  F   UNL A   1      45.628  30.475  33.989  1.00  0.00    -0.203 F 
ATOM     88  C   UNL A   1      46.634  28.963  35.489  1.00  0.00     0.198 A 
ATOM     89  C   UNL A   1      45.281  27.405  36.714  1.00  0.00     0.198 A 
ATOM     90  F   UNL A   1      42.951  27.363  36.393  1.00  0.00    -0.203 F 
ATOM     91  F   UNL A   1      47.841  29.456  35.173  1.00  0.00    -0.200 F 
ATOM     92  C   UNL A   1      46.526  27.931  36.408  1.00  0.00     0.200 A 
ATOM     93  F   UNL A   1      45.174  26.414  37.610  1.00  0.00    -0.200 F 
ATOM     94  F   UNL A   1      47.626  27.437  36.995  1.00  0.00    -0.200 F 
ENDBRANCH  61  84
ENDBRANCH  35  36
ENDBRANCH  27  30
ENDBRANCH  25  26
ENDBRANCH  24  25
ENDBRANCH   1  24
TORSDOF 13
ENDMDL
