MODEL 1
REMARK VINA RESULT:     -12.7      0.000      0.000
REMARK SMILES CNC(=O)c1cccc(-c2ccc(C(=O)NCCCNC(=O)c3ccc(-c4c5nc(c(-c6c(F)c(F)c(F)c(F)c6F)c6ccc([nH]6)c(-c6c(F)c(F)c(F)c(F)c6F)c6nc(c(-c7c(F)c(F)c(F)c(F)c7F)c7ccc4[nH]7)C=C6)C=C5)cc3)cc2O)c1
REMARK SMILES IDX 18 1 17 2 16 3 14 4 15 5 13 7 10 8 11 9 87 10 12 11 86 12
REMARK SMILES IDX 9 13 5 14 6 15 89 16 7 17 8 18 3 19 1 20 2 21 4 23 88 24
REMARK SMILES IDX 19 26 20 27 21 28 22 30 23 31 24 32 85 33 25 34 84 35 26 36
REMARK SMILES IDX 27 37 28 38 78 39 29 40 83 41 77 42 79 43 30 44 82 45 76 46
REMARK SMILES IDX 75 47 31 49 63 50 43 51 62 52 44 53 47 54 61 55 80 56 45 57
REMARK SMILES IDX 46 58 60 60 81 61 48 62 32 63 33 64 41 65 34 66 35 67 39 68
REMARK SMILES IDX 42 69 36 70 37 71 40 72 38 73 64 74 65 75 73 76 66 77 67 78
REMARK SMILES IDX 71 79 74 80 68 81 69 82 72 83 70 84 49 85 50 86 58 87 51 88
REMARK SMILES IDX 52 89 56 90 59 91 53 92 54 93 57 94 55 95
REMARK H PARENT 16 6 2 22 88 25 20 29 79 48 47 59
REMARK Flexibility Score: inf
ROOT
ATOM      1  C   UNL A   1      38.248  19.199  24.990  1.00  0.00     0.042 C 
ENDROOT
BRANCH   1   2
ATOM      2  C   UNL A   1      36.952  20.010  25.001  1.00  0.00     0.118 C 
BRANCH   2   3
ATOM      3  N   UNL A   1      35.782  19.151  24.943  1.00  0.00    -0.352 N 
ATOM      4  C   UNL A   1      34.440  19.430  25.001  1.00  0.00     0.251 C 
ATOM      5  O   UNL A   1      33.650  18.505  24.814  1.00  0.00    -0.269 OA
ATOM      6  H   UNL A   1      35.990  18.193  24.842  1.00  0.00     0.163 HD
BRANCH   4   7
ATOM      7  C   UNL A   1      33.905  20.796  25.244  1.00  0.00     0.043 A 
ATOM      8  C   UNL A   1      32.858  23.418  25.554  1.00  0.00     0.024 A 
ATOM      9  C   UNL A   1      33.285  22.955  24.299  1.00  0.00     0.013 A 
ATOM     10  C   UNL A   1      32.940  22.527  26.635  1.00  0.00     0.124 A 
ATOM     11  C   UNL A   1      33.804  21.661  24.146  1.00  0.00     0.015 A 
ATOM     12  C   UNL A   1      33.438  21.234  26.481  1.00  0.00     0.060 A 
BRANCH   8  13
ATOM     13  C   UNL A   1      32.318  24.775  25.703  1.00  0.00    -0.014 A 
ATOM     14  C   UNL A   1      32.664  27.171  25.983  1.00  0.00     0.040 A 
ATOM     15  C   UNL A   1      31.292  27.345  26.190  1.00  0.00     0.014 A 
ATOM     16  C   UNL A   1      33.175  25.888  25.751  1.00  0.00     0.022 A 
ATOM     17  C   UNL A   1      30.429  26.252  26.126  1.00  0.00     0.001 A 
ATOM     18  C   UNL A   1      30.939  24.976  25.879  1.00  0.00     0.009 A 
BRANCH  14  19
ATOM     19  C   UNL A   1      33.553  28.344  26.156  1.00  0.00     0.251 C 
ATOM     20  C   UNL A   1      33.651  28.953  23.686  1.00  0.00     0.143 C 
ATOM     21  N   UNL A   1      34.028  29.040  25.077  1.00  0.00    -0.355 N 
ATOM     22  H   UNL A   1      34.732  29.698  25.280  1.00  0.00     0.163 HD
ATOM     23  O   UNL A   1      33.868  28.691  27.291  1.00  0.00    -0.269 OA
ENDBRANCH  14  19
ENDBRANCH   8  13
BRANCH  10  24
ATOM     24  O   UNL A   1      32.523  22.845  27.901  1.00  0.00    -0.507 OA
ATOM     25  H   UNL A   1      31.616  22.777  28.126  1.00  0.00     0.293 HD
ENDBRANCH  10  24
ENDBRANCH   4   7
ENDBRANCH   2   3
ENDBRANCH   1   2
BRANCH   1  26
ATOM     26  C   UNL A   1      39.355  19.798  25.850  1.00  0.00     0.118 C 
BRANCH  26  27
ATOM     27  N   UNL A   1      40.495  18.904  25.980  1.00  0.00    -0.352 N 
ATOM     28  C   UNL A   1      41.828  19.192  26.126  1.00  0.00     0.251 C 
ATOM     29  H   UNL A   1      40.276  17.944  25.958  1.00  0.00     0.163 HD
ATOM     30  O   UNL A   1      42.657  18.294  26.013  1.00  0.00    -0.269 OA
BRANCH  28  31
ATOM     31  C   UNL A   1      42.281  20.572  26.412  1.00  0.00     0.039 A 
ATOM     32  C   UNL A   1      42.645  21.392  25.337  1.00  0.00     0.014 A 
ATOM     33  C   UNL A   1      42.406  21.044  27.721  1.00  0.00     0.014 A 
ATOM     34  C   UNL A   1      43.091  22.694  25.573  1.00  0.00     0.010 A 
ATOM     35  C   UNL A   1      42.788  22.364  27.952  1.00  0.00     0.010 A 
ATOM     36  C   UNL A   1      43.145  23.197  26.881  1.00  0.00    -0.014 A 
BRANCH  36  37
ATOM     37  C   UNL A   1      43.590  24.587  27.152  1.00  0.00     0.031 A 
ATOM     38  C   UNL A   1      42.614  25.609  27.663  1.00  0.00     0.074 A 
ATOM     39  C   UNL A   1      44.859  24.944  26.879  1.00  0.00     0.049 A 
ATOM     40  N   UNL A   1      42.794  26.884  27.897  1.00  0.00    -0.248 NA
ATOM     41  C   UNL A   1      41.246  25.137  27.923  1.00  0.00     0.031 C 
ATOM     42  C   UNL A   1      45.889  24.054  26.344  1.00  0.00     0.029 A 
ATOM     43  N   UNL A   1      45.495  26.153  27.005  1.00  0.00    -0.354 N 
ATOM     44  C   UNL A   1      41.560  27.370  28.308  1.00  0.00     0.074 A 
ATOM     45  C   UNL A   1      40.629  26.263  28.249  1.00  0.00     0.031 C 
ATOM     46  C   UNL A   1      47.035  24.741  26.209  1.00  0.00     0.029 A 
ATOM     47  C   UNL A   1      46.810  26.125  26.615  1.00  0.00     0.049 A 
ATOM     48  H   UNL A   1      45.051  26.964  27.343  1.00  0.00     0.167 HD
ATOM     49  C   UNL A   1      41.237  28.621  28.716  1.00  0.00     0.037 A 
ATOM     50  C   UNL A   1      47.730  27.108  26.585  1.00  0.00     0.037 A 
ATOM     51  C   UNL A   1      42.172  29.712  28.800  1.00  0.00     0.049 A 
ATOM     52  C   UNL A   1      47.349  28.487  27.041  1.00  0.00     0.074 A 
ATOM     53  C   UNL A   1      41.961  30.997  29.265  1.00  0.00     0.029 A 
ATOM     54  N   UNL A   1      43.499  29.643  28.403  1.00  0.00    -0.354 N 
ATOM     55  N   UNL A   1      46.196  28.921  27.488  1.00  0.00    -0.248 NA
ATOM     56  C   UNL A   1      48.399  29.514  26.990  1.00  0.00     0.031 C 
ATOM     57  C   UNL A   1      43.151  31.719  29.113  1.00  0.00     0.029 A 
ATOM     58  C   UNL A   1      44.115  30.871  28.591  1.00  0.00     0.049 A 
ATOM     59  H   UNL A   1      43.940  28.841  28.040  1.00  0.00     0.167 HD
ATOM     60  C   UNL A   1      46.386  30.261  27.796  1.00  0.00     0.074 A 
ATOM     61  C   UNL A   1      47.769  30.568  27.493  1.00  0.00     0.031 C 
ATOM     62  C   UNL A   1      45.494  31.156  28.286  1.00  0.00     0.037 A 
BRANCH  49  63
ATOM     63  C   UNL A   1      39.806  28.873  29.097  1.00  0.00     0.064 A 
ATOM     64  C   UNL A   1      39.347  28.673  30.408  1.00  0.00     0.173 A 
ATOM     65  C   UNL A   1      38.884  29.327  28.142  1.00  0.00     0.173 A 
ATOM     66  F   UNL A   1      40.185  28.228  31.356  1.00  0.00    -0.203 F 
ATOM     67  C   UNL A   1      38.011  28.881  30.739  1.00  0.00     0.198 A 
ATOM     68  C   UNL A   1      37.555  29.563  28.484  1.00  0.00     0.198 A 
ATOM     69  F   UNL A   1      39.271  29.541  26.876  1.00  0.00    -0.203 F 
ATOM     70  F   UNL A   1      37.583  28.625  31.984  1.00  0.00    -0.200 F 
ATOM     71  C   UNL A   1      37.117  29.329  29.779  1.00  0.00     0.200 A 
ATOM     72  F   UNL A   1      36.695  30.007  27.557  1.00  0.00    -0.200 F 
ATOM     73  F   UNL A   1      35.830  29.526  30.098  1.00  0.00    -0.200 F 
ENDBRANCH  49  63
BRANCH  50  74
ATOM     74  C   UNL A   1      49.115  26.801  26.144  1.00  0.00     0.064 A 
ATOM     75  C   UNL A   1      50.058  26.299  27.051  1.00  0.00     0.173 A 
ATOM     76  C   UNL A   1      49.516  26.979  24.813  1.00  0.00     0.173 A 
ATOM     77  F   UNL A   1      49.723  26.132  28.339  1.00  0.00    -0.203 F 
ATOM     78  C   UNL A   1      51.353  25.989  26.645  1.00  0.00     0.198 A 
ATOM     79  C   UNL A   1      50.806  26.648  24.402  1.00  0.00     0.198 A 
ATOM     80  F   UNL A   1      48.649  27.453  23.907  1.00  0.00    -0.203 F 
ATOM     81  F   UNL A   1      52.243  25.537  27.538  1.00  0.00    -0.200 F 
ATOM     82  C   UNL A   1      51.724  26.157  25.319  1.00  0.00     0.200 A 
ATOM     83  F   UNL A   1      51.157  26.799  23.118  1.00  0.00    -0.200 F 
ATOM     84  F   UNL A   1      52.967  25.850  24.925  1.00  0.00    -0.200 F 
ENDBRANCH  50  74
BRANCH  62  85
ATOM     85  C   UNL A   1      45.994  32.545  28.553  1.00  0.00     0.064 A 
ATOM     86  C   UNL A   1      45.914  33.554  27.581  1.00  0.00     0.173 A 
ATOM     87  C   UNL A   1      46.526  32.880  29.807  1.00  0.00     0.173 A 
ATOM     88  F   UNL A   1      45.429  33.279  26.361  1.00  0.00    -0.203 F 
ATOM     89  C   UNL A   1      46.369  34.842  27.849  1.00  0.00     0.198 A 
ATOM     90  C   UNL A   1      46.955  34.176  30.080  1.00  0.00     0.198 A 
ATOM     91  F   UNL A   1      46.620  31.952  30.770  1.00  0.00    -0.203 F 
ATOM     92  F   UNL A   1      46.322  35.780  26.893  1.00  0.00    -0.200 F 
ATOM     93  C   UNL A   1      46.882  35.154  29.100  1.00  0.00     0.200 A 
ATOM     94  F   UNL A   1      47.441  34.478  31.291  1.00  0.00    -0.200 F 
ATOM     95  F   UNL A   1      47.313  36.396  29.358  1.00  0.00    -0.200 F 
ENDBRANCH  62  85
ENDBRANCH  36  37
ENDBRANCH  28  31
ENDBRANCH  26  27
ENDBRANCH   1  26
TORSDOF 13
ENDMDL
MODEL 2
REMARK VINA RESULT:     -12.7      2.092      8.076
REMARK SMILES CNC(=O)c1cccc(-c2ccc(C(=O)NCCCNC(=O)c3ccc(-c4c5nc(c(-c6c(F)c(F)c(F)c(F)c6F)c6ccc([nH]6)c(-c6c(F)c(F)c(F)c(F)c6F)c6nc(c(-c7c(F)c(F)c(F)c(F)c7F)c7ccc4[nH]7)C=C6)C=C5)cc3)cc2O)c1
REMARK SMILES IDX 18 1 17 2 16 3 14 4 15 5 13 7 10 8 11 9 87 10 12 11 86 12
REMARK SMILES IDX 9 13 5 14 6 15 89 16 7 17 8 18 3 19 1 20 2 21 4 23 88 24
REMARK SMILES IDX 19 26 20 27 21 28 22 30 23 31 24 32 85 33 25 34 84 35 26 36
REMARK SMILES IDX 27 37 28 38 78 39 29 40 83 41 77 42 79 43 30 44 82 45 76 46
REMARK SMILES IDX 75 47 31 49 63 50 43 51 62 52 44 53 47 54 61 55 80 56 45 57
REMARK SMILES IDX 46 58 60 60 81 61 48 62 32 63 33 64 41 65 34 66 35 67 39 68
REMARK SMILES IDX 42 69 36 70 37 71 40 72 38 73 64 74 65 75 73 76 66 77 67 78
REMARK SMILES IDX 71 79 74 80 68 81 69 82 72 83 70 84 49 85 50 86 58 87 51 88
REMARK SMILES IDX 52 89 56 90 59 91 53 92 54 93 57 94 55 95
REMARK H PARENT 16 6 2 22 88 25 20 29 79 48 47 59
REMARK Flexibility Score: inf
ROOT
ATOM      1  C   UNL A   1      42.666  18.735  26.784  1.00  0.00     0.042 C 
ENDROOT
BRANCH   1   2
ATOM      2  C   UNL A   1      41.622  19.453  27.640  1.00  0.00     0.118 C 
BRANCH   2   3
ATOM      3  N   UNL A   1      42.108  20.735  28.115  1.00  0.00    -0.352 N 
ATOM      4  C   UNL A   1      41.581  22.000  28.032  1.00  0.00     0.251 C 
ATOM      5  O   UNL A   1      42.162  22.906  28.629  1.00  0.00    -0.269 OA
ATOM      6  H   UNL A   1      42.974  20.690  28.583  1.00  0.00     0.163 HD
BRANCH   4   7
ATOM      7  C   UNL A   1      40.332  22.312  27.288  1.00  0.00     0.043 A 
ATOM      8  C   UNL A   1      37.981  23.059  25.883  1.00  0.00     0.024 A 
ATOM      9  C   UNL A   1      38.668  23.985  26.683  1.00  0.00     0.013 A 
ATOM     10  C   UNL A   1      38.517  21.766  25.783  1.00  0.00     0.124 A 
ATOM     11  C   UNL A   1      39.828  23.616  27.379  1.00  0.00     0.015 A 
ATOM     12  C   UNL A   1      39.681  21.403  26.458  1.00  0.00     0.060 A 
BRANCH   8  13
ATOM     13  C   UNL A   1      36.765  23.456  25.161  1.00  0.00    -0.014 A 
ATOM     14  C   UNL A   1      34.519  24.400  25.159  1.00  0.00     0.040 A 
ATOM     15  C   UNL A   1      34.365  24.031  23.819  1.00  0.00     0.014 A 
ATOM     16  C   UNL A   1      35.712  24.104  25.829  1.00  0.00     0.022 A 
ATOM     17  C   UNL A   1      35.409  23.404  23.140  1.00  0.00     0.001 A 
ATOM     18  C   UNL A   1      36.603  23.124  23.806  1.00  0.00     0.009 A 
BRANCH  14  19
ATOM     19  C   UNL A   1      33.350  24.975  25.865  1.00  0.00     0.251 C 
ATOM     20  C   UNL A   1      32.518  22.767  26.819  1.00  0.00     0.143 C 
ATOM     21  N   UNL A   1      32.447  24.176  26.512  1.00  0.00    -0.355 N 
ATOM     22  H   UNL A   1      31.626  24.629  26.813  1.00  0.00     0.163 HD
ATOM     23  O   UNL A   1      33.193  26.194  25.862  1.00  0.00    -0.269 OA
ENDBRANCH  14  19
ENDBRANCH   8  13
BRANCH  10  24
ATOM     24  O   UNL A   1      37.961  20.783  25.007  1.00  0.00    -0.507 OA
ATOM     25  H   UNL A   1      37.944  20.875  24.074  1.00  0.00     0.293 HD
ENDBRANCH  10  24
ENDBRANCH   4   7
ENDBRANCH   2   3
ENDBRANCH   1   2
BRANCH   1  26
ATOM     26  C   UNL A   1      42.741  19.247  25.350  1.00  0.00     0.118 C 
BRANCH  26  27
ATOM     27  N   UNL A   1      43.976  18.852  24.689  1.00  0.00    -0.352 N 
ATOM     28  C   UNL A   1      45.045  19.614  24.292  1.00  0.00     0.251 C 
ATOM     29  H   UNL A   1      44.056  17.890  24.498  1.00  0.00     0.163 HD
ATOM     30  O   UNL A   1      45.904  19.120  23.567  1.00  0.00    -0.269 OA
BRANCH  28  31
ATOM     31  C   UNL A   1      45.174  21.025  24.721  1.00  0.00     0.039 A 
ATOM     32  C   UNL A   1      45.533  21.290  26.048  1.00  0.00     0.014 A 
ATOM     33  C   UNL A   1      44.890  22.082  23.853  1.00  0.00     0.014 A 
ATOM     34  C   UNL A   1      45.648  22.610  26.489  1.00  0.00     0.010 A 
ATOM     35  C   UNL A   1      45.069  23.398  24.274  1.00  0.00     0.010 A 
ATOM     36  C   UNL A   1      45.438  23.674  25.599  1.00  0.00    -0.014 A 
BRANCH  36  37
ATOM     37  C   UNL A   1      45.581  25.084  26.040  1.00  0.00     0.031 A 
ATOM     38  C   UNL A   1      46.921  25.762  25.983  1.00  0.00     0.074 A 
ATOM     39  C   UNL A   1      44.519  25.733  26.550  1.00  0.00     0.049 A 
ATOM     40  N   UNL A   1      47.262  26.961  26.382  1.00  0.00    -0.248 NA
ATOM     41  C   UNL A   1      48.031  24.977  25.423  1.00  0.00     0.031 C 
ATOM     42  C   UNL A   1      43.176  25.170  26.694  1.00  0.00     0.029 A 
ATOM     43  N   UNL A   1      44.402  27.005  27.051  1.00  0.00    -0.354 N 
ATOM     44  C   UNL A   1      48.626  27.066  26.143  1.00  0.00     0.074 A 
ATOM     45  C   UNL A   1      49.059  25.793  25.606  1.00  0.00     0.031 C 
ATOM     46  C   UNL A   1      42.365  26.100  27.225  1.00  0.00     0.029 A 
ATOM     47  C   UNL A   1      43.138  27.310  27.490  1.00  0.00     0.049 A 
ATOM     48  H   UNL A   1      45.154  27.639  27.092  1.00  0.00     0.167 HD
ATOM     49  C   UNL A   1      49.440  28.131  26.336  1.00  0.00     0.037 A 
ATOM     50  C   UNL A   1      42.658  28.438  28.046  1.00  0.00     0.037 A 
ATOM     51  C   UNL A   1      48.999  29.404  26.844  1.00  0.00     0.049 A 
ATOM     52  C   UNL A   1      43.580  29.607  28.251  1.00  0.00     0.074 A 
ATOM     53  C   UNL A   1      49.729  30.568  27.011  1.00  0.00     0.029 A 
ATOM     54  N   UNL A   1      47.708  29.678  27.271  1.00  0.00    -0.354 N 
ATOM     55  N   UNL A   1      44.854  29.717  27.964  1.00  0.00    -0.248 NA
ATOM     56  C   UNL A   1      42.994  30.811  28.858  1.00  0.00     0.031 C 
ATOM     57  C   UNL A   1      48.889  31.534  27.577  1.00  0.00     0.029 A 
ATOM     58  C   UNL A   1      47.625  30.986  27.723  1.00  0.00     0.049 A 
ATOM     59  H   UNL A   1      46.960  29.038  27.255  1.00  0.00     0.167 HD
ATOM     60  C   UNL A   1      45.217  31.005  28.328  1.00  0.00     0.074 A 
ATOM     61  C   UNL A   1      44.027  31.644  28.850  1.00  0.00     0.031 C 
ATOM     62  C   UNL A   1      46.430  31.605  28.237  1.00  0.00     0.037 A 
BRANCH  49  63
ATOM     63  C   UNL A   1      50.893  27.958  25.999  1.00  0.00     0.064 A 
ATOM     64  C   UNL A   1      51.370  28.119  24.689  1.00  0.00     0.173 A 
ATOM     65  C   UNL A   1      51.822  27.635  27.000  1.00  0.00     0.173 A 
ATOM     66  F   UNL A   1      50.521  28.417  23.694  1.00  0.00    -0.203 F 
ATOM     67  C   UNL A   1      52.715  27.925  24.387  1.00  0.00     0.198 A 
ATOM     68  C   UNL A   1      53.171  27.470  26.699  1.00  0.00     0.198 A 
ATOM     69  F   UNL A   1      51.421  27.476  28.270  1.00  0.00    -0.203 F 
ATOM     70  F   UNL A   1      53.136  28.025  23.119  1.00  0.00    -0.200 F 
ATOM     71  C   UNL A   1      53.615  27.604  25.392  1.00  0.00     0.200 A 
ATOM     72  F   UNL A   1      54.042  27.172  27.674  1.00  0.00    -0.200 F 
ATOM     73  F   UNL A   1      54.909  27.415  25.100  1.00  0.00    -0.200 F 
ENDBRANCH  49  63
BRANCH  50  74
ATOM     74  C   UNL A   1      41.220  28.523  28.406  1.00  0.00     0.064 A 
ATOM     75  C   UNL A   1      40.781  28.149  29.684  1.00  0.00     0.173 A 
ATOM     76  C   UNL A   1      40.265  28.999  27.498  1.00  0.00     0.173 A 
ATOM     77  F   UNL A   1      41.658  27.669  30.578  1.00  0.00    -0.203 F 
ATOM     78  C   UNL A   1      39.438  28.244  30.039  1.00  0.00     0.198 A 
ATOM     79  C   UNL A   1      38.924  29.114  27.861  1.00  0.00     0.198 A 
ATOM     80  F   UNL A   1      40.636  29.372  26.265  1.00  0.00    -0.203 F 
ATOM     81  F   UNL A   1      39.041  27.854  31.257  1.00  0.00    -0.200 F 
ATOM     82  C   UNL A   1      38.512  28.733  29.130  1.00  0.00     0.200 A 
ATOM     83  F   UNL A   1      38.034  29.599  26.985  1.00  0.00    -0.200 F 
ATOM     84  F   UNL A   1      37.221  28.833  29.474  1.00  0.00    -0.200 F 
ENDBRANCH  50  74
BRANCH  62  85
ATOM     85  C   UNL A   1      46.522  33.033  28.686  1.00  0.00     0.064 A 
ATOM     86  C   UNL A   1      46.273  34.098  27.806  1.00  0.00     0.173 A 
ATOM     87  C   UNL A   1      46.827  33.340  30.021  1.00  0.00     0.173 A 
ATOM     88  F   UNL A   1      45.994  33.856  26.517  1.00  0.00    -0.203 F 
ATOM     89  C   UNL A   1      46.348  35.417  28.243  1.00  0.00     0.198 A 
ATOM     90  C   UNL A   1      46.874  34.659  30.459  1.00  0.00     0.198 A 
ATOM     91  F   UNL A   1      47.069  32.357  30.901  1.00  0.00    -0.203 F 
ATOM     92  F   UNL A   1      46.148  36.420  27.376  1.00  0.00    -0.200 F 
ATOM     93  C   UNL A   1      46.641  35.697  29.569  1.00  0.00     0.200 A 
ATOM     94  F   UNL A   1      47.148  34.928  31.743  1.00  0.00    -0.200 F 
ATOM     95  F   UNL A   1      46.706  36.968  29.989  1.00  0.00    -0.200 F 
ENDBRANCH  62  85
ENDBRANCH  36  37
ENDBRANCH  28  31
ENDBRANCH  26  27
ENDBRANCH   1  26
TORSDOF 13
ENDMDL
MODEL 3
REMARK VINA RESULT:     -12.6      5.504     11.269
REMARK SMILES CNC(=O)c1cccc(-c2ccc(C(=O)NCCCNC(=O)c3ccc(-c4c5nc(c(-c6c(F)c(F)c(F)c(F)c6F)c6ccc([nH]6)c(-c6c(F)c(F)c(F)c(F)c6F)c6nc(c(-c7c(F)c(F)c(F)c(F)c7F)c7ccc4[nH]7)C=C6)C=C5)cc3)cc2O)c1
REMARK SMILES IDX 18 1 17 2 16 3 14 4 15 5 13 7 10 8 11 9 87 10 12 11 86 12
REMARK SMILES IDX 9 13 5 14 6 15 89 16 7 17 8 18 3 19 1 20 2 21 4 23 88 24
REMARK SMILES IDX 19 26 20 27 21 28 22 30 23 31 24 32 85 33 25 34 84 35 26 36
REMARK SMILES IDX 27 37 28 38 78 39 29 40 83 41 77 42 79 43 30 44 82 45 76 46
REMARK SMILES IDX 75 47 31 49 63 50 43 51 62 52 44 53 47 54 61 55 80 56 45 57
REMARK SMILES IDX 46 58 60 60 81 61 48 62 32 63 33 64 41 65 34 66 35 67 39 68
REMARK SMILES IDX 42 69 36 70 37 71 40 72 38 73 64 74 65 75 73 76 66 77 67 78
REMARK SMILES IDX 71 79 74 80 68 81 69 82 72 83 70 84 49 85 50 86 58 87 51 88
REMARK SMILES IDX 52 89 56 90 59 91 53 92 54 93 57 94 55 95
REMARK H PARENT 16 6 2 22 88 25 20 29 79 48 47 59
REMARK Flexibility Score: inf
ROOT
ATOM      1  C   UNL A   1      31.168  32.383  26.505  1.00  0.00     0.042 C 
ENDROOT
BRANCH   1   2
ATOM      2  C   UNL A   1      31.330  31.049  25.777  1.00  0.00     0.118 C 
BRANCH   2   3
ATOM      3  N   UNL A   1      30.388  30.920  24.679  1.00  0.00    -0.352 N 
ATOM      4  C   UNL A   1      30.179  29.917  23.767  1.00  0.00     0.251 C 
ATOM      5  O   UNL A   1      29.223  30.024  23.000  1.00  0.00    -0.269 OA
ATOM      6  H   UNL A   1      29.788  31.694  24.571  1.00  0.00     0.163 HD
BRANCH   4   7
ATOM      7  C   UNL A   1      31.032  28.701  23.689  1.00  0.00     0.043 A 
ATOM      8  C   UNL A   1      32.555  26.305  23.632  1.00  0.00     0.024 A 
ATOM      9  C   UNL A   1      31.569  26.509  24.610  1.00  0.00     0.013 A 
ATOM     10  C   UNL A   1      32.734  27.313  22.672  1.00  0.00     0.124 A 
ATOM     11  C   UNL A   1      30.818  27.693  24.640  1.00  0.00     0.015 A 
ATOM     12  C   UNL A   1      31.974  28.482  22.689  1.00  0.00     0.060 A 
BRANCH   8  13
ATOM     13  C   UNL A   1      33.336  25.062  23.611  1.00  0.00    -0.014 A 
ATOM     14  C   UNL A   1      35.059  23.630  24.571  1.00  0.00     0.040 A 
ATOM     15  C   UNL A   1      34.973  22.783  23.462  1.00  0.00     0.014 A 
ATOM     16  C   UNL A   1      34.250  24.771  24.639  1.00  0.00     0.022 A 
ATOM     17  C   UNL A   1      34.058  23.051  22.445  1.00  0.00     0.001 A 
ATOM     18  C   UNL A   1      33.242  24.180  22.522  1.00  0.00     0.009 A 
BRANCH  14  19
ATOM     19  C   UNL A   1      36.110  23.359  25.579  1.00  0.00     0.251 C 
ATOM     20  C   UNL A   1      34.639  21.959  27.113  1.00  0.00     0.143 C 
ATOM     21  N   UNL A   1      35.830  22.682  26.735  1.00  0.00    -0.355 N 
ATOM     22  H   UNL A   1      36.547  22.689  27.410  1.00  0.00     0.163 HD
ATOM     23  O   UNL A   1      37.254  23.756  25.368  1.00  0.00    -0.269 OA
ENDBRANCH  14  19
ENDBRANCH   8  13
BRANCH  10  24
ATOM     24  O   UNL A   1      33.637  27.217  21.646  1.00  0.00    -0.507 OA
ATOM     25  H   UNL A   1      34.464  26.799  21.787  1.00  0.00     0.293 HD
ENDBRANCH  10  24
ENDBRANCH   4   7
ENDBRANCH   2   3
ENDBRANCH   1   2
BRANCH   1  26
ATOM     26  C   UNL A   1      32.442  32.868  27.189  1.00  0.00     0.118 C 
BRANCH  26  27
ATOM     27  N   UNL A   1      32.341  34.254  27.620  1.00  0.00    -0.352 N 
ATOM     28  C   UNL A   1      33.021  34.921  28.608  1.00  0.00     0.251 C 
ATOM     29  H   UNL A   1      31.683  34.796  27.128  1.00  0.00     0.163 HD
ATOM     30  O   UNL A   1      32.645  36.036  28.953  1.00  0.00    -0.269 OA
BRANCH  28  31
ATOM     31  C   UNL A   1      34.197  34.309  29.267  1.00  0.00     0.039 A 
ATOM     32  C   UNL A   1      33.987  33.481  30.374  1.00  0.00     0.014 A 
ATOM     33  C   UNL A   1      35.499  34.590  28.845  1.00  0.00     0.014 A 
ATOM     34  C   UNL A   1      35.076  32.901  31.029  1.00  0.00     0.010 A 
ATOM     35  C   UNL A   1      36.581  33.959  29.456  1.00  0.00     0.010 A 
ATOM     36  C   UNL A   1      36.380  33.119  30.561  1.00  0.00    -0.014 A 
BRANCH  36  37
ATOM     37  C   UNL A   1      37.549  32.491  31.225  1.00  0.00     0.031 A 
ATOM     38  C   UNL A   1      38.307  31.388  30.540  1.00  0.00     0.074 A 
ATOM     39  C   UNL A   1      37.891  32.871  32.470  1.00  0.00     0.049 A 
ATOM     40  N   UNL A   1      39.310  30.672  30.981  1.00  0.00    -0.248 NA
ATOM     41  C   UNL A   1      37.859  31.026  29.187  1.00  0.00     0.031 C 
ATOM     42  C   UNL A   1      37.211  33.902  33.254  1.00  0.00     0.029 A 
ATOM     43  N   UNL A   1      38.891  32.428  33.299  1.00  0.00    -0.354 N 
ATOM     44  C   UNL A   1      39.598  29.763  29.972  1.00  0.00     0.074 A 
ATOM     45  C   UNL A   1      38.635  29.988  28.914  1.00  0.00     0.031 C 
ATOM     46  C   UNL A   1      37.826  34.028  34.440  1.00  0.00     0.029 A 
ATOM     47  C   UNL A   1      38.921  33.065  34.514  1.00  0.00     0.049 A 
ATOM     48  H   UNL A   1      39.526  31.719  33.046  1.00  0.00     0.167 HD
ATOM     49  C   UNL A   1      40.587  28.839  29.923  1.00  0.00     0.037 A 
ATOM     50  C   UNL A   1      39.738  32.889  35.569  1.00  0.00     0.037 A 
ATOM     51  C   UNL A   1      41.560  28.638  30.965  1.00  0.00     0.049 A 
ATOM     52  C   UNL A   1      40.827  31.857  35.492  1.00  0.00     0.074 A 
ATOM     53  C   UNL A   1      42.642  27.776  30.983  1.00  0.00     0.029 A 
ATOM     54  N   UNL A   1      41.563  29.309  32.179  1.00  0.00    -0.354 N 
ATOM     55  N   UNL A   1      41.130  31.046  34.508  1.00  0.00    -0.248 NA
ATOM     56  C   UNL A   1      41.689  31.717  36.675  1.00  0.00     0.031 C 
ATOM     57  C   UNL A   1      43.277  27.897  32.225  1.00  0.00     0.029 A 
ATOM     58  C   UNL A   1      42.615  28.864  32.964  1.00  0.00     0.049 A 
ATOM     59  H   UNL A   1      40.913  29.999  32.445  1.00  0.00     0.167 HD
ATOM     60  C   UNL A   1      42.231  30.319  34.939  1.00  0.00     0.074 A 
ATOM     61  C   UNL A   1      42.549  30.790  36.271  1.00  0.00     0.031 C 
ATOM     62  C   UNL A   1      42.917  29.348  34.288  1.00  0.00     0.037 A 
BRANCH  49  63
ATOM     63  C   UNL A   1      40.658  27.970  28.700  1.00  0.00     0.064 A 
ATOM     64  C   UNL A   1      39.953  26.760  28.613  1.00  0.00     0.173 A 
ATOM     65  C   UNL A   1      41.436  28.356  27.597  1.00  0.00     0.173 A 
ATOM     66  F   UNL A   1      39.204  26.340  29.644  1.00  0.00    -0.203 F 
ATOM     67  C   UNL A   1      40.053  25.951  27.485  1.00  0.00     0.198 A 
ATOM     68  C   UNL A   1      41.510  27.558  26.458  1.00  0.00     0.198 A 
ATOM     69  F   UNL A   1      42.125  29.506  27.624  1.00  0.00    -0.203 F 
ATOM     70  F   UNL A   1      39.418  24.772  27.450  1.00  0.00    -0.200 F 
ATOM     71  C   UNL A   1      40.828  26.352  26.407  1.00  0.00     0.200 A 
ATOM     72  F   UNL A   1      42.250  27.953  25.413  1.00  0.00    -0.200 F 
ATOM     73  F   UNL A   1      40.927  25.571  25.322  1.00  0.00    -0.200 F 
ENDBRANCH  49  63
BRANCH  50  74
ATOM     74  C   UNL A   1      39.577  33.746  36.771  1.00  0.00     0.064 A 
ATOM     75  C   UNL A   1      40.192  35.004  36.838  1.00  0.00     0.173 A 
ATOM     76  C   UNL A   1      38.791  33.342  37.859  1.00  0.00     0.173 A 
ATOM     77  F   UNL A   1      40.969  35.422  35.828  1.00  0.00    -0.203 F 
ATOM     78  C   UNL A   1      40.032  35.824  37.951  1.00  0.00     0.198 A 
ATOM     79  C   UNL A   1      38.614  34.173  38.963  1.00  0.00     0.198 A 
ATOM     80  F   UNL A   1      38.179  32.149  37.840  1.00  0.00    -0.203 F 
ATOM     81  F   UNL A   1      40.654  37.009  38.002  1.00  0.00    -0.200 F 
ATOM     82  C   UNL A   1      39.237  35.411  39.010  1.00  0.00     0.200 A 
ATOM     83  F   UNL A   1      37.835  33.776  39.979  1.00  0.00    -0.200 F 
ATOM     84  F   UNL A   1      39.074  36.205  40.077  1.00  0.00    -0.200 F 
ENDBRANCH  50  74
BRANCH  62  85
ATOM     85  C   UNL A   1      44.097  28.750  34.996  1.00  0.00     0.064 A 
ATOM     86  C   UNL A   1      45.383  29.298  34.872  1.00  0.00     0.173 A 
ATOM     87  C   UNL A   1      43.932  27.640  35.838  1.00  0.00     0.173 A 
ATOM     88  F   UNL A   1      45.594  30.349  34.066  1.00  0.00    -0.203 F 
ATOM     89  C   UNL A   1      46.464  28.741  35.549  1.00  0.00     0.198 A 
ATOM     90  C   UNL A   1      45.011  27.103  36.533  1.00  0.00     0.198 A 
ATOM     91  F   UNL A   1      42.722  27.084  35.993  1.00  0.00    -0.203 F 
ATOM     92  F   UNL A   1      47.692  29.253  35.383  1.00  0.00    -0.200 F 
ATOM     93  C   UNL A   1      46.277  27.649  36.384  1.00  0.00     0.200 A 
ATOM     94  F   UNL A   1      44.827  26.054  37.347  1.00  0.00    -0.200 F 
ATOM     95  F   UNL A   1      47.319  27.119  37.039  1.00  0.00    -0.200 F 
ENDBRANCH  62  85
ENDBRANCH  36  37
ENDBRANCH  28  31
ENDBRANCH  26  27
ENDBRANCH   1  26
TORSDOF 13
ENDMDL
