MODEL 1
REMARK VINA RESULT:     -12.2      0.000      0.000
REMARK SMILES O=C(C[C@H]1C(=O)Nc2ccccc21)NCCCNC(=O)c1ccc(-c2c3nc(c(-c4c(F)c(F)c(F)c(F)c4F)c4ccc([nH]4)c(-c4c(F)c(F)c(F)c(F)c4F)c4nc(c(-c5c(F)c(F)c(F)c(F)c5F)c5ccc2[nH]5)C=C4)C=C3)cc1
REMARK SMILES IDX 16 1 15 2 14 3 1 4 2 5 3 7 4 8 5 9 13 10 6 11 7 12 8 13
REMARK SMILES IDX 12 14 9 16 11 17 10 18 17 19 18 20 19 21 20 23 21 24 22 25
REMARK SMILES IDX 83 26 23 27 82 28 24 29 25 30 26 31 76 32 27 33 81 34 75 35
REMARK SMILES IDX 77 36 28 37 80 38 74 39 73 40 29 42 61 43 41 44 60 45 42 46
REMARK SMILES IDX 45 47 59 48 78 49 43 50 44 51 58 53 79 54 46 55 30 56 31 57
REMARK SMILES IDX 39 58 32 59 33 60 37 61 40 62 34 63 35 64 38 65 36 66 62 67
REMARK SMILES IDX 63 68 71 69 64 70 65 71 69 72 72 73 66 74 67 75 70 76 68 77
REMARK SMILES IDX 47 78 48 79 56 80 49 81 50 82 54 83 57 84 51 85 52 86 55 87
REMARK SMILES IDX 53 88
REMARK H PARENT 14 6 7 15 18 22 77 41 45 52
REMARK Flexibility Score: inf
ROOT
ATOM      1  C   UNL A   1      31.465  31.956  26.766  1.00  0.00     0.042 C 
ENDROOT
BRANCH   1   2
ATOM      2  C   UNL A   1      31.722  30.466  26.577  1.00  0.00     0.117 C 
BRANCH   2   3
ATOM      3  N   UNL A   1      31.761  30.106  25.175  1.00  0.00    -0.356 N 
ATOM      4  O   UNL A   1      33.342  28.446  25.380  1.00  0.00    -0.275 OA
ATOM      5  C   UNL A   1      32.569  29.102  24.690  1.00  0.00     0.221 C 
ATOM      6  H   UNL A   1      31.188  30.599  24.543  1.00  0.00     0.163 HD
BRANCH   5   7
ATOM      7  C   UNL A   1      32.520  28.952  23.189  1.00  0.00     0.118 C 
BRANCH   7   8
ATOM      8  C   UNL A   1      31.406  28.086  22.608  1.00  0.00     0.120 C 
ATOM      9  C   UNL A   1      30.870  26.947  23.502  1.00  0.00     0.232 C 
ATOM     10  C   UNL A   1      30.157  28.909  22.391  1.00  0.00    -0.011 A 
ATOM     11  O   UNL A   1      31.488  25.991  23.942  1.00  0.00    -0.274 OA
ATOM     12  N   UNL A   1      29.525  27.199  23.746  1.00  0.00    -0.325 N 
ATOM     13  C   UNL A   1      29.098  28.345  23.099  1.00  0.00     0.045 A 
ATOM     14  C   UNL A   1      29.977  30.075  21.666  1.00  0.00     0.007 A 
ATOM     15  H   UNL A   1      28.948  26.633  24.308  1.00  0.00     0.169 HD
ATOM     16  C   UNL A   1      27.839  28.906  23.124  1.00  0.00     0.026 A 
ATOM     17  C   UNL A   1      28.712  30.670  21.686  1.00  0.00     0.000 A 
ATOM     18  C   UNL A   1      27.654  30.091  22.409  1.00  0.00     0.002 A 
ENDBRANCH   7   8
ENDBRANCH   5   7
ENDBRANCH   2   3
ENDBRANCH   1   2
BRANCH   1  19
ATOM     19  C   UNL A   1      32.719  32.797  26.995  1.00  0.00     0.118 C 
BRANCH  19  20
ATOM     20  N   UNL A   1      32.440  34.094  27.592  1.00  0.00    -0.352 N 
ATOM     21  C   UNL A   1      33.027  34.726  28.660  1.00  0.00     0.251 C 
ATOM     22  H   UNL A   1      31.714  34.600  27.160  1.00  0.00     0.163 HD
ATOM     23  O   UNL A   1      32.538  35.770  29.085  1.00  0.00    -0.269 OA
BRANCH  21  24
ATOM     24  C   UNL A   1      34.221  34.159  29.326  1.00  0.00     0.039 A 
ATOM     25  C   UNL A   1      34.028  33.280  30.396  1.00  0.00     0.014 A 
ATOM     26  C   UNL A   1      35.520  34.504  28.940  1.00  0.00     0.014 A 
ATOM     27  C   UNL A   1      35.129  32.700  31.031  1.00  0.00     0.010 A 
ATOM     28  C   UNL A   1      36.615  33.863  29.522  1.00  0.00     0.010 A 
ATOM     29  C   UNL A   1      36.433  32.953  30.574  1.00  0.00    -0.014 A 
BRANCH  29  30
ATOM     30  C   UNL A   1      37.595  32.242  31.172  1.00  0.00     0.031 A 
ATOM     31  C   UNL A   1      38.089  32.586  32.552  1.00  0.00     0.074 A 
ATOM     32  C   UNL A   1      38.233  31.300  30.451  1.00  0.00     0.049 A 
ATOM     33  N   UNL A   1      39.079  32.061  33.231  1.00  0.00    -0.248 NA
ATOM     34  C   UNL A   1      37.395  33.676  33.253  1.00  0.00     0.031 C 
ATOM     35  C   UNL A   1      37.892  30.914  29.080  1.00  0.00     0.029 A 
ATOM     36  N   UNL A   1      39.298  30.493  30.766  1.00  0.00    -0.354 N 
ATOM     37  C   UNL A   1      39.128  32.757  34.432  1.00  0.00     0.074 A 
ATOM     38  C   UNL A   1      38.108  33.781  34.366  1.00  0.00     0.031 C 
ATOM     39  C   UNL A   1      38.704  29.921  28.687  1.00  0.00     0.029 A 
ATOM     40  C   UNL A   1      39.650  29.628  29.759  1.00  0.00     0.049 A 
ATOM     41  H   UNL A   1      39.766  30.531  31.631  1.00  0.00     0.167 HD
ATOM     42  C   UNL A   1      39.934  32.546  35.502  1.00  0.00     0.037 A 
ATOM     43  C   UNL A   1      40.625  28.700  29.702  1.00  0.00     0.037 A 
ATOM     44  C   UNL A   1      40.945  31.520  35.569  1.00  0.00     0.049 A 
ATOM     45  C   UNL A   1      41.509  28.492  30.902  1.00  0.00     0.074 A 
ATOM     46  C   UNL A   1      41.777  31.194  36.627  1.00  0.00     0.029 A 
ATOM     47  N   UNL A   1      41.269  30.659  34.530  1.00  0.00    -0.354 N 
ATOM     48  N   UNL A   1      41.493  29.104  32.060  1.00  0.00    -0.248 NA
ATOM     49  C   UNL A   1      42.539  27.451  30.787  1.00  0.00     0.031 C 
ATOM     50  C   UNL A   1      42.643  30.179  36.209  1.00  0.00     0.029 A 
ATOM     51  C   UNL A   1      42.306  29.821  34.915  1.00  0.00     0.049 A 
ATOM     52  H   UNL A   1      40.829  30.645  33.650  1.00  0.00     0.167 HD
ATOM     53  C   UNL A   1      42.487  28.503  32.824  1.00  0.00     0.074 A 
ATOM     54  C   UNL A   1      43.068  27.462  32.002  1.00  0.00     0.031 C 
ATOM     55  C   UNL A   1      42.880  28.788  34.089  1.00  0.00     0.037 A 
BRANCH  42  56
ATOM     56  C   UNL A   1      39.757  33.444  36.695  1.00  0.00     0.064 A 
ATOM     57  C   UNL A   1      40.443  34.664  36.809  1.00  0.00     0.173 A 
ATOM     58  C   UNL A   1      38.858  33.104  37.718  1.00  0.00     0.173 A 
ATOM     59  F   UNL A   1      41.321  35.037  35.866  1.00  0.00    -0.203 F 
ATOM     60  C   UNL A   1      40.258  35.492  37.914  1.00  0.00     0.198 A 
ATOM     61  C   UNL A   1      38.650  33.951  38.804  1.00  0.00     0.198 A 
ATOM     62  F   UNL A   1      38.170  31.954  37.659  1.00  0.00    -0.203 F 
ATOM     63  F   UNL A   1      40.965  36.625  38.025  1.00  0.00    -0.200 F 
ATOM     64  C   UNL A   1      39.357  35.139  38.906  1.00  0.00     0.200 A 
ATOM     65  F   UNL A   1      37.766  33.615  39.754  1.00  0.00    -0.200 F 
ATOM     66  F   UNL A   1      39.174  35.941  39.964  1.00  0.00    -0.200 F 
ENDBRANCH  42  56
BRANCH  43  67
ATOM     67  C   UNL A   1      40.799  27.878  28.475  1.00  0.00     0.064 A 
ATOM     68  C   UNL A   1      41.605  28.321  27.417  1.00  0.00     0.173 A 
ATOM     69  C   UNL A   1      40.154  26.641  28.329  1.00  0.00     0.173 A 
ATOM     70  F   UNL A   1      42.228  29.506  27.500  1.00  0.00    -0.203 F 
ATOM     71  C   UNL A   1      41.739  27.572  26.250  1.00  0.00     0.198 A 
ATOM     72  C   UNL A   1      40.315  25.877  27.174  1.00  0.00     0.198 A 
ATOM     73  F   UNL A   1      39.375  26.169  29.313  1.00  0.00    -0.203 F 
ATOM     74  F   UNL A   1      42.471  28.046  25.233  1.00  0.00    -0.200 F 
ATOM     75  C   UNL A   1      41.099  26.348  26.132  1.00  0.00     0.200 A 
ATOM     76  F   UNL A   1      39.709  24.686  27.073  1.00  0.00    -0.200 F 
ATOM     77  F   UNL A   1      41.228  25.627  25.011  1.00  0.00    -0.200 F 
ENDBRANCH  43  67
BRANCH  55  78
ATOM     78  C   UNL A   1      43.968  27.931  34.678  1.00  0.00     0.064 A 
ATOM     79  C   UNL A   1      43.688  26.723  35.336  1.00  0.00     0.173 A 
ATOM     80  C   UNL A   1      45.311  28.326  34.581  1.00  0.00     0.173 A 
ATOM     81  F   UNL A   1      42.420  26.304  35.468  1.00  0.00    -0.203 F 
ATOM     82  C   UNL A   1      44.705  25.969  35.915  1.00  0.00     0.198 A 
ATOM     83  C   UNL A   1      46.330  27.549  35.127  1.00  0.00     0.198 A 
ATOM     84  F   UNL A   1      45.639  29.466  33.954  1.00  0.00    -0.203 F 
ATOM     85  F   UNL A   1      44.406  24.859  36.602  1.00  0.00    -0.200 F 
ATOM     86  C   UNL A   1      46.026  26.380  35.806  1.00  0.00     0.200 A 
ATOM     87  F   UNL A   1      47.607  27.939  35.004  1.00  0.00    -0.200 F 
ATOM     88  F   UNL A   1      47.004  25.654  36.366  1.00  0.00    -0.200 F 
ENDBRANCH  55  78
ENDBRANCH  29  30
ENDBRANCH  21  24
ENDBRANCH  19  20
ENDBRANCH   1  19
TORSDOF 11
ENDMDL
MODEL 2
REMARK VINA RESULT:     -12.1      4.344      7.288
REMARK SMILES O=C(C[C@H]1C(=O)Nc2ccccc21)NCCCNC(=O)c1ccc(-c2c3nc(c(-c4c(F)c(F)c(F)c(F)c4F)c4ccc([nH]4)c(-c4c(F)c(F)c(F)c(F)c4F)c4nc(c(-c5c(F)c(F)c(F)c(F)c5F)c5ccc2[nH]5)C=C4)C=C3)cc1
REMARK SMILES IDX 16 1 15 2 14 3 1 4 2 5 3 7 4 8 5 9 13 10 6 11 7 12 8 13
REMARK SMILES IDX 12 14 9 16 11 17 10 18 17 19 18 20 19 21 20 23 21 24 22 25
REMARK SMILES IDX 83 26 23 27 82 28 24 29 25 30 26 31 76 32 27 33 81 34 75 35
REMARK SMILES IDX 77 36 28 37 80 38 74 39 73 40 29 42 61 43 41 44 60 45 42 46
REMARK SMILES IDX 45 47 59 48 78 49 43 50 44 51 58 53 79 54 46 55 30 56 31 57
REMARK SMILES IDX 39 58 32 59 33 60 37 61 40 62 34 63 35 64 38 65 36 66 62 67
REMARK SMILES IDX 63 68 71 69 64 70 65 71 69 72 72 73 66 74 67 75 70 76 68 77
REMARK SMILES IDX 47 78 48 79 56 80 49 81 50 82 54 83 57 84 51 85 52 86 55 87
REMARK SMILES IDX 53 88
REMARK H PARENT 14 6 7 15 18 22 77 41 45 52
REMARK Flexibility Score: inf
ROOT
ATOM      1  C   UNL A   1      35.361  33.703  28.379  1.00  0.00     0.042 C 
ENDROOT
BRANCH   1   2
ATOM      2  C   UNL A   1      34.462  34.910  28.134  1.00  0.00     0.117 C 
BRANCH   2   3
ATOM      3  N   UNL A   1      34.404  35.775  29.294  1.00  0.00    -0.356 N 
ATOM      4  O   UNL A   1      32.122  36.070  29.281  1.00  0.00    -0.275 OA
ATOM      5  C   UNL A   1      33.220  36.277  29.785  1.00  0.00     0.221 C 
ATOM      6  H   UNL A   1      35.245  36.013  29.750  1.00  0.00     0.163 HD
BRANCH   5   7
ATOM      7  C   UNL A   1      33.397  37.227  30.945  1.00  0.00     0.118 C 
BRANCH   7   8
ATOM      8  C   UNL A   1      33.209  36.658  32.349  1.00  0.00     0.120 C 
ATOM      9  C   UNL A   1      31.870  35.947  32.641  1.00  0.00     0.232 C 
ATOM     10  C   UNL A   1      34.201  35.547  32.605  1.00  0.00    -0.011 A 
ATOM     11  O   UNL A   1      30.748  36.426  32.602  1.00  0.00    -0.274 OA
ATOM     12  N   UNL A   1      32.155  34.623  32.954  1.00  0.00    -0.325 N 
ATOM     13  C   UNL A   1      33.517  34.379  32.936  1.00  0.00     0.045 A 
ATOM     14  C   UNL A   1      35.582  35.551  32.514  1.00  0.00     0.007 A 
ATOM     15  H   UNL A   1      31.473  33.945  33.163  1.00  0.00     0.169 HD
ATOM     16  C   UNL A   1      34.161  33.185  33.181  1.00  0.00     0.026 A 
ATOM     17  C   UNL A   1      36.258  34.349  32.746  1.00  0.00     0.000 A 
ATOM     18  C   UNL A   1      35.553  33.177  33.076  1.00  0.00     0.002 A 
ENDBRANCH   7   8
ENDBRANCH   5   7
ENDBRANCH   2   3
ENDBRANCH   1   2
BRANCH   1  19
ATOM     19  C   UNL A   1      34.772  32.648  29.313  1.00  0.00     0.118 C 
BRANCH  19  20
ATOM     20  N   UNL A   1      34.078  31.581  28.610  1.00  0.00    -0.352 N 
ATOM     21  C   UNL A   1      34.545  30.387  28.120  1.00  0.00     0.251 C 
ATOM     22  H   UNL A   1      33.117  31.740  28.462  1.00  0.00     0.163 HD
ATOM     23  O   UNL A   1      33.807  29.687  27.430  1.00  0.00    -0.269 OA
BRANCH  21  24
ATOM     24  C   UNL A   1      35.932  29.938  28.384  1.00  0.00     0.039 A 
ATOM     25  C   UNL A   1      36.880  30.087  27.367  1.00  0.00     0.014 A 
ATOM     26  C   UNL A   1      36.302  29.348  29.595  1.00  0.00     0.014 A 
ATOM     27  C   UNL A   1      38.206  29.704  27.588  1.00  0.00     0.010 A 
ATOM     28  C   UNL A   1      37.642  29.041  29.842  1.00  0.00     0.010 A 
ATOM     29  C   UNL A   1      38.609  29.216  28.842  1.00  0.00    -0.014 A 
BRANCH  29  30
ATOM     30  C   UNL A   1      40.043  28.923  29.113  1.00  0.00     0.031 A 
ATOM     31  C   UNL A   1      40.903  29.894  29.876  1.00  0.00     0.074 A 
ATOM     32  C   UNL A   1      40.583  27.784  28.637  1.00  0.00     0.049 A 
ATOM     33  N   UNL A   1      42.166  29.795  30.211  1.00  0.00    -0.248 NA
ATOM     34  C   UNL A   1      40.269  31.151  30.300  1.00  0.00     0.031 C 
ATOM     35  C   UNL A   1      39.874  26.787  27.833  1.00  0.00     0.029 A 
ATOM     36  N   UNL A   1      41.850  27.269  28.759  1.00  0.00    -0.354 N 
ATOM     37  C   UNL A   1      42.476  30.973  30.878  1.00  0.00     0.074 A 
ATOM     38  C   UNL A   1      41.288  31.797  30.849  1.00  0.00     0.031 C 
ATOM     39  C   UNL A   1      40.702  25.765  27.567  1.00  0.00     0.029 A 
ATOM     40  C   UNL A   1      42.011  26.052  28.145  1.00  0.00     0.049 A 
ATOM     41  H   UNL A   1      42.575  27.729  29.241  1.00  0.00     0.167 HD
ATOM     42  C   UNL A   1      43.639  31.324  31.481  1.00  0.00     0.037 A 
ATOM     43  C   UNL A   1      43.092  25.252  28.055  1.00  0.00     0.037 A 
ATOM     44  C   UNL A   1      44.820  30.498  31.515  1.00  0.00     0.049 A 
ATOM     45  C   UNL A   1      44.372  25.671  28.727  1.00  0.00     0.074 A 
ATOM     46  C   UNL A   1      46.029  30.744  32.143  1.00  0.00     0.029 A 
ATOM     47  N   UNL A   1      44.944  29.268  30.884  1.00  0.00    -0.354 N 
ATOM     48  N   UNL A   1      44.628  26.752  29.422  1.00  0.00    -0.248 NA
ATOM     49  C   UNL A   1      45.508  24.747  28.612  1.00  0.00     0.031 C 
ATOM     50  C   UNL A   1      46.903  29.694  31.843  1.00  0.00     0.029 A 
ATOM     51  C   UNL A   1      46.218  28.757  31.087  1.00  0.00     0.049 A 
ATOM     52  H   UNL A   1      44.233  28.823  30.369  1.00  0.00     0.167 HD
ATOM     53  C   UNL A   1      45.943  26.625  29.854  1.00  0.00     0.074 A 
ATOM     54  C   UNL A   1      46.420  25.350  29.361  1.00  0.00     0.031 C 
ATOM     55  C   UNL A   1      46.685  27.487  30.592  1.00  0.00     0.037 A 
BRANCH  42  56
ATOM     56  C   UNL A   1      43.695  32.667  32.157  1.00  0.00     0.064 A 
ATOM     57  C   UNL A   1      43.359  32.827  33.510  1.00  0.00     0.173 A 
ATOM     58  C   UNL A   1      44.133  33.801  31.455  1.00  0.00     0.173 A 
ATOM     59  F   UNL A   1      42.926  31.780  34.228  1.00  0.00    -0.203 F 
ATOM     60  C   UNL A   1      43.429  34.075  34.125  1.00  0.00     0.198 A 
ATOM     61  C   UNL A   1      44.235  35.040  32.083  1.00  0.00     0.198 A 
ATOM     62  F   UNL A   1      44.473  33.706  30.161  1.00  0.00    -0.203 F 
ATOM     63  F   UNL A   1      43.052  34.211  35.404  1.00  0.00    -0.200 F 
ATOM     64  C   UNL A   1      43.875  35.178  33.414  1.00  0.00     0.200 A 
ATOM     65  F   UNL A   1      44.681  36.102  31.397  1.00  0.00    -0.200 F 
ATOM     66  F   UNL A   1      43.950  36.376  34.010  1.00  0.00    -0.200 F 
ENDBRANCH  42  56
BRANCH  43  67
ATOM     67  C   UNL A   1      43.003  23.961  27.321  1.00  0.00     0.064 A 
ATOM     68  C   UNL A   1      42.561  22.795  27.962  1.00  0.00     0.173 A 
ATOM     69  C   UNL A   1      43.370  23.863  25.972  1.00  0.00     0.173 A 
ATOM     70  F   UNL A   1      42.219  22.832  29.259  1.00  0.00    -0.203 F 
ATOM     71  C   UNL A   1      42.515  21.576  27.289  1.00  0.00     0.198 A 
ATOM     72  C   UNL A   1      43.291  22.650  25.289  1.00  0.00     0.198 A 
ATOM     73  F   UNL A   1      43.795  24.950  25.310  1.00  0.00    -0.203 F 
ATOM     74  F   UNL A   1      42.143  20.467  27.943  1.00  0.00    -0.200 F 
ATOM     75  C   UNL A   1      42.874  21.506  25.952  1.00  0.00     0.200 A 
ATOM     76  F   UNL A   1      43.621  22.591  23.993  1.00  0.00    -0.200 F 
ATOM     77  F   UNL A   1      42.828  20.334  25.304  1.00  0.00    -0.200 F 
ENDBRANCH  43  67
BRANCH  55  78
ATOM     78  C   UNL A   1      48.083  27.056  30.946  1.00  0.00     0.064 A 
ATOM     79  C   UNL A   1      49.194  27.429  30.175  1.00  0.00     0.173 A 
ATOM     80  C   UNL A   1      48.312  26.256  32.076  1.00  0.00     0.173 A 
ATOM     81  F   UNL A   1      49.031  28.183  29.076  1.00  0.00    -0.203 F 
ATOM     82  C   UNL A   1      50.473  26.980  30.493  1.00  0.00     0.198 A 
ATOM     83  C   UNL A   1      49.597  25.841  32.415  1.00  0.00     0.198 A 
ATOM     84  F   UNL A   1      47.289  25.877  32.857  1.00  0.00    -0.203 F 
ATOM     85  F   UNL A   1      51.507  27.289  29.699  1.00  0.00    -0.200 F 
ATOM     86  C   UNL A   1      50.674  26.190  31.615  1.00  0.00     0.200 A 
ATOM     87  F   UNL A   1      49.792  25.093  33.510  1.00  0.00    -0.200 F 
ATOM     88  F   UNL A   1      51.905  25.757  31.920  1.00  0.00    -0.200 F 
ENDBRANCH  55  78
ENDBRANCH  29  30
ENDBRANCH  21  24
ENDBRANCH  19  20
ENDBRANCH   1  19
TORSDOF 11
ENDMDL
MODEL 3
REMARK VINA RESULT:     -12.1      0.722      7.596
REMARK SMILES O=C(C[C@H]1C(=O)Nc2ccccc21)NCCCNC(=O)c1ccc(-c2c3nc(c(-c4c(F)c(F)c(F)c(F)c4F)c4ccc([nH]4)c(-c4c(F)c(F)c(F)c(F)c4F)c4nc(c(-c5c(F)c(F)c(F)c(F)c5F)c5ccc2[nH]5)C=C4)C=C3)cc1
REMARK SMILES IDX 16 1 15 2 14 3 1 4 2 5 3 7 4 8 5 9 13 10 6 11 7 12 8 13
REMARK SMILES IDX 12 14 9 16 11 17 10 18 17 19 18 20 19 21 20 23 21 24 22 25
REMARK SMILES IDX 83 26 23 27 82 28 24 29 25 30 26 31 76 32 27 33 81 34 75 35
REMARK SMILES IDX 77 36 28 37 80 38 74 39 73 40 29 42 61 43 41 44 60 45 42 46
REMARK SMILES IDX 45 47 59 48 78 49 43 50 44 51 58 53 79 54 46 55 30 56 31 57
REMARK SMILES IDX 39 58 32 59 33 60 37 61 40 62 34 63 35 64 38 65 36 66 62 67
REMARK SMILES IDX 63 68 71 69 64 70 65 71 69 72 72 73 66 74 67 75 70 76 68 77
REMARK SMILES IDX 47 78 48 79 56 80 49 81 50 82 54 83 57 84 51 85 52 86 55 87
REMARK SMILES IDX 53 88
REMARK H PARENT 14 6 7 15 18 22 77 41 45 52
REMARK Flexibility Score: inf
ROOT
ATOM      1  C   UNL A   1      31.373  32.317  26.510  1.00  0.00     0.042 C 
ENDROOT
BRANCH   1   2
ATOM      2  C   UNL A   1      31.403  30.795  26.442  1.00  0.00     0.117 C 
BRANCH   2   3
ATOM      3  N   UNL A   1      31.588  30.326  25.085  1.00  0.00    -0.356 N 
ATOM      4  O   UNL A   1      32.875  28.494  25.619  1.00  0.00    -0.275 OA
ATOM      5  C   UNL A   1      32.308  29.191  24.785  1.00  0.00     0.221 C 
ATOM      6  H   UNL A   1      31.186  30.840  24.347  1.00  0.00     0.163 HD
BRANCH   5   7
ATOM      7  C   UNL A   1      32.450  28.935  23.304  1.00  0.00     0.118 C 
BRANCH   7   8
ATOM      8  C   UNL A   1      31.380  28.075  22.637  1.00  0.00     0.120 C 
ATOM      9  C   UNL A   1      30.866  26.857  23.433  1.00  0.00     0.232 C 
ATOM     10  C   UNL A   1      30.107  28.869  22.449  1.00  0.00    -0.011 A 
ATOM     11  O   UNL A   1      31.509  25.893  23.819  1.00  0.00    -0.274 OA
ATOM     12  N   UNL A   1      29.508  27.044  23.663  1.00  0.00    -0.325 N 
ATOM     13  C   UNL A   1      29.055  28.220  23.090  1.00  0.00     0.045 A 
ATOM     14  C   UNL A   1      29.902  30.078  21.806  1.00  0.00     0.007 A 
ATOM     15  H   UNL A   1      28.940  26.420  24.169  1.00  0.00     0.169 HD
ATOM     16  C   UNL A   1      27.777  28.734  23.125  1.00  0.00     0.026 A 
ATOM     17  C   UNL A   1      28.616  30.626  21.838  1.00  0.00     0.000 A 
ATOM     18  C   UNL A   1      27.564  29.961  22.493  1.00  0.00     0.002 A 
ENDBRANCH   7   8
ENDBRANCH   5   7
ENDBRANCH   2   3
ENDBRANCH   1   2
BRANCH   1  19
ATOM     19  C   UNL A   1      32.610  32.953  27.142  1.00  0.00     0.118 C 
BRANCH  19  20
ATOM     20  N   UNL A   1      32.377  34.303  27.630  1.00  0.00    -0.352 N 
ATOM     21  C   UNL A   1      32.979  34.997  28.649  1.00  0.00     0.251 C 
ATOM     22  H   UNL A   1      31.675  34.800  27.150  1.00  0.00     0.163 HD
ATOM     23  O   UNL A   1      32.528  36.090  28.984  1.00  0.00    -0.269 OA
BRANCH  21  24
ATOM     24  C   UNL A   1      34.146  34.441  29.372  1.00  0.00     0.039 A 
ATOM     25  C   UNL A   1      33.923  33.797  30.593  1.00  0.00     0.014 A 
ATOM     26  C   UNL A   1      35.450  34.572  28.887  1.00  0.00     0.014 A 
ATOM     27  C   UNL A   1      34.994  33.232  31.290  1.00  0.00     0.010 A 
ATOM     28  C   UNL A   1      36.507  33.938  29.543  1.00  0.00     0.010 A 
ATOM     29  C   UNL A   1      36.292  33.261  30.752  1.00  0.00    -0.014 A 
BRANCH  29  30
ATOM     30  C   UNL A   1      37.409  32.555  31.436  1.00  0.00     0.031 A 
ATOM     31  C   UNL A   1      38.111  31.395  30.783  1.00  0.00     0.074 A 
ATOM     32  C   UNL A   1      37.773  32.943  32.674  1.00  0.00     0.049 A 
ATOM     33  N   UNL A   1      39.109  30.672  31.230  1.00  0.00    -0.248 NA
ATOM     34  C   UNL A   1      37.613  30.975  29.464  1.00  0.00     0.031 C 
ATOM     35  C   UNL A   1      37.135  34.014  33.442  1.00  0.00     0.029 A 
ATOM     36  N   UNL A   1      38.765  32.486  33.505  1.00  0.00    -0.354 N 
ATOM     37  C   UNL A   1      39.353  29.716  30.253  1.00  0.00     0.074 A 
ATOM     38  C   UNL A   1      38.363  29.911  29.217  1.00  0.00     0.031 C 
ATOM     39  C   UNL A   1      37.775  34.158  34.614  1.00  0.00     0.029 A 
ATOM     40  C   UNL A   1      38.840  33.163  34.698  1.00  0.00     0.049 A 
ATOM     41  H   UNL A   1      39.366  31.743  33.270  1.00  0.00     0.167 HD
ATOM     42  C   UNL A   1      40.331  28.777  30.212  1.00  0.00     0.037 A 
ATOM     43  C   UNL A   1      39.673  33.004  35.744  1.00  0.00     0.037 A 
ATOM     44  C   UNL A   1      41.322  28.590  31.243  1.00  0.00     0.049 A 
ATOM     45  C   UNL A   1      40.744  31.949  35.676  1.00  0.00     0.074 A 
ATOM     46  C   UNL A   1      42.383  27.700  31.270  1.00  0.00     0.029 A 
ATOM     47  N   UNL A   1      41.369  29.299  32.435  1.00  0.00    -0.354 N 
ATOM     48  N   UNL A   1      41.014  31.103  34.712  1.00  0.00    -0.248 NA
ATOM     49  C   UNL A   1      41.634  31.839  36.839  1.00  0.00     0.031 C 
ATOM     50  C   UNL A   1      43.034  27.829  32.501  1.00  0.00     0.029 A 
ATOM     51  C   UNL A   1      42.424  28.847  33.214  1.00  0.00     0.049 A 
ATOM     52  H   UNL A   1      40.745  30.016  32.690  1.00  0.00     0.167 HD
ATOM     53  C   UNL A   1      42.124  30.382  35.137  1.00  0.00     0.074 A 
ATOM     54  C   UNL A   1      42.488  30.909  36.435  1.00  0.00     0.031 C 
ATOM     55  C   UNL A   1      42.779  29.376  34.507  1.00  0.00     0.037 A 
BRANCH  42  56
ATOM     56  C   UNL A   1      40.379  27.873  29.011  1.00  0.00     0.064 A 
ATOM     57  C   UNL A   1      41.166  28.177  27.889  1.00  0.00     0.173 A 
ATOM     58  C   UNL A   1      39.665  26.664  28.999  1.00  0.00     0.173 A 
ATOM     59  F   UNL A   1      41.863  29.322  27.842  1.00  0.00    -0.203 F 
ATOM     60  C   UNL A   1      41.210  27.322  26.790  1.00  0.00     0.198 A 
ATOM     61  C   UNL A   1      39.740  25.796  27.912  1.00  0.00     0.198 A 
ATOM     62  F   UNL A   1      38.902  26.319  30.046  1.00  0.00    -0.203 F 
ATOM     63  F   UNL A   1      41.926  27.662  25.709  1.00  0.00    -0.200 F 
ATOM     64  C   UNL A   1      40.505  26.130  26.806  1.00  0.00     0.200 A 
ATOM     65  F   UNL A   1      39.068  24.636  27.937  1.00  0.00    -0.200 F 
ATOM     66  F   UNL A   1      40.556  25.305  25.751  1.00  0.00    -0.200 F 
ENDBRANCH  42  56
BRANCH  43  67
ATOM     67  C   UNL A   1      39.545  33.883  36.937  1.00  0.00     0.064 A 
ATOM     68  C   UNL A   1      38.801  33.481  38.056  1.00  0.00     0.173 A 
ATOM     69  C   UNL A   1      40.151  35.147  36.980  1.00  0.00     0.173 A 
ATOM     70  F   UNL A   1      38.185  32.289  38.056  1.00  0.00    -0.203 F 
ATOM     71  C   UNL A   1      38.646  34.318  39.158  1.00  0.00     0.198 A 
ATOM     72  C   UNL A   1      40.024  35.971  38.097  1.00  0.00     0.198 A 
ATOM     73  F   UNL A   1      40.878  35.580  35.939  1.00  0.00    -0.203 F 
ATOM     74  F   UNL A   1      37.882  33.930  40.189  1.00  0.00    -0.200 F 
ATOM     75  C   UNL A   1      39.262  35.559  39.180  1.00  0.00     0.200 A 
ATOM     76  F   UNL A   1      40.636  37.162  38.121  1.00  0.00    -0.200 F 
ATOM     77  F   UNL A   1      39.115  36.364  40.241  1.00  0.00    -0.200 F 
ENDBRANCH  43  67
BRANCH  55  78
ATOM     78  C   UNL A   1      43.987  28.807  35.201  1.00  0.00     0.064 A 
ATOM     79  C   UNL A   1      43.894  27.725  36.088  1.00  0.00     0.173 A 
ATOM     80  C   UNL A   1      45.259  29.357  34.973  1.00  0.00     0.173 A 
ATOM     81  F   UNL A   1      42.702  27.169  36.353  1.00  0.00    -0.203 F 
ATOM     82  C   UNL A   1      45.018  27.245  36.756  1.00  0.00     0.198 A 
ATOM     83  C   UNL A   1      46.387  28.849  35.612  1.00  0.00     0.198 A 
ATOM     84  F   UNL A   1      45.410  30.387  34.126  1.00  0.00    -0.203 F 
ATOM     85  F   UNL A   1      44.892  26.259  37.654  1.00  0.00    -0.200 F 
ATOM     86  C   UNL A   1      46.264  27.804  36.514  1.00  0.00     0.200 A 
ATOM     87  F   UNL A   1      47.592  29.379  35.361  1.00  0.00    -0.200 F 
ATOM     88  F   UNL A   1      47.344  27.343  37.158  1.00  0.00    -0.200 F 
ENDBRANCH  55  78
ENDBRANCH  29  30
ENDBRANCH  21  24
ENDBRANCH  19  20
ENDBRANCH   1  19
TORSDOF 11
ENDMDL
