MODEL 1
REMARK VINA RESULT:     -12.8      0.000      0.000
REMARK SMILES O=C(NCCCNC(=O)[C@H]1CCCN(S(=O)(=O)c2cccc(Br)c2)C1)c1ccc(-c2c3nc(c(-c4c(F)c(F)c(F)c(F)c4F)c4ccc([nH]4)c(-c4c(F)c(F)c(F)c(F)c4F)c4nc(c(-c5c(F)c(F)c(F)c(F)c5F)c5ccc2[nH]5)C=C4)C=C3)cc1
REMARK SMILES IDX 5 1 4 2 3 3 1 4 2 5 26 7 27 8 88 9 28 10 87 11 29 12 30 13
REMARK SMILES IDX 31 14 81 15 32 16 86 17 80 18 82 19 33 20 85 21 79 22 78 23
REMARK SMILES IDX 34 25 66 26 46 27 65 28 47 29 50 30 64 31 83 32 48 33 49 34
REMARK SMILES IDX 63 36 84 37 51 38 35 39 36 40 44 41 37 42 38 43 42 44 45 45
REMARK SMILES IDX 39 46 40 47 43 48 41 49 67 50 68 51 76 52 69 53 70 54 74 55
REMARK SMILES IDX 77 56 71 57 72 58 75 59 73 60 52 61 53 62 61 63 54 64 55 65
REMARK SMILES IDX 59 66 62 67 56 68 57 69 60 70 58 71 6 72 7 73 8 74 9 76
REMARK SMILES IDX 10 77 11 78 25 79 12 80 14 81 13 82 15 83 16 84 17 85 18 86
REMARK SMILES IDX 19 87 24 88 20 89 22 90 21 91 23 92
REMARK H PARENT 3 6 82 24 50 35 7 75
REMARK Flexibility Score: inf
ROOT
ATOM      1  C   UNL A   1      30.969  31.901  26.448  1.00  0.00     0.042 C 
ENDROOT
BRANCH   1   2
ATOM      2  C   UNL A   1      32.330  32.466  26.813  1.00  0.00     0.118 C 
BRANCH   2   3
ATOM      3  N   UNL A   1      32.245  33.826  27.340  1.00  0.00    -0.352 N 
ATOM      4  O   UNL A   1      32.584  35.543  28.754  1.00  0.00    -0.269 OA
ATOM      5  C   UNL A   1      32.967  34.459  28.324  1.00  0.00     0.251 C 
ATOM      6  H   UNL A   1      31.553  34.385  26.917  1.00  0.00     0.163 HD
BRANCH   5   7
ATOM      7  C   UNL A   1      34.185  33.835  28.884  1.00  0.00     0.039 A 
ATOM      8  C   UNL A   1      34.095  32.704  29.692  1.00  0.00     0.014 A 
ATOM      9  C   UNL A   1      35.441  34.372  28.580  1.00  0.00     0.014 A 
ATOM     10  C   UNL A   1      35.217  32.241  30.361  1.00  0.00     0.010 A 
ATOM     11  C   UNL A   1      36.592  33.817  29.150  1.00  0.00     0.010 A 
ATOM     12  C   UNL A   1      36.485  32.774  30.080  1.00  0.00    -0.014 A 
BRANCH  12  13
ATOM     13  C   UNL A   1      37.670  32.167  30.737  1.00  0.00     0.031 A 
ATOM     14  C   UNL A   1      38.051  32.522  32.147  1.00  0.00     0.074 A 
ATOM     15  C   UNL A   1      38.366  31.229  30.063  1.00  0.00     0.049 A 
ATOM     16  N   UNL A   1      39.021  32.041  32.883  1.00  0.00    -0.248 NA
ATOM     17  C   UNL A   1      37.248  33.556  32.817  1.00  0.00     0.031 C 
ATOM     18  C   UNL A   1      38.094  30.811  28.685  1.00  0.00     0.029 A 
ATOM     19  N   UNL A   1      39.412  30.432  30.449  1.00  0.00    -0.354 N 
ATOM     20  C   UNL A   1      38.964  32.730  34.088  1.00  0.00     0.074 A 
ATOM     21  C   UNL A   1      37.875  33.678  33.979  1.00  0.00     0.031 C 
ATOM     22  C   UNL A   1      38.896  29.786  28.369  1.00  0.00     0.029 A 
ATOM     23  C   UNL A   1      39.791  29.525  29.489  1.00  0.00     0.049 A 
ATOM     24  H   UNL A   1      39.851  30.505  31.327  1.00  0.00     0.167 HD
ATOM     25  C   UNL A   1      39.745  32.578  35.184  1.00  0.00     0.037 A 
ATOM     26  C   UNL A   1      40.758  28.591  29.504  1.00  0.00     0.037 A 
ATOM     27  C   UNL A   1      40.808  31.611  35.295  1.00  0.00     0.049 A 
ATOM     28  C   UNL A   1      41.609  28.449  30.730  1.00  0.00     0.074 A 
ATOM     29  C   UNL A   1      41.636  31.356  36.375  1.00  0.00     0.029 A 
ATOM     30  N   UNL A   1      41.189  30.738  34.287  1.00  0.00    -0.354 N 
ATOM     31  N   UNL A   1      41.531  29.096  31.868  1.00  0.00    -0.248 NA
ATOM     32  C   UNL A   1      42.689  27.456  30.671  1.00  0.00     0.031 C 
ATOM     33  C   UNL A   1      42.543  30.357  36.007  1.00  0.00     0.029 A 
ATOM     34  C   UNL A   1      42.253  29.957  34.712  1.00  0.00     0.049 A 
ATOM     35  H   UNL A   1      40.767  30.680  33.399  1.00  0.00     0.167 HD
ATOM     36  C   UNL A   1      42.544  28.583  32.665  1.00  0.00     0.074 A 
ATOM     37  C   UNL A   1      43.205  27.554  31.888  1.00  0.00     0.031 C 
ATOM     38  C   UNL A   1      42.899  28.939  33.923  1.00  0.00     0.037 A 
BRANCH  25  39
ATOM     39  C   UNL A   1      39.496  33.490  36.351  1.00  0.00     0.064 A 
ATOM     40  C   UNL A   1      38.686  33.108  37.430  1.00  0.00     0.173 A 
ATOM     41  C   UNL A   1      40.113  34.750  36.408  1.00  0.00     0.173 A 
ATOM     42  F   UNL A   1      38.063  31.919  37.418  1.00  0.00    -0.203 F 
ATOM     43  C   UNL A   1      38.484  33.961  38.512  1.00  0.00     0.198 A 
ATOM     44  C   UNL A   1      39.929  35.589  37.504  1.00  0.00     0.198 A 
ATOM     45  F   UNL A   1      40.901  35.163  35.405  1.00  0.00    -0.203 F 
ATOM     46  F   UNL A   1      37.672  33.590  39.513  1.00  0.00    -0.200 F 
ATOM     47  C   UNL A   1      39.111  35.197  38.552  1.00  0.00     0.200 A 
ATOM     48  F   UNL A   1      40.544  36.780  37.545  1.00  0.00    -0.200 F 
ATOM     49  F   UNL A   1      38.920  36.014  39.597  1.00  0.00    -0.200 F 
ENDBRANCH  25  39
BRANCH  26  50
ATOM     50  C   UNL A   1      40.963  27.725  28.315  1.00  0.00     0.064 A 
ATOM     51  C   UNL A   1      40.301  26.495  28.196  1.00  0.00     0.173 A 
ATOM     52  C   UNL A   1      41.803  28.120  27.264  1.00  0.00     0.173 A 
ATOM     53  F   UNL A   1      39.501  26.067  29.183  1.00  0.00    -0.203 F 
ATOM     54  C   UNL A   1      40.480  25.689  27.075  1.00  0.00     0.198 A 
ATOM     55  C   UNL A   1      41.958  27.327  26.130  1.00  0.00     0.198 A 
ATOM     56  F   UNL A   1      42.452  29.292  27.328  1.00  0.00    -0.203 F 
ATOM     57  F   UNL A   1      39.863  24.502  27.000  1.00  0.00    -0.200 F 
ATOM     58  C   UNL A   1      41.301  26.110  26.039  1.00  0.00     0.200 A 
ATOM     59  F   UNL A   1      42.737  27.747  25.124  1.00  0.00    -0.200 F 
ATOM     60  F   UNL A   1      41.463  25.339  24.954  1.00  0.00    -0.200 F 
ENDBRANCH  26  50
BRANCH  38  61
ATOM     61  C   UNL A   1      44.042  28.191  34.539  1.00  0.00     0.064 A 
ATOM     62  C   UNL A   1      43.843  26.986  35.228  1.00  0.00     0.173 A 
ATOM     63  C   UNL A   1      45.352  28.678  34.427  1.00  0.00     0.173 A 
ATOM     64  F   UNL A   1      42.605  26.491  35.377  1.00  0.00    -0.203 F 
ATOM     65  C   UNL A   1      44.913  26.309  35.807  1.00  0.00     0.198 A 
ATOM     66  C   UNL A   1      46.423  27.985  34.984  1.00  0.00     0.198 A 
ATOM     67  F   UNL A   1      45.594  29.826  33.774  1.00  0.00    -0.203 F 
ATOM     68  F   UNL A   1      44.693  25.186  36.504  1.00  0.00    -0.200 F 
ATOM     69  C   UNL A   1      46.201  26.806  35.680  1.00  0.00     0.200 A 
ATOM     70  F   UNL A   1      47.668  28.462  34.853  1.00  0.00    -0.200 F 
ATOM     71  F   UNL A   1      47.230  26.154  36.238  1.00  0.00    -0.200 F 
ENDBRANCH  38  61
ENDBRANCH  12  13
ENDBRANCH   5   7
ENDBRANCH   2   3
ENDBRANCH   1   2
BRANCH   1  72
ATOM     72  C   UNL A   1      31.065  30.785  25.428  1.00  0.00     0.117 C 
BRANCH  72  73
ATOM     73  N   UNL A   1      30.208  30.998  24.267  1.00  0.00    -0.356 N 
ATOM     74  C   UNL A   1      29.716  30.052  23.400  1.00  0.00     0.224 C 
ATOM     75  H   UNL A   1      29.951  31.930  24.083  1.00  0.00     0.163 HD
ATOM     76  O   UNL A   1      28.953  30.389  22.500  1.00  0.00    -0.275 OA
BRANCH  74  77
ATOM     77  C   UNL A   1      30.161  28.625  23.622  1.00  0.00     0.093 C 
ATOM     78  C   UNL A   1      28.963  27.675  23.585  1.00  0.00     0.016 C 
ATOM     79  C   UNL A   1      31.195  28.112  22.624  1.00  0.00     0.116 C 
ATOM     80  C   UNL A   1      29.429  26.364  24.175  1.00  0.00     0.018 C 
ATOM     81  N   UNL A   1      31.675  26.746  23.074  1.00  0.00    -0.197 NA
ATOM     82  C   UNL A   1      30.560  25.779  23.343  1.00  0.00     0.102 C 
BRANCH  81  83
ATOM     83  S   UNL A   1      32.874  26.121  21.987  1.00  0.00     0.243 S 
ATOM     84  O   UNL A   1      32.198  25.697  20.781  1.00  0.00    -0.207 OA
ATOM     85  O   UNL A   1      33.960  27.079  21.938  1.00  0.00    -0.207 OA
BRANCH  83  86
ATOM     86  C   UNL A   1      33.479  24.662  22.808  1.00  0.00     0.083 A 
ATOM     87  C   UNL A   1      33.001  23.401  22.431  1.00  0.00     0.022 A 
ATOM     88  C   UNL A   1      34.484  24.776  23.773  1.00  0.00     0.037 A 
ATOM     89  C   UNL A   1      33.449  22.259  23.092  1.00  0.00     0.003 A 
ATOM     90  C   UNL A   1      34.961  23.622  24.392  1.00  0.00     0.019 A 
ATOM     91  C   UNL A   1      34.432  22.370  24.076  1.00  0.00     0.016 A 
ATOM     92  Br  UNL A   1      36.354  23.750  25.665  1.00  0.00    -0.051 Br
ENDBRANCH  83  86
ENDBRANCH  81  83
ENDBRANCH  74  77
ENDBRANCH  72  73
ENDBRANCH   1  72
TORSDOF 12
ENDMDL
MODEL 2
REMARK VINA RESULT:     -12.7      2.172      3.050
REMARK SMILES O=C(NCCCNC(=O)[C@H]1CCCN(S(=O)(=O)c2cccc(Br)c2)C1)c1ccc(-c2c3nc(c(-c4c(F)c(F)c(F)c(F)c4F)c4ccc([nH]4)c(-c4c(F)c(F)c(F)c(F)c4F)c4nc(c(-c5c(F)c(F)c(F)c(F)c5F)c5ccc2[nH]5)C=C4)C=C3)cc1
REMARK SMILES IDX 5 1 4 2 3 3 1 4 2 5 26 7 27 8 88 9 28 10 87 11 29 12 30 13
REMARK SMILES IDX 31 14 81 15 32 16 86 17 80 18 82 19 33 20 85 21 79 22 78 23
REMARK SMILES IDX 34 25 66 26 46 27 65 28 47 29 50 30 64 31 83 32 48 33 49 34
REMARK SMILES IDX 63 36 84 37 51 38 35 39 36 40 44 41 37 42 38 43 42 44 45 45
REMARK SMILES IDX 39 46 40 47 43 48 41 49 67 50 68 51 76 52 69 53 70 54 74 55
REMARK SMILES IDX 77 56 71 57 72 58 75 59 73 60 52 61 53 62 61 63 54 64 55 65
REMARK SMILES IDX 59 66 62 67 56 68 57 69 60 70 58 71 6 72 7 73 8 74 9 76
REMARK SMILES IDX 10 77 11 78 25 79 12 80 14 81 13 82 15 83 16 84 17 85 18 86
REMARK SMILES IDX 19 87 24 88 20 89 22 90 21 91 23 92
REMARK H PARENT 3 6 82 24 50 35 7 75
REMARK Flexibility Score: inf
ROOT
ATOM      1  C   UNL A   1      33.231  29.196  23.673  1.00  0.00     0.042 C 
ENDROOT
BRANCH   1   2
ATOM      2  C   UNL A   1      33.315  29.189  25.188  1.00  0.00     0.118 C 
BRANCH   2   3
ATOM      3  N   UNL A   1      32.776  30.411  25.782  1.00  0.00    -0.352 N 
ATOM      4  O   UNL A   1      32.449  32.015  27.324  1.00  0.00    -0.269 OA
ATOM      5  C   UNL A   1      33.179  31.135  26.878  1.00  0.00     0.251 C 
ATOM      6  H   UNL A   1      31.990  30.779  25.315  1.00  0.00     0.163 HD
BRANCH   5   7
ATOM      7  C   UNL A   1      34.470  30.847  27.539  1.00  0.00     0.039 A 
ATOM      8  C   UNL A   1      34.766  29.561  27.986  1.00  0.00     0.014 A 
ATOM      9  C   UNL A   1      35.412  31.869  27.694  1.00  0.00     0.014 A 
ATOM     10  C   UNL A   1      35.891  29.343  28.766  1.00  0.00     0.010 A 
ATOM     11  C   UNL A   1      36.613  31.614  28.365  1.00  0.00     0.010 A 
ATOM     12  C   UNL A   1      36.843  30.358  28.945  1.00  0.00    -0.014 A 
BRANCH  12  13
ATOM     13  C   UNL A   1      38.086  30.041  29.693  1.00  0.00     0.031 A 
ATOM     14  C   UNL A   1      38.302  30.533  31.095  1.00  0.00     0.074 A 
ATOM     15  C   UNL A   1      38.997  29.236  29.109  1.00  0.00     0.049 A 
ATOM     16  N   UNL A   1      39.305  30.299  31.904  1.00  0.00    -0.248 NA
ATOM     17  C   UNL A   1      37.268  31.410  31.665  1.00  0.00     0.031 C 
ATOM     18  C   UNL A   1      38.897  28.706  27.746  1.00  0.00     0.029 A 
ATOM     19  N   UNL A   1      40.158  28.692  29.590  1.00  0.00    -0.354 N 
ATOM     20  C   UNL A   1      39.038  31.018  33.063  1.00  0.00     0.074 A 
ATOM     21  C   UNL A   1      37.788  31.714  32.846  1.00  0.00     0.031 C 
ATOM     22  C   UNL A   1      39.908  27.854  27.529  1.00  0.00     0.029 A 
ATOM     23  C   UNL A   1      40.769  27.837  28.705  1.00  0.00     0.049 A 
ATOM     24  H   UNL A   1      40.521  28.895  30.483  1.00  0.00     0.167 HD
ATOM     25  C   UNL A   1      39.768  31.082  34.202  1.00  0.00     0.037 A 
ATOM     26  C   UNL A   1      41.904  27.124  28.820  1.00  0.00     0.037 A 
ATOM     27  C   UNL A   1      40.997  30.362  34.420  1.00  0.00     0.049 A 
ATOM     28  C   UNL A   1      42.692  27.220  30.092  1.00  0.00     0.074 A 
ATOM     29  C   UNL A   1      41.794  30.335  35.552  1.00  0.00     0.029 A 
ATOM     30  N   UNL A   1      41.607  29.539  33.484  1.00  0.00    -0.354 N 
ATOM     31  N   UNL A   1      42.418  27.890  31.185  1.00  0.00    -0.248 NA
ATOM     32  C   UNL A   1      43.953  26.470  30.143  1.00  0.00     0.031 C 
ATOM     33  C   UNL A   1      42.906  29.528  35.287  1.00  0.00     0.029 A 
ATOM     34  C   UNL A   1      42.780  29.016  34.005  1.00  0.00     0.049 A 
ATOM     35  H   UNL A   1      41.258  29.354  32.582  1.00  0.00     0.167 HD
ATOM     36  C   UNL A   1      43.465  27.636  32.058  1.00  0.00     0.074 A 
ATOM     37  C   UNL A   1      44.366  26.730  31.375  1.00  0.00     0.031 C 
ATOM     38  C   UNL A   1      43.665  28.117  33.309  1.00  0.00     0.037 A 
BRANCH  25  39
ATOM     39  C   UNL A   1      39.270  31.978  35.300  1.00  0.00     0.064 A 
ATOM     40  C   UNL A   1      39.538  33.354  35.311  1.00  0.00     0.173 A 
ATOM     41  C   UNL A   1      38.474  31.456  36.332  1.00  0.00     0.173 A 
ATOM     42  F   UNL A   1      40.304  33.901  34.355  1.00  0.00    -0.203 F 
ATOM     43  C   UNL A   1      39.048  34.171  36.328  1.00  0.00     0.198 A 
ATOM     44  C   UNL A   1      37.965  32.280  37.332  1.00  0.00     0.198 A 
ATOM     45  F   UNL A   1      38.184  30.147  36.365  1.00  0.00    -0.203 F 
ATOM     46  F   UNL A   1      39.353  35.477  36.341  1.00  0.00    -0.200 F 
ATOM     47  C   UNL A   1      38.257  33.636  37.333  1.00  0.00     0.200 A 
ATOM     48  F   UNL A   1      37.192  31.762  38.297  1.00  0.00    -0.200 F 
ATOM     49  F   UNL A   1      37.782  34.424  38.306  1.00  0.00    -0.200 F 
ENDBRANCH  25  39
BRANCH  26  50
ATOM     50  C   UNL A   1      42.351  26.264  27.696  1.00  0.00     0.064 A 
ATOM     51  C   UNL A   1      41.804  24.988  27.503  1.00  0.00     0.173 A 
ATOM     52  C   UNL A   1      43.312  26.710  26.776  1.00  0.00     0.173 A 
ATOM     53  F   UNL A   1      40.895  24.512  28.366  1.00  0.00    -0.203 F 
ATOM     54  C   UNL A   1      42.210  24.186  26.440  1.00  0.00     0.198 A 
ATOM     55  C   UNL A   1      43.695  25.918  25.697  1.00  0.00     0.198 A 
ATOM     56  F   UNL A   1      43.858  27.927  26.914  1.00  0.00    -0.203 F 
ATOM     57  F   UNL A   1      41.699  22.955  26.297  1.00  0.00    -0.200 F 
ATOM     58  C   UNL A   1      43.149  24.655  25.532  1.00  0.00     0.200 A 
ATOM     59  F   UNL A   1      44.588  26.385  24.812  1.00  0.00    -0.200 F 
ATOM     60  F   UNL A   1      43.530  23.888  24.502  1.00  0.00    -0.200 F 
ENDBRANCH  26  50
BRANCH  38  61
ATOM     61  C   UNL A   1      44.898  27.651  34.022  1.00  0.00     0.064 A 
ATOM     62  C   UNL A   1      44.910  26.461  34.764  1.00  0.00     0.173 A 
ATOM     63  C   UNL A   1      46.084  28.396  33.950  1.00  0.00     0.173 A 
ATOM     64  F   UNL A   1      43.794  25.725  34.877  1.00  0.00    -0.203 F 
ATOM     65  C   UNL A   1      46.060  26.048  35.432  1.00  0.00     0.198 A 
ATOM     66  C   UNL A   1      47.239  27.966  34.598  1.00  0.00     0.198 A 
ATOM     67  F   UNL A   1      46.123  29.540  33.249  1.00  0.00    -0.203 F 
ATOM     68  F   UNL A   1      46.034  24.934  36.177  1.00  0.00    -0.200 F 
ATOM     69  C   UNL A   1      47.223  26.797  35.344  1.00  0.00     0.200 A 
ATOM     70  F   UNL A   1      48.365  28.687  34.504  1.00  0.00    -0.200 F 
ATOM     71  F   UNL A   1      48.328  26.399  35.988  1.00  0.00    -0.200 F 
ENDBRANCH  38  61
ENDBRANCH  12  13
ENDBRANCH   5   7
ENDBRANCH   2   3
ENDBRANCH   1   2
BRANCH   1  72
ATOM     72  C   UNL A   1      34.046  28.082  23.047  1.00  0.00     0.117 C 
BRANCH  72  73
ATOM     73  N   UNL A   1      33.264  27.236  22.153  1.00  0.00    -0.356 N 
ATOM     74  C   UNL A   1      32.378  26.242  22.496  1.00  0.00     0.224 C 
ATOM     75  H   UNL A   1      33.383  27.396  21.190  1.00  0.00     0.163 HD
ATOM     76  O   UNL A   1      31.749  25.659  21.619  1.00  0.00    -0.275 OA
BRANCH  74  77
ATOM     77  C   UNL A   1      32.238  25.931  23.968  1.00  0.00     0.093 C 
ATOM     78  C   UNL A   1      30.913  26.471  24.509  1.00  0.00     0.016 C 
ATOM     79  C   UNL A   1      32.317  24.449  24.322  1.00  0.00     0.116 C 
ATOM     80  C   UNL A   1      31.020  26.455  26.017  1.00  0.00     0.018 C 
ATOM     81  N   UNL A   1      32.342  24.306  25.830  1.00  0.00    -0.197 NA
ATOM     82  C   UNL A   1      31.226  25.034  26.519  1.00  0.00     0.102 C 
BRANCH  81  83
ATOM     83  S   UNL A   1      32.457  22.638  26.293  1.00  0.00     0.243 S 
ATOM     84  O   UNL A   1      32.315  22.568  27.731  1.00  0.00    -0.207 OA
ATOM     85  O   UNL A   1      31.583  21.881  25.420  1.00  0.00    -0.207 OA
BRANCH  83  86
ATOM     86  C   UNL A   1      34.134  22.195  25.894  1.00  0.00     0.083 A 
ATOM     87  C   UNL A   1      34.396  20.998  25.216  1.00  0.00     0.022 A 
ATOM     88  C   UNL A   1      35.174  23.080  26.192  1.00  0.00     0.037 A 
ATOM     89  C   UNL A   1      35.710  20.633  24.929  1.00  0.00     0.003 A 
ATOM     90  C   UNL A   1      36.480  22.726  25.856  1.00  0.00     0.019 A 
ATOM     91  C   UNL A   1      36.754  21.499  25.250  1.00  0.00     0.016 A 
ATOM     92  Br  UNL A   1      37.896  23.929  26.206  1.00  0.00    -0.051 Br
ENDBRANCH  83  86
ENDBRANCH  81  83
ENDBRANCH  74  77
ENDBRANCH  72  73
ENDBRANCH   1  72
TORSDOF 12
ENDMDL
MODEL 3
REMARK VINA RESULT:     -12.6      5.486     10.916
REMARK SMILES O=C(NCCCNC(=O)[C@H]1CCCN(S(=O)(=O)c2cccc(Br)c2)C1)c1ccc(-c2c3nc(c(-c4c(F)c(F)c(F)c(F)c4F)c4ccc([nH]4)c(-c4c(F)c(F)c(F)c(F)c4F)c4nc(c(-c5c(F)c(F)c(F)c(F)c5F)c5ccc2[nH]5)C=C4)C=C3)cc1
REMARK SMILES IDX 5 1 4 2 3 3 1 4 2 5 26 7 27 8 88 9 28 10 87 11 29 12 30 13
REMARK SMILES IDX 31 14 81 15 32 16 86 17 80 18 82 19 33 20 85 21 79 22 78 23
REMARK SMILES IDX 34 25 66 26 46 27 65 28 47 29 50 30 64 31 83 32 48 33 49 34
REMARK SMILES IDX 63 36 84 37 51 38 35 39 36 40 44 41 37 42 38 43 42 44 45 45
REMARK SMILES IDX 39 46 40 47 43 48 41 49 67 50 68 51 76 52 69 53 70 54 74 55
REMARK SMILES IDX 77 56 71 57 72 58 75 59 73 60 52 61 53 62 61 63 54 64 55 65
REMARK SMILES IDX 59 66 62 67 56 68 57 69 60 70 58 71 6 72 7 73 8 74 9 76
REMARK SMILES IDX 10 77 11 78 25 79 12 80 14 81 13 82 15 83 16 84 17 85 18 86
REMARK SMILES IDX 19 87 24 88 20 89 22 90 21 91 23 92
REMARK H PARENT 3 6 82 24 50 35 7 75
REMARK Flexibility Score: inf
ROOT
ATOM      1  C   UNL A   1      37.811  19.824  24.670  1.00  0.00     0.042 C 
ENDROOT
BRANCH   1   2
ATOM      2  C   UNL A   1      38.803  20.221  25.747  1.00  0.00     0.118 C 
BRANCH   2   3
ATOM      3  N   UNL A   1      39.888  19.252  25.890  1.00  0.00    -0.352 N 
ATOM      4  O   UNL A   1      41.997  18.475  25.961  1.00  0.00    -0.269 OA
ATOM      5  C   UNL A   1      41.237  19.430  26.082  1.00  0.00     0.251 C 
ATOM      6  H   UNL A   1      39.602  18.310  25.841  1.00  0.00     0.163 HD
BRANCH   5   7
ATOM      7  C   UNL A   1      41.782  20.766  26.408  1.00  0.00     0.039 A 
ATOM      8  C   UNL A   1      42.088  21.105  27.723  1.00  0.00     0.014 A 
ATOM      9  C   UNL A   1      42.015  21.688  25.381  1.00  0.00     0.014 A 
ATOM     10  C   UNL A   1      42.418  22.414  28.040  1.00  0.00     0.010 A 
ATOM     11  C   UNL A   1      42.482  22.970  25.689  1.00  0.00     0.010 A 
ATOM     12  C   UNL A   1      42.645  23.358  27.027  1.00  0.00    -0.014 A 
BRANCH  12  13
ATOM     13  C   UNL A   1      43.109  24.715  27.412  1.00  0.00     0.031 A 
ATOM     14  C   UNL A   1      44.506  25.178  27.113  1.00  0.00     0.074 A 
ATOM     15  C   UNL A   1      42.223  25.557  27.980  1.00  0.00     0.049 A 
ATOM     16  N   UNL A   1      45.050  26.349  27.333  1.00  0.00    -0.248 NA
ATOM     17  C   UNL A   1      45.418  24.203  26.496  1.00  0.00     0.031 C 
ATOM     18  C   UNL A   1      40.841  25.213  28.327  1.00  0.00     0.029 A 
ATOM     19  N   UNL A   1      42.331  26.878  28.330  1.00  0.00    -0.354 N 
ATOM     20  C   UNL A   1      46.369  26.244  26.909  1.00  0.00     0.074 A 
ATOM     21  C   UNL A   1      46.552  24.888  26.437  1.00  0.00     0.031 C 
ATOM     22  C   UNL A   1      40.210  26.310  28.765  1.00  0.00     0.029 A 
ATOM     23  C   UNL A   1      41.159  27.415  28.804  1.00  0.00     0.049 A 
ATOM     24  H   UNL A   1      43.167  27.391  28.250  1.00  0.00     0.167 HD
ATOM     25  C   UNL A   1      47.333  27.196  26.910  1.00  0.00     0.037 A 
ATOM     26  C   UNL A   1      40.879  28.658  29.234  1.00  0.00     0.037 A 
ATOM     27  C   UNL A   1      47.134  28.552  27.355  1.00  0.00     0.049 A 
ATOM     28  C   UNL A   1      41.969  29.689  29.227  1.00  0.00     0.074 A 
ATOM     29  C   UNL A   1      48.038  29.600  27.365  1.00  0.00     0.029 A 
ATOM     30  N   UNL A   1      45.944  29.048  27.869  1.00  0.00    -0.354 N 
ATOM     31  N   UNL A   1      43.206  29.579  28.807  1.00  0.00    -0.248 NA
ATOM     32  C   UNL A   1      41.627  31.012  29.763  1.00  0.00     0.031 C 
ATOM     33  C   UNL A   1      47.408  30.719  27.921  1.00  0.00     0.029 A 
ATOM     34  C   UNL A   1      46.097  30.381  28.217  1.00  0.00     0.049 A 
ATOM     35  H   UNL A   1      45.113  28.529  27.971  1.00  0.00     0.167 HD
ATOM     36  C   UNL A   1      43.789  30.819  29.019  1.00  0.00     0.074 A 
ATOM     37  C   UNL A   1      42.761  31.673  29.581  1.00  0.00     0.031 C 
ATOM     38  C   UNL A   1      45.063  31.213  28.777  1.00  0.00     0.037 A 
BRANCH  25  39
ATOM     39  C   UNL A   1      48.702  26.802  26.433  1.00  0.00     0.064 A 
ATOM     40  C   UNL A   1      49.636  26.193  27.282  1.00  0.00     0.173 A 
ATOM     41  C   UNL A   1      49.066  26.999  25.091  1.00  0.00     0.173 A 
ATOM     42  F   UNL A   1      49.341  25.994  28.576  1.00  0.00    -0.203 F 
ATOM     43  C   UNL A   1      50.892  25.817  26.814  1.00  0.00     0.198 A 
ATOM     44  C   UNL A   1      50.313  26.598  24.620  1.00  0.00     0.198 A 
ATOM     45  F   UNL A   1      48.208  27.573  24.235  1.00  0.00    -0.203 F 
ATOM     46  F   UNL A   1      51.784  25.274  27.655  1.00  0.00    -0.200 F 
ATOM     47  C   UNL A   1      51.227  26.013  25.483  1.00  0.00     0.200 A 
ATOM     48  F   UNL A   1      50.632  26.779  23.331  1.00  0.00    -0.200 F 
ATOM     49  F   UNL A   1      52.434  25.644  25.032  1.00  0.00    -0.200 F 
ENDBRANCH  25  39
BRANCH  26  50
ATOM     50  C   UNL A   1      39.509  28.984  29.705  1.00  0.00     0.064 A 
ATOM     51  C   UNL A   1      38.551  29.508  28.826  1.00  0.00     0.173 A 
ATOM     52  C   UNL A   1      39.122  28.754  31.033  1.00  0.00     0.173 A 
ATOM     53  F   UNL A   1      38.880  29.761  27.551  1.00  0.00    -0.203 F 
ATOM     54  C   UNL A   1      37.261  29.799  29.261  1.00  0.00     0.198 A 
ATOM     55  C   UNL A   1      37.823  29.017  31.460  1.00  0.00     0.198 A 
ATOM     56  F   UNL A   1      40.001  28.246  31.909  1.00  0.00    -0.203 F 
ATOM     57  F   UNL A   1      36.373  30.332  28.411  1.00  0.00    -0.200 F 
ATOM     58  C   UNL A   1      36.895  29.545  30.575  1.00  0.00     0.200 A 
ATOM     59  F   UNL A   1      37.470  28.752  32.725  1.00  0.00    -0.200 F 
ATOM     60  F   UNL A   1      35.650  29.814  30.991  1.00  0.00    -0.200 F 
ENDBRANCH  26  50
BRANCH  38  61
ATOM     61  C   UNL A   1      45.403  32.636  29.102  1.00  0.00     0.064 A 
ATOM     62  C   UNL A   1      45.207  33.667  28.172  1.00  0.00     0.173 A 
ATOM     63  C   UNL A   1      45.917  32.973  30.362  1.00  0.00     0.173 A 
ATOM     64  F   UNL A   1      44.736  33.390  26.947  1.00  0.00    -0.203 F 
ATOM     65  C   UNL A   1      45.541  34.982  28.483  1.00  0.00     0.198 A 
ATOM     66  C   UNL A   1      46.225  34.293  30.679  1.00  0.00     0.198 A 
ATOM     67  F   UNL A   1      46.119  32.022  31.287  1.00  0.00    -0.203 F 
ATOM     68  F   UNL A   1      45.393  35.944  27.561  1.00  0.00    -0.200 F 
ATOM     69  C   UNL A   1      46.043  35.294  29.737  1.00  0.00     0.200 A 
ATOM     70  F   UNL A   1      46.702  34.594  31.894  1.00  0.00    -0.200 F 
ATOM     71  F   UNL A   1      46.365  36.561  30.035  1.00  0.00    -0.200 F 
ENDBRANCH  38  61
ENDBRANCH  12  13
ENDBRANCH   5   7
ENDBRANCH   2   3
ENDBRANCH   1   2
BRANCH   1  72
ATOM     72  C   UNL A   1      36.394  20.239  25.011  1.00  0.00     0.117 C 
BRANCH  72  73
ATOM     73  N   UNL A   1      35.456  19.122  25.008  1.00  0.00    -0.356 N 
ATOM     74  C   UNL A   1      34.112  19.153  24.723  1.00  0.00     0.224 C 
ATOM     75  H   UNL A   1      35.830  18.241  25.236  1.00  0.00     0.163 HD
ATOM     76  O   UNL A   1      33.469  18.109  24.706  1.00  0.00    -0.275 OA
BRANCH  74  77
ATOM     77  C   UNL A   1      33.504  20.509  24.445  1.00  0.00     0.093 C 
ATOM     78  C   UNL A   1      32.568  20.442  23.237  1.00  0.00     0.016 C 
ATOM     79  C   UNL A   1      32.723  21.114  25.607  1.00  0.00     0.116 C 
ATOM     80  C   UNL A   1      32.310  21.868  22.807  1.00  0.00     0.018 C 
ATOM     81  N   UNL A   1      32.331  22.533  25.248  1.00  0.00    -0.197 NA
ATOM     82  C   UNL A   1      31.632  22.645  23.925  1.00  0.00     0.102 C 
BRANCH  81  83
ATOM     83  S   UNL A   1      31.459  23.284  26.547  1.00  0.00     0.243 S 
ATOM     84  O   UNL A   1      30.098  22.794  26.505  1.00  0.00    -0.207 OA
ATOM     85  O   UNL A   1      32.263  23.154  27.745  1.00  0.00    -0.207 OA
BRANCH  83  86
ATOM     86  C   UNL A   1      31.426  25.007  26.103  1.00  0.00     0.083 A 
ATOM     87  C   UNL A   1      30.271  25.558  25.532  1.00  0.00     0.022 A 
ATOM     88  C   UNL A   1      32.524  25.819  26.397  1.00  0.00     0.037 A 
ATOM     89  C   UNL A   1      30.252  26.899  25.155  1.00  0.00     0.003 A 
ATOM     90  C   UNL A   1      32.475  27.171  26.061  1.00  0.00     0.019 A 
ATOM     91  C   UNL A   1      31.357  27.708  25.420  1.00  0.00     0.016 A 
ATOM     92  Br  UNL A   1      33.931  28.298  26.493  1.00  0.00    -0.051 Br
ENDBRANCH  83  86
ENDBRANCH  81  83
ENDBRANCH  74  77
ENDBRANCH  72  73
ENDBRANCH   1  72
TORSDOF 12
ENDMDL
