MODEL 1
REMARK VINA RESULT:     -13.5      0.000      0.000
REMARK SMILES Cc1ccccc1OCC(=O)N1C[C@@H](O)C[C@H]1C(=O)NCCCNC(=O)c1ccc(-c2c3nc(c(-c4c(F)c(F)c(F)c(F)c4F)c4ccc([nH]4)c(-c4c(F)c(F)c(F)c(F)c4F)c4nc(c(-c5c(F)c(F)c(F)c(F)c5F)c5ccc2[nH]5)C=C4)C=C3)cc1
REMARK SMILES IDX 21 1 20 2 18 3 19 4 17 6 12 7 13 8 14 9 16 10 10 11 11 12
REMARK SMILES IDX 9 13 8 14 7 15 1 16 2 17 3 18 4 19 6 20 5 21 15 22 22 24
REMARK SMILES IDX 23 25 24 26 25 27 26 29 27 30 28 31 89 32 29 33 88 34 30 35
REMARK SMILES IDX 31 36 32 37 82 38 33 39 87 40 81 41 83 42 34 43 86 44 80 45
REMARK SMILES IDX 79 46 35 48 67 49 47 50 66 51 48 52 51 53 65 54 84 55 49 56
REMARK SMILES IDX 50 57 64 59 85 60 52 61 36 62 37 63 45 64 38 65 39 66 43 67
REMARK SMILES IDX 46 68 40 69 41 70 44 71 42 72 68 73 69 74 77 75 70 76 71 77
REMARK SMILES IDX 75 78 78 79 72 80 73 81 76 82 74 83 53 84 54 85 62 86 55 87
REMARK SMILES IDX 56 88 60 89 63 90 57 91 58 92 61 93 59 94
REMARK H PARENT 20 5 15 23 24 28 83 47 51 58
REMARK Flexibility Score: inf
ROOT
ATOM      1  C   UNL A   1      31.946  30.047  25.799  1.00  0.00     0.117 C 
ENDROOT
BRANCH   1   2
ATOM      2  N   UNL A   1      32.914  29.855  24.735  1.00  0.00    -0.354 N 
ATOM      3  C   UNL A   1      33.265  28.748  24.017  1.00  0.00     0.242 C 
ATOM      4  O   UNL A   1      33.949  28.950  23.007  1.00  0.00    -0.273 OA
ATOM      5  H   UNL A   1      33.408  30.669  24.486  1.00  0.00     0.163 HD
BRANCH   3   6
ATOM      6  C   UNL A   1      32.746  27.324  24.334  1.00  0.00     0.177 C 
ATOM      7  N   UNL A   1      32.553  26.445  23.182  1.00  0.00    -0.325 N 
ATOM      8  C   UNL A   1      33.331  25.227  23.283  1.00  0.00     0.152 C 
ATOM      9  C   UNL A   1      33.772  25.148  24.742  1.00  0.00     0.136 C 
ATOM     10  C   UNL A   1      33.657  26.565  25.301  1.00  0.00     0.069 C 
BRANCH   7  11
ATOM     11  C   UNL A   1      31.494  26.669  22.318  1.00  0.00     0.261 C 
ATOM     12  O   UNL A   1      31.562  26.362  21.127  1.00  0.00    -0.271 OA
BRANCH  11  13
ATOM     13  C   UNL A   1      30.257  27.405  22.851  1.00  0.00     0.329 C 
BRANCH  13  14
ATOM     14  O   UNL A   1      29.616  28.320  21.998  1.00  0.00    -0.484 OA
BRANCH  14  15
ATOM     15  C   UNL A   1      28.895  29.391  22.433  1.00  0.00     0.122 A 
ATOM     16  C   UNL A   1      26.822  28.314  23.564  1.00  0.00     0.048 C 
ATOM     17  C   UNL A   1      27.677  29.469  23.125  1.00  0.00    -0.009 A 
ATOM     18  C   UNL A   1      27.204  30.748  23.501  1.00  0.00     0.007 A 
ATOM     19  C   UNL A   1      27.896  31.917  23.184  1.00  0.00     0.001 A 
ATOM     20  C   UNL A   1      29.568  30.583  22.105  1.00  0.00     0.047 A 
ATOM     21  C   UNL A   1      29.080  31.835  22.474  1.00  0.00     0.004 A 
ENDBRANCH  14  15
ENDBRANCH  13  14
ENDBRANCH  11  13
ENDBRANCH   7  11
BRANCH   9  22
ATOM     22  O   UNL A   1      35.095  24.647  24.879  1.00  0.00    -0.391 OA
ATOM     23  H   UNL A   1      35.468  24.947  25.722  1.00  0.00     0.211 HD
ENDBRANCH   9  22
ENDBRANCH   3   6
ENDBRANCH   1   2
BRANCH   1  24
ATOM     24  C   UNL A   1      32.440  30.972  26.896  1.00  0.00     0.042 C 
BRANCH  24  25
ATOM     25  C   UNL A   1      33.705  30.470  27.571  1.00  0.00     0.118 C 
BRANCH  25  26
ATOM     26  N   UNL A   1      34.319  31.436  28.480  1.00  0.00    -0.352 N 
ATOM     27  C   UNL A   1      35.522  31.333  29.166  1.00  0.00     0.251 C 
ATOM     28  H   UNL A   1      33.814  32.268  28.626  1.00  0.00     0.163 HD
ATOM     29  O   UNL A   1      35.913  32.225  29.894  1.00  0.00    -0.269 OA
BRANCH  27  30
ATOM     30  C   UNL A   1      36.379  30.158  28.885  1.00  0.00     0.039 A 
ATOM     31  C   UNL A   1      36.683  29.302  29.946  1.00  0.00     0.014 A 
ATOM     32  C   UNL A   1      37.076  30.083  27.684  1.00  0.00     0.014 A 
ATOM     33  C   UNL A   1      37.860  28.561  29.893  1.00  0.00     0.010 A 
ATOM     34  C   UNL A   1      38.297  29.442  27.676  1.00  0.00     0.010 A 
ATOM     35  C   UNL A   1      38.722  28.743  28.811  1.00  0.00    -0.014 A 
BRANCH  35  36
ATOM     36  C   UNL A   1      40.125  28.346  28.838  1.00  0.00     0.031 A 
ATOM     37  C   UNL A   1      40.534  27.007  28.377  1.00  0.00     0.074 A 
ATOM     38  C   UNL A   1      41.066  29.244  29.208  1.00  0.00     0.049 A 
ATOM     39  N   UNL A   1      41.658  26.447  28.671  1.00  0.00    -0.248 NA
ATOM     40  C   UNL A   1      39.666  26.162  27.568  1.00  0.00     0.031 C 
ATOM     41  C   UNL A   1      42.515  29.132  29.050  1.00  0.00     0.029 A 
ATOM     42  N   UNL A   1      40.895  30.369  30.035  1.00  0.00    -0.354 N 
ATOM     43  C   UNL A   1      41.784  25.314  27.902  1.00  0.00     0.074 A 
ATOM     44  C   UNL A   1      40.492  25.153  27.275  1.00  0.00     0.031 C 
ATOM     45  C   UNL A   1      43.107  29.896  29.980  1.00  0.00     0.029 A 
ATOM     46  C   UNL A   1      42.058  30.402  30.846  1.00  0.00     0.049 A 
ATOM     47  H   UNL A   1      40.136  30.995  30.048  1.00  0.00     0.167 HD
ATOM     48  C   UNL A   1      43.006  24.715  27.803  1.00  0.00     0.037 A 
ATOM     49  C   UNL A   1      41.979  30.201  32.193  1.00  0.00     0.037 A 
ATOM     50  C   UNL A   1      43.986  25.332  28.699  1.00  0.00     0.049 A 
ATOM     51  C   UNL A   1      42.774  29.020  32.712  1.00  0.00     0.074 A 
ATOM     52  C   UNL A   1      45.036  26.223  28.541  1.00  0.00     0.029 A 
ATOM     53  N   UNL A   1      43.768  25.251  30.064  1.00  0.00    -0.354 N 
ATOM     54  N   UNL A   1      43.415  28.167  31.961  1.00  0.00    -0.248 NA
ATOM     55  C   UNL A   1      42.804  28.645  34.127  1.00  0.00     0.031 C 
ATOM     56  C   UNL A   1      45.461  26.652  29.833  1.00  0.00     0.029 A 
ATOM     57  C   UNL A   1      44.664  26.026  30.773  1.00  0.00     0.049 A 
ATOM     58  H   UNL A   1      43.061  24.706  30.479  1.00  0.00     0.167 HD
ATOM     59  C   UNL A   1      43.889  27.144  32.738  1.00  0.00     0.074 A 
ATOM     60  C   UNL A   1      43.472  27.482  34.086  1.00  0.00     0.031 C 
ATOM     61  C   UNL A   1      44.552  26.069  32.219  1.00  0.00     0.037 A 
BRANCH  48  62
ATOM     62  C   UNL A   1      43.375  23.716  26.723  1.00  0.00     0.064 A 
ATOM     63  C   UNL A   1      42.968  22.368  26.817  1.00  0.00     0.173 A 
ATOM     64  C   UNL A   1      44.178  24.003  25.604  1.00  0.00     0.173 A 
ATOM     65  F   UNL A   1      42.095  21.960  27.747  1.00  0.00    -0.203 F 
ATOM     66  C   UNL A   1      43.442  21.375  25.953  1.00  0.00     0.198 A 
ATOM     67  C   UNL A   1      44.705  23.004  24.778  1.00  0.00     0.198 A 
ATOM     68  F   UNL A   1      44.424  25.262  25.226  1.00  0.00    -0.203 F 
ATOM     69  F   UNL A   1      43.023  20.111  26.102  1.00  0.00    -0.200 F 
ATOM     70  C   UNL A   1      44.348  21.686  24.962  1.00  0.00     0.200 A 
ATOM     71  F   UNL A   1      45.557  23.335  23.796  1.00  0.00    -0.200 F 
ATOM     72  F   UNL A   1      44.846  20.729  24.169  1.00  0.00    -0.200 F 
ENDBRANCH  48  62
BRANCH  49  73
ATOM     73  C   UNL A   1      40.699  30.684  32.779  1.00  0.00     0.064 A 
ATOM     74  C   UNL A   1      40.477  32.073  32.870  1.00  0.00     0.173 A 
ATOM     75  C   UNL A   1      39.590  29.843  32.915  1.00  0.00     0.173 A 
ATOM     76  F   UNL A   1      41.505  32.929  32.743  1.00  0.00    -0.203 F 
ATOM     77  C   UNL A   1      39.191  32.597  32.968  1.00  0.00     0.198 A 
ATOM     78  C   UNL A   1      38.304  30.372  33.040  1.00  0.00     0.198 A 
ATOM     79  F   UNL A   1      39.726  28.514  32.810  1.00  0.00    -0.203 F 
ATOM     80  F   UNL A   1      39.002  33.924  32.925  1.00  0.00    -0.200 F 
ATOM     81  C   UNL A   1      38.102  31.744  33.030  1.00  0.00     0.200 A 
ATOM     82  F   UNL A   1      37.248  29.546  33.067  1.00  0.00    -0.200 F 
ATOM     83  F   UNL A   1      36.858  32.242  33.031  1.00  0.00    -0.200 F 
ENDBRANCH  49  73
BRANCH  61  84
ATOM     84  C   UNL A   1      45.115  24.943  33.047  1.00  0.00     0.064 A 
ATOM     85  C   UNL A   1      44.312  23.936  33.606  1.00  0.00     0.173 A 
ATOM     86  C   UNL A   1      46.484  24.900  33.392  1.00  0.00     0.173 A 
ATOM     87  F   UNL A   1      42.983  23.937  33.430  1.00  0.00    -0.203 F 
ATOM     88  C   UNL A   1      44.854  22.910  34.385  1.00  0.00     0.198 A 
ATOM     89  C   UNL A   1      47.014  23.906  34.214  1.00  0.00     0.198 A 
ATOM     90  F   UNL A   1      47.356  25.805  32.927  1.00  0.00    -0.203 F 
ATOM     91  F   UNL A   1      44.059  21.932  34.841  1.00  0.00    -0.200 F 
ATOM     92  C   UNL A   1      46.203  22.899  34.693  1.00  0.00     0.200 A 
ATOM     93  F   UNL A   1      48.317  23.929  34.528  1.00  0.00    -0.200 F 
ATOM     94  F   UNL A   1      46.718  21.921  35.451  1.00  0.00    -0.200 F 
ENDBRANCH  61  84
ENDBRANCH  35  36
ENDBRANCH  27  30
ENDBRANCH  25  26
ENDBRANCH  24  25
ENDBRANCH   1  24
TORSDOF 15
ENDMDL
MODEL 2
REMARK VINA RESULT:     -13.4      1.453      3.008
REMARK SMILES Cc1ccccc1OCC(=O)N1C[C@@H](O)C[C@H]1C(=O)NCCCNC(=O)c1ccc(-c2c3nc(c(-c4c(F)c(F)c(F)c(F)c4F)c4ccc([nH]4)c(-c4c(F)c(F)c(F)c(F)c4F)c4nc(c(-c5c(F)c(F)c(F)c(F)c5F)c5ccc2[nH]5)C=C4)C=C3)cc1
REMARK SMILES IDX 21 1 20 2 18 3 19 4 17 6 12 7 13 8 14 9 16 10 10 11 11 12
REMARK SMILES IDX 9 13 8 14 7 15 1 16 2 17 3 18 4 19 6 20 5 21 15 22 22 24
REMARK SMILES IDX 23 25 24 26 25 27 26 29 27 30 28 31 89 32 29 33 88 34 30 35
REMARK SMILES IDX 31 36 32 37 82 38 33 39 87 40 81 41 83 42 34 43 86 44 80 45
REMARK SMILES IDX 79 46 35 48 67 49 47 50 66 51 48 52 51 53 65 54 84 55 49 56
REMARK SMILES IDX 50 57 64 59 85 60 52 61 36 62 37 63 45 64 38 65 39 66 43 67
REMARK SMILES IDX 46 68 40 69 41 70 44 71 42 72 68 73 69 74 77 75 70 76 71 77
REMARK SMILES IDX 75 78 78 79 72 80 73 81 76 82 74 83 53 84 54 85 62 86 55 87
REMARK SMILES IDX 56 88 60 89 63 90 57 91 58 92 61 93 59 94
REMARK H PARENT 20 5 15 23 24 28 83 47 51 58
REMARK Flexibility Score: inf
ROOT
ATOM      1  C   UNL A   1      31.884  29.356  26.458  1.00  0.00     0.117 C 
ENDROOT
BRANCH   1   2
ATOM      2  N   UNL A   1      31.499  29.646  25.089  1.00  0.00    -0.354 N 
ATOM      3  C   UNL A   1      31.635  28.925  23.937  1.00  0.00     0.242 C 
ATOM      4  O   UNL A   1      30.988  29.330  22.965  1.00  0.00    -0.273 OA
ATOM      5  H   UNL A   1      31.062  30.519  24.969  1.00  0.00     0.163 HD
BRANCH   3   6
ATOM      6  C   UNL A   1      32.431  27.601  23.846  1.00  0.00     0.177 C 
ATOM      7  N   UNL A   1      31.630  26.381  23.755  1.00  0.00    -0.325 N 
ATOM      8  C   UNL A   1      31.930  25.614  22.562  1.00  0.00     0.152 C 
ATOM      9  C   UNL A   1      33.246  26.180  22.037  1.00  0.00     0.136 C 
ATOM     10  C   UNL A   1      33.392  27.570  22.656  1.00  0.00     0.069 C 
BRANCH   7  11
ATOM     11  C   UNL A   1      30.945  25.925  24.869  1.00  0.00     0.261 C 
ATOM     12  O   UNL A   1      29.713  25.884  24.891  1.00  0.00    -0.271 OA
BRANCH  11  13
ATOM     13  C   UNL A   1      31.748  25.562  26.125  1.00  0.00     0.329 C 
BRANCH  13  14
ATOM     14  O   UNL A   1      32.240  24.250  26.236  1.00  0.00    -0.484 OA
BRANCH  14  15
ATOM     15  C   UNL A   1      33.231  23.740  25.453  1.00  0.00     0.122 A 
ATOM     16  C   UNL A   1      32.153  21.623  24.406  1.00  0.00     0.048 C 
ATOM     17  C   UNL A   1      33.267  22.607  24.625  1.00  0.00    -0.009 A 
ATOM     18  C   UNL A   1      34.442  22.368  23.872  1.00  0.00     0.007 A 
ATOM     19  C   UNL A   1      35.556  23.204  23.952  1.00  0.00     0.001 A 
ATOM     20  C   UNL A   1      34.373  24.559  25.534  1.00  0.00     0.047 A 
ATOM     21  C   UNL A   1      35.524  24.301  24.793  1.00  0.00     0.004 A 
ENDBRANCH  14  15
ENDBRANCH  13  14
ENDBRANCH  11  13
ENDBRANCH   7  11
BRANCH   9  22
ATOM     22  O   UNL A   1      33.277  26.244  20.618  1.00  0.00    -0.391 OA
ATOM     23  H   UNL A   1      33.710  25.449  20.268  1.00  0.00     0.211 HD
ENDBRANCH   9  22
ENDBRANCH   3   6
ENDBRANCH   1   2
BRANCH   1  24
ATOM     24  C   UNL A   1      32.561  30.526  27.148  1.00  0.00     0.042 C 
BRANCH  24  25
ATOM     25  C   UNL A   1      34.021  30.259  27.472  1.00  0.00     0.118 C 
BRANCH  25  26
ATOM     26  N   UNL A   1      34.609  31.218  28.408  1.00  0.00    -0.352 N 
ATOM     27  C   UNL A   1      35.767  31.089  29.162  1.00  0.00     0.251 C 
ATOM     28  H   UNL A   1      34.119  32.064  28.518  1.00  0.00     0.163 HD
ATOM     29  O   UNL A   1      36.140  31.978  29.905  1.00  0.00    -0.269 OA
BRANCH  27  30
ATOM     30  C   UNL A   1      36.607  29.890  28.940  1.00  0.00     0.039 A 
ATOM     31  C   UNL A   1      36.911  29.091  30.045  1.00  0.00     0.014 A 
ATOM     32  C   UNL A   1      37.291  29.739  27.739  1.00  0.00     0.014 A 
ATOM     33  C   UNL A   1      38.078  28.333  30.023  1.00  0.00     0.010 A 
ATOM     34  C   UNL A   1      38.504  29.082  27.756  1.00  0.00     0.010 A 
ATOM     35  C   UNL A   1      38.931  28.443  28.925  1.00  0.00    -0.014 A 
BRANCH  35  36
ATOM     36  C   UNL A   1      40.330  28.030  28.962  1.00  0.00     0.031 A 
ATOM     37  C   UNL A   1      40.733  26.704  28.459  1.00  0.00     0.074 A 
ATOM     38  C   UNL A   1      41.273  28.904  29.380  1.00  0.00     0.049 A 
ATOM     39  N   UNL A   1      41.846  26.122  28.752  1.00  0.00    -0.248 NA
ATOM     40  C   UNL A   1      39.871  25.898  27.606  1.00  0.00     0.031 C 
ATOM     41  C   UNL A   1      42.724  28.783  29.243  1.00  0.00     0.029 A 
ATOM     42  N   UNL A   1      41.099  30.000  30.243  1.00  0.00    -0.354 N 
ATOM     43  C   UNL A   1      41.974  25.017  27.945  1.00  0.00     0.074 A 
ATOM     44  C   UNL A   1      40.692  24.891  27.290  1.00  0.00     0.031 C 
ATOM     45  C   UNL A   1      43.307  29.506  30.210  1.00  0.00     0.029 A 
ATOM     46  C   UNL A   1      42.249  29.992  31.075  1.00  0.00     0.049 A 
ATOM     47  H   UNL A   1      40.346  30.634  30.266  1.00  0.00     0.167 HD
ATOM     48  C   UNL A   1      43.192  24.408  27.845  1.00  0.00     0.037 A 
ATOM     49  C   UNL A   1      42.143  29.744  32.412  1.00  0.00     0.037 A 
ATOM     50  C   UNL A   1      44.162  24.982  28.780  1.00  0.00     0.049 A 
ATOM     51  C   UNL A   1      42.918  28.536  32.902  1.00  0.00     0.074 A 
ATOM     52  C   UNL A   1      45.224  25.866  28.672  1.00  0.00     0.029 A 
ATOM     53  N   UNL A   1      43.919  24.854  30.137  1.00  0.00    -0.354 N 
ATOM     54  N   UNL A   1      43.563  27.704  32.132  1.00  0.00    -0.248 NA
ATOM     55  C   UNL A   1      42.919  28.110  34.303  1.00  0.00     0.031 C 
ATOM     56  C   UNL A   1      45.630  26.244  29.985  1.00  0.00     0.029 A 
ATOM     57  C   UNL A   1      44.811  25.594  30.888  1.00  0.00     0.049 A 
ATOM     58  H   UNL A   1      43.200  24.302  30.520  1.00  0.00     0.167 HD
ATOM     59  C   UNL A   1      44.013  26.649  32.879  1.00  0.00     0.074 A 
ATOM     60  C   UNL A   1      43.576  26.942  34.231  1.00  0.00     0.031 C 
ATOM     61  C   UNL A   1      44.673  25.586  32.333  1.00  0.00     0.037 A 
BRANCH  48  62
ATOM     62  C   UNL A   1      43.570  23.445  26.736  1.00  0.00     0.064 A 
ATOM     63  C   UNL A   1      43.071  22.124  26.726  1.00  0.00     0.173 A 
ATOM     64  C   UNL A   1      44.465  23.735  25.691  1.00  0.00     0.173 A 
ATOM     65  F   UNL A   1      42.112  21.729  27.573  1.00  0.00    -0.203 F 
ATOM     66  C   UNL A   1      43.538  21.148  25.840  1.00  0.00     0.198 A 
ATOM     67  C   UNL A   1      44.982  22.747  24.845  1.00  0.00     0.198 A 
ATOM     68  F   UNL A   1      44.817  24.993  25.402  1.00  0.00    -0.203 F 
ATOM     69  F   UNL A   1      43.030  19.909  25.888  1.00  0.00    -0.200 F 
ATOM     70  C   UNL A   1      44.529  21.449  24.930  1.00  0.00     0.200 A 
ATOM     71  F   UNL A   1      45.919  23.071  23.942  1.00  0.00    -0.200 F 
ATOM     72  F   UNL A   1      45.018  20.503  24.117  1.00  0.00    -0.200 F 
ENDBRANCH  48  62
BRANCH  49  73
ATOM     73  C   UNL A   1      40.858  30.219  32.993  1.00  0.00     0.064 A 
ATOM     74  C   UNL A   1      40.639  31.607  33.109  1.00  0.00     0.173 A 
ATOM     75  C   UNL A   1      39.745  29.379  33.100  1.00  0.00     0.173 A 
ATOM     76  F   UNL A   1      41.672  32.461  33.012  1.00  0.00    -0.203 F 
ATOM     77  C   UNL A   1      39.354  32.133  33.204  1.00  0.00     0.198 A 
ATOM     78  C   UNL A   1      38.460  29.910  33.221  1.00  0.00     0.198 A 
ATOM     79  F   UNL A   1      39.878  28.052  32.970  1.00  0.00    -0.203 F 
ATOM     80  F   UNL A   1      39.170  33.461  33.185  1.00  0.00    -0.200 F 
ATOM     81  C   UNL A   1      38.262  31.283  33.236  1.00  0.00     0.200 A 
ATOM     82  F   UNL A   1      37.401  29.087  33.219  1.00  0.00    -0.200 F 
ATOM     83  F   UNL A   1      37.020  31.784  33.233  1.00  0.00    -0.200 F 
ENDBRANCH  49  73
BRANCH  61  84
ATOM     84  C   UNL A   1      45.211  24.425  33.129  1.00  0.00     0.064 A 
ATOM     85  C   UNL A   1      44.417  23.330  33.506  1.00  0.00     0.173 A 
ATOM     86  C   UNL A   1      46.531  24.428  33.631  1.00  0.00     0.173 A 
ATOM     87  F   UNL A   1      43.119  23.273  33.173  1.00  0.00    -0.203 F 
ATOM     88  C   UNL A   1      44.932  22.271  34.260  1.00  0.00     0.198 A 
ATOM     89  C   UNL A   1      47.027  23.397  34.428  1.00  0.00     0.198 A 
ATOM     90  F   UNL A   1      47.390  25.417  33.347  1.00  0.00    -0.203 F 
ATOM     91  F   UNL A   1      44.156  21.215  34.537  1.00  0.00    -0.200 F 
ATOM     92  C   UNL A   1      46.235  22.308  34.725  1.00  0.00     0.200 A 
ATOM     93  F   UNL A   1      48.282  23.464  34.896  1.00  0.00    -0.200 F 
ATOM     94  F   UNL A   1      46.723  21.299  35.457  1.00  0.00    -0.200 F 
ENDBRANCH  61  84
ENDBRANCH  35  36
ENDBRANCH  27  30
ENDBRANCH  25  26
ENDBRANCH  24  25
ENDBRANCH   1  24
TORSDOF 15
ENDMDL
MODEL 3
REMARK VINA RESULT:     -13.4      3.873      9.945
REMARK SMILES Cc1ccccc1OCC(=O)N1C[C@@H](O)C[C@H]1C(=O)NCCCNC(=O)c1ccc(-c2c3nc(c(-c4c(F)c(F)c(F)c(F)c4F)c4ccc([nH]4)c(-c4c(F)c(F)c(F)c(F)c4F)c4nc(c(-c5c(F)c(F)c(F)c(F)c5F)c5ccc2[nH]5)C=C4)C=C3)cc1
REMARK SMILES IDX 21 1 20 2 18 3 19 4 17 6 12 7 13 8 14 9 16 10 10 11 11 12
REMARK SMILES IDX 9 13 8 14 7 15 1 16 2 17 3 18 4 19 6 20 5 21 15 22 22 24
REMARK SMILES IDX 23 25 24 26 25 27 26 29 27 30 28 31 89 32 29 33 88 34 30 35
REMARK SMILES IDX 31 36 32 37 82 38 33 39 87 40 81 41 83 42 34 43 86 44 80 45
REMARK SMILES IDX 79 46 35 48 67 49 47 50 66 51 48 52 51 53 65 54 84 55 49 56
REMARK SMILES IDX 50 57 64 59 85 60 52 61 36 62 37 63 45 64 38 65 39 66 43 67
REMARK SMILES IDX 46 68 40 69 41 70 44 71 42 72 68 73 69 74 77 75 70 76 71 77
REMARK SMILES IDX 75 78 78 79 72 80 73 81 76 82 74 83 53 84 54 85 62 86 55 87
REMARK SMILES IDX 56 88 60 89 63 90 57 91 58 92 61 93 59 94
REMARK H PARENT 20 5 15 23 24 28 83 47 51 58
REMARK Flexibility Score: inf
ROOT
ATOM      1  C   UNL A   1      36.554  21.547  24.821  1.00  0.00     0.117 C 
ENDROOT
BRANCH   1   2
ATOM      2  N   UNL A   1      35.539  20.647  25.337  1.00  0.00    -0.354 N 
ATOM      3  C   UNL A   1      34.264  20.872  25.771  1.00  0.00     0.242 C 
ATOM      4  O   UNL A   1      33.557  19.869  25.923  1.00  0.00    -0.273 OA
ATOM      5  H   UNL A   1      35.820  19.705  25.384  1.00  0.00     0.163 HD
BRANCH   3   6
ATOM      6  C   UNL A   1      33.657  22.285  25.944  1.00  0.00     0.177 C 
ATOM      7  N   UNL A   1      32.760  22.729  24.877  1.00  0.00    -0.325 N 
ATOM      8  C   UNL A   1      31.441  23.066  25.373  1.00  0.00     0.152 C 
ATOM      9  C   UNL A   1      31.596  23.192  26.885  1.00  0.00     0.136 C 
ATOM     10  C   UNL A   1      32.874  22.436  27.249  1.00  0.00     0.069 C 
BRANCH   7  11
ATOM     11  C   UNL A   1      33.282  23.073  23.642  1.00  0.00     0.261 C 
ATOM     12  O   UNL A   1      33.055  22.394  22.639  1.00  0.00    -0.271 OA
BRANCH  11  13
ATOM     13  C   UNL A   1      34.238  24.271  23.558  1.00  0.00     0.329 C 
BRANCH  13  14
ATOM     14  O   UNL A   1      33.699  25.522  23.212  1.00  0.00    -0.484 OA
BRANCH  14  15
ATOM     15  C   UNL A   1      33.719  26.613  24.027  1.00  0.00     0.122 A 
ATOM     16  C   UNL A   1      34.037  28.597  22.385  1.00  0.00     0.048 C 
ATOM     17  C   UNL A   1      33.855  27.980  23.742  1.00  0.00    -0.009 A 
ATOM     18  C   UNL A   1      33.771  28.897  24.817  1.00  0.00     0.007 A 
ATOM     19  C   UNL A   1      33.583  28.479  26.135  1.00  0.00     0.001 A 
ATOM     20  C   UNL A   1      33.550  26.211  25.366  1.00  0.00     0.047 A 
ATOM     21  C   UNL A   1      33.481  27.128  26.412  1.00  0.00     0.004 A 
ENDBRANCH  14  15
ENDBRANCH  13  14
ENDBRANCH  11  13
ENDBRANCH   7  11
BRANCH   9  22
ATOM     22  O   UNL A   1      30.474  22.674  27.587  1.00  0.00    -0.391 OA
ATOM     23  H   UNL A   1      29.861  23.396  27.794  1.00  0.00     0.211 HD
ENDBRANCH   9  22
ENDBRANCH   3   6
ENDBRANCH   1   2
BRANCH   1  24
ATOM     24  C   UNL A   1      37.844  21.513  25.620  1.00  0.00     0.042 C 
BRANCH  24  25
ATOM     25  C   UNL A   1      38.577  22.843  25.619  1.00  0.00     0.118 C 
BRANCH  25  26
ATOM     26  N   UNL A   1      39.933  22.777  26.164  1.00  0.00    -0.352 N 
ATOM     27  C   UNL A   1      40.688  23.796  26.728  1.00  0.00     0.251 C 
ATOM     28  H   UNL A   1      40.367  21.895  26.124  1.00  0.00     0.163 HD
ATOM     29  O   UNL A   1      41.812  23.593  27.145  1.00  0.00    -0.269 OA
BRANCH  27  30
ATOM     30  C   UNL A   1      40.036  25.111  26.925  1.00  0.00     0.039 A 
ATOM     31  C   UNL A   1      40.613  26.226  26.311  1.00  0.00     0.014 A 
ATOM     32  C   UNL A   1      39.066  25.260  27.911  1.00  0.00     0.014 A 
ATOM     33  C   UNL A   1      40.411  27.481  26.876  1.00  0.00     0.010 A 
ATOM     34  C   UNL A   1      38.957  26.482  28.541  1.00  0.00     0.010 A 
ATOM     35  C   UNL A   1      39.691  27.575  28.067  1.00  0.00    -0.014 A 
BRANCH  35  36
ATOM     36  C   UNL A   1      39.756  28.739  28.944  1.00  0.00     0.031 A 
ATOM     37  C   UNL A   1      38.759  29.820  28.830  1.00  0.00     0.074 A 
ATOM     38  C   UNL A   1      40.685  28.785  29.925  1.00  0.00     0.049 A 
ATOM     39  N   UNL A   1      38.919  31.010  29.300  1.00  0.00    -0.248 NA
ATOM     40  C   UNL A   1      37.498  29.646  28.122  1.00  0.00     0.031 C 
ATOM     41  C   UNL A   1      40.745  29.715  31.053  1.00  0.00     0.029 A 
ATOM     42  N   UNL A   1      41.923  28.119  29.961  1.00  0.00    -0.354 N 
ATOM     43  C   UNL A   1      37.718  31.672  29.200  1.00  0.00     0.074 A 
ATOM     44  C   UNL A   1      36.882  30.797  28.409  1.00  0.00     0.031 C 
ATOM     45  C   UNL A   1      42.020  29.814  31.458  1.00  0.00     0.029 A 
ATOM     46  C   UNL A   1      42.827  29.064  30.513  1.00  0.00     0.049 A 
ATOM     47  H   UNL A   1      42.120  27.201  29.668  1.00  0.00     0.167 HD
ATOM     48  C   UNL A   1      37.541  32.832  29.899  1.00  0.00     0.037 A 
ATOM     49  C   UNL A   1      43.850  29.572  29.768  1.00  0.00     0.037 A 
ATOM     50  C   UNL A   1      38.781  33.266  30.547  1.00  0.00     0.049 A 
ATOM     51  C   UNL A   1      43.828  31.078  29.594  1.00  0.00     0.074 A 
ATOM     52  C   UNL A   1      39.278  33.223  31.840  1.00  0.00     0.029 A 
ATOM     53  N   UNL A   1      39.855  33.608  29.744  1.00  0.00    -0.354 N 
ATOM     54  N   UNL A   1      42.873  31.861  30.014  1.00  0.00    -0.248 NA
ATOM     55  C   UNL A   1      44.839  31.801  28.821  1.00  0.00     0.031 C 
ATOM     56  C   UNL A   1      40.661  33.571  31.801  1.00  0.00     0.029 A 
ATOM     57  C   UNL A   1      41.001  33.819  30.485  1.00  0.00     0.049 A 
ATOM     58  H   UNL A   1      39.808  33.692  28.765  1.00  0.00     0.167 HD
ATOM     59  C   UNL A   1      43.094  33.133  29.556  1.00  0.00     0.074 A 
ATOM     60  C   UNL A   1      44.332  33.044  28.804  1.00  0.00     0.031 C 
ATOM     61  C   UNL A   1      42.226  34.162  29.785  1.00  0.00     0.037 A 
BRANCH  48  62
ATOM     62  C   UNL A   1      36.188  33.451  30.185  1.00  0.00     0.064 A 
ATOM     63  C   UNL A   1      35.420  34.021  29.146  1.00  0.00     0.173 A 
ATOM     64  C   UNL A   1      35.614  33.575  31.464  1.00  0.00     0.173 A 
ATOM     65  F   UNL A   1      35.760  33.874  27.859  1.00  0.00    -0.203 F 
ATOM     66  C   UNL A   1      34.264  34.770  29.386  1.00  0.00     0.198 A 
ATOM     67  C   UNL A   1      34.495  34.376  31.714  1.00  0.00     0.198 A 
ATOM     68  F   UNL A   1      36.072  32.869  32.504  1.00  0.00    -0.203 F 
ATOM     69  F   UNL A   1      33.585  35.293  28.355  1.00  0.00    -0.200 F 
ATOM     70  C   UNL A   1      33.827  34.987  30.676  1.00  0.00     0.200 A 
ATOM     71  F   UNL A   1      34.067  34.542  32.975  1.00  0.00    -0.200 F 
ATOM     72  F   UNL A   1      32.752  35.749  30.913  1.00  0.00    -0.200 F 
ENDBRANCH  48  62
BRANCH  49  73
ATOM     73  C   UNL A   1      44.368  28.611  28.757  1.00  0.00     0.064 A 
ATOM     74  C   UNL A   1      45.088  27.484  29.202  1.00  0.00     0.173 A 
ATOM     75  C   UNL A   1      43.882  28.589  27.446  1.00  0.00     0.173 A 
ATOM     76  F   UNL A   1      45.576  27.447  30.453  1.00  0.00    -0.203 F 
ATOM     77  C   UNL A   1      45.210  26.343  28.413  1.00  0.00     0.198 A 
ATOM     78  C   UNL A   1      44.028  27.453  26.649  1.00  0.00     0.198 A 
ATOM     79  F   UNL A   1      43.164  29.615  26.969  1.00  0.00    -0.203 F 
ATOM     80  F   UNL A   1      45.791  25.242  28.912  1.00  0.00    -0.200 F 
ATOM     81  C   UNL A   1      44.658  26.321  27.144  1.00  0.00     0.200 A 
ATOM     82  F   UNL A   1      43.465  27.421  25.432  1.00  0.00    -0.200 F 
ATOM     83  F   UNL A   1      44.690  25.196  26.417  1.00  0.00    -0.200 F 
ENDBRANCH  49  73
BRANCH  61  84
ATOM     84  C   UNL A   1      42.453  35.578  29.325  1.00  0.00     0.064 A 
ATOM     85  C   UNL A   1      41.887  36.095  28.149  1.00  0.00     0.173 A 
ATOM     86  C   UNL A   1      43.341  36.438  30.009  1.00  0.00     0.173 A 
ATOM     87  F   UNL A   1      41.112  35.332  27.365  1.00  0.00    -0.203 F 
ATOM     88  C   UNL A   1      42.126  37.407  27.732  1.00  0.00     0.198 A 
ATOM     89  C   UNL A   1      43.620  37.729  29.562  1.00  0.00     0.198 A 
ATOM     90  F   UNL A   1      43.949  36.065  31.143  1.00  0.00    -0.203 F 
ATOM     91  F   UNL A   1      41.510  37.879  26.639  1.00  0.00    -0.200 F 
ATOM     92  C   UNL A   1      42.996  38.221  28.435  1.00  0.00     0.200 A 
ATOM     93  F   UNL A   1      44.490  38.493  30.238  1.00  0.00    -0.200 F 
ATOM     94  F   UNL A   1      43.233  39.475  28.027  1.00  0.00    -0.200 F 
ENDBRANCH  61  84
ENDBRANCH  35  36
ENDBRANCH  27  30
ENDBRANCH  25  26
ENDBRANCH  24  25
ENDBRANCH   1  24
TORSDOF 15
ENDMDL
