MODEL 1
REMARK VINA RESULT:     -13.1      0.000      0.000
REMARK SMILES CCOc1ccccc1NC(=O)[C@H]1[C@@H]2C=C[C@@H]([C@@H]3C[C@H]23)[C@@H]1C(=O)NCCCNC(=O)c1ccc(-c2c3nc(c(-c4c(F)c(F)c(F)c(F)c4F)c4ccc([nH]4)c(-c4c(F)c(F)c(F)c(F)c4F)c4nc(c(-c5c(F)c(F)c(F)c(F)c5F)c5ccc2[nH]5)C=C4)C=C3)cc1
REMARK SMILES IDX 25 1 24 2 22 3 23 4 21 6 13 7 14 8 15 9 20 10 17 11 16 12
REMARK SMILES IDX 18 13 19 14 11 15 10 16 12 18 9 19 4 20 5 21 6 22 8 23 7 24
REMARK SMILES IDX 3 25 2 26 1 27 26 28 27 29 28 30 29 31 30 33 31 34 32 35
REMARK SMILES IDX 93 36 33 37 92 38 34 39 35 40 36 41 86 42 37 43 91 44 85 45
REMARK SMILES IDX 87 46 38 47 90 48 84 49 83 50 39 52 71 53 51 54 70 55 52 56
REMARK SMILES IDX 55 57 69 58 88 59 53 60 54 61 68 63 89 64 56 65 40 66 41 67
REMARK SMILES IDX 49 68 42 69 43 70 47 71 50 72 44 73 45 74 48 75 46 76 72 77
REMARK SMILES IDX 73 78 81 79 74 80 75 81 79 82 82 83 76 84 77 85 80 86 78 87
REMARK SMILES IDX 57 88 58 89 66 90 59 91 60 92 64 93 67 94 61 95 62 96 65 97
REMARK SMILES IDX 63 98
REMARK H PARENT 24 5 10 17 28 32 87 51 55 62
REMARK Flexibility Score: inf
ROOT
ATOM      1  C   UNL A   1      32.745  27.282  26.654  1.00  0.00     0.117 C 
ENDROOT
BRANCH   1   2
ATOM      2  N   UNL A   1      31.876  26.141  26.883  1.00  0.00    -0.356 N 
ATOM      3  C   UNL A   1      31.949  24.826  26.532  1.00  0.00     0.224 C 
ATOM      4  O   UNL A   1      31.216  24.081  27.195  1.00  0.00    -0.275 OA
ATOM      5  H   UNL A   1      31.069  26.363  27.401  1.00  0.00     0.163 HD
BRANCH   3   6
ATOM      6  C   UNL A   1      32.898  24.230  25.461  1.00  0.00     0.098 C 
ATOM      7  C   UNL A   1      32.396  22.935  24.789  1.00  0.00     0.099 C 
ATOM      8  C   UNL A   1      33.423  21.784  25.114  1.00  0.00     0.028 C 
ATOM      9  C   UNL A   1      33.564  21.739  26.644  1.00  0.00    -0.026 C 
ATOM     10  C   UNL A   1      34.810  22.120  24.542  1.00  0.00     0.001 C 
ATOM     11  C   UNL A   1      34.297  23.970  26.144  1.00  0.00     0.028 C 
ATOM     12  C   UNL A   1      34.052  22.874  27.177  1.00  0.00    -0.026 C 
ATOM     13  C   UNL A   1      35.324  23.421  25.138  1.00  0.00     0.001 C 
ATOM     14  C   UNL A   1      35.169  23.283  23.646  1.00  0.00     0.009 C 
BRANCH   7  15
ATOM     15  C   UNL A   1      32.143  22.994  23.270  1.00  0.00     0.229 C 
ATOM     16  N   UNL A   1      32.164  24.060  22.431  1.00  0.00    -0.323 N 
ATOM     17  H   UNL A   1      31.972  23.743  21.518  1.00  0.00     0.170 HD
ATOM     18  O   UNL A   1      31.714  21.964  22.717  1.00  0.00    -0.274 OA
BRANCH  16  19
ATOM     19  C   UNL A   1      32.362  25.460  22.384  1.00  0.00     0.083 A 
ATOM     20  C   UNL A   1      31.298  26.213  22.928  1.00  0.00     0.142 A 
ATOM     21  C   UNL A   1      31.381  27.595  23.125  1.00  0.00     0.048 A 
ATOM     22  C   UNL A   1      32.538  28.268  22.752  1.00  0.00     0.004 A 
ATOM     23  C   UNL A   1      33.462  26.178  21.929  1.00  0.00     0.030 A 
ATOM     24  C   UNL A   1      33.562  27.565  22.127  1.00  0.00     0.002 A 
BRANCH  20  25
ATOM     25  O   UNL A   1      30.129  25.549  23.211  1.00  0.00    -0.492 OA
BRANCH  25  26
ATOM     26  C   UNL A   1      29.432  26.082  24.341  1.00  0.00     0.226 C 
ATOM     27  C   UNL A   1      28.137  26.692  23.833  1.00  0.00     0.049 C 
ENDBRANCH  25  26
ENDBRANCH  20  25
ENDBRANCH  16  19
ENDBRANCH   7  15
ENDBRANCH   3   6
ENDBRANCH   1   2
BRANCH   1  28
ATOM     28  C   UNL A   1      32.031  28.619  26.593  1.00  0.00     0.042 C 
BRANCH  28  29
ATOM     29  C   UNL A   1      32.862  29.700  25.923  1.00  0.00     0.118 C 
BRANCH  29  30
ATOM     30  N   UNL A   1      32.545  31.048  26.395  1.00  0.00    -0.352 N 
ATOM     31  C   UNL A   1      33.225  31.884  27.255  1.00  0.00     0.251 C 
ATOM     32  H   UNL A   1      31.707  31.421  26.038  1.00  0.00     0.163 HD
ATOM     33  O   UNL A   1      32.717  32.931  27.619  1.00  0.00    -0.269 OA
BRANCH  31  34
ATOM     34  C   UNL A   1      34.553  31.485  27.774  1.00  0.00     0.039 A 
ATOM     35  C   UNL A   1      35.555  32.453  27.893  1.00  0.00     0.014 A 
ATOM     36  C   UNL A   1      34.800  30.173  28.174  1.00  0.00     0.014 A 
ATOM     37  C   UNL A   1      36.760  32.127  28.520  1.00  0.00     0.010 A 
ATOM     38  C   UNL A   1      35.947  29.881  28.897  1.00  0.00     0.010 A 
ATOM     39  C   UNL A   1      36.940  30.855  29.083  1.00  0.00    -0.014 A 
BRANCH  39  40
ATOM     40  C   UNL A   1      38.146  30.499  29.873  1.00  0.00     0.031 A 
ATOM     41  C   UNL A   1      39.149  29.532  29.306  1.00  0.00     0.074 A 
ATOM     42  C   UNL A   1      38.279  30.944  31.138  1.00  0.00     0.049 A 
ATOM     43  N   UNL A   1      40.161  28.946  29.892  1.00  0.00    -0.248 NA
ATOM     44  C   UNL A   1      38.955  29.133  27.902  1.00  0.00     0.031 C 
ATOM     45  C   UNL A   1      37.346  31.837  31.828  1.00  0.00     0.029 A 
ATOM     46  N   UNL A   1      39.244  30.687  32.080  1.00  0.00    -0.354 N 
ATOM     47  C   UNL A   1      40.692  28.078  28.945  1.00  0.00     0.074 A 
ATOM     48  C   UNL A   1      39.862  28.178  27.765  1.00  0.00     0.031 C 
ATOM     49  C   UNL A   1      37.795  32.071  33.071  1.00  0.00     0.029 A 
ATOM     50  C   UNL A   1      39.022  31.312  33.283  1.00  0.00     0.049 A 
ATOM     51  H   UNL A   1      40.023  30.109  31.909  1.00  0.00     0.167 HD
ATOM     52  C   UNL A   1      41.787  27.289  29.043  1.00  0.00     0.037 A 
ATOM     53  C   UNL A   1      39.724  31.266  34.431  1.00  0.00     0.037 A 
ATOM     54  C   UNL A   1      42.647  27.244  30.195  1.00  0.00     0.049 A 
ATOM     55  C   UNL A   1      40.964  30.417  34.500  1.00  0.00     0.074 A 
ATOM     56  C   UNL A   1      43.828  26.544  30.363  1.00  0.00     0.029 A 
ATOM     57  N   UNL A   1      42.421  27.941  31.373  1.00  0.00    -0.354 N 
ATOM     58  N   UNL A   1      41.489  29.646  33.580  1.00  0.00    -0.248 NA
ATOM     59  C   UNL A   1      41.711  30.436  35.765  1.00  0.00     0.031 C 
ATOM     60  C   UNL A   1      44.303  26.795  31.655  1.00  0.00     0.029 A 
ATOM     61  C   UNL A   1      43.437  27.680  32.277  1.00  0.00     0.049 A 
ATOM     62  H   UNL A   1      41.652  28.532  31.542  1.00  0.00     0.167 HD
ATOM     63  C   UNL A   1      42.639  29.109  34.142  1.00  0.00     0.074 A 
ATOM     64  C   UNL A   1      42.740  29.651  35.481  1.00  0.00     0.031 C 
ATOM     65  C   UNL A   1      43.528  28.245  33.598  1.00  0.00     0.037 A 
BRANCH  52  66
ATOM     66  C   UNL A   1      42.124  26.423  27.865  1.00  0.00     0.064 A 
ATOM     67  C   UNL A   1      43.083  26.810  26.917  1.00  0.00     0.173 A 
ATOM     68  C   UNL A   1      41.495  25.180  27.693  1.00  0.00     0.173 A 
ATOM     69  F   UNL A   1      43.702  27.994  27.028  1.00  0.00    -0.203 F 
ATOM     70  C   UNL A   1      43.374  26.002  25.820  1.00  0.00     0.198 A 
ATOM     71  C   UNL A   1      41.812  24.361  26.612  1.00  0.00     0.198 A 
ATOM     72  F   UNL A   1      40.575  24.759  28.574  1.00  0.00    -0.203 F 
ATOM     73  F   UNL A   1      44.250  26.420  24.898  1.00  0.00    -0.200 F 
ATOM     74  C   UNL A   1      42.743  24.776  25.672  1.00  0.00     0.200 A 
ATOM     75  F   UNL A   1      41.210  23.171  26.477  1.00  0.00    -0.200 F 
ATOM     76  F   UNL A   1      43.026  23.998  24.619  1.00  0.00    -0.200 F 
ENDBRANCH  52  66
BRANCH  53  77
ATOM     77  C   UNL A   1      39.288  32.074  35.600  1.00  0.00     0.064 A 
ATOM     78  C   UNL A   1      38.418  31.535  36.557  1.00  0.00     0.173 A 
ATOM     79  C   UNL A   1      39.732  33.391  35.789  1.00  0.00     0.173 A 
ATOM     80  F   UNL A   1      37.952  30.285  36.407  1.00  0.00    -0.203 F 
ATOM     81  C   UNL A   1      37.993  32.286  37.649  1.00  0.00     0.198 A 
ATOM     82  C   UNL A   1      39.326  34.134  36.896  1.00  0.00     0.198 A 
ATOM     83  F   UNL A   1      40.571  33.951  34.906  1.00  0.00    -0.203 F 
ATOM     84  F   UNL A   1      37.129  31.759  38.528  1.00  0.00    -0.200 F 
ATOM     85  C   UNL A   1      38.451  33.583  37.822  1.00  0.00     0.200 A 
ATOM     86  F   UNL A   1      39.782  35.383  37.066  1.00  0.00    -0.200 F 
ATOM     87  F   UNL A   1      38.046  34.305  38.875  1.00  0.00    -0.200 F 
ENDBRANCH  53  77
BRANCH  65  88
ATOM     88  C   UNL A   1      44.713  27.860  34.433  1.00  0.00     0.064 A 
ATOM     89  C   UNL A   1      45.885  28.630  34.440  1.00  0.00     0.173 A 
ATOM     90  C   UNL A   1      44.651  26.742  35.277  1.00  0.00     0.173 A 
ATOM     91  F   UNL A   1      45.995  29.700  33.639  1.00  0.00    -0.203 F 
ATOM     92  C   UNL A   1      46.959  28.285  35.256  1.00  0.00     0.198 A 
ATOM     93  C   UNL A   1      45.717  26.415  36.109  1.00  0.00     0.198 A 
ATOM     94  F   UNL A   1      43.549  25.978  35.308  1.00  0.00    -0.203 F 
ATOM     95  F   UNL A   1      48.083  29.014  35.225  1.00  0.00    -0.200 F 
ATOM     96  C   UNL A   1      46.871  27.184  36.094  1.00  0.00     0.200 A 
ATOM     97  F   UNL A   1      45.627  25.357  36.927  1.00  0.00    -0.200 F 
ATOM     98  F   UNL A   1      47.902  26.860  36.887  1.00  0.00    -0.200 F 
ENDBRANCH  65  88
ENDBRANCH  39  40
ENDBRANCH  31  34
ENDBRANCH  29  30
ENDBRANCH  28  29
ENDBRANCH   1  28
TORSDOF 14
ENDMDL
MODEL 2
REMARK VINA RESULT:     -13.0      0.075      1.559
REMARK SMILES CCOc1ccccc1NC(=O)[C@H]1[C@@H]2C=C[C@@H]([C@@H]3C[C@H]23)[C@@H]1C(=O)NCCCNC(=O)c1ccc(-c2c3nc(c(-c4c(F)c(F)c(F)c(F)c4F)c4ccc([nH]4)c(-c4c(F)c(F)c(F)c(F)c4F)c4nc(c(-c5c(F)c(F)c(F)c(F)c5F)c5ccc2[nH]5)C=C4)C=C3)cc1
REMARK SMILES IDX 25 1 24 2 22 3 23 4 21 6 13 7 14 8 15 9 20 10 17 11 16 12
REMARK SMILES IDX 18 13 19 14 11 15 10 16 12 18 9 19 4 20 5 21 6 22 8 23 7 24
REMARK SMILES IDX 3 25 2 26 1 27 26 28 27 29 28 30 29 31 30 33 31 34 32 35
REMARK SMILES IDX 93 36 33 37 92 38 34 39 35 40 36 41 86 42 37 43 91 44 85 45
REMARK SMILES IDX 87 46 38 47 90 48 84 49 83 50 39 52 71 53 51 54 70 55 52 56
REMARK SMILES IDX 55 57 69 58 88 59 53 60 54 61 68 63 89 64 56 65 40 66 41 67
REMARK SMILES IDX 49 68 42 69 43 70 47 71 50 72 44 73 45 74 48 75 46 76 72 77
REMARK SMILES IDX 73 78 81 79 74 80 75 81 79 82 82 83 76 84 77 85 80 86 78 87
REMARK SMILES IDX 57 88 58 89 66 90 59 91 60 92 64 93 67 94 61 95 62 96 65 97
REMARK SMILES IDX 63 98
REMARK H PARENT 24 5 10 17 28 32 87 51 55 62
REMARK Flexibility Score: inf
ROOT
ATOM      1  C   UNL A   1      32.753  27.269  26.612  1.00  0.00     0.117 C 
ENDROOT
BRANCH   1   2
ATOM      2  N   UNL A   1      31.899  26.124  26.874  1.00  0.00    -0.356 N 
ATOM      3  C   UNL A   1      31.978  24.804  26.543  1.00  0.00     0.224 C 
ATOM      4  O   UNL A   1      31.262  24.063  27.230  1.00  0.00    -0.275 OA
ATOM      5  H   UNL A   1      31.098  26.347  27.402  1.00  0.00     0.163 HD
BRANCH   3   6
ATOM      6  C   UNL A   1      32.914  24.199  25.466  1.00  0.00     0.098 C 
ATOM      7  C   UNL A   1      32.400  22.903  24.805  1.00  0.00     0.099 C 
ATOM      8  C   UNL A   1      33.425  21.749  25.125  1.00  0.00     0.028 C 
ATOM      9  C   UNL A   1      33.580  21.710  26.654  1.00  0.00    -0.026 C 
ATOM     10  C   UNL A   1      34.808  22.077  24.539  1.00  0.00     0.001 C 
ATOM     11  C   UNL A   1      34.319  23.937  26.137  1.00  0.00     0.028 C 
ATOM     12  C   UNL A   1      34.078  22.847  27.177  1.00  0.00    -0.026 C 
ATOM     13  C   UNL A   1      35.334  23.378  25.124  1.00  0.00     0.001 C 
ATOM     14  C   UNL A   1      35.164  23.234  23.634  1.00  0.00     0.009 C 
BRANCH   7  15
ATOM     15  C   UNL A   1      32.133  22.956  23.288  1.00  0.00     0.229 C 
ATOM     16  N   UNL A   1      32.151  24.018  22.444  1.00  0.00    -0.323 N 
ATOM     17  H   UNL A   1      31.949  23.697  21.534  1.00  0.00     0.170 HD
ATOM     18  O   UNL A   1      31.694  21.926  22.744  1.00  0.00    -0.274 OA
BRANCH  16  19
ATOM     19  C   UNL A   1      32.355  25.418  22.389  1.00  0.00     0.083 A 
ATOM     20  C   UNL A   1      31.288  26.178  22.916  1.00  0.00     0.142 A 
ATOM     21  C   UNL A   1      31.375  27.561  23.104  1.00  0.00     0.048 A 
ATOM     22  C   UNL A   1      32.538  28.228  22.737  1.00  0.00     0.004 A 
ATOM     23  C   UNL A   1      33.462  26.127  21.939  1.00  0.00     0.030 A 
ATOM     24  C   UNL A   1      33.565  27.516  22.127  1.00  0.00     0.002 A 
BRANCH  20  25
ATOM     25  O   UNL A   1      30.114  25.520  23.193  1.00  0.00    -0.492 OA
BRANCH  25  26
ATOM     26  C   UNL A   1      29.427  26.040  24.335  1.00  0.00     0.226 C 
ATOM     27  C   UNL A   1      28.147  26.692  23.841  1.00  0.00     0.049 C 
ENDBRANCH  25  26
ENDBRANCH  20  25
ENDBRANCH  16  19
ENDBRANCH   7  15
ENDBRANCH   3   6
ENDBRANCH   1   2
BRANCH   1  28
ATOM     28  C   UNL A   1      32.026  28.597  26.533  1.00  0.00     0.042 C 
BRANCH  28  29
ATOM     29  C   UNL A   1      32.861  29.689  25.888  1.00  0.00     0.118 C 
BRANCH  29  30
ATOM     30  N   UNL A   1      32.529  31.031  26.369  1.00  0.00    -0.352 N 
ATOM     31  C   UNL A   1      33.198  31.868  27.236  1.00  0.00     0.251 C 
ATOM     32  H   UNL A   1      31.688  31.398  26.012  1.00  0.00     0.163 HD
ATOM     33  O   UNL A   1      32.679  32.908  27.605  1.00  0.00    -0.269 OA
BRANCH  31  34
ATOM     34  C   UNL A   1      34.529  31.479  27.755  1.00  0.00     0.039 A 
ATOM     35  C   UNL A   1      35.512  32.462  27.911  1.00  0.00     0.014 A 
ATOM     36  C   UNL A   1      34.797  30.161  28.121  1.00  0.00     0.014 A 
ATOM     37  C   UNL A   1      36.717  32.141  28.539  1.00  0.00     0.010 A 
ATOM     38  C   UNL A   1      35.943  29.870  28.846  1.00  0.00     0.010 A 
ATOM     39  C   UNL A   1      36.916  30.856  29.068  1.00  0.00    -0.014 A 
BRANCH  39  40
ATOM     40  C   UNL A   1      38.122  30.500  29.859  1.00  0.00     0.031 A 
ATOM     41  C   UNL A   1      39.125  29.534  29.292  1.00  0.00     0.074 A 
ATOM     42  C   UNL A   1      38.254  30.946  31.124  1.00  0.00     0.049 A 
ATOM     43  N   UNL A   1      40.137  28.948  29.879  1.00  0.00    -0.248 NA
ATOM     44  C   UNL A   1      38.932  29.135  27.888  1.00  0.00     0.031 C 
ATOM     45  C   UNL A   1      37.320  31.838  31.813  1.00  0.00     0.029 A 
ATOM     46  N   UNL A   1      39.219  30.689  32.066  1.00  0.00    -0.354 N 
ATOM     47  C   UNL A   1      40.668  28.081  28.932  1.00  0.00     0.074 A 
ATOM     48  C   UNL A   1      39.839  28.180  27.751  1.00  0.00     0.031 C 
ATOM     49  C   UNL A   1      37.768  32.073  33.056  1.00  0.00     0.029 A 
ATOM     50  C   UNL A   1      38.996  31.313  33.269  1.00  0.00     0.049 A 
ATOM     51  H   UNL A   1      39.997  30.111  31.896  1.00  0.00     0.167 HD
ATOM     52  C   UNL A   1      41.764  27.292  29.031  1.00  0.00     0.037 A 
ATOM     53  C   UNL A   1      39.697  31.267  34.418  1.00  0.00     0.037 A 
ATOM     54  C   UNL A   1      42.623  27.247  30.183  1.00  0.00     0.049 A 
ATOM     55  C   UNL A   1      40.937  30.419  34.487  1.00  0.00     0.074 A 
ATOM     56  C   UNL A   1      43.804  26.547  30.352  1.00  0.00     0.029 A 
ATOM     57  N   UNL A   1      42.396  27.943  31.361  1.00  0.00    -0.354 N 
ATOM     58  N   UNL A   1      41.463  29.648  33.567  1.00  0.00    -0.248 NA
ATOM     59  C   UNL A   1      41.683  30.437  35.753  1.00  0.00     0.031 C 
ATOM     60  C   UNL A   1      44.278  26.797  31.644  1.00  0.00     0.029 A 
ATOM     61  C   UNL A   1      43.412  27.682  32.266  1.00  0.00     0.049 A 
ATOM     62  H   UNL A   1      41.627  28.534  31.529  1.00  0.00     0.167 HD
ATOM     63  C   UNL A   1      42.612  29.111  34.130  1.00  0.00     0.074 A 
ATOM     64  C   UNL A   1      42.713  29.653  35.470  1.00  0.00     0.031 C 
ATOM     65  C   UNL A   1      43.502  28.247  33.587  1.00  0.00     0.037 A 
BRANCH  52  66
ATOM     66  C   UNL A   1      42.102  26.425  27.853  1.00  0.00     0.064 A 
ATOM     67  C   UNL A   1      43.071  26.807  26.912  1.00  0.00     0.173 A 
ATOM     68  C   UNL A   1      41.463  25.189  27.673  1.00  0.00     0.173 A 
ATOM     69  F   UNL A   1      43.700  27.985  27.031  1.00  0.00    -0.203 F 
ATOM     70  C   UNL A   1      43.363  25.999  25.816  1.00  0.00     0.198 A 
ATOM     71  C   UNL A   1      41.781  24.370  26.592  1.00  0.00     0.198 A 
ATOM     72  F   UNL A   1      40.532  24.774  28.545  1.00  0.00    -0.203 F 
ATOM     73  F   UNL A   1      44.250  26.412  24.901  1.00  0.00    -0.200 F 
ATOM     74  C   UNL A   1      42.722  24.779  25.660  1.00  0.00     0.200 A 
ATOM     75  F   UNL A   1      41.168  23.186  26.449  1.00  0.00    -0.200 F 
ATOM     76  F   UNL A   1      43.006  24.002  24.606  1.00  0.00    -0.200 F 
ENDBRANCH  52  66
BRANCH  53  77
ATOM     77  C   UNL A   1      39.261  32.075  35.586  1.00  0.00     0.064 A 
ATOM     78  C   UNL A   1      39.695  33.398  35.742  1.00  0.00     0.173 A 
ATOM     79  C   UNL A   1      38.403  31.550  36.564  1.00  0.00     0.173 A 
ATOM     80  F   UNL A   1      40.532  33.937  34.842  1.00  0.00    -0.203 F 
ATOM     81  C   UNL A   1      39.303  34.161  36.839  1.00  0.00     0.198 A 
ATOM     82  C   UNL A   1      37.991  32.322  37.648  1.00  0.00     0.198 A 
ATOM     83  F   UNL A   1      37.953  30.292  36.458  1.00  0.00    -0.203 F 
ATOM     84  F   UNL A   1      39.765  35.411  36.983  1.00  0.00    -0.200 F 
ATOM     85  C   UNL A   1      38.447  33.625  37.789  1.00  0.00     0.200 A 
ATOM     86  F   UNL A   1      37.154  31.805  38.558  1.00  0.00    -0.200 F 
ATOM     87  F   UNL A   1      38.067  34.361  38.842  1.00  0.00    -0.200 F 
ENDBRANCH  53  77
BRANCH  65  88
ATOM     88  C   UNL A   1      44.687  27.863  34.422  1.00  0.00     0.064 A 
ATOM     89  C   UNL A   1      44.671  26.721  35.236  1.00  0.00     0.173 A 
ATOM     90  C   UNL A   1      45.870  28.614  34.359  1.00  0.00     0.173 A 
ATOM     91  F   UNL A   1      43.557  25.981  35.339  1.00  0.00    -0.203 F 
ATOM     92  C   UNL A   1      45.796  26.353  35.969  1.00  0.00     0.198 A 
ATOM     93  C   UNL A   1      47.000  28.228  35.073  1.00  0.00     0.198 A 
ATOM     94  F   UNL A   1      45.935  29.710  33.589  1.00  0.00    -0.203 F 
ATOM     95  F   UNL A   1      45.750  25.278  36.767  1.00  0.00    -0.200 F 
ATOM     96  C   UNL A   1      46.960  27.101  35.881  1.00  0.00     0.200 A 
ATOM     97  F   UNL A   1      48.128  28.945  34.978  1.00  0.00    -0.200 F 
ATOM     98  F   UNL A   1      48.046  26.738  36.579  1.00  0.00    -0.200 F 
ENDBRANCH  65  88
ENDBRANCH  39  40
ENDBRANCH  31  34
ENDBRANCH  29  30
ENDBRANCH  28  29
ENDBRANCH   1  28
TORSDOF 14
ENDMDL
MODEL 3
REMARK VINA RESULT:     -12.9      1.780      7.834
REMARK SMILES CCOc1ccccc1NC(=O)[C@H]1[C@@H]2C=C[C@@H]([C@@H]3C[C@H]23)[C@@H]1C(=O)NCCCNC(=O)c1ccc(-c2c3nc(c(-c4c(F)c(F)c(F)c(F)c4F)c4ccc([nH]4)c(-c4c(F)c(F)c(F)c(F)c4F)c4nc(c(-c5c(F)c(F)c(F)c(F)c5F)c5ccc2[nH]5)C=C4)C=C3)cc1
REMARK SMILES IDX 25 1 24 2 22 3 23 4 21 6 13 7 14 8 15 9 20 10 17 11 16 12
REMARK SMILES IDX 18 13 19 14 11 15 10 16 12 18 9 19 4 20 5 21 6 22 8 23 7 24
REMARK SMILES IDX 3 25 2 26 1 27 26 28 27 29 28 30 29 31 30 33 31 34 32 35
REMARK SMILES IDX 93 36 33 37 92 38 34 39 35 40 36 41 86 42 37 43 91 44 85 45
REMARK SMILES IDX 87 46 38 47 90 48 84 49 83 50 39 52 71 53 51 54 70 55 52 56
REMARK SMILES IDX 55 57 69 58 88 59 53 60 54 61 68 63 89 64 56 65 40 66 41 67
REMARK SMILES IDX 49 68 42 69 43 70 47 71 50 72 44 73 45 74 48 75 46 76 72 77
REMARK SMILES IDX 73 78 81 79 74 80 75 81 79 82 82 83 76 84 77 85 80 86 78 87
REMARK SMILES IDX 57 88 58 89 66 90 59 91 60 92 64 93 67 94 61 95 62 96 65 97
REMARK SMILES IDX 63 98
REMARK H PARENT 24 5 10 17 28 32 87 51 55 62
REMARK Flexibility Score: inf
ROOT
ATOM      1  C   UNL A   1      31.405  30.908  26.498  1.00  0.00     0.117 C 
ENDROOT
BRANCH   1   2
ATOM      2  N   UNL A   1      32.678  30.291  26.826  1.00  0.00    -0.356 N 
ATOM      3  C   UNL A   1      33.294  29.145  26.420  1.00  0.00     0.224 C 
ATOM      4  O   UNL A   1      34.513  29.118  26.635  1.00  0.00    -0.275 OA
ATOM      5  H   UNL A   1      33.206  30.810  27.475  1.00  0.00     0.163 HD
BRANCH   3   6
ATOM      6  C   UNL A   1      32.609  27.968  25.678  1.00  0.00     0.098 C 
ATOM      7  C   UNL A   1      33.512  26.744  25.420  1.00  0.00     0.099 C 
ATOM      8  C   UNL A   1      33.631  26.542  23.861  1.00  0.00     0.028 C 
ATOM      9  C   UNL A   1      34.123  27.877  23.280  1.00  0.00    -0.026 C 
ATOM     10  C   UNL A   1      32.250  26.264  23.246  1.00  0.00     0.001 C 
ATOM     11  C   UNL A   1      32.050  28.518  24.309  1.00  0.00     0.028 C 
ATOM     12  C   UNL A   1      33.278  28.904  23.490  1.00  0.00    -0.026 C 
ATOM     13  C   UNL A   1      31.307  27.425  23.521  1.00  0.00     0.001 C 
ATOM     14  C   UNL A   1      30.951  26.037  23.985  1.00  0.00     0.009 C 
BRANCH   7  15
ATOM     15  C   UNL A   1      33.093  25.419  26.086  1.00  0.00     0.229 C 
ATOM     16  N   UNL A   1      33.731  24.221  26.105  1.00  0.00    -0.323 N 
ATOM     17  H   UNL A   1      33.192  23.589  26.635  1.00  0.00     0.170 HD
ATOM     18  O   UNL A   1      31.945  25.351  26.564  1.00  0.00    -0.274 OA
BRANCH  16  19
ATOM     19  C   UNL A   1      34.887  23.547  25.646  1.00  0.00     0.083 A 
ATOM     20  C   UNL A   1      34.644  22.240  25.170  1.00  0.00     0.142 A 
ATOM     21  C   UNL A   1      35.625  21.483  24.523  1.00  0.00     0.048 A 
ATOM     22  C   UNL A   1      36.898  22.014  24.359  1.00  0.00     0.004 A 
ATOM     23  C   UNL A   1      36.195  24.007  25.557  1.00  0.00     0.030 A 
ATOM     24  C   UNL A   1      37.190  23.260  24.903  1.00  0.00     0.002 A 
BRANCH  20  25
ATOM     25  O   UNL A   1      33.407  21.694  25.416  1.00  0.00    -0.492 OA
BRANCH  25  26
ATOM     26  C   UNL A   1      32.775  21.167  24.246  1.00  0.00     0.226 C 
ATOM     27  C   UNL A   1      32.275  22.345  23.427  1.00  0.00     0.049 C 
ENDBRANCH  25  26
ENDBRANCH  20  25
ENDBRANCH  16  19
ENDBRANCH   7  15
ENDBRANCH   3   6
ENDBRANCH   1   2
BRANCH   1  28
ATOM     28  C   UNL A   1      31.403  32.423  26.548  1.00  0.00     0.042 C 
BRANCH  28  29
ATOM     29  C   UNL A   1      32.565  32.988  27.347  1.00  0.00     0.118 C 
BRANCH  29  30
ATOM     30  N   UNL A   1      32.380  34.390  27.724  1.00  0.00    -0.352 N 
ATOM     31  C   UNL A   1      33.008  35.155  28.684  1.00  0.00     0.251 C 
ATOM     32  H   UNL A   1      31.692  34.866  27.205  1.00  0.00     0.163 HD
ATOM     33  O   UNL A   1      32.611  36.283  28.922  1.00  0.00    -0.269 OA
BRANCH  31  34
ATOM     34  C   UNL A   1      34.136  34.587  29.456  1.00  0.00     0.039 A 
ATOM     35  C   UNL A   1      33.877  33.974  30.686  1.00  0.00     0.014 A 
ATOM     36  C   UNL A   1      35.436  34.625  28.955  1.00  0.00     0.014 A 
ATOM     37  C   UNL A   1      34.904  33.301  31.352  1.00  0.00     0.010 A 
ATOM     38  C   UNL A   1      36.426  33.861  29.558  1.00  0.00     0.010 A 
ATOM     39  C   UNL A   1      36.172  33.187  30.761  1.00  0.00    -0.014 A 
BRANCH  39  40
ATOM     40  C   UNL A   1      37.259  32.373  31.364  1.00  0.00     0.031 A 
ATOM     41  C   UNL A   1      37.776  32.720  32.733  1.00  0.00     0.074 A 
ATOM     42  C   UNL A   1      37.860  31.409  30.639  1.00  0.00     0.049 A 
ATOM     43  N   UNL A   1      38.831  32.268  33.361  1.00  0.00    -0.248 NA
ATOM     44  C   UNL A   1      37.033  33.752  33.474  1.00  0.00     0.031 C 
ATOM     45  C   UNL A   1      37.495  31.017  29.277  1.00  0.00     0.029 A 
ATOM     46  N   UNL A   1      38.924  30.596  30.941  1.00  0.00    -0.354 N 
ATOM     47  C   UNL A   1      38.902  32.993  34.545  1.00  0.00     0.074 A 
ATOM     48  C   UNL A   1      37.814  33.946  34.525  1.00  0.00     0.031 C 
ATOM     49  C   UNL A   1      38.303  30.025  28.871  1.00  0.00     0.029 A 
ATOM     50  C   UNL A   1      39.272  29.742  29.924  1.00  0.00     0.049 A 
ATOM     51  H   UNL A   1      39.394  30.623  31.806  1.00  0.00     0.167 HD
ATOM     52  C   UNL A   1      39.780  32.857  35.566  1.00  0.00     0.037 A 
ATOM     53  C   UNL A   1      40.269  28.840  29.846  1.00  0.00     0.037 A 
ATOM     54  C   UNL A   1      40.818  31.863  35.610  1.00  0.00     0.049 A 
ATOM     55  C   UNL A   1      41.203  28.676  31.014  1.00  0.00     0.074 A 
ATOM     56  C   UNL A   1      41.705  31.586  36.634  1.00  0.00     0.029 A 
ATOM     57  N   UNL A   1      41.099  30.974  34.583  1.00  0.00    -0.354 N 
ATOM     58  N   UNL A   1      41.225  29.326  32.151  1.00  0.00    -0.248 NA
ATOM     59  C   UNL A   1      42.248  27.650  30.887  1.00  0.00     0.031 C 
ATOM     60  C   UNL A   1      42.542  30.546  36.217  1.00  0.00     0.029 A 
ATOM     61  C   UNL A   1      42.152  30.152  34.946  1.00  0.00     0.049 A 
ATOM     62  H   UNL A   1      40.621  30.933  33.723  1.00  0.00     0.167 HD
ATOM     63  C   UNL A   1      42.265  28.773  32.886  1.00  0.00     0.074 A 
ATOM     64  C   UNL A   1      42.844  27.727  32.069  1.00  0.00     0.031 C 
ATOM     65  C   UNL A   1      42.700  29.104  34.125  1.00  0.00     0.037 A 
BRANCH  52  66
ATOM     66  C   UNL A   1      39.642  33.799  36.727  1.00  0.00     0.064 A 
ATOM     67  C   UNL A   1      40.263  35.057  36.731  1.00  0.00     0.173 A 
ATOM     68  C   UNL A   1      38.864  33.447  37.840  1.00  0.00     0.173 A 
ATOM     69  F   UNL A   1      41.029  35.436  35.698  1.00  0.00    -0.203 F 
ATOM     70  C   UNL A   1      40.139  35.914  37.822  1.00  0.00     0.198 A 
ATOM     71  C   UNL A   1      38.716  34.320  38.915  1.00  0.00     0.198 A 
ATOM     72  F   UNL A   1      38.245  32.258  37.884  1.00  0.00    -0.203 F 
ATOM     73  F   UNL A   1      40.788  37.085  37.827  1.00  0.00    -0.200 F 
ATOM     74  C   UNL A   1      39.361  35.547  38.910  1.00  0.00     0.200 A 
ATOM     75  F   UNL A   1      37.954  33.968  39.960  1.00  0.00    -0.200 F 
ATOM     76  F   UNL A   1      39.240  36.374  39.957  1.00  0.00    -0.200 F 
ENDBRANCH  52  66
BRANCH  53  77
ATOM     77  C   UNL A   1      40.415  27.998  28.630  1.00  0.00     0.064 A 
ATOM     78  C   UNL A   1      39.787  26.749  28.546  1.00  0.00     0.173 A 
ATOM     79  C   UNL A   1      41.176  28.422  27.529  1.00  0.00     0.173 A 
ATOM     80  F   UNL A   1      39.065  26.293  29.582  1.00  0.00    -0.203 F 
ATOM     81  C   UNL A   1      39.926  25.945  27.417  1.00  0.00     0.198 A 
ATOM     82  C   UNL A   1      41.294  27.629  26.391  1.00  0.00     0.198 A 
ATOM     83  F   UNL A   1      41.791  29.612  27.557  1.00  0.00    -0.203 F 
ATOM     84  F   UNL A   1      39.347  24.738  27.380  1.00  0.00    -0.200 F 
ATOM     85  C   UNL A   1      40.675  26.388  26.338  1.00  0.00     0.200 A 
ATOM     86  F   UNL A   1      42.009  28.065  25.344  1.00  0.00    -0.200 F 
ATOM     87  F   UNL A   1      40.806  25.617  25.249  1.00  0.00    -0.200 F 
ENDBRANCH  53  77
BRANCH  65  88
ATOM     88  C   UNL A   1      43.832  28.302  34.694  1.00  0.00     0.064 A 
ATOM     89  C   UNL A   1      45.165  28.715  34.558  1.00  0.00     0.173 A 
ATOM     90  C   UNL A   1      43.572  27.139  35.434  1.00  0.00     0.173 A 
ATOM     91  F   UNL A   1      45.462  29.813  33.847  1.00  0.00    -0.203 F 
ATOM     92  C   UNL A   1      46.200  27.983  35.133  1.00  0.00     0.198 A 
ATOM     93  C   UNL A   1      44.608  26.424  36.028  1.00  0.00     0.198 A 
ATOM     94  F   UNL A   1      42.313  26.707  35.596  1.00  0.00    -0.203 F 
ATOM     95  F   UNL A   1      47.470  28.376  34.964  1.00  0.00    -0.200 F 
ATOM     96  C   UNL A   1      45.920  26.844  35.873  1.00  0.00     0.200 A 
ATOM     97  F   UNL A   1      44.335  25.329  36.752  1.00  0.00    -0.200 F 
ATOM     98  F   UNL A   1      46.918  26.146  36.435  1.00  0.00    -0.200 F 
ENDBRANCH  65  88
ENDBRANCH  39  40
ENDBRANCH  31  34
ENDBRANCH  29  30
ENDBRANCH  28  29
ENDBRANCH   1  28
TORSDOF 14
ENDMDL
