MODEL 1
REMARK VINA RESULT:     -14.0      0.000      0.000
REMARK SMILES COc1cccc([C@@H]2CC(c3cccc(C)c3)=NN2C(=O)CCC(=O)NCCCNC(=O)c2ccc(-c3c4nc(c(-c5c(F)c(F)c(F)c(F)c5F)c5ccc([nH]5)c(-c5c(F)c(F)c(F)c(F)c5F)c5nc(c(-c6c(F)c(F)c(F)c(F)c6F)c6ccc3[nH]6)C=C5)C=C4)cc2)c1
REMARK SMILES IDX 24 1 25 2 26 3 23 5 22 6 20 7 21 8 19 9 8 10 9 11 10 12
REMARK SMILES IDX 18 13 7 14 3 15 4 16 96 17 5 18 6 19 2 20 1 21 11 22 12 23
REMARK SMILES IDX 17 24 13 25 15 26 14 27 16 28 27 29 28 30 29 31 30 32 31 33
REMARK SMILES IDX 32 35 33 36 34 37 95 38 35 39 94 40 36 41 37 42 38 43 88 44
REMARK SMILES IDX 39 45 93 46 87 47 89 48 40 49 92 50 86 51 85 52 41 54 73 55
REMARK SMILES IDX 53 56 72 57 54 58 57 59 71 60 90 61 55 62 56 63 70 65 91 66
REMARK SMILES IDX 58 67 42 68 43 69 51 70 44 71 45 72 49 73 52 74 46 75 47 76
REMARK SMILES IDX 50 77 48 78 74 79 75 80 83 81 76 82 77 83 81 84 84 85 78 86
REMARK SMILES IDX 79 87 82 88 80 89 59 90 60 91 68 92 61 93 62 94 66 95 69 96
REMARK SMILES IDX 63 97 64 98 67 99 65 100
REMARK H PARENT 26 4 30 34 89 53 57 64
REMARK Flexibility Score: inf
ROOT
ATOM      1  C   UNL A   1      38.192  22.826  25.972  1.00  0.00     0.220 C 
ATOM      2  O   UNL A   1      38.044  24.053  25.997  1.00  0.00    -0.275 OA
ATOM      3  N   UNL A   1      39.457  22.320  25.856  1.00  0.00    -0.356 N 
ATOM      4  H   UNL A   1      40.129  22.967  25.542  1.00  0.00     0.163 HD
ENDROOT
BRANCH   1   5
ATOM      5  C   UNL A   1      36.974  21.921  25.934  1.00  0.00     0.110 C 
BRANCH   5   6
ATOM      6  C   UNL A   1      36.582  21.505  24.514  1.00  0.00     0.112 C 
BRANCH   6   7
ATOM      7  C   UNL A   1      35.692  22.524  23.853  1.00  0.00     0.243 C 
ATOM      8  O   UNL A   1      35.913  22.854  22.684  1.00  0.00    -0.273 OA
BRANCH   7   9
ATOM      9  N   UNL A   1      34.745  23.130  24.658  1.00  0.00    -0.225 N 
ATOM     10  C   UNL A   1      33.879  22.547  25.686  1.00  0.00     0.147 C 
ATOM     11  C   UNL A   1      32.995  23.712  26.165  1.00  0.00     0.091 C 
ATOM     12  C   UNL A   1      33.491  24.754  25.227  1.00  0.00     0.071 C 
ATOM     13  N   UNL A   1      34.406  24.395  24.392  1.00  0.00    -0.174 NA
BRANCH  10  14
ATOM     14  C   UNL A   1      33.146  21.396  25.033  1.00  0.00    -0.019 A 
ATOM     15  C   UNL A   1      32.842  18.993  25.017  1.00  0.00     0.119 A 
ATOM     16  C   UNL A   1      32.421  19.062  23.688  1.00  0.00     0.046 A 
ATOM     17  C   UNL A   1      33.196  20.161  25.682  1.00  0.00     0.052 A 
ATOM     18  C   UNL A   1      32.319  20.294  23.040  1.00  0.00     0.004 A 
ATOM     19  C   UNL A   1      32.667  21.462  23.713  1.00  0.00     0.006 A 
BRANCH  15  20
ATOM     20  O   UNL A   1      32.934  17.743  25.567  1.00  0.00    -0.497 OA
ATOM     21  C   UNL A   1      33.068  16.678  24.628  1.00  0.00     0.278 C 
ENDBRANCH  15  20
ENDBRANCH  10  14
BRANCH  12  22
ATOM     22  C   UNL A   1      32.893  26.054  25.013  1.00  0.00    -0.002 A 
ATOM     23  C   UNL A   1      33.559  27.137  26.221  1.00  0.00     0.010 A 
ATOM     24  C   UNL A   1      31.635  26.511  23.840  1.00  0.00     0.013 A 
ATOM     25  C   UNL A   1      32.936  28.782  26.295  1.00  0.00     0.001 A 
ATOM     26  C   UNL A   1      30.928  28.146  23.789  1.00  0.00    -0.050 A 
ATOM     27  C   UNL A   1      31.541  29.373  24.966  1.00  0.00     0.003 A 
ATOM     28  C   UNL A   1      29.669  28.426  23.027  1.00  0.00     0.044 C 
ENDBRANCH  12  22
ENDBRANCH   7   9
ENDBRANCH   6   7
ENDBRANCH   5   6
ENDBRANCH   1   5
BRANCH   3  29
ATOM     29  C   UNL A   1      39.977  20.989  26.118  1.00  0.00     0.117 C 
BRANCH  29  30
ATOM     30  C   UNL A   1      41.079  20.773  27.170  1.00  0.00     0.042 C 
BRANCH  30  31
ATOM     31  C   UNL A   1      42.459  21.455  27.118  1.00  0.00     0.118 C 
BRANCH  31  32
ATOM     32  N   UNL A   1      42.955  21.835  25.814  1.00  0.00    -0.352 N 
ATOM     33  C   UNL A   1      43.218  23.072  25.258  1.00  0.00     0.251 C 
ATOM     34  H   UNL A   1      43.137  21.076  25.214  1.00  0.00     0.163 HD
ATOM     35  O   UNL A   1      43.405  23.079  24.038  1.00  0.00    -0.269 OA
BRANCH  33  36
ATOM     36  C   UNL A   1      43.129  24.427  26.060  1.00  0.00     0.039 A 
ATOM     37  C   UNL A   1      41.446  24.387  26.719  1.00  0.00     0.014 A 
ATOM     38  C   UNL A   1      44.166  26.148  26.312  1.00  0.00     0.014 A 
ATOM     39  C   UNL A   1      40.830  25.807  27.566  1.00  0.00     0.010 A 
ATOM     40  C   UNL A   1      43.424  27.491  27.239  1.00  0.00     0.010 A 
ATOM     41  C   UNL A   1      41.788  27.278  27.874  1.00  0.00    -0.014 A 
BRANCH  41  42
ATOM     42  C   UNL A   1      41.412  28.171  29.036  1.00  0.00     0.031 A 
ATOM     43  C   UNL A   1      42.117  28.001  30.360  1.00  0.00     0.074 A 
ATOM     44  C   UNL A   1      40.305  28.954  28.986  1.00  0.00     0.049 A 
ATOM     45  N   UNL A   1      41.824  28.508  31.533  1.00  0.00    -0.248 NA
ATOM     46  C   UNL A   1      43.252  27.066  30.389  1.00  0.00     0.031 C 
ATOM     47  C   UNL A   1      39.392  29.118  27.850  1.00  0.00     0.029 A 
ATOM     48  N   UNL A   1      39.722  29.755  29.950  1.00  0.00    -0.354 N 
ATOM     49  C   UNL A   1      42.711  27.919  32.424  1.00  0.00     0.074 A 
ATOM     50  C   UNL A   1      43.437  26.910  31.689  1.00  0.00     0.031 C 
ATOM     51  C   UNL A   1      38.408  29.972  28.157  1.00  0.00     0.029 A 
ATOM     52  C   UNL A   1      38.587  30.416  29.526  1.00  0.00     0.049 A 
ATOM     53  H   UNL A   1      40.085  29.845  30.860  1.00  0.00     0.167 HD
ATOM     54  C   UNL A   1      42.968  28.243  33.716  1.00  0.00     0.037 A 
ATOM     55  C   UNL A   1      37.778  31.296  30.148  1.00  0.00     0.037 A 
ATOM     56  C   UNL A   1      42.291  29.295  34.421  1.00  0.00     0.049 A 
ATOM     57  C   UNL A   1      38.106  31.691  31.561  1.00  0.00     0.074 A 
ATOM     58  C   UNL A   1      42.543  29.793  35.686  1.00  0.00     0.029 A 
ATOM     59  N   UNL A   1      41.220  30.016  33.910  1.00  0.00    -0.354 N 
ATOM     60  N   UNL A   1      39.056  31.240  32.343  1.00  0.00    -0.248 NA
ATOM     61  C   UNL A   1      37.268  32.731  32.170  1.00  0.00     0.031 C 
ATOM     62  C   UNL A   1      41.587  30.775  35.964  1.00  0.00     0.029 A 
ATOM     63  C   UNL A   1      40.785  30.940  34.845  1.00  0.00     0.049 A 
ATOM     64  H   UNL A   1      40.827  29.889  33.016  1.00  0.00     0.167 HD
ATOM     65  C   UNL A   1      38.957  31.969  33.519  1.00  0.00     0.074 A 
ATOM     66  C   UNL A   1      37.865  32.902  33.341  1.00  0.00     0.031 C 
ATOM     67  C   UNL A   1      39.705  31.874  34.644  1.00  0.00     0.037 A 
BRANCH  54  68
ATOM     68  C   UNL A   1      44.063  27.480  34.413  1.00  0.00     0.064 A 
ATOM     69  C   UNL A   1      43.791  26.308  35.142  1.00  0.00     0.173 A 
ATOM     70  C   UNL A   1      45.392  27.927  34.377  1.00  0.00     0.173 A 
ATOM     71  F   UNL A   1      42.539  25.829  35.211  1.00  0.00    -0.203 F 
ATOM     72  C   UNL A   1      44.787  25.662  35.868  1.00  0.00     0.198 A 
ATOM     73  C   UNL A   1      46.396  27.250  35.066  1.00  0.00     0.198 A 
ATOM     74  F   UNL A   1      45.718  29.027  33.683  1.00  0.00    -0.203 F 
ATOM     75  F   UNL A   1      44.477  24.609  36.636  1.00  0.00    -0.200 F 
ATOM     76  C   UNL A   1      46.090  26.132  35.827  1.00  0.00     0.200 A 
ATOM     77  F   UNL A   1      47.660  27.692  35.008  1.00  0.00    -0.200 F 
ATOM     78  F   UNL A   1      47.047  25.515  36.533  1.00  0.00    -0.200 F 
ENDBRANCH  54  68
BRANCH  55  79
ATOM     79  C   UNL A   1      36.633  31.928  29.426  1.00  0.00     0.064 A 
ATOM     80  C   UNL A   1      36.660  33.290  29.090  1.00  0.00     0.173 A 
ATOM     81  C   UNL A   1      35.484  31.203  29.076  1.00  0.00     0.173 A 
ATOM     82  F   UNL A   1      37.729  34.037  29.408  1.00  0.00    -0.203 F 
ATOM     83  C   UNL A   1      35.572  33.911  28.476  1.00  0.00     0.198 A 
ATOM     84  C   UNL A   1      34.409  31.816  28.431  1.00  0.00     0.198 A 
ATOM     85  F   UNL A   1      35.406  29.893  29.354  1.00  0.00    -0.203 F 
ATOM     86  F   UNL A   1      35.605  35.227  28.229  1.00  0.00    -0.200 F 
ATOM     87  C   UNL A   1      34.448  33.172  28.144  1.00  0.00     0.200 A 
ATOM     88  F   UNL A   1      33.330  31.094  28.094  1.00  0.00    -0.200 F 
ATOM     89  F   UNL A   1      33.400  33.768  27.559  1.00  0.00    -0.200 F 
ENDBRANCH  55  79
BRANCH  67  90
ATOM     90  C   UNL A   1      39.408  32.835  35.756  1.00  0.00     0.064 A 
ATOM     91  C   UNL A   1      38.416  32.579  36.712  1.00  0.00     0.173 A 
ATOM     92  C   UNL A   1      40.173  34.004  35.897  1.00  0.00     0.173 A 
ATOM     93  F   UNL A   1      37.647  31.483  36.613  1.00  0.00    -0.203 F 
ATOM     94  C   UNL A   1      38.185  33.469  37.757  1.00  0.00     0.198 A 
ATOM     95  C   UNL A   1      39.968  34.869  36.965  1.00  0.00     0.198 A 
ATOM     96  F   UNL A   1      41.138  34.293  35.010  1.00  0.00    -0.203 F 
ATOM     97  F   UNL A   1      37.198  33.230  38.631  1.00  0.00    -0.200 F 
ATOM     98  C   UNL A   1      38.969  34.606  37.890  1.00  0.00     0.200 A 
ATOM     99  F   UNL A   1      40.742  35.954  37.104  1.00  0.00    -0.200 F 
ATOM    100  F   UNL A   1      38.759  35.450  38.908  1.00  0.00    -0.200 F 
ENDBRANCH  67  90
ENDBRANCH  41  42
ENDBRANCH  33  36
ENDBRANCH  31  32
ENDBRANCH  30  31
ENDBRANCH  29  30
ENDBRANCH   3  29
TORSDOF 16
ENDMDL
MODEL 2
REMARK VINA RESULT:     -13.4      4.256      7.096
REMARK SMILES COc1cccc([C@@H]2CC(c3cccc(C)c3)=NN2C(=O)CCC(=O)NCCCNC(=O)c2ccc(-c3c4nc(c(-c5c(F)c(F)c(F)c(F)c5F)c5ccc([nH]5)c(-c5c(F)c(F)c(F)c(F)c5F)c5nc(c(-c6c(F)c(F)c(F)c(F)c6F)c6ccc3[nH]6)C=C5)C=C4)cc2)c1
REMARK SMILES IDX 24 1 25 2 26 3 23 5 22 6 20 7 21 8 19 9 8 10 9 11 10 12
REMARK SMILES IDX 18 13 7 14 3 15 4 16 96 17 5 18 6 19 2 20 1 21 11 22 12 23
REMARK SMILES IDX 17 24 13 25 15 26 14 27 16 28 27 29 28 30 29 31 30 32 31 33
REMARK SMILES IDX 32 35 33 36 34 37 95 38 35 39 94 40 36 41 37 42 38 43 88 44
REMARK SMILES IDX 39 45 93 46 87 47 89 48 40 49 92 50 86 51 85 52 41 54 73 55
REMARK SMILES IDX 53 56 72 57 54 58 57 59 71 60 90 61 55 62 56 63 70 65 91 66
REMARK SMILES IDX 58 67 42 68 43 69 51 70 44 71 45 72 49 73 52 74 46 75 47 76
REMARK SMILES IDX 50 77 48 78 74 79 75 80 83 81 76 82 77 83 81 84 84 85 78 86
REMARK SMILES IDX 79 87 82 88 80 89 59 90 60 91 68 92 61 93 62 94 66 95 69 96
REMARK SMILES IDX 63 97 64 98 67 99 65 100
REMARK H PARENT 26 4 30 34 89 53 57 64
REMARK Flexibility Score: inf
ROOT
ATOM      1  C   UNL A   1      34.184  22.472  26.930  1.00  0.00     0.220 C 
ATOM      2  O   UNL A   1      33.646  22.576  28.038  1.00  0.00    -0.275 OA
ATOM      3  N   UNL A   1      34.598  21.238  26.515  1.00  0.00    -0.356 N 
ATOM      4  H   UNL A   1      34.670  20.568  27.234  1.00  0.00     0.163 HD
ENDROOT
BRANCH   1   5
ATOM      5  C   UNL A   1      34.495  23.720  26.124  1.00  0.00     0.110 C 
BRANCH   5   6
ATOM      6  C   UNL A   1      33.334  24.161  25.230  1.00  0.00     0.112 C 
BRANCH   6   7
ATOM      7  C   UNL A   1      33.452  25.605  24.822  1.00  0.00     0.243 C 
ATOM      8  O   UNL A   1      34.027  25.893  23.768  1.00  0.00    -0.273 OA
BRANCH   7   9
ATOM      9  N   UNL A   1      33.012  26.543  25.738  1.00  0.00    -0.225 N 
ATOM     10  C   UNL A   1      31.684  26.718  26.335  1.00  0.00     0.147 C 
ATOM     11  C   UNL A   1      31.808  27.977  27.212  1.00  0.00     0.091 C 
ATOM     12  C   UNL A   1      33.211  28.335  26.872  1.00  0.00     0.071 C 
ATOM     13  N   UNL A   1      33.820  27.564  26.036  1.00  0.00    -0.174 NA
BRANCH  10  14
ATOM     14  C   UNL A   1      30.703  26.816  25.187  1.00  0.00    -0.019 A 
ATOM     15  C   UNL A   1      29.588  28.324  23.655  1.00  0.00     0.119 A 
ATOM     16  C   UNL A   1      28.557  27.394  23.501  1.00  0.00     0.046 A 
ATOM     17  C   UNL A   1      30.656  28.025  24.493  1.00  0.00     0.052 A 
ATOM     18  C   UNL A   1      28.614  26.160  24.150  1.00  0.00     0.004 A 
ATOM     19  C   UNL A   1      29.691  25.863  24.982  1.00  0.00     0.006 A 
BRANCH  15  20
ATOM     20  O   UNL A   1      29.440  29.516  22.999  1.00  0.00    -0.497 OA
ATOM     21  C   UNL A   1      30.308  29.704  21.883  1.00  0.00     0.278 C 
ENDBRANCH  15  20
ENDBRANCH  10  14
BRANCH  12  22
ATOM     22  C   UNL A   1      33.874  29.575  27.212  1.00  0.00    -0.002 A 
ATOM     23  C   UNL A   1      35.532  29.181  27.624  1.00  0.00     0.010 A 
ATOM     24  C   UNL A   1      33.173  31.207  27.320  1.00  0.00     0.013 A 
ATOM     25  C   UNL A   1      36.575  30.478  28.198  1.00  0.00     0.001 A 
ATOM     26  C   UNL A   1      34.117  32.616  27.866  1.00  0.00    -0.050 A 
ATOM     27  C   UNL A   1      35.853  32.357  28.302  1.00  0.00     0.003 A 
ATOM     28  C   UNL A   1      33.449  33.900  28.253  1.00  0.00     0.044 C 
ENDBRANCH  12  22
ENDBRANCH   7   9
ENDBRANCH   6   7
ENDBRANCH   5   6
ENDBRANCH   1   5
BRANCH   3  29
ATOM     29  C   UNL A   1      34.949  20.745  25.194  1.00  0.00     0.117 C 
BRANCH  29  30
ATOM     30  C   UNL A   1      36.165  19.823  25.001  1.00  0.00     0.042 C 
BRANCH  30  31
ATOM     31  C   UNL A   1      37.572  20.326  24.628  1.00  0.00     0.118 C 
BRANCH  31  32
ATOM     32  N   UNL A   1      38.682  19.791  25.383  1.00  0.00    -0.352 N 
ATOM     33  C   UNL A   1      39.669  20.409  26.127  1.00  0.00     0.251 C 
ATOM     34  H   UNL A   1      38.748  18.809  25.364  1.00  0.00     0.163 HD
ATOM     35  O   UNL A   1      40.619  19.691  26.454  1.00  0.00    -0.269 OA
BRANCH  33  36
ATOM     36  C   UNL A   1      39.703  21.959  26.415  1.00  0.00     0.039 A 
ATOM     37  C   UNL A   1      41.106  22.120  27.544  1.00  0.00     0.014 A 
ATOM     38  C   UNL A   1      38.572  23.614  26.125  1.00  0.00     0.014 A 
ATOM     39  C   UNL A   1      41.430  23.691  28.280  1.00  0.00     0.010 A 
ATOM     40  C   UNL A   1      39.055  25.153  26.904  1.00  0.00     0.010 A 
ATOM     41  C   UNL A   1      40.491  25.167  27.935  1.00  0.00    -0.014 A 
BRANCH  41  42
ATOM     42  C   UNL A   1      41.141  26.517  28.141  1.00  0.00     0.031 A 
ATOM     43  C   UNL A   1      42.546  26.748  27.640  1.00  0.00     0.074 A 
ATOM     44  C   UNL A   1      40.585  27.442  28.965  1.00  0.00     0.049 A 
ATOM     45  N   UNL A   1      43.364  27.744  27.880  1.00  0.00    -0.248 NA
ATOM     46  C   UNL A   1      43.144  25.674  26.832  1.00  0.00     0.031 C 
ATOM     47  C   UNL A   1      39.311  27.330  29.683  1.00  0.00     0.029 A 
ATOM     48  N   UNL A   1      41.047  28.677  29.377  1.00  0.00    -0.354 N 
ATOM     49  C   UNL A   1      44.568  27.385  27.287  1.00  0.00     0.074 A 
ATOM     50  C   UNL A   1      44.419  26.027  26.821  1.00  0.00     0.031 C 
ATOM     51  C   UNL A   1      39.078  28.435  30.402  1.00  0.00     0.029 A 
ATOM     52  C   UNL A   1      40.192  29.347  30.227  1.00  0.00     0.049 A 
ATOM     53  H   UNL A   1      41.913  29.047  29.088  1.00  0.00     0.167 HD
ATOM     54  C   UNL A   1      45.672  28.142  27.068  1.00  0.00     0.037 A 
ATOM     55  C   UNL A   1      40.271  30.564  30.800  1.00  0.00     0.037 A 
ATOM     56  C   UNL A   1      45.788  29.515  27.473  1.00  0.00     0.049 A 
ATOM     57  C   UNL A   1      41.472  31.416  30.503  1.00  0.00     0.074 A 
ATOM     58  C   UNL A   1      46.802  30.415  27.204  1.00  0.00     0.029 A 
ATOM     59  N   UNL A   1      44.845  30.187  28.237  1.00  0.00    -0.354 N 
ATOM     60  N   UNL A   1      42.538  31.122  29.800  1.00  0.00    -0.248 NA
ATOM     61  C   UNL A   1      41.474  32.777  31.056  1.00  0.00     0.031 C 
ATOM     62  C   UNL A   1      46.502  31.615  27.856  1.00  0.00     0.029 A 
ATOM     63  C   UNL A   1      45.265  31.485  28.470  1.00  0.00     0.049 A 
ATOM     64  H   UNL A   1      44.002  29.798  28.566  1.00  0.00     0.167 HD
ATOM     65  C   UNL A   1      43.316  32.270  29.791  1.00  0.00     0.074 A 
ATOM     66  C   UNL A   1      42.592  33.271  30.546  1.00  0.00     0.031 C 
ATOM     67  C   UNL A   1      44.522  32.475  29.209  1.00  0.00     0.037 A 
BRANCH  54  68
ATOM     68  C   UNL A   1      46.805  27.504  26.309  1.00  0.00     0.064 A 
ATOM     69  C   UNL A   1      47.841  26.821  26.974  1.00  0.00     0.173 A 
ATOM     70  C   UNL A   1      46.877  27.586  24.911  1.00  0.00     0.173 A 
ATOM     71  F   UNL A   1      47.826  26.707  28.311  1.00  0.00    -0.203 F 
ATOM     72  C   UNL A   1      48.938  26.321  26.279  1.00  0.00     0.198 A 
ATOM     73  C   UNL A   1      47.953  27.040  24.214  1.00  0.00     0.198 A 
ATOM     74  F   UNL A   1      45.910  28.205  24.218  1.00  0.00    -0.203 F 
ATOM     75  F   UNL A   1      49.958  25.770  26.950  1.00  0.00    -0.200 F 
ATOM     76  C   UNL A   1      48.992  26.427  24.899  1.00  0.00     0.200 A 
ATOM     77  F   UNL A   1      47.994  27.124  22.877  1.00  0.00    -0.200 F 
ATOM     78  F   UNL A   1      50.052  25.953  24.231  1.00  0.00    -0.200 F 
ENDBRANCH  54  68
BRANCH  55  79
ATOM     79  C   UNL A   1      39.153  31.089  31.643  1.00  0.00     0.064 A 
ATOM     80  C   UNL A   1      38.253  32.036  31.131  1.00  0.00     0.173 A 
ATOM     81  C   UNL A   1      38.969  30.679  32.972  1.00  0.00     0.173 A 
ATOM     82  F   UNL A   1      38.385  32.472  29.869  1.00  0.00    -0.203 F 
ATOM     83  C   UNL A   1      37.245  32.586  31.924  1.00  0.00     0.198 A 
ATOM     84  C   UNL A   1      37.940  31.204  33.756  1.00  0.00     0.198 A 
ATOM     85  F   UNL A   1      39.786  29.763  33.512  1.00  0.00    -0.203 F 
ATOM     86  F   UNL A   1      36.445  33.537  31.425  1.00  0.00    -0.200 F 
ATOM     87  C   UNL A   1      37.088  32.167  33.236  1.00  0.00     0.200 A 
ATOM     88  F   UNL A   1      37.778  30.783  35.018  1.00  0.00    -0.200 F 
ATOM     89  F   UNL A   1      36.124  32.698  34.000  1.00  0.00    -0.200 F 
ENDBRANCH  55  79
BRANCH  67  90
ATOM     90  C   UNL A   1      45.117  33.848  29.316  1.00  0.00     0.064 A 
ATOM     91  C   UNL A   1      44.785  34.871  28.418  1.00  0.00     0.173 A 
ATOM     92  C   UNL A   1      45.987  34.156  30.374  1.00  0.00     0.173 A 
ATOM     93  F   UNL A   1      43.970  34.624  27.381  1.00  0.00    -0.203 F 
ATOM     94  C   UNL A   1      45.320  36.148  28.562  1.00  0.00     0.198 A 
ATOM     95  C   UNL A   1      46.486  35.442  30.539  1.00  0.00     0.198 A 
ATOM     96  F   UNL A   1      46.332  33.213  31.264  1.00  0.00    -0.203 F 
ATOM     97  F   UNL A   1      45.030  37.098  27.662  1.00  0.00    -0.200 F 
ATOM     98  C   UNL A   1      46.160  36.436  29.628  1.00  0.00     0.200 A 
ATOM     99  F   UNL A   1      47.278  35.723  31.583  1.00  0.00    -0.200 F 
ATOM    100  F   UNL A   1      46.657  37.670  29.776  1.00  0.00    -0.200 F 
ENDBRANCH  67  90
ENDBRANCH  41  42
ENDBRANCH  33  36
ENDBRANCH  31  32
ENDBRANCH  30  31
ENDBRANCH  29  30
ENDBRANCH   3  29
TORSDOF 16
ENDMDL
MODEL 3
REMARK VINA RESULT:     -13.1      4.031      5.080
REMARK SMILES COc1cccc([C@@H]2CC(c3cccc(C)c3)=NN2C(=O)CCC(=O)NCCCNC(=O)c2ccc(-c3c4nc(c(-c5c(F)c(F)c(F)c(F)c5F)c5ccc([nH]5)c(-c5c(F)c(F)c(F)c(F)c5F)c5nc(c(-c6c(F)c(F)c(F)c(F)c6F)c6ccc3[nH]6)C=C5)C=C4)cc2)c1
REMARK SMILES IDX 24 1 25 2 26 3 23 5 22 6 20 7 21 8 19 9 8 10 9 11 10 12
REMARK SMILES IDX 18 13 7 14 3 15 4 16 96 17 5 18 6 19 2 20 1 21 11 22 12 23
REMARK SMILES IDX 17 24 13 25 15 26 14 27 16 28 27 29 28 30 29 31 30 32 31 33
REMARK SMILES IDX 32 35 33 36 34 37 95 38 35 39 94 40 36 41 37 42 38 43 88 44
REMARK SMILES IDX 39 45 93 46 87 47 89 48 40 49 92 50 86 51 85 52 41 54 73 55
REMARK SMILES IDX 53 56 72 57 54 58 57 59 71 60 90 61 55 62 56 63 70 65 91 66
REMARK SMILES IDX 58 67 42 68 43 69 51 70 44 71 45 72 49 73 52 74 46 75 47 76
REMARK SMILES IDX 50 77 48 78 74 79 75 80 83 81 76 82 77 83 81 84 84 85 78 86
REMARK SMILES IDX 79 87 82 88 80 89 59 90 60 91 68 92 61 93 62 94 66 95 69 96
REMARK SMILES IDX 63 97 64 98 67 99 65 100
REMARK H PARENT 26 4 30 34 89 53 57 64
REMARK Flexibility Score: inf
ROOT
ATOM      1  C   UNL A   1      38.531  23.855  26.499  1.00  0.00     0.220 C 
ATOM      2  O   UNL A   1      38.884  24.923  27.011  1.00  0.00    -0.275 OA
ATOM      3  N   UNL A   1      39.470  22.882  26.300  1.00  0.00    -0.356 N 
ATOM      4  H   UNL A   1      40.402  23.198  26.340  1.00  0.00     0.163 HD
ENDROOT
BRANCH   1   5
ATOM      5  C   UNL A   1      37.112  23.699  25.984  1.00  0.00     0.110 C 
BRANCH   5   6
ATOM      6  C   UNL A   1      37.027  23.683  24.456  1.00  0.00     0.112 C 
BRANCH   6   7
ATOM      7  C   UNL A   1      35.611  23.524  23.971  1.00  0.00     0.243 C 
ATOM      8  O   UNL A   1      35.403  23.043  22.854  1.00  0.00    -0.273 OA
BRANCH   7   9
ATOM      9  N   UNL A   1      34.620  24.059  24.774  1.00  0.00    -0.225 N 
ATOM     10  C   UNL A   1      33.666  23.384  25.659  1.00  0.00     0.147 C 
ATOM     11  C   UNL A   1      32.776  24.510  26.213  1.00  0.00     0.091 C 
ATOM     12  C   UNL A   1      33.365  25.642  25.448  1.00  0.00     0.071 C 
ATOM     13  N   UNL A   1      34.331  25.357  24.643  1.00  0.00    -0.174 NA
BRANCH  10  14
ATOM     14  C   UNL A   1      32.958  22.344  24.818  1.00  0.00    -0.019 A 
ATOM     15  C   UNL A   1      32.927  20.014  24.158  1.00  0.00     0.119 A 
ATOM     16  C   UNL A   1      32.261  20.363  22.982  1.00  0.00     0.046 A 
ATOM     17  C   UNL A   1      33.265  21.007  25.070  1.00  0.00     0.052 A 
ATOM     18  C   UNL A   1      31.903  21.690  22.737  1.00  0.00     0.004 A 
ATOM     19  C   UNL A   1      32.238  22.679  23.658  1.00  0.00     0.006 A 
BRANCH  15  20
ATOM     20  O   UNL A   1      33.258  18.694  24.306  1.00  0.00    -0.497 OA
ATOM     21  C   UNL A   1      32.656  18.041  25.421  1.00  0.00     0.278 C 
ENDBRANCH  15  20
ENDBRANCH  10  14
BRANCH  12  22
ATOM     22  C   UNL A   1      32.815  26.977  25.354  1.00  0.00    -0.002 A 
ATOM     23  C   UNL A   1      33.425  27.887  26.723  1.00  0.00     0.010 A 
ATOM     24  C   UNL A   1      31.651  27.609  24.166  1.00  0.00     0.013 A 
ATOM     25  C   UNL A   1      32.839  29.531  26.953  1.00  0.00     0.001 A 
ATOM     26  C   UNL A   1      30.989  29.260  24.265  1.00  0.00    -0.050 A 
ATOM     27  C   UNL A   1      31.551  30.320  25.618  1.00  0.00     0.003 A 
ATOM     28  C   UNL A   1      29.791  29.669  23.464  1.00  0.00     0.044 C 
ENDBRANCH  12  22
ENDBRANCH   7   9
ENDBRANCH   6   7
ENDBRANCH   5   6
ENDBRANCH   1   5
BRANCH   3  29
ATOM     29  C   UNL A   1      39.327  21.460  26.039  1.00  0.00     0.117 C 
BRANCH  29  30
ATOM     30  C   UNL A   1      40.403  20.466  26.509  1.00  0.00     0.042 C 
BRANCH  30  31
ATOM     31  C   UNL A   1      41.576  20.846  27.431  1.00  0.00     0.118 C 
BRANCH  31  32
ATOM     32  N   UNL A   1      42.898  20.847  26.846  1.00  0.00    -0.352 N 
ATOM     33  C   UNL A   1      43.677  21.871  26.343  1.00  0.00     0.251 C 
ATOM     34  H   UNL A   1      43.319  19.959  26.797  1.00  0.00     0.163 HD
ATOM     35  O   UNL A   1      44.664  21.519  25.691  1.00  0.00    -0.269 OA
BRANCH  33  36
ATOM     36  C   UNL A   1      43.278  23.394  26.427  1.00  0.00     0.039 A 
ATOM     37  C   UNL A   1      43.562  23.782  28.170  1.00  0.00     0.014 A 
ATOM     38  C   UNL A   1      42.374  24.823  25.312  1.00  0.00     0.014 A 
ATOM     39  C   UNL A   1      43.084  25.368  28.779  1.00  0.00     0.010 A 
ATOM     40  C   UNL A   1      41.990  26.406  26.059  1.00  0.00     0.010 A 
ATOM     41  C   UNL A   1      42.385  26.656  27.763  1.00  0.00    -0.014 A 
BRANCH  41  42
ATOM     42  C   UNL A   1      42.528  28.097  28.202  1.00  0.00     0.031 A 
ATOM     43  C   UNL A   1      43.904  28.709  28.301  1.00  0.00     0.074 A 
ATOM     44  C   UNL A   1      41.477  28.775  28.730  1.00  0.00     0.049 A 
ATOM     45  N   UNL A   1      44.276  29.844  28.840  1.00  0.00    -0.248 NA
ATOM     46  C   UNL A   1      45.026  27.896  27.806  1.00  0.00     0.031 C 
ATOM     47  C   UNL A   1      40.102  28.288  28.881  1.00  0.00     0.029 A 
ATOM     48  N   UNL A   1      41.405  30.039  29.282  1.00  0.00    -0.354 N 
ATOM     49  C   UNL A   1      45.664  29.848  28.778  1.00  0.00     0.074 A 
ATOM     50  C   UNL A   1      46.066  28.546  28.301  1.00  0.00     0.031 C 
ATOM     51  C   UNL A   1      39.330  29.229  29.439  1.00  0.00     0.029 A 
ATOM     52  C   UNL A   1      40.145  30.396  29.717  1.00  0.00     0.049 A 
ATOM     53  H   UNL A   1      42.186  30.633  29.360  1.00  0.00     0.167 HD
ATOM     54  C   UNL A   1      46.528  30.867  29.011  1.00  0.00     0.037 A 
ATOM     55  C   UNL A   1      39.675  31.534  30.265  1.00  0.00     0.037 A 
ATOM     56  C   UNL A   1      46.116  32.181  29.419  1.00  0.00     0.049 A 
ATOM     57  C   UNL A   1      40.631  32.676  30.465  1.00  0.00     0.074 A 
ATOM     58  C   UNL A   1      46.882  33.321  29.571  1.00  0.00     0.029 A 
ATOM     59  N   UNL A   1      44.811  32.527  29.739  1.00  0.00    -0.354 N 
ATOM     60  N   UNL A   1      41.922  32.718  30.247  1.00  0.00    -0.248 NA
ATOM     61  C   UNL A   1      40.063  33.936  30.963  1.00  0.00     0.031 C 
ATOM     62  C   UNL A   1      46.051  34.343  30.040  1.00  0.00     0.029 A 
ATOM     63  C   UNL A   1      44.754  33.859  30.111  1.00  0.00     0.049 A 
ATOM     64  H   UNL A   1      44.039  31.915  29.708  1.00  0.00     0.167 HD
ATOM     65  C   UNL A   1      42.315  34.016  30.540  1.00  0.00     0.074 A 
ATOM     66  C   UNL A   1      41.121  34.733  30.937  1.00  0.00     0.031 C 
ATOM     67  C   UNL A   1      43.553  34.563  30.486  1.00  0.00     0.037 A 
BRANCH  54  68
ATOM     68  C   UNL A   1      47.990  30.599  28.772  1.00  0.00     0.064 A 
ATOM     69  C   UNL A   1      48.790  29.974  29.746  1.00  0.00     0.173 A 
ATOM     70  C   UNL A   1      48.610  30.984  27.574  1.00  0.00     0.173 A 
ATOM     71  F   UNL A   1      48.254  29.580  30.911  1.00  0.00    -0.203 F 
ATOM     72  C   UNL A   1      50.162  29.819  29.562  1.00  0.00     0.198 A 
ATOM     73  C   UNL A   1      49.974  30.782  27.374  1.00  0.00     0.198 A 
ATOM     74  F   UNL A   1      47.896  31.565  26.599  1.00  0.00    -0.203 F 
ATOM     75  F   UNL A   1      50.914  29.316  30.550  1.00  0.00    -0.200 F 
ATOM     76  C   UNL A   1      50.752  30.220  28.375  1.00  0.00     0.200 A 
ATOM     77  F   UNL A   1      50.541  31.150  26.217  1.00  0.00    -0.200 F 
ATOM     78  F   UNL A   1      52.073  30.079  28.202  1.00  0.00    -0.200 F 
ENDBRANCH  54  68
BRANCH  55  79
ATOM     79  C   UNL A   1      38.225  31.687  30.588  1.00  0.00     0.064 A 
ATOM     80  C   UNL A   1      37.293  31.990  29.582  1.00  0.00     0.173 A 
ATOM     81  C   UNL A   1      37.737  31.559  31.897  1.00  0.00     0.173 A 
ATOM     82  F   UNL A   1      37.703  32.134  28.312  1.00  0.00    -0.203 F 
ATOM     83  C   UNL A   1      35.946  32.203  29.877  1.00  0.00     0.198 A 
ATOM     84  C   UNL A   1      36.383  31.738  32.187  1.00  0.00     0.198 A 
ATOM     85  F   UNL A   1      38.575  31.252  32.898  1.00  0.00    -0.203 F 
ATOM     86  F   UNL A   1      35.097  32.557  28.903  1.00  0.00    -0.200 F 
ATOM     87  C   UNL A   1      35.492  32.074  31.179  1.00  0.00     0.200 A 
ATOM     88  F   UNL A   1      35.943  31.594  33.445  1.00  0.00    -0.200 F 
ATOM     89  F   UNL A   1      34.199  32.283  31.464  1.00  0.00    -0.200 F 
ENDBRANCH  55  79
BRANCH  67  90
ATOM     90  C   UNL A   1      43.679  36.021  30.811  1.00  0.00     0.064 A 
ATOM     91  C   UNL A   1      43.901  36.473  32.119  1.00  0.00     0.173 A 
ATOM     92  C   UNL A   1      43.637  36.976  29.783  1.00  0.00     0.173 A 
ATOM     93  F   UNL A   1      43.935  35.602  33.139  1.00  0.00    -0.203 F 
ATOM     94  C   UNL A   1      44.054  37.829  32.389  1.00  0.00     0.198 A 
ATOM     95  C   UNL A   1      43.832  38.325  30.051  1.00  0.00     0.198 A 
ATOM     96  F   UNL A   1      43.432  36.595  28.512  1.00  0.00    -0.203 F 
ATOM     97  F   UNL A   1      44.214  38.244  33.654  1.00  0.00    -0.200 F 
ATOM     98  C   UNL A   1      44.032  38.753  31.355  1.00  0.00     0.200 A 
ATOM     99  F   UNL A   1      43.833  39.212  29.046  1.00  0.00    -0.200 F 
ATOM    100  F   UNL A   1      44.200  40.056  31.614  1.00  0.00    -0.200 F 
ENDBRANCH  67  90
ENDBRANCH  41  42
ENDBRANCH  33  36
ENDBRANCH  31  32
ENDBRANCH  30  31
ENDBRANCH  29  30
ENDBRANCH   3  29
TORSDOF 16
ENDMDL
