MODEL 1
REMARK VINA RESULT:     -12.9      0.000      0.000
REMARK SMILES Cn1cc(/C=C/C(=O)Nc2ccc(C(=O)NCCCNC(=O)c3ccc(-c4c5nc(c(-c6c(F)c(F)c(F)c(F)c6F)c6ccc([nH]6)c(-c6c(F)c(F)c(F)c(F)c6F)c6nc(c(-c7c(F)c(F)c(F)c(F)c7F)c7ccc4[nH]7)C=C6)C=C5)cc3)c(O)c2)cn1
REMARK SMILES IDX 17 1 16 2 14 3 15 4 13 6 10 7 11 8 88 9 12 10 86 11 9 12
REMARK SMILES IDX 7 13 8 14 6 16 5 17 4 18 1 19 2 20 3 21 90 22 89 23 87 24
REMARK SMILES IDX 18 26 19 27 20 28 21 29 22 31 23 32 24 33 85 34 25 35 84 36
REMARK SMILES IDX 26 37 27 38 28 39 78 40 29 41 83 42 77 43 79 44 30 45 82 46
REMARK SMILES IDX 76 47 75 48 31 50 63 51 43 52 62 53 44 54 47 55 61 56 80 57
REMARK SMILES IDX 45 58 46 59 60 61 81 62 48 63 32 64 33 65 41 66 34 67 35 68
REMARK SMILES IDX 39 69 42 70 36 71 37 72 40 73 38 74 64 75 65 76 73 77 66 78
REMARK SMILES IDX 67 79 71 80 74 81 68 82 69 83 72 84 70 85 49 86 50 87 58 88
REMARK SMILES IDX 51 89 52 90 56 91 59 92 53 93 54 94 57 95 55 96
REMARK H PARENT 16 5 9 15 87 25 20 30 79 49 47 60
REMARK Flexibility Score: inf
ROOT
ATOM      1  C   UNL A   1      32.288  29.507  24.592  1.00  0.00     0.118 C 
ENDROOT
BRANCH   1   2
ATOM      2  N   UNL A   1      31.324  29.507  23.502  1.00  0.00    -0.352 N 
ATOM      3  C   UNL A   1      30.794  28.480  22.757  1.00  0.00     0.255 C 
ATOM      4  O   UNL A   1      29.972  28.771  21.890  1.00  0.00    -0.269 OA
ATOM      5  H   UNL A   1      30.994  30.401  23.254  1.00  0.00     0.163 HD
BRANCH   3   6
ATOM      6  C   UNL A   1      31.243  27.067  22.887  1.00  0.00     0.081 A 
ATOM      7  C   UNL A   1      31.519  24.270  22.915  1.00  0.00     0.045 A 
ATOM      8  C   UNL A   1      30.712  24.903  23.857  1.00  0.00     0.027 A 
ATOM      9  C   UNL A   1      32.367  25.054  22.131  1.00  0.00     0.073 A 
ATOM     10  C   UNL A   1      30.539  26.287  23.814  1.00  0.00     0.020 A 
ATOM     11  C   UNL A   1      32.257  26.447  22.157  1.00  0.00     0.130 A 
BRANCH   7  12
ATOM     12  N   UNL A   1      31.512  22.883  22.691  1.00  0.00    -0.322 N 
ATOM     13  C   UNL A   1      32.413  21.905  23.017  1.00  0.00     0.248 C 
ATOM     14  O   UNL A   1      32.267  20.768  22.567  1.00  0.00    -0.270 OA
ATOM     15  H   UNL A   1      30.716  22.555  22.213  1.00  0.00     0.170 HD
BRANCH  13  16
ATOM     16  C   UNL A   1      33.560  22.164  23.923  1.00  0.00     0.072 C 
ATOM     17  C   UNL A   1      34.747  22.634  23.507  1.00  0.00     0.017 C 
BRANCH  17  18
ATOM     18  C   UNL A   1      35.897  22.759  24.333  1.00  0.00     0.013 A 
ATOM     19  C   UNL A   1      38.948  21.640  25.878  1.00  0.00     0.173 C 
ATOM     20  N   UNL A   1      37.762  22.293  25.379  1.00  0.00    -0.275 N 
ATOM     21  C   UNL A   1      36.894  21.816  24.438  1.00  0.00     0.116 A 
ATOM     22  N   UNL A   1      37.410  23.496  25.869  1.00  0.00    -0.181 NA
ATOM     23  C   UNL A   1      36.268  23.776  25.234  1.00  0.00     0.143 A 
ENDBRANCH  17  18
ENDBRANCH  13  16
ENDBRANCH   7  12
BRANCH  11  24
ATOM     24  O   UNL A   1      33.209  27.125  21.448  1.00  0.00    -0.507 OA
ATOM     25  H   UNL A   1      34.108  27.082  21.710  1.00  0.00     0.293 HD
ENDBRANCH  11  24
ENDBRANCH   3   6
ENDBRANCH   1   2
BRANCH   1  26
ATOM     26  C   UNL A   1      31.766  28.964  25.911  1.00  0.00     0.042 C 
BRANCH  26  27
ATOM     27  C   UNL A   1      32.185  29.732  27.156  1.00  0.00     0.118 C 
BRANCH  27  28
ATOM     28  N   UNL A   1      32.364  31.163  26.947  1.00  0.00    -0.352 N 
ATOM     29  C   UNL A   1      33.404  32.008  27.250  1.00  0.00     0.251 C 
ATOM     30  H   UNL A   1      31.600  31.604  26.507  1.00  0.00     0.163 HD
ATOM     31  O   UNL A   1      33.265  33.218  27.066  1.00  0.00    -0.269 OA
BRANCH  29  32
ATOM     32  C   UNL A   1      34.669  31.504  27.831  1.00  0.00     0.039 A 
ATOM     33  C   UNL A   1      35.661  32.420  28.197  1.00  0.00     0.014 A 
ATOM     34  C   UNL A   1      34.901  30.141  28.010  1.00  0.00     0.014 A 
ATOM     35  C   UNL A   1      36.831  31.974  28.818  1.00  0.00     0.010 A 
ATOM     36  C   UNL A   1      36.001  29.710  28.747  1.00  0.00     0.010 A 
ATOM     37  C   UNL A   1      36.989  30.619  29.148  1.00  0.00    -0.014 A 
BRANCH  37  38
ATOM     38  C   UNL A   1      38.184  30.129  29.887  1.00  0.00     0.031 A 
ATOM     39  C   UNL A   1      38.441  30.581  31.302  1.00  0.00     0.074 A 
ATOM     40  C   UNL A   1      39.072  29.327  29.267  1.00  0.00     0.049 A 
ATOM     41  N   UNL A   1      39.453  30.311  32.088  1.00  0.00    -0.248 NA
ATOM     42  C   UNL A   1      37.449  31.488  31.901  1.00  0.00     0.031 C 
ATOM     43  C   UNL A   1      38.977  28.869  27.880  1.00  0.00     0.029 A 
ATOM     44  N   UNL A   1      40.236  28.757  29.721  1.00  0.00    -0.354 N 
ATOM     45  C   UNL A   1      39.225  31.027  33.257  1.00  0.00     0.074 A 
ATOM     46  C   UNL A   1      38.021  31.799  33.053  1.00  0.00     0.031 C 
ATOM     47  C   UNL A   1      40.013  28.060  27.608  1.00  0.00     0.029 A 
ATOM     48  C   UNL A   1      40.871  27.976  28.784  1.00  0.00     0.049 A 
ATOM     49  H   UNL A   1      40.585  28.896  30.631  1.00  0.00     0.167 HD
ATOM     50  C   UNL A   1      39.935  31.015  34.411  1.00  0.00     0.037 A 
ATOM     51  C   UNL A   1      42.017  27.273  28.866  1.00  0.00     0.037 A 
ATOM     52  C   UNL A   1      41.114  30.220  34.623  1.00  0.00     0.049 A 
ATOM     53  C   UNL A   1      42.785  27.274  30.160  1.00  0.00     0.074 A 
ATOM     54  C   UNL A   1      41.869  30.085  35.776  1.00  0.00     0.029 A 
ATOM     55  N   UNL A   1      41.714  29.424  33.658  1.00  0.00    -0.354 N 
ATOM     56  N   UNL A   1      42.514  27.890  31.285  1.00  0.00    -0.248 NA
ATOM     57  C   UNL A   1      44.016  26.470  30.199  1.00  0.00     0.031 C 
ATOM     58  C   UNL A   1      42.957  29.253  35.490  1.00  0.00     0.029 A 
ATOM     59  C   UNL A   1      42.844  28.817  34.180  1.00  0.00     0.049 A 
ATOM     60  H   UNL A   1      41.384  29.308  32.737  1.00  0.00     0.167 HD
ATOM     61  C   UNL A   1      43.519  27.527  32.172  1.00  0.00     0.074 A 
ATOM     62  C   UNL A   1      44.394  26.619  31.460  1.00  0.00     0.031 C 
ATOM     63  C   UNL A   1      43.702  27.910  33.460  1.00  0.00     0.037 A 
BRANCH  50  64
ATOM     64  C   UNL A   1      39.448  31.884  35.538  1.00  0.00     0.064 A 
ATOM     65  C   UNL A   1      38.524  31.416  36.486  1.00  0.00     0.173 A 
ATOM     66  C   UNL A   1      39.935  33.191  35.691  1.00  0.00     0.173 A 
ATOM     67  F   UNL A   1      38.016  30.179  36.381  1.00  0.00    -0.203 F 
ATOM     68  C   UNL A   1      38.081  32.234  37.522  1.00  0.00     0.198 A 
ATOM     69  C   UNL A   1      39.517  33.993  36.750  1.00  0.00     0.198 A 
ATOM     70  F   UNL A   1      40.822  33.690  34.818  1.00  0.00    -0.203 F 
ATOM     71  F   UNL A   1      37.154  31.784  38.379  1.00  0.00    -0.200 F 
ATOM     72  C   UNL A   1      38.584  33.519  37.659  1.00  0.00     0.200 A 
ATOM     73  F   UNL A   1      40.016  35.230  36.888  1.00  0.00    -0.200 F 
ATOM     74  F   UNL A   1      38.163  34.303  38.661  1.00  0.00    -0.200 F 
ENDBRANCH  50  64
BRANCH  51  75
ATOM     75  C   UNL A   1      42.493  26.485  27.697  1.00  0.00     0.064 A 
ATOM     76  C   UNL A   1      42.021  25.185  27.462  1.00  0.00     0.173 A 
ATOM     77  C   UNL A   1      43.436  27.006  26.798  1.00  0.00     0.173 A 
ATOM     78  F   UNL A   1      41.134  24.633  28.302  1.00  0.00    -0.203 F 
ATOM     79  C   UNL A   1      42.493  24.428  26.391  1.00  0.00     0.198 A 
ATOM     80  C   UNL A   1      43.882  26.261  25.708  1.00  0.00     0.198 A 
ATOM     81  F   UNL A   1      43.915  28.247  26.972  1.00  0.00    -0.203 F 
ATOM     82  F   UNL A   1      42.064  23.170  26.223  1.00  0.00    -0.200 F 
ATOM     83  C   UNL A   1      43.418  24.969  25.511  1.00  0.00     0.200 A 
ATOM     84  F   UNL A   1      44.763  26.794  24.851  1.00  0.00    -0.200 F 
ATOM     85  F   UNL A   1      43.869  24.243  24.479  1.00  0.00    -0.200 F 
ENDBRANCH  51  75
BRANCH  63  86
ATOM     86  C   UNL A   1      44.869  27.317  34.196  1.00  0.00     0.064 A 
ATOM     87  C   UNL A   1      44.772  26.095  34.878  1.00  0.00     0.173 A 
ATOM     88  C   UNL A   1      46.113  27.968  34.192  1.00  0.00     0.173 A 
ATOM     89  F   UNL A   1      43.602  25.439  34.924  1.00  0.00    -0.203 F 
ATOM     90  C   UNL A   1      45.866  25.565  35.557  1.00  0.00     0.198 A 
ATOM     91  C   UNL A   1      47.214  27.417  34.840  1.00  0.00     0.198 A 
ATOM     92  F   UNL A   1      46.264  29.134  33.547  1.00  0.00    -0.203 F 
ATOM     93  F   UNL A   1      45.732  24.426  36.251  1.00  0.00    -0.200 F 
ATOM     94  C   UNL A   1      47.087  26.222  35.531  1.00  0.00     0.200 A 
ATOM     95  F   UNL A   1      48.397  28.044  34.799  1.00  0.00    -0.200 F 
ATOM     96  F   UNL A   1      48.140  25.707  36.180  1.00  0.00    -0.200 F 
ENDBRANCH  63  86
ENDBRANCH  37  38
ENDBRANCH  29  32
ENDBRANCH  27  28
ENDBRANCH  26  27
ENDBRANCH   1  26
TORSDOF 14
ENDMDL
MODEL 2
REMARK VINA RESULT:     -12.9      0.234      1.600
REMARK SMILES Cn1cc(/C=C/C(=O)Nc2ccc(C(=O)NCCCNC(=O)c3ccc(-c4c5nc(c(-c6c(F)c(F)c(F)c(F)c6F)c6ccc([nH]6)c(-c6c(F)c(F)c(F)c(F)c6F)c6nc(c(-c7c(F)c(F)c(F)c(F)c7F)c7ccc4[nH]7)C=C6)C=C5)cc3)c(O)c2)cn1
REMARK SMILES IDX 17 1 16 2 14 3 15 4 13 6 10 7 11 8 88 9 12 10 86 11 9 12
REMARK SMILES IDX 7 13 8 14 6 16 5 17 4 18 1 19 2 20 3 21 90 22 89 23 87 24
REMARK SMILES IDX 18 26 19 27 20 28 21 29 22 31 23 32 24 33 85 34 25 35 84 36
REMARK SMILES IDX 26 37 27 38 28 39 78 40 29 41 83 42 77 43 79 44 30 45 82 46
REMARK SMILES IDX 76 47 75 48 31 50 63 51 43 52 62 53 44 54 47 55 61 56 80 57
REMARK SMILES IDX 45 58 46 59 60 61 81 62 48 63 32 64 33 65 41 66 34 67 35 68
REMARK SMILES IDX 39 69 42 70 36 71 37 72 40 73 38 74 64 75 65 76 73 77 66 78
REMARK SMILES IDX 67 79 71 80 74 81 68 82 69 83 72 84 70 85 49 86 50 87 58 88
REMARK SMILES IDX 51 89 52 90 56 91 59 92 53 93 54 94 57 95 55 96
REMARK H PARENT 16 5 9 15 87 25 20 30 79 49 47 60
REMARK Flexibility Score: inf
ROOT
ATOM      1  C   UNL A   1      32.377  29.348  24.619  1.00  0.00     0.118 C 
ENDROOT
BRANCH   1   2
ATOM      2  N   UNL A   1      31.508  29.382  23.453  1.00  0.00    -0.352 N 
ATOM      3  C   UNL A   1      31.015  28.375  22.657  1.00  0.00     0.255 C 
ATOM      4  O   UNL A   1      30.275  28.694  21.727  1.00  0.00    -0.269 OA
ATOM      5  H   UNL A   1      31.223  30.286  23.187  1.00  0.00     0.163 HD
BRANCH   3   6
ATOM      6  C   UNL A   1      31.414  26.950  22.810  1.00  0.00     0.081 A 
ATOM      7  C   UNL A   1      31.579  24.146  22.922  1.00  0.00     0.045 A 
ATOM      8  C   UNL A   1      30.859  24.843  23.888  1.00  0.00     0.027 A 
ATOM      9  C   UNL A   1      32.407  24.867  22.060  1.00  0.00     0.073 A 
ATOM     10  C   UNL A   1      30.740  26.232  23.806  1.00  0.00     0.020 A 
ATOM     11  C   UNL A   1      32.355  26.263  22.041  1.00  0.00     0.130 A 
BRANCH   7  12
ATOM     12  N   UNL A   1      31.503  22.754  22.749  1.00  0.00    -0.322 N 
ATOM     13  C   UNL A   1      32.362  21.745  23.097  1.00  0.00     0.248 C 
ATOM     14  O   UNL A   1      32.155  20.602  22.691  1.00  0.00    -0.270 OA
ATOM     15  H   UNL A   1      30.685  22.447  22.296  1.00  0.00     0.170 HD
BRANCH  13  16
ATOM     16  C   UNL A   1      33.535  21.981  23.976  1.00  0.00     0.072 C 
ATOM     17  C   UNL A   1      34.656  22.602  23.571  1.00  0.00     0.017 C 
BRANCH  17  18
ATOM     18  C   UNL A   1      35.837  22.717  24.353  1.00  0.00     0.013 A 
ATOM     19  C   UNL A   1      38.898  21.546  25.839  1.00  0.00     0.173 C 
ATOM     20  N   UNL A   1      37.720  22.223  25.353  1.00  0.00    -0.275 N 
ATOM     21  C   UNL A   1      36.803  21.742  24.463  1.00  0.00     0.116 A 
ATOM     22  N   UNL A   1      37.430  23.457  25.804  1.00  0.00    -0.181 NA
ATOM     23  C   UNL A   1      36.277  23.754  25.197  1.00  0.00     0.143 A 
ENDBRANCH  17  18
ENDBRANCH  13  16
ENDBRANCH   7  12
BRANCH  11  24
ATOM     24  O   UNL A   1      33.287  26.876  21.252  1.00  0.00    -0.507 OA
ATOM     25  H   UNL A   1      34.199  26.786  21.447  1.00  0.00     0.293 HD
ENDBRANCH  11  24
ENDBRANCH   3   6
ENDBRANCH   1   2
BRANCH   1  26
ATOM     26  C   UNL A   1      31.675  29.076  25.938  1.00  0.00     0.042 C 
BRANCH  26  27
ATOM     27  C   UNL A   1      32.271  29.758  27.160  1.00  0.00     0.118 C 
BRANCH  27  28
ATOM     28  N   UNL A   1      32.465  31.195  27.010  1.00  0.00    -0.352 N 
ATOM     29  C   UNL A   1      33.502  32.020  27.373  1.00  0.00     0.251 C 
ATOM     30  H   UNL A   1      31.717  31.658  26.567  1.00  0.00     0.163 HD
ATOM     31  O   UNL A   1      33.378  33.236  27.232  1.00  0.00    -0.269 OA
BRANCH  29  32
ATOM     32  C   UNL A   1      34.747  31.483  27.969  1.00  0.00     0.039 A 
ATOM     33  C   UNL A   1      35.819  32.353  28.199  1.00  0.00     0.014 A 
ATOM     34  C   UNL A   1      34.883  30.134  28.294  1.00  0.00     0.014 A 
ATOM     35  C   UNL A   1      36.976  31.886  28.830  1.00  0.00     0.010 A 
ATOM     36  C   UNL A   1      35.974  29.701  29.040  1.00  0.00     0.010 A 
ATOM     37  C   UNL A   1      37.043  30.567  29.306  1.00  0.00    -0.014 A 
BRANCH  37  38
ATOM     38  C   UNL A   1      38.226  30.068  30.059  1.00  0.00     0.031 A 
ATOM     39  C   UNL A   1      38.471  30.520  31.476  1.00  0.00     0.074 A 
ATOM     40  C   UNL A   1      39.114  29.257  29.450  1.00  0.00     0.049 A 
ATOM     41  N   UNL A   1      39.472  30.243  32.275  1.00  0.00    -0.248 NA
ATOM     42  C   UNL A   1      37.480  31.437  32.063  1.00  0.00     0.031 C 
ATOM     43  C   UNL A   1      39.030  28.798  28.062  1.00  0.00     0.029 A 
ATOM     44  N   UNL A   1      40.268  28.678  29.918  1.00  0.00    -0.354 N 
ATOM     45  C   UNL A   1      39.237  30.962  33.440  1.00  0.00     0.074 A 
ATOM     46  C   UNL A   1      38.042  31.744  33.221  1.00  0.00     0.031 C 
ATOM     47  C   UNL A   1      40.062  27.980  27.804  1.00  0.00     0.029 A 
ATOM     48  C   UNL A   1      40.907  27.890  28.990  1.00  0.00     0.049 A 
ATOM     49  H   UNL A   1      40.608  28.816  30.832  1.00  0.00     0.167 HD
ATOM     50  C   UNL A   1      39.934  30.945  34.602  1.00  0.00     0.037 A 
ATOM     51  C   UNL A   1      42.045  27.178  29.085  1.00  0.00     0.037 A 
ATOM     52  C   UNL A   1      41.104  30.140  34.828  1.00  0.00     0.049 A 
ATOM     53  C   UNL A   1      42.799  27.174  30.387  1.00  0.00     0.074 A 
ATOM     54  C   UNL A   1      41.844  30.001  35.989  1.00  0.00     0.029 A 
ATOM     55  N   UNL A   1      41.707  29.339  33.870  1.00  0.00    -0.354 N 
ATOM     56  N   UNL A   1      42.521  27.794  31.509  1.00  0.00    -0.248 NA
ATOM     57  C   UNL A   1      44.022  26.360  30.441  1.00  0.00     0.031 C 
ATOM     58  C   UNL A   1      42.929  29.160  35.717  1.00  0.00     0.029 A 
ATOM     59  C   UNL A   1      42.826  28.722  34.406  1.00  0.00     0.049 A 
ATOM     60  H   UNL A   1      41.387  29.224  32.946  1.00  0.00     0.167 HD
ATOM     61  C   UNL A   1      43.513  27.424  32.408  1.00  0.00     0.074 A 
ATOM     62  C   UNL A   1      44.388  26.508  31.706  1.00  0.00     0.031 C 
ATOM     63  C   UNL A   1      43.684  27.807  33.697  1.00  0.00     0.037 A 
BRANCH  50  64
ATOM     64  C   UNL A   1      39.442  31.821  35.721  1.00  0.00     0.064 A 
ATOM     65  C   UNL A   1      38.470  31.377  36.634  1.00  0.00     0.173 A 
ATOM     66  C   UNL A   1      39.971  33.107  35.906  1.00  0.00     0.173 A 
ATOM     67  F   UNL A   1      37.921  30.161  36.497  1.00  0.00    -0.203 F 
ATOM     68  C   UNL A   1      38.023  32.201  37.664  1.00  0.00     0.198 A 
ATOM     69  C   UNL A   1      39.548  33.913  36.960  1.00  0.00     0.198 A 
ATOM     70  F   UNL A   1      40.905  33.581  35.069  1.00  0.00    -0.203 F 
ATOM     71  F   UNL A   1      37.052  31.776  38.484  1.00  0.00    -0.200 F 
ATOM     72  C   UNL A   1      38.568  33.464  37.831  1.00  0.00     0.200 A 
ATOM     73  F   UNL A   1      40.087  35.129  37.129  1.00  0.00    -0.200 F 
ATOM     74  F   UNL A   1      38.143  34.253  38.828  1.00  0.00    -0.200 F 
ENDBRANCH  50  64
BRANCH  51  75
ATOM     75  C   UNL A   1      42.528  26.384  27.923  1.00  0.00     0.064 A 
ATOM     76  C   UNL A   1      43.432  26.931  27.000  1.00  0.00     0.173 A 
ATOM     77  C   UNL A   1      42.090  25.069  27.701  1.00  0.00     0.173 A 
ATOM     78  F   UNL A   1      43.866  28.189  27.155  1.00  0.00    -0.203 F 
ATOM     79  C   UNL A   1      43.857  26.205  25.889  1.00  0.00     0.198 A 
ATOM     80  C   UNL A   1      42.542  24.333  26.608  1.00  0.00     0.198 A 
ATOM     81  F   UNL A   1      41.230  24.495  28.557  1.00  0.00    -0.203 F 
ATOM     82  F   UNL A   1      44.679  26.773  24.995  1.00  0.00    -0.200 F 
ATOM     83  C   UNL A   1      43.416  24.904  25.697  1.00  0.00     0.200 A 
ATOM     84  F   UNL A   1      42.127  23.070  26.437  1.00  0.00    -0.200 F 
ATOM     85  F   UNL A   1      43.828  24.205  24.631  1.00  0.00    -0.200 F 
ENDBRANCH  51  75
BRANCH  63  86
ATOM     86  C   UNL A   1      44.838  27.205  34.446  1.00  0.00     0.064 A 
ATOM     87  C   UNL A   1      46.092  27.832  34.503  1.00  0.00     0.173 A 
ATOM     88  C   UNL A   1      44.677  25.998  35.144  1.00  0.00     0.173 A 
ATOM     89  F   UNL A   1      46.303  28.981  33.843  1.00  0.00    -0.203 F 
ATOM     90  C   UNL A   1      47.150  27.255  35.200  1.00  0.00     0.198 A 
ATOM     91  C   UNL A   1      45.726  25.443  35.871  1.00  0.00     0.198 A 
ATOM     92  F   UNL A   1      43.496  25.361  35.131  1.00  0.00    -0.203 F 
ATOM     93  F   UNL A   1      48.355  27.842  35.191  1.00  0.00    -0.200 F 
ATOM     94  C   UNL A   1      46.964  26.066  35.890  1.00  0.00     0.200 A 
ATOM     95  F   UNL A   1      45.539  24.304  36.550  1.00  0.00    -0.200 F 
ATOM     96  F   UNL A   1      47.982  25.515  36.565  1.00  0.00    -0.200 F 
ENDBRANCH  63  86
ENDBRANCH  37  38
ENDBRANCH  29  32
ENDBRANCH  27  28
ENDBRANCH  26  27
ENDBRANCH   1  26
TORSDOF 14
ENDMDL
MODEL 3
REMARK VINA RESULT:     -12.9      2.017      3.054
REMARK SMILES Cn1cc(/C=C/C(=O)Nc2ccc(C(=O)NCCCNC(=O)c3ccc(-c4c5nc(c(-c6c(F)c(F)c(F)c(F)c6F)c6ccc([nH]6)c(-c6c(F)c(F)c(F)c(F)c6F)c6nc(c(-c7c(F)c(F)c(F)c(F)c7F)c7ccc4[nH]7)C=C6)C=C5)cc3)c(O)c2)cn1
REMARK SMILES IDX 17 1 16 2 14 3 15 4 13 6 10 7 11 8 88 9 12 10 86 11 9 12
REMARK SMILES IDX 7 13 8 14 6 16 5 17 4 18 1 19 2 20 3 21 90 22 89 23 87 24
REMARK SMILES IDX 18 26 19 27 20 28 21 29 22 31 23 32 24 33 85 34 25 35 84 36
REMARK SMILES IDX 26 37 27 38 28 39 78 40 29 41 83 42 77 43 79 44 30 45 82 46
REMARK SMILES IDX 76 47 75 48 31 50 63 51 43 52 62 53 44 54 47 55 61 56 80 57
REMARK SMILES IDX 45 58 46 59 60 61 81 62 48 63 32 64 33 65 41 66 34 67 35 68
REMARK SMILES IDX 39 69 42 70 36 71 37 72 40 73 38 74 64 75 65 76 73 77 66 78
REMARK SMILES IDX 67 79 71 80 74 81 68 82 69 83 72 84 70 85 49 86 50 87 58 88
REMARK SMILES IDX 51 89 52 90 56 91 59 92 53 93 54 94 57 95 55 96
REMARK H PARENT 16 5 9 15 87 25 20 30 79 49 47 60
REMARK Flexibility Score: inf
ROOT
ATOM      1  C   UNL A   1      31.479  30.357  26.118  1.00  0.00     0.118 C 
ENDROOT
BRANCH   1   2
ATOM      2  N   UNL A   1      32.246  30.084  24.912  1.00  0.00    -0.352 N 
ATOM      3  C   UNL A   1      32.391  28.937  24.167  1.00  0.00     0.255 C 
ATOM      4  O   UNL A   1      33.104  28.994  23.166  1.00  0.00    -0.269 OA
ATOM      5  H   UNL A   1      32.750  30.857  24.569  1.00  0.00     0.163 HD
BRANCH   3   6
ATOM      6  C   UNL A   1      31.811  27.628  24.572  1.00  0.00     0.081 A 
ATOM      7  C   UNL A   1      30.640  25.438  25.888  1.00  0.00     0.045 A 
ATOM      8  C   UNL A   1      31.944  25.820  26.191  1.00  0.00     0.027 A 
ATOM      9  C   UNL A   1      30.027  25.995  24.764  1.00  0.00     0.073 A 
ATOM     10  C   UNL A   1      32.509  26.935  25.570  1.00  0.00     0.020 A 
ATOM     11  C   UNL A   1      30.637  27.053  24.084  1.00  0.00     0.130 A 
BRANCH   7  12
ATOM     12  N   UNL A   1      29.893  24.537  26.664  1.00  0.00    -0.322 N 
ATOM     13  C   UNL A   1      30.075  23.208  26.944  1.00  0.00     0.248 C 
ATOM     14  O   UNL A   1      29.189  22.581  27.524  1.00  0.00    -0.270 OA
ATOM     15  H   UNL A   1      29.093  24.931  27.083  1.00  0.00     0.170 HD
BRANCH  13  16
ATOM     16  C   UNL A   1      31.328  22.496  26.591  1.00  0.00     0.072 C 
ATOM     17  C   UNL A   1      31.508  21.833  25.436  1.00  0.00     0.017 C 
BRANCH  17  18
ATOM     18  C   UNL A   1      32.644  21.034  25.137  1.00  0.00     0.013 A 
ATOM     19  C   UNL A   1      34.368  17.987  24.304  1.00  0.00     0.173 C 
ATOM     20  N   UNL A   1      33.895  19.309  24.636  1.00  0.00    -0.275 N 
ATOM     21  C   UNL A   1      32.595  19.711  24.756  1.00  0.00     0.116 A 
ATOM     22  N   UNL A   1      34.782  20.289  24.884  1.00  0.00    -0.181 NA
ATOM     23  C   UNL A   1      34.017  21.340  25.196  1.00  0.00     0.143 A 
ENDBRANCH  17  18
ENDBRANCH  13  16
ENDBRANCH   7  12
BRANCH  11  24
ATOM     24  O   UNL A   1      30.018  27.446  22.931  1.00  0.00    -0.507 OA
ATOM     25  H   UNL A   1      30.071  28.338  22.651  1.00  0.00     0.293 HD
ENDBRANCH  11  24
ENDBRANCH   3   6
ENDBRANCH   1   2
BRANCH   1  26
ATOM     26  C   UNL A   1      31.378  31.824  26.498  1.00  0.00     0.042 C 
BRANCH  26  27
ATOM     27  C   UNL A   1      32.648  32.456  27.048  1.00  0.00     0.118 C 
BRANCH  27  28
ATOM     28  N   UNL A   1      32.479  33.820  27.531  1.00  0.00    -0.352 N 
ATOM     29  C   UNL A   1      33.138  34.534  28.503  1.00  0.00     0.251 C 
ATOM     30  H   UNL A   1      31.761  34.321  27.079  1.00  0.00     0.163 HD
ATOM     31  O   UNL A   1      32.728  35.655  28.804  1.00  0.00    -0.269 OA
BRANCH  29  32
ATOM     32  C   UNL A   1      34.302  33.971  29.224  1.00  0.00     0.039 A 
ATOM     33  C   UNL A   1      34.085  33.003  30.211  1.00  0.00     0.014 A 
ATOM     34  C   UNL A   1      35.604  34.388  28.953  1.00  0.00     0.014 A 
ATOM     35  C   UNL A   1      35.171  32.401  30.852  1.00  0.00     0.010 A 
ATOM     36  C   UNL A   1      36.686  33.696  29.490  1.00  0.00     0.010 A 
ATOM     37  C   UNL A   1      36.485  32.703  30.459  1.00  0.00    -0.014 A 
BRANCH  37  38
ATOM     38  C   UNL A   1      37.658  32.013  31.061  1.00  0.00     0.031 A 
ATOM     39  C   UNL A   1      38.126  32.378  32.446  1.00  0.00     0.074 A 
ATOM     40  C   UNL A   1      38.342  31.102  30.339  1.00  0.00     0.049 A 
ATOM     41  N   UNL A   1      39.159  31.932  33.118  1.00  0.00    -0.248 NA
ATOM     42  C   UNL A   1      37.354  33.409  33.159  1.00  0.00     0.031 C 
ATOM     43  C   UNL A   1      38.035  30.706  28.964  1.00  0.00     0.029 A 
ATOM     44  N   UNL A   1      39.443  30.347  30.660  1.00  0.00    -0.354 N 
ATOM     45  C   UNL A   1      39.166  32.639  34.314  1.00  0.00     0.074 A 
ATOM     46  C   UNL A   1      38.083  33.594  34.248  1.00  0.00     0.031 C 
ATOM     47  C   UNL A   1      38.898  29.755  28.574  1.00  0.00     0.029 A 
ATOM     48  C   UNL A   1      39.849  29.505  29.652  1.00  0.00     0.049 A 
ATOM     49  H   UNL A   1      39.900  30.403  31.531  1.00  0.00     0.167 HD
ATOM     50  C   UNL A   1      39.979  32.484  35.386  1.00  0.00     0.037 A 
ATOM     51  C   UNL A   1      40.873  28.632  29.602  1.00  0.00     0.037 A 
ATOM     52  C   UNL A   1      41.035  31.511  35.462  1.00  0.00     0.049 A 
ATOM     53  C   UNL A   1      41.760  28.476  30.808  1.00  0.00     0.074 A 
ATOM     54  C   UNL A   1      41.873  31.227  36.526  1.00  0.00     0.029 A 
ATOM     55  N   UNL A   1      41.401  30.662  34.428  1.00  0.00    -0.354 N 
ATOM     56  N   UNL A   1      41.705  29.093  31.964  1.00  0.00    -0.248 NA
ATOM     57  C   UNL A   1      42.847  27.492  30.706  1.00  0.00     0.031 C 
ATOM     58  C   UNL A   1      42.783  30.247  36.117  1.00  0.00     0.029 A 
ATOM     59  C   UNL A   1      42.470  29.872  34.820  1.00  0.00     0.049 A 
ATOM     60  H   UNL A   1      40.965  30.625  33.546  1.00  0.00     0.167 HD
ATOM     61  C   UNL A   1      42.726  28.553  32.735  1.00  0.00     0.074 A 
ATOM     62  C   UNL A   1      43.371  27.543  31.922  1.00  0.00     0.031 C 
ATOM     63  C   UNL A   1      43.097  28.865  34.002  1.00  0.00     0.037 A 
BRANCH  50  64
ATOM     64  C   UNL A   1      39.752  33.384  36.569  1.00  0.00     0.064 A 
ATOM     65  C   UNL A   1      40.427  34.609  36.706  1.00  0.00     0.173 A 
ATOM     66  C   UNL A   1      38.824  33.036  37.563  1.00  0.00     0.173 A 
ATOM     67  F   UNL A   1      41.333  34.986  35.793  1.00  0.00    -0.203 F 
ATOM     68  C   UNL A   1      40.208  35.430  37.809  1.00  0.00     0.198 A 
ATOM     69  C   UNL A   1      38.582  33.878  38.645  1.00  0.00     0.198 A 
ATOM     70  F   UNL A   1      38.147  31.881  37.482  1.00  0.00    -0.203 F 
ATOM     71  F   UNL A   1      40.908  36.564  37.947  1.00  0.00    -0.200 F 
ATOM     72  C   UNL A   1      39.279  35.069  38.773  1.00  0.00     0.200 A 
ATOM     73  F   UNL A   1      37.672  33.533  39.568  1.00  0.00    -0.200 F 
ATOM     74  F   UNL A   1      39.063  35.864  39.830  1.00  0.00    -0.200 F 
ENDBRANCH  50  64
BRANCH  51  75
ATOM     75  C   UNL A   1      41.098  27.814  28.380  1.00  0.00     0.064 A 
ATOM     76  C   UNL A   1      40.448  26.584  28.204  1.00  0.00     0.173 A 
ATOM     77  C   UNL A   1      41.973  28.237  27.368  1.00  0.00     0.173 A 
ATOM     78  F   UNL A   1      39.617  26.125  29.150  1.00  0.00    -0.203 F 
ATOM     79  C   UNL A   1      40.686  25.796  27.079  1.00  0.00     0.198 A 
ATOM     80  C   UNL A   1      42.184  27.465  26.227  1.00  0.00     0.198 A 
ATOM     81  F   UNL A   1      42.615  29.409  27.482  1.00  0.00    -0.203 F 
ATOM     82  F   UNL A   1      40.092  24.601  26.964  1.00  0.00    -0.200 F 
ATOM     83  C   UNL A   1      41.548  26.241  26.088  1.00  0.00     0.200 A 
ATOM     84  F   UNL A   1      43.005  27.906  25.264  1.00  0.00    -0.200 F 
ATOM     85  F   UNL A   1      41.773  25.486  25.005  1.00  0.00    -0.200 F 
ENDBRANCH  51  75
BRANCH  63  86
ATOM     86  C   UNL A   1      44.226  28.078  34.602  1.00  0.00     0.064 A 
ATOM     87  C   UNL A   1      45.557  28.517  34.527  1.00  0.00     0.173 A 
ATOM     88  C   UNL A   1      43.968  26.882  35.290  1.00  0.00     0.173 A 
ATOM     89  F   UNL A   1      45.859  29.646  33.869  1.00  0.00    -0.203 F 
ATOM     90  C   UNL A   1      46.589  27.769  35.087  1.00  0.00     0.198 A 
ATOM     91  C   UNL A   1      44.999  26.157  35.881  1.00  0.00     0.198 A 
ATOM     92  F   UNL A   1      42.713  26.422  35.400  1.00  0.00    -0.203 F 
ATOM     93  F   UNL A   1      47.859  28.178  34.950  1.00  0.00    -0.200 F 
ATOM     94  C   UNL A   1      46.309  26.595  35.770  1.00  0.00     0.200 A 
ATOM     95  F   UNL A   1      44.723  25.033  36.555  1.00  0.00    -0.200 F 
ATOM     96  F   UNL A   1      47.304  25.881  36.313  1.00  0.00    -0.200 F 
ENDBRANCH  63  86
ENDBRANCH  37  38
ENDBRANCH  29  32
ENDBRANCH  27  28
ENDBRANCH  26  27
ENDBRANCH   1  26
TORSDOF 14
ENDMDL
