MODEL 1
REMARK VINA RESULT:      -9.7      0.000      0.000
REMARK SMILES O=C(CCOc1cccc(/C=C2/SC(=S)N(c3ccc(Cl)c(Cl)c3)C2=O)c1)NCCCNC(=O)c1ccc(-c2c3nc(c(-c4c(F)c(F)c(F)c(F)c4F)c4ccc([nH]4)c(-c4c(F)c(F)c(F)c(F)c4F)c4nc(c(-c5c(F)c(F)c(F)c(F)c5F)c5ccc2[nH]5)C=C4)C=C3)cc1
REMARK SMILES IDX 1 1 2 2 28 3 3 5 4 6 5 7 6 8 7 9 27 10 8 11 10 12 9 13 11 14
REMARK SMILES IDX 12 15 13 16 25 17 14 18 16 19 26 20 15 21 17 22 18 23 24 24
REMARK SMILES IDX 19 25 22 26 20 27 23 28 21 29 29 30 30 31 31 32 32 33 33 34
REMARK SMILES IDX 34 36 35 37 36 38 97 39 37 40 96 41 38 42 39 43 40 44 90 45
REMARK SMILES IDX 41 46 95 47 89 48 91 49 42 50 94 51 88 52 87 53 43 55 75 56
REMARK SMILES IDX 55 57 74 58 56 59 59 60 73 61 92 62 57 63 58 64 72 66 93 67
REMARK SMILES IDX 60 68 44 69 45 70 53 71 46 72 47 73 51 74 54 75 48 76 49 77
REMARK SMILES IDX 52 78 50 79 76 80 77 81 85 82 78 83 79 84 83 85 86 86 80 87
REMARK SMILES IDX 81 88 84 89 82 90 61 91 62 92 70 93 63 94 64 95 68 96 71 97
REMARK SMILES IDX 65 98 66 99 69 100 67 101
REMARK H PARENT 28 4 32 35 91 54 59 65
REMARK Flexibility Score: inf
ROOT
ATOM      1  O   UNL A   1      35.904  33.375  35.131  1.00  0.00    -0.275 OA
ATOM      2  C   UNL A   1      36.824  33.274  34.321  1.00  0.00     0.223 C 
ATOM      3  N   UNL A   1      36.592  33.347  32.944  1.00  0.00    -0.356 N 
ATOM      4  H   UNL A   1      37.355  33.393  32.322  1.00  0.00     0.163 HD
ENDROOT
BRANCH   2   5
ATOM      5  C   UNL A   1      38.283  33.126  34.790  1.00  0.00     0.141 C 
BRANCH   5   6
ATOM      6  C   UNL A   1      38.727  31.635  34.907  1.00  0.00     0.239 C 
BRANCH   6   7
ATOM      7  O   UNL A   1      40.126  31.339  34.650  1.00  0.00    -0.493 OA
BRANCH   7   8
ATOM      8  C   UNL A   1      40.281  30.003  34.384  1.00  0.00     0.119 A 
ATOM      9  C   UNL A   1      39.546  29.384  33.378  1.00  0.00     0.046 A 
ATOM     10  C   UNL A   1      41.394  29.411  34.971  1.00  0.00     0.054 A 
ATOM     11  C   UNL A   1      40.036  28.206  32.838  1.00  0.00     0.004 A 
ATOM     12  C   UNL A   1      41.978  28.332  34.328  1.00  0.00    -0.021 A 
ATOM     13  C   UNL A   1      41.265  27.713  33.285  1.00  0.00     0.008 A 
BRANCH  12  14
ATOM     14  C   UNL A   1      43.447  28.223  34.333  1.00  0.00     0.029 C 
ATOM     15  C   UNL A   1      44.340  27.408  34.892  1.00  0.00     0.081 C 
ATOM     16  S   UNL A   1      46.038  27.739  34.937  1.00  0.00    -0.054 SA
ATOM     17  C   UNL A   1      44.047  26.132  35.549  1.00  0.00     0.270 C 
ATOM     18  C   UNL A   1      46.415  26.207  35.731  1.00  0.00     0.152 C 
ATOM     19  N   UNL A   1      45.242  25.503  35.892  1.00  0.00    -0.261 N 
ATOM     20  O   UNL A   1      42.922  25.721  35.749  1.00  0.00    -0.268 OA
ATOM     21  S   UNL A   1      47.975  25.757  36.099  1.00  0.00    -0.051 S 
BRANCH  19  22
ATOM     22  C   UNL A   1      45.108  24.193  36.390  1.00  0.00     0.052 A 
ATOM     23  C   UNL A   1      45.285  24.027  37.772  1.00  0.00     0.028 A 
ATOM     24  C   UNL A   1      45.227  23.106  35.523  1.00  0.00     0.048 A 
ATOM     25  C   UNL A   1      45.710  22.808  38.279  1.00  0.00     0.024 A 
ATOM     26  C   UNL A   1      45.657  21.879  36.040  1.00  0.00     0.061 A 
ATOM     27  C   UNL A   1      45.932  21.741  37.409  1.00  0.00     0.059 A 
ATOM     28  Cl  UNL A   1      45.940  20.600  34.911  1.00  0.00    -0.083 Cl
ATOM     29  Cl  UNL A   1      46.619  20.307  38.080  1.00  0.00    -0.083 Cl
ENDBRANCH  19  22
ENDBRANCH  12  14
ENDBRANCH   7   8
ENDBRANCH   6   7
ENDBRANCH   5   6
ENDBRANCH   2   5
BRANCH   3  30
ATOM     30  C   UNL A   1      35.216  33.354  32.419  1.00  0.00     0.117 C 
BRANCH  30  31
ATOM     31  C   UNL A   1      34.778  32.406  31.253  1.00  0.00     0.042 C 
BRANCH  31  32
ATOM     32  C   UNL A   1      34.804  32.709  29.717  1.00  0.00     0.118 C 
BRANCH  32  33
ATOM     33  N   UNL A   1      34.179  31.766  28.810  1.00  0.00    -0.352 N 
ATOM     34  C   UNL A   1      34.697  30.592  28.287  1.00  0.00     0.251 C 
ATOM     35  H   UNL A   1      33.262  31.989  28.529  1.00  0.00     0.163 HD
ATOM     36  O   UNL A   1      34.014  29.916  27.520  1.00  0.00    -0.269 OA
BRANCH  34  37
ATOM     37  C   UNL A   1      36.083  30.130  28.578  1.00  0.00     0.039 A 
ATOM     38  C   UNL A   1      37.040  30.248  27.563  1.00  0.00     0.014 A 
ATOM     39  C   UNL A   1      36.425  29.455  29.754  1.00  0.00     0.014 A 
ATOM     40  C   UNL A   1      38.347  29.776  27.754  1.00  0.00     0.010 A 
ATOM     41  C   UNL A   1      37.746  29.001  29.955  1.00  0.00     0.010 A 
ATOM     42  C   UNL A   1      38.732  29.181  28.969  1.00  0.00    -0.014 A 
BRANCH  42  43
ATOM     43  C   UNL A   1      40.176  28.868  29.219  1.00  0.00     0.031 A 
ATOM     44  C   UNL A   1      41.090  29.803  29.968  1.00  0.00     0.074 A 
ATOM     45  C   UNL A   1      40.673  27.702  28.753  1.00  0.00     0.049 A 
ATOM     46  N   UNL A   1      42.351  29.641  30.297  1.00  0.00    -0.248 NA
ATOM     47  C   UNL A   1      40.523  31.089  30.392  1.00  0.00     0.031 C 
ATOM     48  C   UNL A   1      39.908  26.719  27.984  1.00  0.00     0.029 A 
ATOM     49  N   UNL A   1      41.924  27.141  28.855  1.00  0.00    -0.354 N 
ATOM     50  C   UNL A   1      42.729  30.800  30.969  1.00  0.00     0.074 A 
ATOM     51  C   UNL A   1      41.571  31.673  30.963  1.00  0.00     0.031 C 
ATOM     52  C   UNL A   1      40.695  25.668  27.706  1.00  0.00     0.029 A 
ATOM     53  C   UNL A   1      42.029  25.911  28.248  1.00  0.00     0.049 A 
ATOM     54  H   UNL A   1      42.674  27.578  29.318  1.00  0.00     0.167 HD
ATOM     55  C   UNL A   1      43.920  31.101  31.547  1.00  0.00     0.037 A 
ATOM     56  C   UNL A   1      43.075  25.069  28.136  1.00  0.00     0.037 A 
ATOM     57  C   UNL A   1      45.073  30.230  31.555  1.00  0.00     0.049 A 
ATOM     58  C   UNL A   1      44.387  25.430  28.776  1.00  0.00     0.074 A 
ATOM     59  C   UNL A   1      46.307  30.431  32.154  1.00  0.00     0.029 A 
ATOM     60  N   UNL A   1      45.138  28.995  30.926  1.00  0.00    -0.354 N 
ATOM     61  N   UNL A   1      44.701  26.497  29.469  1.00  0.00    -0.248 NA
ATOM     62  C   UNL A   1      45.488  24.467  28.628  1.00  0.00     0.031 C 
ATOM     63  C   UNL A   1      47.133  29.345  31.843  1.00  0.00     0.029 A 
ATOM     64  C   UNL A   1      46.397  28.438  31.099  1.00  0.00     0.049 A 
ATOM     65  H   UNL A   1      44.399  28.575  30.429  1.00  0.00     0.167 HD
ATOM     66  C   UNL A   1      46.022  26.323  29.861  1.00  0.00     0.074 A 
ATOM     67  C   UNL A   1      46.445  25.040  29.345  1.00  0.00     0.031 C 
ATOM     68  C   UNL A   1      46.811  27.155  30.584  1.00  0.00     0.037 A 
BRANCH  55  69
ATOM     69  C   UNL A   1      44.053  32.439  32.225  1.00  0.00     0.064 A 
ATOM     70  C   UNL A   1      43.850  32.589  33.606  1.00  0.00     0.173 A 
ATOM     71  C   UNL A   1      44.445  33.575  31.498  1.00  0.00     0.173 A 
ATOM     72  F   UNL A   1      43.479  31.537  34.351  1.00  0.00    -0.203 F 
ATOM     73  C   UNL A   1      43.998  33.829  34.226  1.00  0.00     0.198 A 
ATOM     74  C   UNL A   1      44.620  34.807  32.126  1.00  0.00     0.198 A 
ATOM     75  F   UNL A   1      44.671  33.490  30.179  1.00  0.00    -0.203 F 
ATOM     76  F   UNL A   1      43.751  33.955  35.537  1.00  0.00    -0.200 F 
ATOM     77  C   UNL A   1      44.388  34.935  33.486  1.00  0.00     0.200 A 
ATOM     78  F   UNL A   1      45.016  35.871  31.413  1.00  0.00    -0.200 F 
ATOM     79  F   UNL A   1      44.534  36.126  34.084  1.00  0.00    -0.200 F 
ENDBRANCH  55  69
BRANCH  56  80
ATOM     80  C   UNL A   1      42.914  23.781  27.404  1.00  0.00     0.064 A 
ATOM     81  C   UNL A   1      42.406  22.642  28.044  1.00  0.00     0.173 A 
ATOM     82  C   UNL A   1      43.263  23.665  26.050  1.00  0.00     0.173 A 
ATOM     83  F   UNL A   1      42.078  22.694  29.344  1.00  0.00    -0.203 F 
ATOM     84  C   UNL A   1      42.267  21.434  27.364  1.00  0.00     0.198 A 
ATOM     85  C   UNL A   1      43.094  22.465  25.363  1.00  0.00     0.198 A 
ATOM     86  F   UNL A   1      43.750  24.726  25.389  1.00  0.00    -0.203 F 
ATOM     87  F   UNL A   1      41.819  20.349  28.012  1.00  0.00    -0.200 F 
ATOM     88  C   UNL A   1      42.605  21.349  26.021  1.00  0.00     0.200 A 
ATOM     89  F   UNL A   1      43.404  22.392  24.061  1.00  0.00    -0.200 F 
ATOM     90  F   UNL A   1      42.460  20.189  25.364  1.00  0.00    -0.200 F 
ENDBRANCH  56  80
BRANCH  68  91
ATOM     91  C   UNL A   1      48.208  26.691  30.886  1.00  0.00     0.064 A 
ATOM     92  C   UNL A   1      48.479  25.808  31.944  1.00  0.00     0.173 A 
ATOM     93  C   UNL A   1      49.285  27.110  30.090  1.00  0.00     0.173 A 
ATOM     94  F   UNL A   1      47.488  25.391  32.746  1.00  0.00    -0.203 F 
ATOM     95  C   UNL A   1      49.779  25.384  32.207  1.00  0.00     0.198 A 
ATOM     96  C   UNL A   1      50.579  26.661  30.337  1.00  0.00     0.198 A 
ATOM     97  F   UNL A   1      49.080  27.951  29.065  1.00  0.00    -0.203 F 
ATOM     98  F   UNL A   1      50.022  24.582  33.252  1.00  0.00    -0.200 F 
ATOM     99  C   UNL A   1      50.827  25.805  31.400  1.00  0.00     0.200 A 
ATOM    100  F   UNL A   1      51.587  27.058  29.549  1.00  0.00    -0.200 F 
ATOM    101  F   UNL A   1      52.076  25.390  31.652  1.00  0.00    -0.200 F 
ENDBRANCH  68  91
ENDBRANCH  42  43
ENDBRANCH  34  37
ENDBRANCH  32  33
ENDBRANCH  31  32
ENDBRANCH  30  31
ENDBRANCH   3  30
TORSDOF 15
ENDMDL
MODEL 2
REMARK VINA RESULT:      -9.5      0.747      7.126
REMARK SMILES O=C(CCOc1cccc(/C=C2/SC(=S)N(c3ccc(Cl)c(Cl)c3)C2=O)c1)NCCCNC(=O)c1ccc(-c2c3nc(c(-c4c(F)c(F)c(F)c(F)c4F)c4ccc([nH]4)c(-c4c(F)c(F)c(F)c(F)c4F)c4nc(c(-c5c(F)c(F)c(F)c(F)c5F)c5ccc2[nH]5)C=C4)C=C3)cc1
REMARK SMILES IDX 1 1 2 2 28 3 3 5 4 6 5 7 6 8 7 9 27 10 8 11 10 12 9 13 11 14
REMARK SMILES IDX 12 15 13 16 25 17 14 18 16 19 26 20 15 21 17 22 18 23 24 24
REMARK SMILES IDX 19 25 22 26 20 27 23 28 21 29 29 30 30 31 31 32 32 33 33 34
REMARK SMILES IDX 34 36 35 37 36 38 97 39 37 40 96 41 38 42 39 43 40 44 90 45
REMARK SMILES IDX 41 46 95 47 89 48 91 49 42 50 94 51 88 52 87 53 43 55 75 56
REMARK SMILES IDX 55 57 74 58 56 59 59 60 73 61 92 62 57 63 58 64 72 66 93 67
REMARK SMILES IDX 60 68 44 69 45 70 53 71 46 72 47 73 51 74 54 75 48 76 49 77
REMARK SMILES IDX 52 78 50 79 76 80 77 81 85 82 78 83 79 84 83 85 86 86 80 87
REMARK SMILES IDX 81 88 84 89 82 90 61 91 62 92 70 93 63 94 64 95 68 96 71 97
REMARK SMILES IDX 65 98 66 99 69 100 67 101
REMARK H PARENT 28 4 32 35 91 54 59 65
REMARK Flexibility Score: inf
ROOT
ATOM      1  O   UNL A   1      35.311  34.250  34.642  1.00  0.00    -0.275 OA
ATOM      2  C   UNL A   1      36.242  33.569  34.217  1.00  0.00     0.223 C 
ATOM      3  N   UNL A   1      36.304  33.178  32.875  1.00  0.00    -0.356 N 
ATOM      4  H   UNL A   1      37.119  32.746  32.529  1.00  0.00     0.163 HD
ENDROOT
BRANCH   2   5
ATOM      5  C   UNL A   1      37.417  33.169  35.129  1.00  0.00     0.141 C 
BRANCH   5   6
ATOM      6  C   UNL A   1      37.880  31.698  34.899  1.00  0.00     0.239 C 
BRANCH   6   7
ATOM      7  O   UNL A   1      38.934  31.480  33.922  1.00  0.00    -0.493 OA
BRANCH   7   8
ATOM      8  C   UNL A   1      39.198  30.140  33.808  1.00  0.00     0.119 A 
ATOM      9  C   UNL A   1      38.484  29.343  32.919  1.00  0.00     0.046 A 
ATOM     10  C   UNL A   1      40.383  29.720  34.405  1.00  0.00     0.054 A 
ATOM     11  C   UNL A   1      39.057  28.155  32.497  1.00  0.00     0.004 A 
ATOM     12  C   UNL A   1      41.036  28.625  33.865  1.00  0.00    -0.021 A 
ATOM     13  C   UNL A   1      40.342  27.826  32.938  1.00  0.00     0.008 A 
BRANCH  12  14
ATOM     14  C   UNL A   1      42.508  28.642  33.811  1.00  0.00     0.029 C 
ATOM     15  C   UNL A   1      43.489  27.910  34.336  1.00  0.00     0.081 C 
ATOM     16  S   UNL A   1      45.152  28.385  34.311  1.00  0.00    -0.054 SA
ATOM     17  C   UNL A   1      43.333  26.617  35.006  1.00  0.00     0.270 C 
ATOM     18  C   UNL A   1      45.692  26.896  35.092  1.00  0.00     0.152 C 
ATOM     19  N   UNL A   1      44.591  26.095  35.302  1.00  0.00    -0.261 N 
ATOM     20  O   UNL A   1      42.257  26.112  35.252  1.00  0.00    -0.268 OA
ATOM     21  S   UNL A   1      47.298  26.584  35.398  1.00  0.00    -0.051 S 
BRANCH  19  22
ATOM     22  C   UNL A   1      44.590  24.781  35.807  1.00  0.00     0.052 A 
ATOM     23  C   UNL A   1      44.754  24.644  37.194  1.00  0.00     0.028 A 
ATOM     24  C   UNL A   1      44.846  23.708  34.952  1.00  0.00     0.048 A 
ATOM     25  C   UNL A   1      45.299  23.481  37.720  1.00  0.00     0.024 A 
ATOM     26  C   UNL A   1      45.397  22.539  35.487  1.00  0.00     0.061 A 
ATOM     27  C   UNL A   1      45.654  22.440  36.863  1.00  0.00     0.059 A 
ATOM     28  Cl  UNL A   1      45.841  21.293  34.376  1.00  0.00    -0.083 Cl
ATOM     29  Cl  UNL A   1      46.480  21.093  37.560  1.00  0.00    -0.083 Cl
ENDBRANCH  19  22
ENDBRANCH  12  14
ENDBRANCH   7   8
ENDBRANCH   6   7
ENDBRANCH   5   6
ENDBRANCH   2   5
BRANCH   3  30
ATOM     30  C   UNL A   1      35.158  33.408  31.979  1.00  0.00     0.117 C 
BRANCH  30  31
ATOM     31  C   UNL A   1      34.777  32.387  30.856  1.00  0.00     0.042 C 
BRANCH  31  32
ATOM     32  C   UNL A   1      34.724  32.644  29.312  1.00  0.00     0.118 C 
BRANCH  32  33
ATOM     33  N   UNL A   1      34.101  31.650  28.461  1.00  0.00    -0.352 N 
ATOM     34  C   UNL A   1      34.623  30.451  28.001  1.00  0.00     0.251 C 
ATOM     35  H   UNL A   1      33.182  31.853  28.171  1.00  0.00     0.163 HD
ATOM     36  O   UNL A   1      33.940  29.731  27.275  1.00  0.00    -0.269 OA
BRANCH  34  37
ATOM     37  C   UNL A   1      36.012  30.013  28.311  1.00  0.00     0.039 A 
ATOM     38  C   UNL A   1      36.982  30.153  27.312  1.00  0.00     0.014 A 
ATOM     39  C   UNL A   1      36.347  29.338  29.490  1.00  0.00     0.014 A 
ATOM     40  C   UNL A   1      38.295  29.703  27.521  1.00  0.00     0.010 A 
ATOM     41  C   UNL A   1      37.674  28.907  29.710  1.00  0.00     0.010 A 
ATOM     42  C   UNL A   1      38.671  29.109  28.739  1.00  0.00    -0.014 A 
BRANCH  42  43
ATOM     43  C   UNL A   1      40.116  28.821  29.010  1.00  0.00     0.031 A 
ATOM     44  C   UNL A   1      40.794  27.559  28.543  1.00  0.00     0.074 A 
ATOM     45  C   UNL A   1      40.836  29.731  29.702  1.00  0.00     0.049 A 
ATOM     46  N   UNL A   1      42.050  27.198  28.667  1.00  0.00    -0.248 NA
ATOM     47  C   UNL A   1      39.955  26.568  27.858  1.00  0.00     0.031 C 
ATOM     48  C   UNL A   1      40.299  30.981  30.242  1.00  0.00     0.029 A 
ATOM     49  N   UNL A   1      42.162  29.756  30.066  1.00  0.00    -0.354 N 
ATOM     50  C   UNL A   1      42.155  25.943  28.075  1.00  0.00     0.074 A 
ATOM     51  C   UNL A   1      40.822  25.589  27.628  1.00  0.00     0.031 C 
ATOM     52  C   UNL A   1      41.286  31.661  30.845  1.00  0.00     0.029 A 
ATOM     53  C   UNL A   1      42.521  30.886  30.764  1.00  0.00     0.049 A 
ATOM     54  H   UNL A   1      42.794  29.034  29.849  1.00  0.00     0.167 HD
ATOM     55  C   UNL A   1      43.257  25.168  27.908  1.00  0.00     0.037 A 
ATOM     56  C   UNL A   1      43.706  31.263  31.282  1.00  0.00     0.037 A 
ATOM     57  C   UNL A   1      44.586  25.522  28.351  1.00  0.00     0.049 A 
ATOM     58  C   UNL A   1      44.911  30.381  31.092  1.00  0.00     0.074 A 
ATOM     59  C   UNL A   1      45.770  24.820  28.186  1.00  0.00     0.029 A 
ATOM     60  N   UNL A   1      44.906  26.673  29.057  1.00  0.00    -0.354 N 
ATOM     61  N   UNL A   1      45.002  29.233  30.466  1.00  0.00    -0.248 NA
ATOM     62  C   UNL A   1      46.177  30.851  31.671  1.00  0.00     0.031 C 
ATOM     63  C   UNL A   1      46.794  25.520  28.836  1.00  0.00     0.029 A 
ATOM     64  C   UNL A   1      46.260  26.687  29.357  1.00  0.00     0.049 A 
ATOM     65  H   UNL A   1      44.265  27.377  29.308  1.00  0.00     0.167 HD
ATOM     66  C   UNL A   1      46.336  28.857  30.553  1.00  0.00     0.074 A 
ATOM     67  C   UNL A   1      47.020  29.907  31.276  1.00  0.00     0.031 C 
ATOM     68  C   UNL A   1      46.937  27.740  30.075  1.00  0.00     0.037 A 
BRANCH  55  69
ATOM     69  C   UNL A   1      43.084  23.842  27.215  1.00  0.00     0.064 A 
ATOM     70  C   UNL A   1      43.438  23.661  25.869  1.00  0.00     0.173 A 
ATOM     71  C   UNL A   1      42.613  22.721  27.920  1.00  0.00     0.173 A 
ATOM     72  F   UNL A   1      43.897  24.696  25.148  1.00  0.00    -0.203 F 
ATOM     73  C   UNL A   1      43.293  22.423  25.245  1.00  0.00     0.198 A 
ATOM     74  C   UNL A   1      42.498  21.478  27.301  1.00  0.00     0.198 A 
ATOM     75  F   UNL A   1      42.277  22.827  29.213  1.00  0.00    -0.203 F 
ATOM     76  F   UNL A   1      43.593  22.290  23.946  1.00  0.00    -0.200 F 
ATOM     77  C   UNL A   1      42.829  21.332  25.963  1.00  0.00     0.200 A 
ATOM     78  F   UNL A   1      42.067  20.419  28.001  1.00  0.00    -0.200 F 
ATOM     79  F   UNL A   1      42.695  20.140  25.363  1.00  0.00    -0.200 F 
ENDBRANCH  55  69
BRANCH  56  80
ATOM     80  C   UNL A   1      43.818  32.557  32.012  1.00  0.00     0.064 A 
ATOM     81  C   UNL A   1      44.051  33.758  31.327  1.00  0.00     0.173 A 
ATOM     82  C   UNL A   1      43.692  32.618  33.408  1.00  0.00     0.173 A 
ATOM     83  F   UNL A   1      44.201  33.751  29.995  1.00  0.00    -0.203 F 
ATOM     84  C   UNL A   1      44.168  34.966  32.011  1.00  0.00     0.198 A 
ATOM     85  C   UNL A   1      43.778  33.832  34.087  1.00  0.00     0.198 A 
ATOM     86  F   UNL A   1      43.465  31.499  34.111  1.00  0.00    -0.203 F 
ATOM     87  F   UNL A   1      44.433  36.094  31.335  1.00  0.00    -0.200 F 
ATOM     88  C   UNL A   1      44.024  35.003  33.390  1.00  0.00     0.200 A 
ATOM     89  F   UNL A   1      43.620  33.865  35.417  1.00  0.00    -0.200 F 
ATOM     90  F   UNL A   1      44.125  36.168  34.046  1.00  0.00    -0.200 F 
ENDBRANCH  56  80
BRANCH  68  91
ATOM     91  C   UNL A   1      48.418  27.607  30.293  1.00  0.00     0.064 A 
ATOM     92  C   UNL A   1      48.942  26.865  31.364  1.00  0.00     0.173 A 
ATOM     93  C   UNL A   1      49.324  28.204  29.403  1.00  0.00     0.173 A 
ATOM     94  F   UNL A   1      48.120  26.289  32.253  1.00  0.00    -0.203 F 
ATOM     95  C   UNL A   1      50.318  26.749  31.548  1.00  0.00     0.198 A 
ATOM     96  C   UNL A   1      50.698  28.060  29.573  1.00  0.00     0.198 A 
ATOM     97  F   UNL A   1      48.875  28.920  28.362  1.00  0.00    -0.203 F 
ATOM     98  F   UNL A   1      50.797  26.079  32.605  1.00  0.00    -0.200 F 
ATOM     99  C   UNL A   1      51.195  27.340  30.649  1.00  0.00     0.200 A 
ATOM    100  F   UNL A   1      51.543  28.621  28.697  1.00  0.00    -0.200 F 
ATOM    101  F   UNL A   1      52.518  27.221  30.826  1.00  0.00    -0.200 F 
ENDBRANCH  68  91
ENDBRANCH  42  43
ENDBRANCH  34  37
ENDBRANCH  32  33
ENDBRANCH  31  32
ENDBRANCH  30  31
ENDBRANCH   3  30
TORSDOF 15
ENDMDL
MODEL 3
REMARK VINA RESULT:      -9.4      9.669     14.127
REMARK SMILES O=C(CCOc1cccc(/C=C2/SC(=S)N(c3ccc(Cl)c(Cl)c3)C2=O)c1)NCCCNC(=O)c1ccc(-c2c3nc(c(-c4c(F)c(F)c(F)c(F)c4F)c4ccc([nH]4)c(-c4c(F)c(F)c(F)c(F)c4F)c4nc(c(-c5c(F)c(F)c(F)c(F)c5F)c5ccc2[nH]5)C=C4)C=C3)cc1
REMARK SMILES IDX 1 1 2 2 28 3 3 5 4 6 5 7 6 8 7 9 27 10 8 11 10 12 9 13 11 14
REMARK SMILES IDX 12 15 13 16 25 17 14 18 16 19 26 20 15 21 17 22 18 23 24 24
REMARK SMILES IDX 19 25 22 26 20 27 23 28 21 29 29 30 30 31 31 32 32 33 33 34
REMARK SMILES IDX 34 36 35 37 36 38 97 39 37 40 96 41 38 42 39 43 40 44 90 45
REMARK SMILES IDX 41 46 95 47 89 48 91 49 42 50 94 51 88 52 87 53 43 55 75 56
REMARK SMILES IDX 55 57 74 58 56 59 59 60 73 61 92 62 57 63 58 64 72 66 93 67
REMARK SMILES IDX 60 68 44 69 45 70 53 71 46 72 47 73 51 74 54 75 48 76 49 77
REMARK SMILES IDX 52 78 50 79 76 80 77 81 85 82 78 83 79 84 83 85 86 86 80 87
REMARK SMILES IDX 81 88 84 89 82 90 61 91 62 92 70 93 63 94 64 95 68 96 71 97
REMARK SMILES IDX 65 98 66 99 69 100 67 101
REMARK H PARENT 28 4 32 35 91 54 59 65
REMARK Flexibility Score: inf
ROOT
ATOM      1  O   UNL A   1      40.603  40.952  26.295  1.00  0.00    -0.275 OA
ATOM      2  C   UNL A   1      41.746  40.824  25.859  1.00  0.00     0.223 C 
ATOM      3  N   UNL A   1      42.603  39.832  26.346  1.00  0.00    -0.356 N 
ATOM      4  H   UNL A   1      43.463  39.664  25.896  1.00  0.00     0.163 HD
ENDROOT
BRANCH   2   5
ATOM      5  C   UNL A   1      42.263  41.708  24.709  1.00  0.00     0.141 C 
BRANCH   5   6
ATOM      6  C   UNL A   1      43.750  42.136  24.905  1.00  0.00     0.239 C 
BRANCH   6   7
ATOM      7  O   UNL A   1      44.221  42.288  26.272  1.00  0.00    -0.493 OA
BRANCH   7   8
ATOM      8  C   UNL A   1      44.796  43.521  26.435  1.00  0.00     0.119 A 
ATOM      9  C   UNL A   1      45.282  43.926  27.674  1.00  0.00     0.046 A 
ATOM     10  C   UNL A   1      45.111  44.185  25.254  1.00  0.00     0.054 A 
ATOM     11  C   UNL A   1      46.237  44.929  27.708  1.00  0.00     0.004 A 
ATOM     12  C   UNL A   1      46.181  45.066  25.262  1.00  0.00    -0.021 A 
ATOM     13  C   UNL A   1      46.708  45.460  26.505  1.00  0.00     0.008 A 
BRANCH  12  14
ATOM     14  C   UNL A   1      47.060  45.114  24.081  1.00  0.00     0.029 C 
ATOM     15  C   UNL A   1      46.889  45.024  22.763  1.00  0.00     0.081 C 
ATOM     16  S   UNL A   1      48.194  44.822  21.644  1.00  0.00    -0.054 SA
ATOM     17  C   UNL A   1      45.608  45.075  22.055  1.00  0.00     0.270 C 
ATOM     18  C   UNL A   1      47.127  44.879  20.239  1.00  0.00     0.152 C 
ATOM     19  N   UNL A   1      45.839  45.083  20.681  1.00  0.00    -0.261 N 
ATOM     20  O   UNL A   1      44.531  45.102  22.616  1.00  0.00    -0.268 OA
ATOM     21  S   UNL A   1      47.703  44.776  18.679  1.00  0.00    -0.051 S 
BRANCH  19  22
ATOM     22  C   UNL A   1      44.697  45.290  19.884  1.00  0.00     0.052 A 
ATOM     23  C   UNL A   1      43.964  44.146  19.532  1.00  0.00     0.028 A 
ATOM     24  C   UNL A   1      44.567  46.469  19.151  1.00  0.00     0.048 A 
ATOM     25  C   UNL A   1      43.201  44.135  18.374  1.00  0.00     0.024 A 
ATOM     26  C   UNL A   1      43.797  46.453  17.983  1.00  0.00     0.061 A 
ATOM     27  C   UNL A   1      43.145  45.279  17.578  1.00  0.00     0.059 A 
ATOM     28  Cl  UNL A   1      43.786  47.890  17.022  1.00  0.00    -0.083 Cl
ATOM     29  Cl  UNL A   1      42.318  45.148  16.068  1.00  0.00    -0.083 Cl
ENDBRANCH  19  22
ENDBRANCH  12  14
ENDBRANCH   7   8
ENDBRANCH   6   7
ENDBRANCH   5   6
ENDBRANCH   2   5
BRANCH   3  30
ATOM     30  C   UNL A   1      42.228  39.038  27.530  1.00  0.00     0.117 C 
BRANCH  30  31
ATOM     31  C   UNL A   1      42.727  39.420  28.964  1.00  0.00     0.042 C 
BRANCH  31  32
ATOM     32  C   UNL A   1      43.711  38.613  29.876  1.00  0.00     0.118 C 
BRANCH  32  33
ATOM     33  N   UNL A   1      45.133  38.694  29.610  1.00  0.00    -0.352 N 
ATOM     34  C   UNL A   1      45.993  37.696  29.176  1.00  0.00     0.251 C 
ATOM     35  H   UNL A   1      45.544  39.577  29.755  1.00  0.00     0.163 HD
ATOM     36  O   UNL A   1      47.183  37.953  29.007  1.00  0.00    -0.269 OA
BRANCH  34  37
ATOM     37  C   UNL A   1      45.541  36.295  28.948  1.00  0.00     0.039 A 
ATOM     38  C   UNL A   1      45.911  35.327  29.890  1.00  0.00     0.014 A 
ATOM     39  C   UNL A   1      44.903  35.888  27.773  1.00  0.00     0.014 A 
ATOM     40  C   UNL A   1      45.568  33.980  29.701  1.00  0.00     0.010 A 
ATOM     41  C   UNL A   1      44.538  34.536  27.595  1.00  0.00     0.010 A 
ATOM     42  C   UNL A   1      44.841  33.568  28.569  1.00  0.00    -0.014 A 
BRANCH  42  43
ATOM     43  C   UNL A   1      44.318  32.167  28.491  1.00  0.00     0.031 A 
ATOM     44  C   UNL A   1      43.008  31.754  29.110  1.00  0.00     0.074 A 
ATOM     45  C   UNL A   1      45.053  31.240  27.839  1.00  0.00     0.049 A 
ATOM     46  N   UNL A   1      42.410  30.585  29.081  1.00  0.00    -0.248 NA
ATOM     47  C   UNL A   1      42.280  32.777  29.869  1.00  0.00     0.031 C 
ATOM     48  C   UNL A   1      46.355  31.495  27.220  1.00  0.00     0.029 A 
ATOM     49  N   UNL A   1      44.820  29.910  27.581  1.00  0.00    -0.354 N 
ATOM     50  C   UNL A   1      41.235  30.731  29.813  1.00  0.00     0.074 A 
ATOM     51  C   UNL A   1      41.228  32.094  30.307  1.00  0.00     0.031 C 
ATOM     52  C   UNL A   1      46.793  30.369  26.635  1.00  0.00     0.029 A 
ATOM     53  C   UNL A   1      45.822  29.303  26.860  1.00  0.00     0.049 A 
ATOM     54  H   UNL A   1      44.012  29.436  27.885  1.00  0.00     0.167 HD
ATOM     55  C   UNL A   1      40.253  29.822  30.039  1.00  0.00     0.037 A 
ATOM     56  C   UNL A   1      45.952  28.034  26.426  1.00  0.00     0.037 A 
ATOM     57  C   UNL A   1      40.259  28.465  29.545  1.00  0.00     0.049 A 
ATOM     58  C   UNL A   1      44.853  27.043  26.699  1.00  0.00     0.074 A 
ATOM     59  C   UNL A   1      39.286  27.487  29.685  1.00  0.00     0.029 A 
ATOM     60  N   UNL A   1      41.294  27.889  28.822  1.00  0.00    -0.354 N 
ATOM     61  N   UNL A   1      43.718  27.222  27.329  1.00  0.00    -0.248 NA
ATOM     62  C   UNL A   1      45.048  25.677  26.191  1.00  0.00     0.031 C 
ATOM     63  C   UNL A   1      39.756  26.307  29.094  1.00  0.00     0.029 A 
ATOM     64  C   UNL A   1      40.996  26.564  28.535  1.00  0.00     0.049 A 
ATOM     65  H   UNL A   1      42.120  28.353  28.553  1.00  0.00     0.167 HD
ATOM     66  C   UNL A   1      43.054  26.004  27.272  1.00  0.00     0.074 A 
ATOM     67  C   UNL A   1      43.904  25.099  26.530  1.00  0.00     0.031 C 
ATOM     68  C   UNL A   1      41.847  25.669  27.790  1.00  0.00     0.037 A 
BRANCH  55  69
ATOM     69  C   UNL A   1      39.072  30.256  30.867  1.00  0.00     0.064 A 
ATOM     70  C   UNL A   1      39.081  30.167  32.268  1.00  0.00     0.173 A 
ATOM     71  C   UNL A   1      37.939  30.823  30.259  1.00  0.00     0.173 A 
ATOM     72  F   UNL A   1      40.138  29.638  32.903  1.00  0.00    -0.203 F 
ATOM     73  C   UNL A   1      37.990  30.592  33.025  1.00  0.00     0.198 A 
ATOM     74  C   UNL A   1      36.862  31.274  31.021  1.00  0.00     0.198 A 
ATOM     75  F   UNL A   1      37.880  30.952  28.926  1.00  0.00    -0.203 F 
ATOM     76  F   UNL A   1      38.005  30.450  34.357  1.00  0.00    -0.200 F 
ATOM     77  C   UNL A   1      36.885  31.149  32.401  1.00  0.00     0.200 A 
ATOM     78  F   UNL A   1      35.802  31.830  30.417  1.00  0.00    -0.200 F 
ATOM     79  F   UNL A   1      35.838  31.562  33.130  1.00  0.00    -0.200 F 
ENDBRANCH  55  69
BRANCH  56  80
ATOM     80  C   UNL A   1      47.165  27.633  25.661  1.00  0.00     0.064 A 
ATOM     81  C   UNL A   1      47.214  27.750  24.264  1.00  0.00     0.173 A 
ATOM     82  C   UNL A   1      48.302  27.128  26.311  1.00  0.00     0.173 A 
ATOM     83  F   UNL A   1      46.146  28.205  23.594  1.00  0.00    -0.203 F 
ATOM     84  C   UNL A   1      48.344  27.363  23.547  1.00  0.00     0.198 A 
ATOM     85  C   UNL A   1      49.443  26.772  25.595  1.00  0.00     0.198 A 
ATOM     86  F   UNL A   1      48.310  27.001  27.646  1.00  0.00    -0.203 F 
ATOM     87  F   UNL A   1      48.347  27.445  22.209  1.00  0.00    -0.200 F 
ATOM     88  C   UNL A   1      49.460  26.882  24.214  1.00  0.00     0.200 A 
ATOM     89  F   UNL A   1      50.526  26.325  26.245  1.00  0.00    -0.200 F 
ATOM     90  F   UNL A   1      50.552  26.521  23.524  1.00  0.00    -0.200 F 
ENDBRANCH  56  80
BRANCH  68  91
ATOM     91  C   UNL A   1      41.357  24.269  27.548  1.00  0.00     0.064 A 
ATOM     92  C   UNL A   1      40.295  24.000  26.670  1.00  0.00     0.173 A 
ATOM     93  C   UNL A   1      41.978  23.179  28.179  1.00  0.00     0.173 A 
ATOM     94  F   UNL A   1      39.657  25.007  26.055  1.00  0.00    -0.203 F 
ATOM     95  C   UNL A   1      39.857  22.696  26.453  1.00  0.00     0.198 A 
ATOM     96  C   UNL A   1      41.557  21.875  27.936  1.00  0.00     0.198 A 
ATOM     97  F   UNL A   1      42.999  23.380  29.024  1.00  0.00    -0.203 F 
ATOM     98  F   UNL A   1      38.809  22.467  25.650  1.00  0.00    -0.200 F 
ATOM     99  C   UNL A   1      40.493  21.634  27.081  1.00  0.00     0.200 A 
ATOM    100  F   UNL A   1      42.180  20.849  28.533  1.00  0.00    -0.200 F 
ATOM    101  F   UNL A   1      40.073  20.379  26.866  1.00  0.00    -0.200 F 
ENDBRANCH  68  91
ENDBRANCH  42  43
ENDBRANCH  34  37
ENDBRANCH  32  33
ENDBRANCH  31  32
ENDBRANCH  30  31
ENDBRANCH   3  30
TORSDOF 15
ENDMDL
