MODEL 1
REMARK VINA RESULT:     -13.5      0.000      0.000
REMARK SMILES O=C(Cn1ncc2ccccc2c1=O)N[C@@H]1C[NH2+][C@H](C(=O)NCCCNC(=O)c2ccc(-c3c4nc(c(-c5c(F)c(F)c(F)c(F)c5F)c5ccc([nH]5)c(-c5c(F)c(F)c(F)c(F)c5F)c5nc(c(-c6c(F)c(F)c(F)c(F)c6F)c6ccc3[nH]6)C=C5)C=C4)cc2)C1
REMARK SMILES IDX 23 1 22 2 20 3 21 4 19 6 16 7 17 8 92 9 18 10 15 13 1 14
REMARK SMILES IDX 2 15 3 17 4 18 5 19 13 20 6 21 12 22 14 23 7 24 11 25 8 26
REMARK SMILES IDX 10 27 9 28 24 29 25 30 26 31 27 32 28 34 29 35 30 36 91 37
REMARK SMILES IDX 31 38 90 39 32 40 33 41 34 42 84 43 35 44 89 45 83 46 85 47
REMARK SMILES IDX 36 48 88 49 82 50 81 51 37 53 69 54 49 55 68 56 50 57 53 58
REMARK SMILES IDX 67 59 86 60 51 61 52 62 66 64 87 65 54 66 38 67 39 68 47 69
REMARK SMILES IDX 40 70 41 71 45 72 48 73 42 74 43 75 46 76 44 77 70 78 71 79
REMARK SMILES IDX 79 80 72 81 73 82 77 83 80 84 74 85 75 86 78 87 76 88 55 89
REMARK SMILES IDX 56 90 64 91 57 92 58 93 62 94 65 95 59 96 60 97 63 98 61 99
REMARK H PARENT 22 5 18 11 18 12 15 16 26 33 85 52 53 63
REMARK Flexibility Score: inf
ROOT
ATOM      1  C   UNL A   1      31.590  30.648  26.516  1.00  0.00     0.118 C 
ENDROOT
BRANCH   1   2
ATOM      2  N   UNL A   1      32.019  30.234  25.194  1.00  0.00    -0.351 N 
ATOM      3  C   UNL A   1      31.786  29.093  24.490  1.00  0.00     0.278 C 
ATOM      4  O   UNL A   1      32.417  28.964  23.434  1.00  0.00    -0.268 OA
ATOM      5  H   UNL A   1      32.577  30.894  24.724  1.00  0.00     0.163 HD
BRANCH   3   6
ATOM      6  C   UNL A   1      30.703  28.068  24.857  1.00  0.00     0.274 C 
ATOM      7  C   UNL A   1      30.403  25.714  25.147  1.00  0.00     0.143 C 
ATOM      8  C   UNL A   1      29.885  26.121  23.770  1.00  0.00     0.286 C 
ATOM      9  C   UNL A   1      31.327  26.851  25.524  1.00  0.00     0.106 C 
ATOM     10  N   UNL A   1      29.876  27.595  23.717  1.00  0.00    -0.334 N 
ATOM     11  H   UNL A   1      28.923  27.943  23.805  1.00  0.00     0.347 HD
ATOM     12  H   UNL A   1      30.249  27.931  22.829  1.00  0.00     0.347 HD
BRANCH   7  13
ATOM     13  N   UNL A   1      31.094  24.441  25.113  1.00  0.00    -0.346 N 
ATOM     14  O   UNL A   1      30.414  23.709  27.171  1.00  0.00    -0.273 OA
ATOM     15  C   UNL A   1      30.965  23.485  26.095  1.00  0.00     0.242 C 
ATOM     16  H   UNL A   1      31.686  24.251  24.349  1.00  0.00     0.164 HD
BRANCH  15  17
ATOM     17  C   UNL A   1      31.738  22.192  25.827  1.00  0.00     0.248 C 
BRANCH  17  18
ATOM     18  N   UNL A   1      33.201  22.255  25.905  1.00  0.00    -0.220 N 
ATOM     19  N   UNL A   1      33.791  23.450  26.259  1.00  0.00    -0.177 NA
ATOM     20  C   UNL A   1      33.915  21.133  25.471  1.00  0.00     0.275 A 
ATOM     21  C   UNL A   1      35.081  23.550  26.186  1.00  0.00     0.142 A 
ATOM     22  C   UNL A   1      35.382  21.267  25.402  1.00  0.00     0.050 A 
ATOM     23  O   UNL A   1      33.390  20.072  25.143  1.00  0.00    -0.267 OA
ATOM     24  C   UNL A   1      35.962  22.476  25.752  1.00  0.00     0.007 A 
ATOM     25  C   UNL A   1      36.191  20.211  24.972  1.00  0.00     0.014 A 
ATOM     26  C   UNL A   1      37.345  22.660  25.688  1.00  0.00     0.010 A 
ATOM     27  C   UNL A   1      37.577  20.382  24.904  1.00  0.00     0.001 A 
ATOM     28  C   UNL A   1      38.152  21.605  25.261  1.00  0.00     0.001 A 
ENDBRANCH  17  18
ENDBRANCH  15  17
ENDBRANCH   7  13
ENDBRANCH   3   6
ENDBRANCH   1   2
BRANCH   1  29
ATOM     29  C   UNL A   1      31.476  32.165  26.611  1.00  0.00     0.042 C 
BRANCH  29  30
ATOM     30  C   UNL A   1      32.695  32.803  27.271  1.00  0.00     0.118 C 
BRANCH  30  31
ATOM     31  N   UNL A   1      32.464  34.199  27.639  1.00  0.00    -0.352 N 
ATOM     32  C   UNL A   1      33.031  34.968  28.626  1.00  0.00     0.251 C 
ATOM     33  H   UNL A   1      31.793  34.664  27.090  1.00  0.00     0.163 HD
ATOM     34  O   UNL A   1      32.541  36.057  28.911  1.00  0.00    -0.269 OA
BRANCH  32  35
ATOM     35  C   UNL A   1      34.213  34.477  29.365  1.00  0.00     0.039 A 
ATOM     36  C   UNL A   1      35.498  34.690  28.868  1.00  0.00     0.014 A 
ATOM     37  C   UNL A   1      34.035  33.793  30.572  1.00  0.00     0.014 A 
ATOM     38  C   UNL A   1      36.578  34.049  29.458  1.00  0.00     0.010 A 
ATOM     39  C   UNL A   1      35.139  33.239  31.226  1.00  0.00     0.010 A 
ATOM     40  C   UNL A   1      36.414  33.313  30.644  1.00  0.00    -0.014 A 
BRANCH  40  41
ATOM     41  C   UNL A   1      37.591  32.627  31.237  1.00  0.00     0.031 A 
ATOM     42  C   UNL A   1      38.055  32.962  32.630  1.00  0.00     0.074 A 
ATOM     43  C   UNL A   1      38.193  31.641  30.545  1.00  0.00     0.049 A 
ATOM     44  N   UNL A   1      39.048  32.448  33.314  1.00  0.00    -0.248 NA
ATOM     45  C   UNL A   1      37.317  34.011  33.349  1.00  0.00     0.031 C 
ATOM     46  C   UNL A   1      37.819  31.214  29.195  1.00  0.00     0.029 A 
ATOM     47  N   UNL A   1      39.216  30.794  30.887  1.00  0.00    -0.354 N 
ATOM     48  C   UNL A   1      39.064  33.123  34.527  1.00  0.00     0.074 A 
ATOM     49  C   UNL A   1      38.001  34.103  34.481  1.00  0.00     0.031 C 
ATOM     50  C   UNL A   1      38.550  30.144  28.853  1.00  0.00     0.029 A 
ATOM     51  C   UNL A   1      39.496  29.854  29.925  1.00  0.00     0.049 A 
ATOM     52  H   UNL A   1      39.702  30.854  31.742  1.00  0.00     0.167 HD
ATOM     53  C   UNL A   1      39.880  32.928  35.591  1.00  0.00     0.037 A 
ATOM     54  C   UNL A   1      40.419  28.876  29.901  1.00  0.00     0.037 A 
ATOM     55  C   UNL A   1      40.915  31.927  35.646  1.00  0.00     0.049 A 
ATOM     56  C   UNL A   1      41.339  28.712  31.076  1.00  0.00     0.074 A 
ATOM     57  C   UNL A   1      41.785  31.646  36.684  1.00  0.00     0.029 A 
ATOM     58  N   UNL A   1      41.211  31.040  34.623  1.00  0.00    -0.354 N 
ATOM     59  N   UNL A   1      41.350  29.365  32.212  1.00  0.00    -0.248 NA
ATOM     60  C   UNL A   1      42.383  27.685  30.961  1.00  0.00     0.031 C 
ATOM     61  C   UNL A   1      42.635  30.614  36.274  1.00  0.00     0.029 A 
ATOM     62  C   UNL A   1      42.264  30.222  34.998  1.00  0.00     0.049 A 
ATOM     63  H   UNL A   1      40.742  30.997  33.758  1.00  0.00     0.167 HD
ATOM     64  C   UNL A   1      42.394  28.828  32.949  1.00  0.00     0.074 A 
ATOM     65  C   UNL A   1      42.978  27.775  32.143  1.00  0.00     0.031 C 
ATOM     66  C   UNL A   1      42.834  29.180  34.182  1.00  0.00     0.037 A 
BRANCH  53  67
ATOM     67  C   UNL A   1      39.701  33.817  36.788  1.00  0.00     0.064 A 
ATOM     68  C   UNL A   1      40.272  35.096  36.845  1.00  0.00     0.173 A 
ATOM     69  C   UNL A   1      38.888  33.412  37.858  1.00  0.00     0.173 A 
ATOM     70  F   UNL A   1      41.068  35.525  35.854  1.00  0.00    -0.203 F 
ATOM     71  C   UNL A   1      40.047  35.933  37.936  1.00  0.00     0.198 A 
ATOM     72  C   UNL A   1      38.643  34.261  38.934  1.00  0.00     0.198 A 
ATOM     73  F   UNL A   1      38.314  32.200  37.850  1.00  0.00    -0.203 F 
ATOM     74  F   UNL A   1      40.627  37.140  37.984  1.00  0.00    -0.200 F 
ATOM     75  C   UNL A   1      39.225  35.519  38.974  1.00  0.00     0.200 A 
ATOM     76  F   UNL A   1      37.839  33.863  39.930  1.00  0.00    -0.200 F 
ATOM     77  F   UNL A   1      38.996  36.332  40.015  1.00  0.00    -0.200 F 
ENDBRANCH  53  67
BRANCH  54  78
ATOM     78  C   UNL A   1      40.509  27.982  28.718  1.00  0.00     0.064 A 
ATOM     79  C   UNL A   1      39.814  26.766  28.679  1.00  0.00     0.173 A 
ATOM     80  C   UNL A   1      41.263  28.340  27.590  1.00  0.00     0.173 A 
ATOM     81  F   UNL A   1      39.097  26.370  29.741  1.00  0.00    -0.203 F 
ATOM     82  C   UNL A   1      39.869  25.943  27.556  1.00  0.00     0.198 A 
ATOM     83  C   UNL A   1      41.293  27.531  26.457  1.00  0.00     0.198 A 
ATOM     84  F   UNL A   1      41.944  29.495  27.577  1.00  0.00    -0.203 F 
ATOM     85  F   UNL A   1      39.217  24.772  27.554  1.00  0.00    -0.200 F 
ATOM     86  C   UNL A   1      40.600  26.331  26.443  1.00  0.00     0.200 A 
ATOM     87  F   UNL A   1      41.986  27.919  25.378  1.00  0.00    -0.200 F 
ATOM     88  F   UNL A   1      40.638  25.546  25.357  1.00  0.00    -0.200 F 
ENDBRANCH  54  78
BRANCH  66  89
ATOM     89  C   UNL A   1      43.998  28.419  34.742  1.00  0.00     0.064 A 
ATOM     90  C   UNL A   1      45.316  28.862  34.557  1.00  0.00     0.173 A 
ATOM     91  C   UNL A   1      43.790  27.274  35.525  1.00  0.00     0.173 A 
ATOM     92  F   UNL A   1      45.564  29.945  33.804  1.00  0.00    -0.203 F 
ATOM     93  C   UNL A   1      46.385  28.177  35.125  1.00  0.00     0.198 A 
ATOM     94  C   UNL A   1      44.860  26.607  36.113  1.00  0.00     0.198 A 
ATOM     95  F   UNL A   1      42.547  26.816  35.737  1.00  0.00    -0.203 F 
ATOM     96  F   UNL A   1      47.639  28.597  34.908  1.00  0.00    -0.200 F 
ATOM     97  C   UNL A   1      46.157  27.056  35.910  1.00  0.00     0.200 A 
ATOM     98  F   UNL A   1      44.637  25.533  36.882  1.00  0.00    -0.200 F 
ATOM     99  F   UNL A   1      47.188  26.407  36.467  1.00  0.00    -0.200 F 
ENDBRANCH  66  89
ENDBRANCH  40  41
ENDBRANCH  32  35
ENDBRANCH  30  31
ENDBRANCH  29  30
ENDBRANCH   1  29
TORSDOF 13
ENDMDL
MODEL 2
REMARK VINA RESULT:     -13.3      0.200      1.928
REMARK SMILES O=C(Cn1ncc2ccccc2c1=O)N[C@@H]1C[NH2+][C@H](C(=O)NCCCNC(=O)c2ccc(-c3c4nc(c(-c5c(F)c(F)c(F)c(F)c5F)c5ccc([nH]5)c(-c5c(F)c(F)c(F)c(F)c5F)c5nc(c(-c6c(F)c(F)c(F)c(F)c6F)c6ccc3[nH]6)C=C5)C=C4)cc2)C1
REMARK SMILES IDX 23 1 22 2 20 3 21 4 19 6 16 7 17 8 92 9 18 10 15 13 1 14
REMARK SMILES IDX 2 15 3 17 4 18 5 19 13 20 6 21 12 22 14 23 7 24 11 25 8 26
REMARK SMILES IDX 10 27 9 28 24 29 25 30 26 31 27 32 28 34 29 35 30 36 91 37
REMARK SMILES IDX 31 38 90 39 32 40 33 41 34 42 84 43 35 44 89 45 83 46 85 47
REMARK SMILES IDX 36 48 88 49 82 50 81 51 37 53 69 54 49 55 68 56 50 57 53 58
REMARK SMILES IDX 67 59 86 60 51 61 52 62 66 64 87 65 54 66 38 67 39 68 47 69
REMARK SMILES IDX 40 70 41 71 45 72 48 73 42 74 43 75 46 76 44 77 70 78 71 79
REMARK SMILES IDX 79 80 72 81 73 82 77 83 80 84 74 85 75 86 78 87 76 88 55 89
REMARK SMILES IDX 56 90 64 91 57 92 58 93 62 94 65 95 59 96 60 97 63 98 61 99
REMARK H PARENT 22 5 18 11 18 12 15 16 26 33 85 52 53 63
REMARK Flexibility Score: inf
ROOT
ATOM      1  C   UNL A   1      31.546  30.549  26.360  1.00  0.00     0.118 C 
ENDROOT
BRANCH   1   2
ATOM      2  N   UNL A   1      31.893  30.179  25.001  1.00  0.00    -0.351 N 
ATOM      3  C   UNL A   1      31.602  29.070  24.270  1.00  0.00     0.278 C 
ATOM      4  O   UNL A   1      32.170  28.972  23.176  1.00  0.00    -0.268 OA
ATOM      5  H   UNL A   1      32.434  30.849  24.525  1.00  0.00     0.163 HD
BRANCH   3   6
ATOM      6  C   UNL A   1      30.525  28.047  24.660  1.00  0.00     0.274 C 
ATOM      7  C   UNL A   1      30.260  25.712  25.101  1.00  0.00     0.143 C 
ATOM      8  C   UNL A   1      29.798  26.011  23.677  1.00  0.00     0.286 C 
ATOM      9  C   UNL A   1      31.143  26.895  25.438  1.00  0.00     0.106 C 
ATOM     10  N   UNL A   1      29.761  27.476  23.520  1.00  0.00    -0.334 N 
ATOM     11  H   UNL A   1      28.797  27.807  23.542  1.00  0.00     0.347 HD
ATOM     12  H   UNL A   1      30.167  27.759  22.629  1.00  0.00     0.347 HD
BRANCH   7  13
ATOM     13  N   UNL A   1      30.979  24.457  25.187  1.00  0.00    -0.346 N 
ATOM     14  O   UNL A   1      30.058  23.753  27.159  1.00  0.00    -0.273 OA
ATOM     15  C   UNL A   1      30.746  23.519  26.168  1.00  0.00     0.242 C 
ATOM     16  H   UNL A   1      31.667  24.265  24.510  1.00  0.00     0.164 HD
BRANCH  15  17
ATOM     17  C   UNL A   1      31.576  22.241  26.033  1.00  0.00     0.248 C 
BRANCH  17  18
ATOM     18  N   UNL A   1      33.036  22.382  26.048  1.00  0.00    -0.220 N 
ATOM     19  N   UNL A   1      33.575  23.616  26.342  1.00  0.00    -0.177 NA
ATOM     20  C   UNL A   1      33.790  21.285  25.620  1.00  0.00     0.275 A 
ATOM     21  C   UNL A   1      34.855  23.780  26.212  1.00  0.00     0.142 A 
ATOM     22  C   UNL A   1      35.244  21.492  25.485  1.00  0.00     0.050 A 
ATOM     23  O   UNL A   1      33.310  20.188  25.346  1.00  0.00    -0.267 OA
ATOM     24  C   UNL A   1      35.773  22.740  25.775  1.00  0.00     0.007 A 
ATOM     25  C   UNL A   1      36.091  20.465  25.055  1.00  0.00     0.014 A 
ATOM     26  C   UNL A   1      37.140  22.993  25.648  1.00  0.00     0.010 A 
ATOM     27  C   UNL A   1      37.461  20.706  24.924  1.00  0.00     0.001 A 
ATOM     28  C   UNL A   1      37.985  21.967  25.220  1.00  0.00     0.001 A 
ENDBRANCH  17  18
ENDBRANCH  15  17
ENDBRANCH   7  13
ENDBRANCH   3   6
ENDBRANCH   1   2
BRANCH   1  29
ATOM     29  C   UNL A   1      31.417  32.060  26.507  1.00  0.00     0.042 C 
BRANCH  29  30
ATOM     30  C   UNL A   1      32.584  32.677  27.272  1.00  0.00     0.118 C 
BRANCH  30  31
ATOM     31  N   UNL A   1      32.363  34.088  27.586  1.00  0.00    -0.352 N 
ATOM     32  C   UNL A   1      32.954  34.897  28.525  1.00  0.00     0.251 C 
ATOM     33  H   UNL A   1      31.679  34.530  27.033  1.00  0.00     0.163 HD
ATOM     34  O   UNL A   1      32.472  35.999  28.775  1.00  0.00    -0.269 OA
BRANCH  32  35
ATOM     35  C   UNL A   1      34.153  34.437  29.256  1.00  0.00     0.039 A 
ATOM     36  C   UNL A   1      35.420  34.562  28.688  1.00  0.00     0.014 A 
ATOM     37  C   UNL A   1      34.009  33.870  30.526  1.00  0.00     0.014 A 
ATOM     38  C   UNL A   1      36.506  33.941  29.289  1.00  0.00     0.010 A 
ATOM     39  C   UNL A   1      35.125  33.341  31.182  1.00  0.00     0.010 A 
ATOM     40  C   UNL A   1      36.374  33.321  30.542  1.00  0.00    -0.014 A 
BRANCH  40  41
ATOM     41  C   UNL A   1      37.556  32.652  31.146  1.00  0.00     0.031 A 
ATOM     42  C   UNL A   1      38.013  33.006  32.536  1.00  0.00     0.074 A 
ATOM     43  C   UNL A   1      38.170  31.665  30.465  1.00  0.00     0.049 A 
ATOM     44  N   UNL A   1      39.009  32.509  33.229  1.00  0.00    -0.248 NA
ATOM     45  C   UNL A   1      37.262  34.055  33.242  1.00  0.00     0.031 C 
ATOM     46  C   UNL A   1      37.804  31.221  29.119  1.00  0.00     0.029 A 
ATOM     47  N   UNL A   1      39.200  30.832  30.820  1.00  0.00    -0.354 N 
ATOM     48  C   UNL A   1      39.014  33.197  34.435  1.00  0.00     0.074 A 
ATOM     49  C   UNL A   1      37.942  34.166  34.375  1.00  0.00     0.031 C 
ATOM     50  C   UNL A   1      38.547  30.154  28.790  1.00  0.00     0.029 A 
ATOM     51  C   UNL A   1      39.492  29.885  29.869  1.00  0.00     0.049 A 
ATOM     52  H   UNL A   1      39.683  30.905  31.675  1.00  0.00     0.167 HD
ATOM     53  C   UNL A   1      39.829  33.021  35.503  1.00  0.00     0.037 A 
ATOM     54  C   UNL A   1      40.425  28.915  29.857  1.00  0.00     0.037 A 
ATOM     55  C   UNL A   1      40.873  32.031  35.572  1.00  0.00     0.049 A 
ATOM     56  C   UNL A   1      41.343  28.773  31.037  1.00  0.00     0.074 A 
ATOM     57  C   UNL A   1      41.743  31.769  36.615  1.00  0.00     0.029 A 
ATOM     58  N   UNL A   1      41.181  31.136  34.558  1.00  0.00    -0.354 N 
ATOM     59  N   UNL A   1      41.344  29.438  32.166  1.00  0.00    -0.248 NA
ATOM     60  C   UNL A   1      42.397  27.755  30.935  1.00  0.00     0.031 C 
ATOM     61  C   UNL A   1      42.604  30.741  36.218  1.00  0.00     0.029 A 
ATOM     62  C   UNL A   1      42.241  30.332  34.945  1.00  0.00     0.049 A 
ATOM     63  H   UNL A   1      40.716  31.079  33.693  1.00  0.00     0.167 HD
ATOM     64  C   UNL A   1      42.391  28.918  32.912  1.00  0.00     0.074 A 
ATOM     65  C   UNL A   1      42.988  27.863  32.118  1.00  0.00     0.031 C 
ATOM     66  C   UNL A   1      42.824  29.288  34.142  1.00  0.00     0.037 A 
BRANCH  53  67
ATOM     67  C   UNL A   1      39.637  33.920  36.691  1.00  0.00     0.064 A 
ATOM     68  C   UNL A   1      38.847  33.536  37.783  1.00  0.00     0.173 A 
ATOM     69  C   UNL A   1      40.312  35.148  36.768  1.00  0.00     0.173 A 
ATOM     70  F   UNL A   1      38.170  32.378  37.753  1.00  0.00    -0.203 F 
ATOM     71  C   UNL A   1      38.728  34.354  38.904  1.00  0.00     0.198 A 
ATOM     72  C   UNL A   1      40.213  35.952  37.901  1.00  0.00     0.198 A 
ATOM     73  F   UNL A   1      41.085  35.560  35.752  1.00  0.00    -0.203 F 
ATOM     74  F   UNL A   1      37.943  33.982  39.924  1.00  0.00    -0.200 F 
ATOM     75  C   UNL A   1      39.419  35.556  38.967  1.00  0.00     0.200 A 
ATOM     76  F   UNL A   1      40.891  37.106  37.964  1.00  0.00    -0.200 F 
ATOM     77  F   UNL A   1      39.316  36.334  40.053  1.00  0.00    -0.200 F 
ENDBRANCH  53  67
BRANCH  54  78
ATOM     78  C   UNL A   1      40.528  28.011  28.684  1.00  0.00     0.064 A 
ATOM     79  C   UNL A   1      41.321  28.351  27.580  1.00  0.00     0.173 A 
ATOM     80  C   UNL A   1      39.866  26.774  28.656  1.00  0.00     0.173 A 
ATOM     81  F   UNL A   1      41.957  29.532  27.550  1.00  0.00    -0.203 F 
ATOM     82  C   UNL A   1      41.448  27.488  26.493  1.00  0.00     0.198 A 
ATOM     83  C   UNL A   1      40.017  25.900  27.582  1.00  0.00     0.198 A 
ATOM     84  F   UNL A   1      39.097  26.401  29.689  1.00  0.00    -0.203 F 
ATOM     85  F   UNL A   1      42.190  27.849  25.437  1.00  0.00    -0.200 F 
ATOM     86  C   UNL A   1      40.804  26.260  26.500  1.00  0.00     0.200 A 
ATOM     87  F   UNL A   1      39.407  24.707  27.602  1.00  0.00    -0.200 F 
ATOM     88  F   UNL A   1      40.940  25.423  25.461  1.00  0.00    -0.200 F 
ENDBRANCH  54  78
BRANCH  66  89
ATOM     89  C   UNL A   1      43.993  28.545  34.713  1.00  0.00     0.064 A 
ATOM     90  C   UNL A   1      43.818  27.358  35.440  1.00  0.00     0.173 A 
ATOM     91  C   UNL A   1      45.304  28.987  34.477  1.00  0.00     0.173 A 
ATOM     92  F   UNL A   1      42.583  26.904  35.703  1.00  0.00    -0.203 F 
ATOM     93  C   UNL A   1      44.914  26.648  35.922  1.00  0.00     0.198 A 
ATOM     94  C   UNL A   1      46.397  28.260  34.938  1.00  0.00     0.198 A 
ATOM     95  F   UNL A   1      45.522  30.113  33.781  1.00  0.00    -0.203 F 
ATOM     96  F   UNL A   1      44.724  25.535  36.643  1.00  0.00    -0.200 F 
ATOM     97  C   UNL A   1      46.202  27.094  35.663  1.00  0.00     0.200 A 
ATOM     98  F   UNL A   1      47.640  28.685  34.674  1.00  0.00    -0.200 F 
ATOM     99  F   UNL A   1      47.255  26.401  36.116  1.00  0.00    -0.200 F 
ENDBRANCH  66  89
ENDBRANCH  40  41
ENDBRANCH  32  35
ENDBRANCH  30  31
ENDBRANCH  29  30
ENDBRANCH   1  29
TORSDOF 13
ENDMDL
MODEL 3
REMARK VINA RESULT:     -13.3      5.072     10.796
REMARK SMILES O=C(Cn1ncc2ccccc2c1=O)N[C@@H]1C[NH2+][C@H](C(=O)NCCCNC(=O)c2ccc(-c3c4nc(c(-c5c(F)c(F)c(F)c(F)c5F)c5ccc([nH]5)c(-c5c(F)c(F)c(F)c(F)c5F)c5nc(c(-c6c(F)c(F)c(F)c(F)c6F)c6ccc3[nH]6)C=C5)C=C4)cc2)C1
REMARK SMILES IDX 23 1 22 2 20 3 21 4 19 6 16 7 17 8 92 9 18 10 15 13 1 14
REMARK SMILES IDX 2 15 3 17 4 18 5 19 13 20 6 21 12 22 14 23 7 24 11 25 8 26
REMARK SMILES IDX 10 27 9 28 24 29 25 30 26 31 27 32 28 34 29 35 30 36 91 37
REMARK SMILES IDX 31 38 90 39 32 40 33 41 34 42 84 43 35 44 89 45 83 46 85 47
REMARK SMILES IDX 36 48 88 49 82 50 81 51 37 53 69 54 49 55 68 56 50 57 53 58
REMARK SMILES IDX 67 59 86 60 51 61 52 62 66 64 87 65 54 66 38 67 39 68 47 69
REMARK SMILES IDX 40 70 41 71 45 72 48 73 42 74 43 75 46 76 44 77 70 78 71 79
REMARK SMILES IDX 79 80 72 81 73 82 77 83 80 84 74 85 75 86 78 87 76 88 55 89
REMARK SMILES IDX 56 90 64 91 57 92 58 93 62 94 65 95 59 96 60 97 63 98 61 99
REMARK H PARENT 22 5 18 11 18 12 15 16 26 33 85 52 53 63
REMARK Flexibility Score: inf
ROOT
ATOM      1  C   UNL A   1      36.991  20.956  24.774  1.00  0.00     0.118 C 
ENDROOT
BRANCH   1   2
ATOM      2  N   UNL A   1      35.800  20.823  25.590  1.00  0.00    -0.351 N 
ATOM      3  C   UNL A   1      34.500  21.133  25.338  1.00  0.00     0.278 C 
ATOM      4  O   UNL A   1      33.721  21.045  26.296  1.00  0.00    -0.268 OA
ATOM      5  H   UNL A   1      35.961  20.443  26.483  1.00  0.00     0.163 HD
BRANCH   3   6
ATOM      6  C   UNL A   1      33.947  21.429  23.936  1.00  0.00     0.274 C 
ATOM      7  C   UNL A   1      32.873  23.169  22.697  1.00  0.00     0.143 C 
ATOM      8  C   UNL A   1      31.825  22.157  23.155  1.00  0.00     0.286 C 
ATOM      9  C   UNL A   1      34.035  22.917  23.633  1.00  0.00     0.106 C 
ATOM     10  N   UNL A   1      32.544  20.995  23.711  1.00  0.00    -0.334 N 
ATOM     11  H   UNL A   1      32.517  20.218  23.053  1.00  0.00     0.347 HD
ATOM     12  H   UNL A   1      32.113  20.681  24.581  1.00  0.00     0.347 HD
BRANCH   7  13
ATOM     13  N   UNL A   1      32.387  24.531  22.789  1.00  0.00    -0.346 N 
ATOM     14  O   UNL A   1      33.213  25.247  20.779  1.00  0.00    -0.273 OA
ATOM     15  C   UNL A   1      32.510  25.447  21.767  1.00  0.00     0.242 C 
ATOM     16  H   UNL A   1      31.947  24.816  23.622  1.00  0.00     0.164 HD
BRANCH  15  17
ATOM     17  C   UNL A   1      31.874  26.808  22.056  1.00  0.00     0.248 C 
BRANCH  17  18
ATOM     18  N   UNL A   1      32.391  27.562  23.202  1.00  0.00    -0.220 N 
ATOM     19  N   UNL A   1      33.507  27.084  23.856  1.00  0.00    -0.177 NA
ATOM     20  C   UNL A   1      31.631  28.646  23.652  1.00  0.00     0.275 A 
ATOM     21  C   UNL A   1      33.878  27.664  24.955  1.00  0.00     0.142 A 
ATOM     22  C   UNL A   1      32.074  29.296  24.899  1.00  0.00     0.050 A 
ATOM     23  O   UNL A   1      30.629  29.066  23.077  1.00  0.00    -0.267 OA
ATOM     24  C   UNL A   1      33.192  28.800  25.552  1.00  0.00     0.007 A 
ATOM     25  C   UNL A   1      31.381  30.382  25.443  1.00  0.00     0.014 A 
ATOM     26  C   UNL A   1      33.643  29.368  26.745  1.00  0.00     0.010 A 
ATOM     27  C   UNL A   1      31.823  30.959  26.637  1.00  0.00     0.001 A 
ATOM     28  C   UNL A   1      32.952  30.453  27.286  1.00  0.00     0.001 A 
ENDBRANCH  17  18
ENDBRANCH  15  17
ENDBRANCH   7  13
ENDBRANCH   3   6
ENDBRANCH   1   2
BRANCH   1  29
ATOM     29  C   UNL A   1      37.963  19.807  25.022  1.00  0.00     0.042 C 
BRANCH  29  30
ATOM     30  C   UNL A   1      39.189  20.240  25.820  1.00  0.00     0.118 C 
BRANCH  30  31
ATOM     31  N   UNL A   1      40.210  19.196  25.885  1.00  0.00    -0.352 N 
ATOM     32  C   UNL A   1      41.566  19.283  26.085  1.00  0.00     0.251 C 
ATOM     33  H   UNL A   1      39.870  18.279  25.767  1.00  0.00     0.163 HD
ATOM     34  O   UNL A   1      42.279  18.303  25.888  1.00  0.00    -0.269 OA
BRANCH  32  35
ATOM     35  C   UNL A   1      42.174  20.561  26.511  1.00  0.00     0.039 A 
ATOM     36  C   UNL A   1      42.215  20.910  27.861  1.00  0.00     0.014 A 
ATOM     37  C   UNL A   1      42.710  21.423  25.550  1.00  0.00     0.014 A 
ATOM     38  C   UNL A   1      42.597  22.194  28.226  1.00  0.00     0.010 A 
ATOM     39  C   UNL A   1      43.196  22.677  25.933  1.00  0.00     0.010 A 
ATOM     40  C   UNL A   1      43.090  23.095  27.268  1.00  0.00    -0.014 A 
BRANCH  40  41
ATOM     41  C   UNL A   1      43.473  24.466  27.695  1.00  0.00     0.031 A 
ATOM     42  C   UNL A   1      44.913  24.904  27.676  1.00  0.00     0.074 A 
ATOM     43  C   UNL A   1      42.506  25.343  28.027  1.00  0.00     0.049 A 
ATOM     44  N   UNL A   1      45.425  26.068  27.994  1.00  0.00    -0.248 NA
ATOM     45  C   UNL A   1      45.910  23.910  27.251  1.00  0.00     0.031 C 
ATOM     46  C   UNL A   1      41.074  25.040  28.064  1.00  0.00     0.029 A 
ATOM     47  N   UNL A   1      42.570  26.673  28.357  1.00  0.00    -0.354 N 
ATOM     48  C   UNL A   1      46.798  25.938  27.826  1.00  0.00     0.074 A 
ATOM     49  C   UNL A   1      47.047  24.576  27.407  1.00  0.00     0.031 C 
ATOM     50  C   UNL A   1      40.392  26.164  28.327  1.00  0.00     0.029 A 
ATOM     51  C   UNL A   1      41.339  27.250  28.551  1.00  0.00     0.049 A 
ATOM     52  H   UNL A   1      43.418  27.166  28.445  1.00  0.00     0.167 HD
ATOM     53  C   UNL A   1      47.760  26.877  27.991  1.00  0.00     0.037 A 
ATOM     54  C   UNL A   1      41.007  28.511  28.886  1.00  0.00     0.037 A 
ATOM     55  C   UNL A   1      47.506  28.241  28.375  1.00  0.00     0.049 A 
ATOM     56  C   UNL A   1      42.098  29.519  29.105  1.00  0.00     0.074 A 
ATOM     57  C   UNL A   1      48.414  29.268  28.556  1.00  0.00     0.029 A 
ATOM     58  N   UNL A   1      46.248  28.768  28.630  1.00  0.00    -0.354 N 
ATOM     59  N   UNL A   1      43.393  29.378  28.955  1.00  0.00    -0.248 NA
ATOM     60  C   UNL A   1      41.684  30.855  29.552  1.00  0.00     0.031 C 
ATOM     61  C   UNL A   1      47.711  30.408  28.958  1.00  0.00     0.029 A 
ATOM     62  C   UNL A   1      46.359  30.103  28.984  1.00  0.00     0.049 A 
ATOM     63  H   UNL A   1      45.402  28.269  28.567  1.00  0.00     0.167 HD
ATOM     64  C   UNL A   1      43.948  30.606  29.283  1.00  0.00     0.074 A 
ATOM     65  C   UNL A   1      42.848  31.488  29.614  1.00  0.00     0.031 C 
ATOM     66  C   UNL A   1      45.254  30.966  29.313  1.00  0.00     0.037 A 
BRANCH  53  67
ATOM     67  C   UNL A   1      49.188  26.468  27.764  1.00  0.00     0.064 A 
ATOM     68  C   UNL A   1      49.730  26.375  26.475  1.00  0.00     0.173 A 
ATOM     69  C   UNL A   1      50.043  26.240  28.854  1.00  0.00     0.173 A 
ATOM     70  F   UNL A   1      48.952  26.571  25.399  1.00  0.00    -0.203 F 
ATOM     71  C   UNL A   1      51.072  26.055  26.283  1.00  0.00     0.198 A 
ATOM     72  C   UNL A   1      51.390  25.946  28.660  1.00  0.00     0.198 A 
ATOM     73  F   UNL A   1      49.576  26.322  30.108  1.00  0.00    -0.203 F 
ATOM     74  F   UNL A   1      51.562  25.941  25.041  1.00  0.00    -0.200 F 
ATOM     75  C   UNL A   1      51.903  25.851  27.375  1.00  0.00     0.200 A 
ATOM     76  F   UNL A   1      52.193  25.762  29.717  1.00  0.00    -0.200 F 
ATOM     77  F   UNL A   1      53.198  25.560  27.189  1.00  0.00    -0.200 F 
ENDBRANCH  53  67
BRANCH  54  78
ATOM     78  C   UNL A   1      39.575  28.877  29.033  1.00  0.00     0.064 A 
ATOM     79  C   UNL A   1      38.827  29.313  27.932  1.00  0.00     0.173 A 
ATOM     80  C   UNL A   1      38.917  28.767  30.267  1.00  0.00     0.173 A 
ATOM     81  F   UNL A   1      39.416  29.455  26.735  1.00  0.00    -0.203 F 
ATOM     82  C   UNL A   1      37.474  29.624  28.059  1.00  0.00     0.198 A 
ATOM     83  C   UNL A   1      37.558  29.049  30.387  1.00  0.00     0.198 A 
ATOM     84  F   UNL A   1      39.589  28.352  31.351  1.00  0.00    -0.203 F 
ATOM     85  F   UNL A   1      36.788  30.065  26.996  1.00  0.00    -0.200 F 
ATOM     86  C   UNL A   1      36.840  29.482  29.284  1.00  0.00     0.200 A 
ATOM     87  F   UNL A   1      36.946  28.892  31.569  1.00  0.00    -0.200 F 
ATOM     88  F   UNL A   1      35.535  29.765  29.402  1.00  0.00    -0.200 F 
ENDBRANCH  54  78
BRANCH  66  89
ATOM     89  C   UNL A   1      45.571  32.377  29.710  1.00  0.00     0.064 A 
ATOM     90  C   UNL A   1      45.600  33.412  28.764  1.00  0.00     0.173 A 
ATOM     91  C   UNL A   1      45.783  32.708  31.057  1.00  0.00     0.173 A 
ATOM     92  F   UNL A   1      45.417  33.141  27.463  1.00  0.00    -0.203 F 
ATOM     93  C   UNL A   1      45.844  34.726  29.151  1.00  0.00     0.198 A 
ATOM     94  C   UNL A   1      46.000  34.026  31.443  1.00  0.00     0.198 A 
ATOM     95  F   UNL A   1      45.757  31.753  32.000  1.00  0.00    -0.203 F 
ATOM     96  F   UNL A   1      45.901  35.694  28.227  1.00  0.00    -0.200 F 
ATOM     97  C   UNL A   1      46.034  35.034  30.490  1.00  0.00     0.200 A 
ATOM     98  F   UNL A   1      46.169  34.324  32.738  1.00  0.00    -0.200 F 
ATOM     99  F   UNL A   1      46.255  36.302  30.862  1.00  0.00    -0.200 F 
ENDBRANCH  66  89
ENDBRANCH  40  41
ENDBRANCH  32  35
ENDBRANCH  30  31
ENDBRANCH  29  30
ENDBRANCH   1  29
TORSDOF 13
ENDMDL
