MODEL 1
REMARK VINA RESULT:     -12.6      0.000      0.000
REMARK SMILES Cc1ccc(Br)cc1S(=O)(=O)N[C@H]1C=C[C@H](C(=O)NCCCNC(=O)c2ccc(-c3c4nc(c(-c5c(F)c(F)c(F)c(F)c5F)c5ccc([nH]5)c(-c5c(F)c(F)c(F)c(F)c5F)c5nc(c(-c6c(F)c(F)c(F)c(F)c6F)c6ccc3[nH]6)C=C5)C=C4)cc2)C1
REMARK SMILES IDX 20 1 19 2 17 3 18 4 16 6 13 7 14 8 89 9 15 10 12 11 9 13
REMARK SMILES IDX 10 14 11 15 8 16 1 17 2 18 3 19 4 20 7 21 5 22 6 23 21 24
REMARK SMILES IDX 22 25 23 26 24 27 25 29 26 30 27 31 88 32 28 33 87 34 29 35
REMARK SMILES IDX 30 36 31 37 81 38 32 39 86 40 80 41 82 42 33 43 85 44 79 45
REMARK SMILES IDX 78 46 34 48 66 49 46 50 65 51 47 52 50 53 64 54 83 55 48 56
REMARK SMILES IDX 49 57 63 59 84 60 51 61 35 62 36 63 44 64 37 65 38 66 42 67
REMARK SMILES IDX 45 68 39 69 40 70 43 71 41 72 67 73 68 74 76 75 69 76 70 77
REMARK SMILES IDX 74 78 77 79 71 80 72 81 75 82 73 83 52 84 53 85 61 86 54 87
REMARK SMILES IDX 55 88 59 89 62 90 56 91 57 92 60 93 58 94
REMARK H PARENT 19 5 12 12 23 28 82 47 50 58
REMARK Flexibility Score: inf
ROOT
ATOM      1  C   UNL A   1      31.597  30.836  26.039  1.00  0.00     0.117 C 
ENDROOT
BRANCH   1   2
ATOM      2  N   UNL A   1      31.714  29.796  27.048  1.00  0.00    -0.356 N 
ATOM      3  C   UNL A   1      31.685  28.443  27.043  1.00  0.00     0.226 C 
ATOM      4  O   UNL A   1      31.628  27.915  28.162  1.00  0.00    -0.274 OA
ATOM      5  H   UNL A   1      31.843  30.164  27.952  1.00  0.00     0.163 HD
BRANCH   3   6
ATOM      6  C   UNL A   1      31.694  27.540  25.805  1.00  0.00     0.103 C 
ATOM      7  C   UNL A   1      32.315  25.203  26.053  1.00  0.00     0.093 C 
ATOM      8  C   UNL A   1      33.401  25.977  25.381  1.00  0.00    -0.011 C 
ATOM      9  C   UNL A   1      31.115  26.137  25.858  1.00  0.00     0.042 C 
ATOM     10  C   UNL A   1      33.078  27.274  25.288  1.00  0.00    -0.016 C 
BRANCH   7  11
ATOM     11  N   UNL A   1      32.095  23.936  25.401  1.00  0.00    -0.204 NA
ATOM     12  H   UNL A   1      31.281  24.056  24.797  1.00  0.00     0.142 HD
BRANCH  11  13
ATOM     13  S   UNL A   1      31.822  22.553  26.301  1.00  0.00     0.241 S 
ATOM     14  O   UNL A   1      30.529  22.042  25.881  1.00  0.00    -0.207 OA
ATOM     15  O   UNL A   1      32.097  22.875  27.676  1.00  0.00    -0.207 OA
BRANCH  13  16
ATOM     16  C   UNL A   1      33.066  21.389  25.760  1.00  0.00     0.086 A 
ATOM     17  C   UNL A   1      35.075  22.811  26.553  1.00  0.00     0.046 C 
ATOM     18  C   UNL A   1      34.449  21.635  25.858  1.00  0.00    -0.031 A 
ATOM     19  C   UNL A   1      35.333  20.695  25.291  1.00  0.00     0.006 A 
ATOM     20  C   UNL A   1      34.865  19.521  24.700  1.00  0.00     0.016 A 
ATOM     21  C   UNL A   1      32.599  20.193  25.184  1.00  0.00     0.037 A 
ATOM     22  C   UNL A   1      33.501  19.264  24.671  1.00  0.00     0.019 A 
ATOM     23  Br  UNL A   1      32.866  17.645  23.932  1.00  0.00    -0.051 Br
ENDBRANCH  13  16
ENDBRANCH  11  13
ENDBRANCH   7  11
ENDBRANCH   3   6
ENDBRANCH   1   2
BRANCH   1  24
ATOM     24  C   UNL A   1      31.406  32.210  26.667  1.00  0.00     0.042 C 
BRANCH  24  25
ATOM     25  C   UNL A   1      32.719  32.871  27.062  1.00  0.00     0.118 C 
BRANCH  25  26
ATOM     26  N   UNL A   1      32.523  34.201  27.625  1.00  0.00    -0.352 N 
ATOM     27  C   UNL A   1      33.107  34.793  28.716  1.00  0.00     0.251 C 
ATOM     28  H   UNL A   1      31.870  34.762  27.147  1.00  0.00     0.163 HD
ATOM     29  O   UNL A   1      32.655  35.847  29.154  1.00  0.00    -0.269 OA
BRANCH  27  30
ATOM     30  C   UNL A   1      34.273  34.164  29.372  1.00  0.00     0.039 A 
ATOM     31  C   UNL A   1      35.558  34.509  28.948  1.00  0.00     0.014 A 
ATOM     32  C   UNL A   1      34.100  33.213  30.380  1.00  0.00     0.014 A 
ATOM     33  C   UNL A   1      36.671  33.944  29.575  1.00  0.00     0.010 A 
ATOM     34  C   UNL A   1      35.205  32.720  31.064  1.00  0.00     0.010 A 
ATOM     35  C   UNL A   1      36.503  33.068  30.658  1.00  0.00    -0.014 A 
BRANCH  35  36
ATOM     36  C   UNL A   1      37.662  32.469  31.365  1.00  0.00     0.031 A 
ATOM     37  C   UNL A   1      38.420  31.337  30.728  1.00  0.00     0.074 A 
ATOM     38  C   UNL A   1      37.977  32.884  32.605  1.00  0.00     0.049 A 
ATOM     39  N   UNL A   1      39.377  30.594  31.225  1.00  0.00    -0.248 NA
ATOM     40  C   UNL A   1      38.020  30.961  29.362  1.00  0.00     0.031 C 
ATOM     41  C   UNL A   1      37.284  33.935  33.350  1.00  0.00     0.029 A 
ATOM     42  N   UNL A   1      38.958  32.459  33.467  1.00  0.00    -0.354 N 
ATOM     43  C   UNL A   1      39.661  29.646  30.252  1.00  0.00     0.074 A 
ATOM     44  C   UNL A   1      38.748  29.875  29.154  1.00  0.00     0.031 C 
ATOM     45  C   UNL A   1      37.874  34.090  34.546  1.00  0.00     0.029 A 
ATOM     46  C   UNL A   1      38.964  33.127  34.667  1.00  0.00     0.049 A 
ATOM     47  H   UNL A   1      39.595  31.742  33.247  1.00  0.00     0.167 HD
ATOM     48  C   UNL A   1      40.613  28.682  30.265  1.00  0.00     0.037 A 
ATOM     49  C   UNL A   1      39.758  32.974  35.742  1.00  0.00     0.037 A 
ATOM     50  C   UNL A   1      41.558  28.498  31.333  1.00  0.00     0.049 A 
ATOM     51  C   UNL A   1      40.842  31.931  35.710  1.00  0.00     0.074 A 
ATOM     52  C   UNL A   1      42.616  27.609  31.407  1.00  0.00     0.029 A 
ATOM     53  N   UNL A   1      41.565  29.230  32.512  1.00  0.00    -0.354 N 
ATOM     54  N   UNL A   1      41.139  31.077  34.761  1.00  0.00    -0.248 NA
ATOM     55  C   UNL A   1      41.703  31.834  36.897  1.00  0.00     0.031 C 
ATOM     56  C   UNL A   1      43.246  27.783  32.644  1.00  0.00     0.029 A 
ATOM     57  C   UNL A   1      42.603  28.805  33.323  1.00  0.00     0.049 A 
ATOM     58  H   UNL A   1      40.926  29.945  32.737  1.00  0.00     0.167 HD
ATOM     59  C   UNL A   1      42.234  30.360  35.224  1.00  0.00     0.074 A 
ATOM     60  C   UNL A   1      42.556  30.888  36.533  1.00  0.00     0.031 C 
ATOM     61  C   UNL A   1      42.912  29.354  34.619  1.00  0.00     0.037 A 
BRANCH  48  62
ATOM     62  C   UNL A   1      40.682  27.761  29.083  1.00  0.00     0.064 A 
ATOM     63  C   UNL A   1      39.844  26.640  28.971  1.00  0.00     0.173 A 
ATOM     64  C   UNL A   1      41.581  28.014  28.036  1.00  0.00     0.173 A 
ATOM     65  F   UNL A   1      38.976  26.346  29.951  1.00  0.00    -0.203 F 
ATOM     66  C   UNL A   1      39.927  25.791  27.871  1.00  0.00     0.198 A 
ATOM     67  C   UNL A   1      41.641  27.178  26.924  1.00  0.00     0.198 A 
ATOM     68  F   UNL A   1      42.402  29.074  28.090  1.00  0.00    -0.203 F 
ATOM     69  F   UNL A   1      39.153  24.698  27.812  1.00  0.00    -0.200 F 
ATOM     70  C   UNL A   1      40.820  26.062  26.846  1.00  0.00     0.200 A 
ATOM     71  F   UNL A   1      42.497  27.448  25.929  1.00  0.00    -0.200 F 
ATOM     72  F   UNL A   1      40.895  25.246  25.787  1.00  0.00    -0.200 F 
ENDBRANCH  48  62
BRANCH  49  73
ATOM     73  C   UNL A   1      39.586  33.858  36.921  1.00  0.00     0.064 A 
ATOM     74  C   UNL A   1      40.182  35.126  36.957  1.00  0.00     0.173 A 
ATOM     75  C   UNL A   1      38.823  33.464  38.029  1.00  0.00     0.173 A 
ATOM     76  F   UNL A   1      40.939  35.538  35.928  1.00  0.00    -0.203 F 
ATOM     77  C   UNL A   1      40.036  35.960  38.062  1.00  0.00     0.198 A 
ATOM     78  C   UNL A   1      38.657  34.309  39.125  1.00  0.00     0.198 A 
ATOM     79  F   UNL A   1      38.228  32.262  38.041  1.00  0.00    -0.203 F 
ATOM     80  F   UNL A   1      40.650  37.151  38.086  1.00  0.00    -0.200 F 
ATOM     81  C   UNL A   1      39.269  35.553  39.144  1.00  0.00     0.200 A 
ATOM     82  F   UNL A   1      37.907  33.917  40.164  1.00  0.00    -0.200 F 
ATOM     83  F   UNL A   1      39.127  36.357  40.206  1.00  0.00    -0.200 F 
ENDBRANCH  49  73
BRANCH  61  84
ATOM     84  C   UNL A   1      44.087  28.783  35.352  1.00  0.00     0.064 A 
ATOM     85  C   UNL A   1      43.945  27.703  36.235  1.00  0.00     0.173 A 
ATOM     86  C   UNL A   1      45.375  29.295  35.137  1.00  0.00     0.173 A 
ATOM     87  F   UNL A   1      42.730  27.191  36.485  1.00  0.00    -0.203 F 
ATOM     88  C   UNL A   1      45.050  27.169  36.892  1.00  0.00     0.198 A 
ATOM     89  C   UNL A   1      46.480  28.742  35.776  1.00  0.00     0.198 A 
ATOM     90  F   UNL A   1      45.561  30.324  34.296  1.00  0.00    -0.203 F 
ATOM     91  F   UNL A   1      44.887  26.162  37.762  1.00  0.00    -0.200 F 
ATOM     92  C   UNL A   1      46.316  27.684  36.657  1.00  0.00     0.200 A 
ATOM     93  F   UNL A   1      47.704  29.234  35.541  1.00  0.00    -0.200 F 
ATOM     94  F   UNL A   1      47.378  27.164  37.286  1.00  0.00    -0.200 F 
ENDBRANCH  61  84
ENDBRANCH  35  36
ENDBRANCH  27  30
ENDBRANCH  25  26
ENDBRANCH  24  25
ENDBRANCH   1  24
TORSDOF 13
ENDMDL
MODEL 2
REMARK VINA RESULT:     -12.4      1.353      2.014
REMARK SMILES Cc1ccc(Br)cc1S(=O)(=O)N[C@H]1C=C[C@H](C(=O)NCCCNC(=O)c2ccc(-c3c4nc(c(-c5c(F)c(F)c(F)c(F)c5F)c5ccc([nH]5)c(-c5c(F)c(F)c(F)c(F)c5F)c5nc(c(-c6c(F)c(F)c(F)c(F)c6F)c6ccc3[nH]6)C=C5)C=C4)cc2)C1
REMARK SMILES IDX 20 1 19 2 17 3 18 4 16 6 13 7 14 8 89 9 15 10 12 11 9 13
REMARK SMILES IDX 10 14 11 15 8 16 1 17 2 18 3 19 4 20 7 21 5 22 6 23 21 24
REMARK SMILES IDX 22 25 23 26 24 27 25 29 26 30 27 31 88 32 28 33 87 34 29 35
REMARK SMILES IDX 30 36 31 37 81 38 32 39 86 40 80 41 82 42 33 43 85 44 79 45
REMARK SMILES IDX 78 46 34 48 66 49 46 50 65 51 47 52 50 53 64 54 83 55 48 56
REMARK SMILES IDX 49 57 63 59 84 60 51 61 35 62 36 63 44 64 37 65 38 66 42 67
REMARK SMILES IDX 45 68 39 69 40 70 43 71 41 72 67 73 68 74 76 75 69 76 70 77
REMARK SMILES IDX 74 78 77 79 71 80 72 81 75 82 73 83 52 84 53 85 61 86 54 87
REMARK SMILES IDX 55 88 59 89 62 90 56 91 57 92 60 93 58 94
REMARK H PARENT 19 5 12 12 23 28 82 47 50 58
REMARK Flexibility Score: inf
ROOT
ATOM      1  C   UNL A   1      31.380  30.853  26.496  1.00  0.00     0.117 C 
ENDROOT
BRANCH   1   2
ATOM      2  N   UNL A   1      32.002  30.295  25.307  1.00  0.00    -0.356 N 
ATOM      3  C   UNL A   1      31.801  29.198  24.539  1.00  0.00     0.226 C 
ATOM      4  O   UNL A   1      32.686  28.973  23.703  1.00  0.00    -0.274 OA
ATOM      5  H   UNL A   1      32.750  30.847  24.982  1.00  0.00     0.163 HD
BRANCH   3   6
ATOM      6  C   UNL A   1      30.616  28.231  24.634  1.00  0.00     0.103 C 
ATOM      7  C   UNL A   1      31.049  25.841  24.727  1.00  0.00     0.093 C 
ATOM      8  C   UNL A   1      30.501  26.233  23.395  1.00  0.00    -0.011 C 
ATOM      9  C   UNL A   1      30.649  27.047  25.585  1.00  0.00     0.042 C 
ATOM     10  C   UNL A   1      30.307  27.558  23.328  1.00  0.00    -0.016 C 
BRANCH   7  11
ATOM     11  N   UNL A   1      30.428  24.633  25.213  1.00  0.00    -0.204 NA
ATOM     12  H   UNL A   1      29.677  24.924  25.841  1.00  0.00     0.142 HD
BRANCH  11  13
ATOM     13  S   UNL A   1      31.325  23.489  26.039  1.00  0.00     0.241 S 
ATOM     14  O   UNL A   1      30.572  22.250  25.965  1.00  0.00    -0.207 OA
ATOM     15  O   UNL A   1      31.703  24.069  27.300  1.00  0.00    -0.207 OA
BRANCH  13  16
ATOM     16  C   UNL A   1      32.815  23.276  25.074  1.00  0.00     0.086 A 
ATOM     17  C   UNL A   1      31.587  22.624  22.893  1.00  0.00     0.046 C 
ATOM     18  C   UNL A   1      32.812  22.832  23.737  1.00  0.00    -0.031 A 
ATOM     19  C   UNL A   1      34.054  22.591  23.116  1.00  0.00     0.006 A 
ATOM     20  C   UNL A   1      35.259  22.837  23.776  1.00  0.00     0.016 A 
ATOM     21  C   UNL A   1      34.030  23.546  25.728  1.00  0.00     0.037 A 
ATOM     22  C   UNL A   1      35.240  23.337  25.071  1.00  0.00     0.019 A 
ATOM     23  Br  UNL A   1      36.867  23.736  25.946  1.00  0.00    -0.051 Br
ENDBRANCH  13  16
ENDBRANCH  11  13
ENDBRANCH   7  11
ENDBRANCH   3   6
ENDBRANCH   1   2
BRANCH   1  24
ATOM     24  C   UNL A   1      31.425  32.376  26.492  1.00  0.00     0.042 C 
BRANCH  24  25
ATOM     25  C   UNL A   1      32.638  32.937  27.221  1.00  0.00     0.118 C 
BRANCH  25  26
ATOM     26  N   UNL A   1      32.434  34.312  27.658  1.00  0.00    -0.352 N 
ATOM     27  C   UNL A   1      33.009  35.002  28.696  1.00  0.00     0.251 C 
ATOM     28  H   UNL A   1      31.785  34.825  27.127  1.00  0.00     0.163 HD
ATOM     29  O   UNL A   1      32.552  36.091  29.032  1.00  0.00    -0.269 OA
BRANCH  27  30
ATOM     30  C   UNL A   1      34.172  34.440  29.415  1.00  0.00     0.039 A 
ATOM     31  C   UNL A   1      33.967  33.791  30.635  1.00  0.00     0.014 A 
ATOM     32  C   UNL A   1      35.464  34.579  28.905  1.00  0.00     0.014 A 
ATOM     33  C   UNL A   1      35.051  33.232  31.314  1.00  0.00     0.010 A 
ATOM     34  C   UNL A   1      36.529  33.945  29.533  1.00  0.00     0.010 A 
ATOM     35  C   UNL A   1      36.336  33.278  30.753  1.00  0.00    -0.014 A 
BRANCH  35  36
ATOM     36  C   UNL A   1      37.507  32.671  31.433  1.00  0.00     0.031 A 
ATOM     37  C   UNL A   1      38.257  31.550  30.767  1.00  0.00     0.074 A 
ATOM     38  C   UNL A   1      37.842  33.067  32.674  1.00  0.00     0.049 A 
ATOM     39  N   UNL A   1      39.222  30.800  31.237  1.00  0.00    -0.248 NA
ATOM     40  C   UNL A   1      37.836  31.194  29.402  1.00  0.00     0.031 C 
ATOM     41  C   UNL A   1      37.159  34.106  33.446  1.00  0.00     0.029 A 
ATOM     42  N   UNL A   1      38.836  32.630  33.514  1.00  0.00    -0.354 N 
ATOM     43  C   UNL A   1      39.492  29.868  30.246  1.00  0.00     0.074 A 
ATOM     44  C   UNL A   1      38.562  30.113  29.165  1.00  0.00     0.031 C 
ATOM     45  C   UNL A   1      37.768  34.243  34.634  1.00  0.00     0.029 A 
ATOM     46  C   UNL A   1      38.860  33.279  34.724  1.00  0.00     0.049 A 
ATOM     47  H   UNL A   1      39.471  31.918  33.272  1.00  0.00     0.167 HD
ATOM     48  C   UNL A   1      40.445  28.905  30.228  1.00  0.00     0.037 A 
ATOM     49  C   UNL A   1      39.672  33.112  35.783  1.00  0.00     0.037 A 
ATOM     50  C   UNL A   1      41.408  28.706  31.279  1.00  0.00     0.049 A 
ATOM     51  C   UNL A   1      40.756  32.071  35.719  1.00  0.00     0.074 A 
ATOM     52  C   UNL A   1      42.468  27.818  31.323  1.00  0.00     0.029 A 
ATOM     53  N   UNL A   1      41.432  29.420  32.468  1.00  0.00    -0.354 N 
ATOM     54  N   UNL A   1      41.040  31.232  34.753  1.00  0.00    -0.248 NA
ATOM     55  C   UNL A   1      41.636  31.957  36.890  1.00  0.00     0.031 C 
ATOM     56  C   UNL A   1      43.117  27.974  32.552  1.00  0.00     0.029 A 
ATOM     57  C   UNL A   1      42.484  28.985  33.257  1.00  0.00     0.049 A 
ATOM     58  H   UNL A   1      40.796  30.130  32.714  1.00  0.00     0.167 HD
ATOM     59  C   UNL A   1      42.143  30.510  35.187  1.00  0.00     0.074 A 
ATOM     60  C   UNL A   1      42.484  31.019  36.499  1.00  0.00     0.031 C 
ATOM     61  C   UNL A   1      42.812  29.515  34.556  1.00  0.00     0.037 A 
BRANCH  48  62
ATOM     62  C   UNL A   1      40.497  28.002  29.031  1.00  0.00     0.064 A 
ATOM     63  C   UNL A   1      41.266  28.320  27.902  1.00  0.00     0.173 A 
ATOM     64  C   UNL A   1      39.788  26.792  29.022  1.00  0.00     0.173 A 
ATOM     65  F   UNL A   1      41.953  29.472  27.855  1.00  0.00    -0.203 F 
ATOM     66  C   UNL A   1      41.298  27.475  26.795  1.00  0.00     0.198 A 
ATOM     67  C   UNL A   1      39.845  25.936  27.925  1.00  0.00     0.198 A 
ATOM     68  F   UNL A   1      39.040  26.438  30.079  1.00  0.00    -0.203 F 
ATOM     69  F   UNL A   1      41.998  27.826  25.708  1.00  0.00    -0.200 F 
ATOM     70  C   UNL A   1      40.593  26.282  26.810  1.00  0.00     0.200 A 
ATOM     71  F   UNL A   1      39.171  24.777  27.945  1.00  0.00    -0.200 F 
ATOM     72  F   UNL A   1      40.627  25.469  25.746  1.00  0.00    -0.200 F 
ENDBRANCH  48  62
BRANCH  49  73
ATOM     73  C   UNL A   1      39.517  33.977  36.979  1.00  0.00     0.064 A 
ATOM     74  C   UNL A   1      40.121  35.241  37.029  1.00  0.00     0.173 A 
ATOM     75  C   UNL A   1      38.763  33.570  38.088  1.00  0.00     0.173 A 
ATOM     76  F   UNL A   1      40.870  35.666  35.999  1.00  0.00    -0.203 F 
ATOM     77  C   UNL A   1      39.992  36.058  38.149  1.00  0.00     0.198 A 
ATOM     78  C   UNL A   1      38.614  34.397  39.199  1.00  0.00     0.198 A 
ATOM     79  F   UNL A   1      38.161  32.371  38.087  1.00  0.00    -0.203 F 
ATOM     80  F   UNL A   1      40.613  37.245  38.186  1.00  0.00    -0.200 F 
ATOM     81  C   UNL A   1      39.234  35.638  39.232  1.00  0.00     0.200 A 
ATOM     82  F   UNL A   1      37.872  33.993  40.240  1.00  0.00    -0.200 F 
ATOM     83  F   UNL A   1      39.107  36.425  40.309  1.00  0.00    -0.200 F 
ENDBRANCH  49  73
BRANCH  61  84
ATOM     84  C   UNL A   1      43.999  28.934  35.261  1.00  0.00     0.064 A 
ATOM     85  C   UNL A   1      43.864  27.879  36.175  1.00  0.00     0.173 A 
ATOM     86  C   UNL A   1      45.290  29.410  34.988  1.00  0.00     0.173 A 
ATOM     87  F   UNL A   1      42.648  27.403  36.481  1.00  0.00    -0.203 F 
ATOM     88  C   UNL A   1      44.979  27.336  36.807  1.00  0.00     0.198 A 
ATOM     89  C   UNL A   1      46.405  28.847  35.602  1.00  0.00     0.198 A 
ATOM     90  F   UNL A   1      45.469  30.414  34.116  1.00  0.00    -0.203 F 
ATOM     91  F   UNL A   1      44.825  26.355  37.707  1.00  0.00    -0.200 F 
ATOM     92  C   UNL A   1      46.248  27.815  36.515  1.00  0.00     0.200 A 
ATOM     93  F   UNL A   1      47.630  29.304  35.312  1.00  0.00    -0.200 F 
ATOM     94  F   UNL A   1      47.320  27.286  37.119  1.00  0.00    -0.200 F 
ENDBRANCH  61  84
ENDBRANCH  35  36
ENDBRANCH  27  30
ENDBRANCH  25  26
ENDBRANCH  24  25
ENDBRANCH   1  24
TORSDOF 13
ENDMDL
MODEL 3
REMARK VINA RESULT:     -12.4      5.863     11.237
REMARK SMILES Cc1ccc(Br)cc1S(=O)(=O)N[C@H]1C=C[C@H](C(=O)NCCCNC(=O)c2ccc(-c3c4nc(c(-c5c(F)c(F)c(F)c(F)c5F)c5ccc([nH]5)c(-c5c(F)c(F)c(F)c(F)c5F)c5nc(c(-c6c(F)c(F)c(F)c(F)c6F)c6ccc3[nH]6)C=C5)C=C4)cc2)C1
REMARK SMILES IDX 20 1 19 2 17 3 18 4 16 6 13 7 14 8 89 9 15 10 12 11 9 13
REMARK SMILES IDX 10 14 11 15 8 16 1 17 2 18 3 19 4 20 7 21 5 22 6 23 21 24
REMARK SMILES IDX 22 25 23 26 24 27 25 29 26 30 27 31 88 32 28 33 87 34 29 35
REMARK SMILES IDX 30 36 31 37 81 38 32 39 86 40 80 41 82 42 33 43 85 44 79 45
REMARK SMILES IDX 78 46 34 48 66 49 46 50 65 51 47 52 50 53 64 54 83 55 48 56
REMARK SMILES IDX 49 57 63 59 84 60 51 61 35 62 36 63 44 64 37 65 38 66 42 67
REMARK SMILES IDX 45 68 39 69 40 70 43 71 41 72 67 73 68 74 76 75 69 76 70 77
REMARK SMILES IDX 74 78 77 79 71 80 72 81 75 82 73 83 52 84 53 85 61 86 54 87
REMARK SMILES IDX 55 88 59 89 62 90 56 91 57 92 60 93 58 94
REMARK H PARENT 19 5 12 12 23 28 82 47 50 58
REMARK Flexibility Score: inf
ROOT
ATOM      1  C   UNL A   1      36.811  20.051  24.944  1.00  0.00     0.117 C 
ENDROOT
BRANCH   1   2
ATOM      2  N   UNL A   1      37.083  21.407  24.498  1.00  0.00    -0.356 N 
ATOM      3  C   UNL A   1      36.334  22.437  24.037  1.00  0.00     0.226 C 
ATOM      4  O   UNL A   1      36.979  23.387  23.571  1.00  0.00    -0.274 OA
ATOM      5  H   UNL A   1      38.041  21.630  24.539  1.00  0.00     0.163 HD
BRANCH   3   6
ATOM      6  C   UNL A   1      34.804  22.512  24.024  1.00  0.00     0.103 C 
ATOM      7  C   UNL A   1      33.730  24.594  23.379  1.00  0.00     0.093 C 
ATOM      8  C   UNL A   1      33.612  24.365  24.849  1.00  0.00    -0.011 C 
ATOM      9  C   UNL A   1      34.065  23.184  22.880  1.00  0.00     0.042 C 
ATOM     10  C   UNL A   1      34.246  23.241  25.212  1.00  0.00    -0.016 C 
BRANCH   7  11
ATOM     11  N   UNL A   1      32.483  25.057  22.820  1.00  0.00    -0.204 NA
ATOM     12  H   UNL A   1      32.074  24.264  22.323  1.00  0.00     0.142 HD
BRANCH  11  13
ATOM     13  S   UNL A   1      32.454  26.351  21.761  1.00  0.00     0.241 S 
ATOM     14  O   UNL A   1      31.517  25.996  20.710  1.00  0.00    -0.207 OA
ATOM     15  O   UNL A   1      33.820  26.697  21.471  1.00  0.00    -0.207 OA
BRANCH  13  16
ATOM     16  C   UNL A   1      31.740  27.700  22.691  1.00  0.00     0.086 A 
ATOM     17  C   UNL A   1      33.836  28.114  24.146  1.00  0.00     0.046 C 
ATOM     18  C   UNL A   1      32.406  28.347  23.749  1.00  0.00    -0.031 A 
ATOM     19  C   UNL A   1      31.699  29.319  24.484  1.00  0.00     0.006 A 
ATOM     20  C   UNL A   1      30.394  29.681  24.145  1.00  0.00     0.016 A 
ATOM     21  C   UNL A   1      30.434  28.084  22.337  1.00  0.00     0.037 A 
ATOM     22  C   UNL A   1      29.777  29.078  23.057  1.00  0.00     0.019 A 
ATOM     23  Br  UNL A   1      28.036  29.612  22.553  1.00  0.00    -0.051 Br
ENDBRANCH  13  16
ENDBRANCH  11  13
ENDBRANCH   7  11
ENDBRANCH   3   6
ENDBRANCH   1   2
BRANCH   1  24
ATOM     24  C   UNL A   1      38.074  19.200  24.957  1.00  0.00     0.042 C 
BRANCH  24  25
ATOM     25  C   UNL A   1      39.222  19.852  25.716  1.00  0.00     0.118 C 
BRANCH  25  26
ATOM     26  N   UNL A   1      40.362  18.958  25.870  1.00  0.00    -0.352 N 
ATOM     27  C   UNL A   1      41.688  19.246  26.077  1.00  0.00     0.251 C 
ATOM     28  H   UNL A   1      40.148  17.999  25.818  1.00  0.00     0.163 HD
ATOM     29  O   UNL A   1      42.529  18.357  25.973  1.00  0.00    -0.269 OA
BRANCH  27  30
ATOM     30  C   UNL A   1      42.109  20.620  26.419  1.00  0.00     0.039 A 
ATOM     31  C   UNL A   1      42.317  20.953  27.759  1.00  0.00     0.014 A 
ATOM     32  C   UNL A   1      42.268  21.588  25.424  1.00  0.00     0.014 A 
ATOM     33  C   UNL A   1      42.741  22.241  28.097  1.00  0.00     0.010 A 
ATOM     34  C   UNL A   1      42.776  22.840  25.751  1.00  0.00     0.010 A 
ATOM     35  C   UNL A   1      43.002  23.185  27.092  1.00  0.00    -0.014 A 
BRANCH  35  36
ATOM     36  C   UNL A   1      43.480  24.553  27.412  1.00  0.00     0.031 A 
ATOM     37  C   UNL A   1      42.511  25.575  27.943  1.00  0.00     0.074 A 
ATOM     38  C   UNL A   1      44.752  24.898  27.148  1.00  0.00     0.049 A 
ATOM     39  N   UNL A   1      42.690  26.852  28.165  1.00  0.00    -0.248 NA
ATOM     40  C   UNL A   1      41.144  25.106  28.221  1.00  0.00     0.031 C 
ATOM     41  C   UNL A   1      45.771  24.013  26.582  1.00  0.00     0.029 A 
ATOM     42  N   UNL A   1      45.405  26.095  27.307  1.00  0.00    -0.354 N 
ATOM     43  C   UNL A   1      41.456  27.342  28.569  1.00  0.00     0.074 A 
ATOM     44  C   UNL A   1      40.523  26.237  28.519  1.00  0.00     0.031 C 
ATOM     45  C   UNL A   1      46.926  24.688  26.465  1.00  0.00     0.029 A 
ATOM     46  C   UNL A   1      46.720  26.062  26.913  1.00  0.00     0.049 A 
ATOM     47  H   UNL A   1      44.972  26.901  27.670  1.00  0.00     0.167 HD
ATOM     48  C   UNL A   1      41.133  28.595  28.966  1.00  0.00     0.037 A 
ATOM     49  C   UNL A   1      47.651  27.033  26.910  1.00  0.00     0.037 A 
ATOM     50  C   UNL A   1      42.078  29.674  29.074  1.00  0.00     0.049 A 
ATOM     51  C   UNL A   1      47.280  28.405  27.406  1.00  0.00     0.074 A 
ATOM     52  C   UNL A   1      41.873  30.958  29.548  1.00  0.00     0.029 A 
ATOM     53  N   UNL A   1      43.415  29.588  28.713  1.00  0.00    -0.354 N 
ATOM     54  N   UNL A   1      46.123  28.842  27.840  1.00  0.00    -0.248 NA
ATOM     55  C   UNL A   1      48.347  29.416  27.416  1.00  0.00     0.031 C 
ATOM     56  C   UNL A   1      43.080  31.658  29.446  1.00  0.00     0.029 A 
ATOM     57  C   UNL A   1      44.045  30.799  28.945  1.00  0.00     0.049 A 
ATOM     58  H   UNL A   1      43.850  28.784  28.347  1.00  0.00     0.167 HD
ATOM     59  C   UNL A   1      46.327  30.167  28.198  1.00  0.00     0.074 A 
ATOM     60  C   UNL A   1      47.722  30.459  27.942  1.00  0.00     0.031 C 
ATOM     61  C   UNL A   1      45.438  31.063  28.693  1.00  0.00     0.037 A 
BRANCH  48  62
ATOM     62  C   UNL A   1      39.700  28.862  29.323  1.00  0.00     0.064 A 
ATOM     63  C   UNL A   1      39.214  28.658  30.623  1.00  0.00     0.173 A 
ATOM     64  C   UNL A   1      38.806  29.351  28.358  1.00  0.00     0.173 A 
ATOM     65  F   UNL A   1      40.024  28.179  31.579  1.00  0.00    -0.203 F 
ATOM     66  C   UNL A   1      37.880  28.903  30.936  1.00  0.00     0.198 A 
ATOM     67  C   UNL A   1      37.479  29.622  28.682  1.00  0.00     0.198 A 
ATOM     68  F   UNL A   1      39.221  29.568  27.100  1.00  0.00    -0.203 F 
ATOM     69  F   UNL A   1      37.427  28.651  32.172  1.00  0.00    -0.200 F 
ATOM     70  C   UNL A   1      37.015  29.390  29.968  1.00  0.00     0.200 A 
ATOM     71  F   UNL A   1      36.648  30.104  27.748  1.00  0.00    -0.200 F 
ATOM     72  F   UNL A   1      35.732  29.628  30.272  1.00  0.00    -0.200 F 
ENDBRANCH  48  62
BRANCH  49  73
ATOM     73  C   UNL A   1      49.033  26.733  26.462  1.00  0.00     0.064 A 
ATOM     74  C   UNL A   1      49.995  26.271  27.373  1.00  0.00     0.173 A 
ATOM     75  C   UNL A   1      49.423  26.892  25.126  1.00  0.00     0.173 A 
ATOM     76  F   UNL A   1      49.673  26.124  28.667  1.00  0.00    -0.203 F 
ATOM     77  C   UNL A   1      51.298  25.997  26.966  1.00  0.00     0.198 A 
ATOM     78  C   UNL A   1      50.721  26.594  24.715  1.00  0.00     0.198 A 
ATOM     79  F   UNL A   1      48.539  27.327  24.216  1.00  0.00    -0.203 F 
ATOM     80  F   UNL A   1      52.207  25.594  27.866  1.00  0.00    -0.200 F 
ATOM     81  C   UNL A   1      51.659  26.153  25.637  1.00  0.00     0.200 A 
ATOM     82  F   UNL A   1      51.064  26.736  23.427  1.00  0.00    -0.200 F 
ATOM     83  F   UNL A   1      52.912  25.885  25.245  1.00  0.00    -0.200 F 
ENDBRANCH  49  73
BRANCH  61  84
ATOM     84  C   UNL A   1      45.955  32.430  29.021  1.00  0.00     0.064 A 
ATOM     85  C   UNL A   1      45.915  33.472  28.083  1.00  0.00     0.173 A 
ATOM     86  C   UNL A   1      46.457  32.711  30.300  1.00  0.00     0.173 A 
ATOM     87  F   UNL A   1      45.459  33.246  26.842  1.00  0.00    -0.203 F 
ATOM     88  C   UNL A   1      46.379  34.743  28.410  1.00  0.00     0.198 A 
ATOM     89  C   UNL A   1      46.896  33.989  30.631  1.00  0.00     0.198 A 
ATOM     90  F   UNL A   1      46.509  31.747  31.232  1.00  0.00    -0.203 F 
ATOM     91  F   UNL A   1      46.369  35.715  27.487  1.00  0.00    -0.200 F 
ATOM     92  C   UNL A   1      46.862  35.003  29.684  1.00  0.00     0.200 A 
ATOM     93  F   UNL A   1      47.354  34.241  31.865  1.00  0.00    -0.200 F 
ATOM     94  F   UNL A   1      47.302  36.228  29.998  1.00  0.00    -0.200 F 
ENDBRANCH  61  84
ENDBRANCH  35  36
ENDBRANCH  27  30
ENDBRANCH  25  26
ENDBRANCH  24  25
ENDBRANCH   1  24
TORSDOF 13
ENDMDL
