MODEL 1
REMARK VINA RESULT:     -12.1      0.000      0.000
REMARK SMILES C[C@H]([C@@H](C)C(=O)NCCCNC(=O)c1ccc(-c2c3nc(c(-c4c(F)c(F)c(F)c(F)c4F)c4ccc([nH]4)c(-c4c(F)c(F)c(F)c(F)c4F)c4nc(c(-c5c(F)c(F)c(F)c(F)c5F)c5ccc2[nH]5)C=C4)C=C3)cc1)[NH+]1CCN(c2nccs2)CC1
REMARK SMILES IDX 8 1 7 2 5 3 6 4 3 6 4 7 2 8 1 9 77 10 78 11 87 12 79 14
REMARK SMILES IDX 86 15 80 16 81 17 82 18 85 19 83 20 84 21 9 22 10 23 11 24
REMARK SMILES IDX 12 25 13 27 14 28 15 29 76 30 16 31 75 32 17 33 18 34 19 35
REMARK SMILES IDX 69 36 20 37 74 38 68 39 70 40 21 41 73 42 67 43 66 44 22 46
REMARK SMILES IDX 54 47 34 48 53 49 35 50 38 51 52 52 71 53 36 54 37 55 51 57
REMARK SMILES IDX 72 58 39 59 23 60 24 61 32 62 25 63 26 64 30 65 33 66 27 67
REMARK SMILES IDX 28 68 31 69 29 70 55 71 56 72 64 73 57 74 58 75 62 76 65 77
REMARK SMILES IDX 59 78 60 79 63 80 61 81 40 82 41 83 49 84 42 85 43 86 47 87
REMARK SMILES IDX 50 88 44 89 45 90 48 91 46 92
REMARK H PARENT 7 5 77 13 11 26 70 45 38 56
REMARK Flexibility Score: inf
ROOT
ATOM      1  C   UNL A   1      36.852  20.699  25.054  1.00  0.00     0.117 C 
ENDROOT
BRANCH   1   2
ATOM      2  N   UNL A   1      37.165  21.965  25.685  1.00  0.00    -0.356 N 
ATOM      3  C   UNL A   1      36.543  23.173  25.628  1.00  0.00     0.228 C 
ATOM      4  O   UNL A   1      37.096  24.112  26.208  1.00  0.00    -0.275 OA
ATOM      5  H   UNL A   1      37.969  21.949  26.252  1.00  0.00     0.163 HD
BRANCH   3   6
ATOM      6  C   UNL A   1      35.169  23.355  24.989  1.00  0.00     0.133 C 
ATOM      7  C   UNL A   1      35.361  23.683  23.501  1.00  0.00     0.024 C 
BRANCH   6   8
ATOM      8  C   UNL A   1      34.200  24.310  25.756  1.00  0.00     0.193 C 
ATOM      9  C   UNL A   1      33.908  25.559  24.913  1.00  0.00     0.076 C 
BRANCH   8  10
ATOM     10  N   UNL A   1      33.024  23.574  26.259  1.00  0.00    -0.329 N 
ATOM     11  C   UNL A   1      32.049  23.152  25.238  1.00  0.00     0.284 C 
ATOM     12  C   UNL A   1      33.270  22.446  27.177  1.00  0.00     0.284 C 
ATOM     13  H   UNL A   1      32.614  24.321  26.818  1.00  0.00     0.348 HD
ATOM     14  C   UNL A   1      32.368  21.852  24.475  1.00  0.00     0.180 C 
ATOM     15  C   UNL A   1      33.591  21.078  26.532  1.00  0.00     0.180 C 
ATOM     16  N   UNL A   1      32.734  20.769  25.381  1.00  0.00    -0.337 N 
BRANCH  16  17
ATOM     17  C   UNL A   1      32.645  19.466  25.001  1.00  0.00     0.185 A 
ATOM     18  N   UNL A   1      32.674  18.465  25.855  1.00  0.00    -0.229 NA
ATOM     19  S   UNL A   1      32.528  18.962  23.342  1.00  0.00    -0.106 S 
ATOM     20  C   UNL A   1      32.528  17.258  25.205  1.00  0.00     0.125 A 
ATOM     21  C   UNL A   1      32.480  17.325  23.833  1.00  0.00     0.088 A 
ENDBRANCH  16  17
ENDBRANCH   8  10
ENDBRANCH   6   8
ENDBRANCH   3   6
ENDBRANCH   1   2
BRANCH   1  22
ATOM     22  C   UNL A   1      38.112  19.872  24.839  1.00  0.00     0.042 C 
BRANCH  22  23
ATOM     23  C   UNL A   1      39.229  20.237  25.805  1.00  0.00     0.118 C 
BRANCH  23  24
ATOM     24  N   UNL A   1      40.196  19.156  25.956  1.00  0.00    -0.352 N 
ATOM     25  C   UNL A   1      41.559  19.218  26.112  1.00  0.00     0.251 C 
ATOM     26  H   UNL A   1      39.815  18.248  25.942  1.00  0.00     0.163 HD
ATOM     27  O   UNL A   1      42.244  18.212  25.990  1.00  0.00    -0.269 OA
BRANCH  25  28
ATOM     28  C   UNL A   1      42.193  20.515  26.420  1.00  0.00     0.039 A 
ATOM     29  C   UNL A   1      42.692  21.299  25.376  1.00  0.00     0.014 A 
ATOM     30  C   UNL A   1      42.286  20.954  27.742  1.00  0.00     0.014 A 
ATOM     31  C   UNL A   1      43.221  22.559  25.653  1.00  0.00     0.010 A 
ATOM     32  C   UNL A   1      42.731  22.242  28.007  1.00  0.00     0.010 A 
ATOM     33  C   UNL A   1      43.209  23.055  26.966  1.00  0.00    -0.014 A 
BRANCH  33  34
ATOM     34  C   UNL A   1      43.701  24.412  27.303  1.00  0.00     0.031 A 
ATOM     35  C   UNL A   1      42.731  25.450  27.786  1.00  0.00     0.074 A 
ATOM     36  C   UNL A   1      44.983  24.740  27.056  1.00  0.00     0.049 A 
ATOM     37  N   UNL A   1      42.904  26.736  27.957  1.00  0.00    -0.248 NA
ATOM     38  C   UNL A   1      41.366  24.983  28.075  1.00  0.00     0.031 C 
ATOM     39  C   UNL A   1      46.006  23.827  26.545  1.00  0.00     0.029 A 
ATOM     40  N   UNL A   1      45.634  25.943  27.168  1.00  0.00    -0.354 N 
ATOM     41  C   UNL A   1      41.667  27.232  28.342  1.00  0.00     0.074 A 
ATOM     42  C   UNL A   1      40.740  26.122  28.326  1.00  0.00     0.031 C 
ATOM     43  C   UNL A   1      47.154  24.503  26.383  1.00  0.00     0.029 A 
ATOM     44  C   UNL A   1      46.935  25.904  26.731  1.00  0.00     0.049 A 
ATOM     45  H   UNL A   1      45.209  26.755  27.528  1.00  0.00     0.167 HD
ATOM     46  C   UNL A   1      41.340  28.498  28.695  1.00  0.00     0.037 A 
ATOM     47  C   UNL A   1      47.840  26.892  26.595  1.00  0.00     0.037 A 
ATOM     48  C   UNL A   1      42.277  29.589  28.726  1.00  0.00     0.049 A 
ATOM     49  C   UNL A   1      47.458  28.294  26.987  1.00  0.00     0.074 A 
ATOM     50  C   UNL A   1      42.071  30.894  29.134  1.00  0.00     0.029 A 
ATOM     51  N   UNL A   1      43.603  29.500  28.321  1.00  0.00    -0.354 N 
ATOM     52  N   UNL A   1      46.305  28.744  27.417  1.00  0.00    -0.248 NA
ATOM     53  C   UNL A   1      48.501  29.323  26.879  1.00  0.00     0.031 C 
ATOM     54  C   UNL A   1      43.254  31.608  28.922  1.00  0.00     0.029 A 
ATOM     55  C   UNL A   1      44.218  30.735  28.444  1.00  0.00     0.049 A 
ATOM     56  H   UNL A   1      44.041  28.681  27.996  1.00  0.00     0.167 HD
ATOM     57  C   UNL A   1      46.489  30.099  27.661  1.00  0.00     0.074 A 
ATOM     58  C   UNL A   1      47.868  30.397  27.331  1.00  0.00     0.031 C 
ATOM     59  C   UNL A   1      45.597  31.011  28.121  1.00  0.00     0.037 A 
BRANCH  46  60
ATOM     60  C   UNL A   1      39.907  28.765  29.057  1.00  0.00     0.064 A 
ATOM     61  C   UNL A   1      39.434  28.617  30.372  1.00  0.00     0.173 A 
ATOM     62  C   UNL A   1      38.989  29.168  28.076  1.00  0.00     0.173 A 
ATOM     63  F   UNL A   1      40.266  28.224  31.349  1.00  0.00    -0.203 F 
ATOM     64  C   UNL A   1      38.090  28.812  30.677  1.00  0.00     0.198 A 
ATOM     65  C   UNL A   1      37.653  29.401  28.392  1.00  0.00     0.198 A 
ATOM     66  F   UNL A   1      39.386  29.335  26.804  1.00  0.00    -0.203 F 
ATOM     67  F   UNL A   1      37.650  28.591  31.923  1.00  0.00    -0.200 F 
ATOM     68  C   UNL A   1      37.201  29.207  29.689  1.00  0.00     0.200 A 
ATOM     69  F   UNL A   1      36.799  29.799  27.439  1.00  0.00    -0.200 F 
ATOM     70  F   UNL A   1      35.907  29.391  29.984  1.00  0.00    -0.200 F 
ENDBRANCH  46  60
BRANCH  47  71
ATOM     71  C   UNL A   1      49.193  26.575  26.071  1.00  0.00     0.064 A 
ATOM     72  C   UNL A   1      49.520  26.804  24.729  1.00  0.00     0.173 A 
ATOM     73  C   UNL A   1      50.202  26.081  26.913  1.00  0.00     0.173 A 
ATOM     74  F   UNL A   1      48.586  27.262  23.882  1.00  0.00    -0.203 F 
ATOM     75  C   UNL A   1      50.800  26.544  24.245  1.00  0.00     0.198 A 
ATOM     76  C   UNL A   1      51.489  25.848  26.435  1.00  0.00     0.198 A 
ATOM     77  F   UNL A   1      49.943  25.857  28.210  1.00  0.00    -0.203 F 
ATOM     78  F   UNL A   1      51.078  26.746  22.950  1.00  0.00    -0.200 F 
ATOM     79  C   UNL A   1      51.786  26.075  25.100  1.00  0.00     0.200 A 
ATOM     80  F   UNL A   1      52.444  25.414  27.269  1.00  0.00    -0.200 F 
ATOM     81  F   UNL A   1      53.022  25.842  24.638  1.00  0.00    -0.200 F 
ENDBRANCH  47  71
BRANCH  59  82
ATOM     82  C   UNL A   1      46.084  32.413  28.343  1.00  0.00     0.064 A 
ATOM     83  C   UNL A   1      45.960  33.403  27.359  1.00  0.00     0.173 A 
ATOM     84  C   UNL A   1      46.598  32.788  29.595  1.00  0.00     0.173 A 
ATOM     85  F   UNL A   1      45.488  33.092  26.143  1.00  0.00    -0.203 F 
ATOM     86  C   UNL A   1      46.340  34.718  27.617  1.00  0.00     0.198 A 
ATOM     87  C   UNL A   1      46.948  34.109  29.858  1.00  0.00     0.198 A 
ATOM     88  F   UNL A   1      46.731  31.878  30.571  1.00  0.00    -0.203 F 
ATOM     89  F   UNL A   1      46.240  35.644  26.654  1.00  0.00    -0.200 F 
ATOM     90  C   UNL A   1      46.821  35.072  28.869  1.00  0.00     0.200 A 
ATOM     91  F   UNL A   1      47.398  34.450  31.073  1.00  0.00    -0.200 F 
ATOM     92  F   UNL A   1      47.164  36.342  29.123  1.00  0.00    -0.200 F 
ENDBRANCH  59  82
ENDBRANCH  33  34
ENDBRANCH  25  28
ENDBRANCH  23  24
ENDBRANCH  22  23
ENDBRANCH   1  22
TORSDOF 13
ENDMDL
MODEL 2
REMARK VINA RESULT:     -12.1      6.335     11.671
REMARK SMILES C[C@H]([C@@H](C)C(=O)NCCCNC(=O)c1ccc(-c2c3nc(c(-c4c(F)c(F)c(F)c(F)c4F)c4ccc([nH]4)c(-c4c(F)c(F)c(F)c(F)c4F)c4nc(c(-c5c(F)c(F)c(F)c(F)c5F)c5ccc2[nH]5)C=C4)C=C3)cc1)[NH+]1CCN(c2nccs2)CC1
REMARK SMILES IDX 8 1 7 2 5 3 6 4 3 6 4 7 2 8 1 9 77 10 78 11 87 12 79 14
REMARK SMILES IDX 86 15 80 16 81 17 82 18 85 19 83 20 84 21 9 22 10 23 11 24
REMARK SMILES IDX 12 25 13 27 14 28 15 29 76 30 16 31 75 32 17 33 18 34 19 35
REMARK SMILES IDX 69 36 20 37 74 38 68 39 70 40 21 41 73 42 67 43 66 44 22 46
REMARK SMILES IDX 54 47 34 48 53 49 35 50 38 51 52 52 71 53 36 54 37 55 51 57
REMARK SMILES IDX 72 58 39 59 23 60 24 61 32 62 25 63 26 64 30 65 33 66 27 67
REMARK SMILES IDX 28 68 31 69 29 70 55 71 56 72 64 73 57 74 58 75 62 76 65 77
REMARK SMILES IDX 59 78 60 79 63 80 61 81 40 82 41 83 49 84 42 85 43 86 47 87
REMARK SMILES IDX 50 88 44 89 45 90 48 91 46 92
REMARK H PARENT 7 5 77 13 11 26 70 45 38 56
REMARK Flexibility Score: inf
ROOT
ATOM      1  C   UNL A   1      31.507  30.656  26.594  1.00  0.00     0.117 C 
ENDROOT
BRANCH   1   2
ATOM      2  N   UNL A   1      32.837  30.088  26.520  1.00  0.00    -0.356 N 
ATOM      3  C   UNL A   1      33.259  28.823  26.248  1.00  0.00     0.228 C 
ATOM      4  O   UNL A   1      34.470  28.607  26.345  1.00  0.00    -0.275 OA
ATOM      5  H   UNL A   1      33.564  30.728  26.699  1.00  0.00     0.163 HD
BRANCH   3   6
ATOM      6  C   UNL A   1      32.315  27.741  25.731  1.00  0.00     0.133 C 
ATOM      7  C   UNL A   1      31.432  27.264  26.894  1.00  0.00     0.024 C 
BRANCH   6   8
ATOM      8  C   UNL A   1      32.996  26.602  24.908  1.00  0.00     0.193 C 
ATOM      9  C   UNL A   1      32.917  25.274  25.674  1.00  0.00     0.076 C 
BRANCH   8  10
ATOM     10  N   UNL A   1      32.496  26.585  23.520  1.00  0.00    -0.329 N 
ATOM     11  C   UNL A   1      31.063  26.282  23.360  1.00  0.00     0.284 C 
ATOM     12  C   UNL A   1      32.839  27.732  22.660  1.00  0.00     0.284 C 
ATOM     13  H   UNL A   1      33.040  25.792  23.180  1.00  0.00     0.348 HD
ATOM     14  C   UNL A   1      30.084  27.456  23.554  1.00  0.00     0.180 C 
ATOM     15  C   UNL A   1      31.922  28.973  22.753  1.00  0.00     0.180 C 
ATOM     16  N   UNL A   1      30.496  28.634  22.799  1.00  0.00    -0.337 N 
BRANCH  16  17
ATOM     17  C   UNL A   1      29.609  29.614  22.476  1.00  0.00     0.185 A 
ATOM     18  N   UNL A   1      29.046  29.712  21.291  1.00  0.00    -0.229 NA
ATOM     19  S   UNL A   1      29.147  30.880  23.573  1.00  0.00    -0.106 S 
ATOM     20  C   UNL A   1      28.165  30.771  21.250  1.00  0.00     0.125 A 
ATOM     21  C   UNL A   1      28.119  31.549  22.382  1.00  0.00     0.088 A 
ENDBRANCH  16  17
ENDBRANCH   8  10
ENDBRANCH   6   8
ENDBRANCH   3   6
ENDBRANCH   1   2
BRANCH   1  22
ATOM     22  C   UNL A   1      31.559  32.175  26.498  1.00  0.00     0.042 C 
BRANCH  22  23
ATOM     23  C   UNL A   1      32.695  32.779  27.310  1.00  0.00     0.118 C 
BRANCH  23  24
ATOM     24  N   UNL A   1      32.454  34.182  27.626  1.00  0.00    -0.352 N 
ATOM     25  C   UNL A   1      33.012  34.965  28.607  1.00  0.00     0.251 C 
ATOM     26  H   UNL A   1      31.794  34.634  27.052  1.00  0.00     0.163 HD
ATOM     27  O   UNL A   1      32.528  36.054  28.881  1.00  0.00    -0.269 OA
BRANCH  25  28
ATOM     28  C   UNL A   1      34.197  34.475  29.337  1.00  0.00     0.039 A 
ATOM     29  C   UNL A   1      34.030  33.857  30.580  1.00  0.00     0.014 A 
ATOM     30  C   UNL A   1      35.472  34.622  28.785  1.00  0.00     0.014 A 
ATOM     31  C   UNL A   1      35.138  33.322  31.237  1.00  0.00     0.010 A 
ATOM     32  C   UNL A   1      36.558  34.013  29.397  1.00  0.00     0.010 A 
ATOM     33  C   UNL A   1      36.404  33.363  30.632  1.00  0.00    -0.014 A 
BRANCH  33  34
ATOM     34  C   UNL A   1      37.600  32.753  31.261  1.00  0.00     0.031 A 
ATOM     35  C   UNL A   1      38.281  31.599  30.585  1.00  0.00     0.074 A 
ATOM     36  C   UNL A   1      37.989  33.153  32.486  1.00  0.00     0.049 A 
ATOM     37  N   UNL A   1      39.215  30.803  31.038  1.00  0.00    -0.248 NA
ATOM     38  C   UNL A   1      37.817  31.271  29.228  1.00  0.00     0.031 C 
ATOM     39  C   UNL A   1      37.376  34.233  33.258  1.00  0.00     0.029 A 
ATOM     40  N   UNL A   1      38.974  32.668  33.311  1.00  0.00    -0.354 N 
ATOM     41  C   UNL A   1      39.426  29.866  30.038  1.00  0.00     0.074 A 
ATOM     42  C   UNL A   1      38.486  30.157  28.977  1.00  0.00     0.031 C 
ATOM     43  C   UNL A   1      37.993  34.327  34.446  1.00  0.00     0.029 A 
ATOM     44  C   UNL A   1      39.011  33.284  34.538  1.00  0.00     0.049 A 
ATOM     45  H   UNL A   1      39.593  31.950  33.048  1.00  0.00     0.167 HD
ATOM     46  C   UNL A   1      40.336  28.863  30.000  1.00  0.00     0.037 A 
ATOM     47  C   UNL A   1      39.759  33.017  35.625  1.00  0.00     0.037 A 
ATOM     48  C   UNL A   1      41.278  28.597  31.053  1.00  0.00     0.049 A 
ATOM     49  C   UNL A   1      40.760  31.896  35.569  1.00  0.00     0.074 A 
ATOM     50  C   UNL A   1      42.289  27.653  31.090  1.00  0.00     0.029 A 
ATOM     51  N   UNL A   1      41.318  29.275  32.265  1.00  0.00    -0.354 N 
ATOM     52  N   UNL A   1      41.003  31.056  34.592  1.00  0.00    -0.248 NA
ATOM     53  C   UNL A   1      41.594  31.687  36.760  1.00  0.00     0.031 C 
ATOM     54  C   UNL A   1      42.902  27.721  32.346  1.00  0.00     0.029 A 
ATOM     55  C   UNL A   1      42.318  28.751  33.067  1.00  0.00     0.049 A 
ATOM     56  H   UNL A   1      40.724  30.019  32.517  1.00  0.00     0.167 HD
ATOM     57  C   UNL A   1      42.036  30.240  35.035  1.00  0.00     0.074 A 
ATOM     58  C   UNL A   1      42.374  30.687  36.371  1.00  0.00     0.031 C 
ATOM     59  C   UNL A   1      42.649  29.217  34.392  1.00  0.00     0.037 A 
BRANCH  46  60
ATOM     60  C   UNL A   1      40.336  27.977  28.787  1.00  0.00     0.064 A 
ATOM     61  C   UNL A   1      39.616  26.771  28.749  1.00  0.00     0.173 A 
ATOM     62  C   UNL A   1      41.071  28.333  27.646  1.00  0.00     0.173 A 
ATOM     63  F   UNL A   1      38.904  26.376  29.816  1.00  0.00    -0.203 F 
ATOM     64  C   UNL A   1      39.676  25.934  27.638  1.00  0.00     0.198 A 
ATOM     65  C   UNL A   1      41.096  27.513  26.522  1.00  0.00     0.198 A 
ATOM     66  F   UNL A   1      41.770  29.479  27.621  1.00  0.00    -0.203 F 
ATOM     67  F   UNL A   1      39.042  24.754  27.657  1.00  0.00    -0.200 F 
ATOM     68  C   UNL A   1      40.412  26.306  26.524  1.00  0.00     0.200 A 
ATOM     69  F   UNL A   1      41.795  27.883  25.439  1.00  0.00    -0.200 F 
ATOM     70  F   UNL A   1      40.471  25.499  25.456  1.00  0.00    -0.200 F 
ENDBRANCH  46  60
BRANCH  47  71
ATOM     71  C   UNL A   1      39.583  33.838  36.851  1.00  0.00     0.064 A 
ATOM     72  C   UNL A   1      40.185  35.097  36.968  1.00  0.00     0.173 A 
ATOM     73  C   UNL A   1      38.772  33.402  37.909  1.00  0.00     0.173 A 
ATOM     74  F   UNL A   1      40.981  35.552  35.990  1.00  0.00    -0.203 F 
ATOM     75  C   UNL A   1      39.991  35.886  38.100  1.00  0.00     0.198 A 
ATOM     76  C   UNL A   1      38.555  34.202  39.028  1.00  0.00     0.198 A 
ATOM     77  F   UNL A   1      38.163  32.208  37.840  1.00  0.00    -0.203 F 
ATOM     78  F   UNL A   1      40.601  37.074  38.199  1.00  0.00    -0.200 F 
ATOM     79  C   UNL A   1      39.169  35.442  39.125  1.00  0.00     0.200 A 
ATOM     80  F   UNL A   1      37.744  33.777  40.007  1.00  0.00    -0.200 F 
ATOM     81  F   UNL A   1      38.967  36.208  40.206  1.00  0.00    -0.200 F 
ENDBRANCH  47  71
BRANCH  59  82
ATOM     82  C   UNL A   1      43.784  28.531  35.094  1.00  0.00     0.064 A 
ATOM     83  C   UNL A   1      43.582  27.392  35.886  1.00  0.00     0.173 A 
ATOM     84  C   UNL A   1      45.102  28.970  34.895  1.00  0.00     0.173 A 
ATOM     85  F   UNL A   1      42.341  26.942  36.118  1.00  0.00    -0.203 F 
ATOM     86  C   UNL A   1      44.660  26.720  36.459  1.00  0.00     0.198 A 
ATOM     87  C   UNL A   1      46.178  28.278  35.444  1.00  0.00     0.198 A 
ATOM     88  F   UNL A   1      45.348  30.051  34.140  1.00  0.00    -0.203 F 
ATOM     89  F   UNL A   1      44.444  25.649  37.235  1.00  0.00    -0.200 F 
ATOM     90  C   UNL A   1      45.956  27.156  36.227  1.00  0.00     0.200 A 
ATOM     91  F   UNL A   1      47.430  28.693  35.206  1.00  0.00    -0.200 F 
ATOM     92  F   UNL A   1      46.993  26.495  36.760  1.00  0.00    -0.200 F 
ENDBRANCH  59  82
ENDBRANCH  33  34
ENDBRANCH  25  28
ENDBRANCH  23  24
ENDBRANCH  22  23
ENDBRANCH   1  22
TORSDOF 13
ENDMDL
MODEL 3
REMARK VINA RESULT:     -12.1      1.748      3.273
REMARK SMILES C[C@H]([C@@H](C)C(=O)NCCCNC(=O)c1ccc(-c2c3nc(c(-c4c(F)c(F)c(F)c(F)c4F)c4ccc([nH]4)c(-c4c(F)c(F)c(F)c(F)c4F)c4nc(c(-c5c(F)c(F)c(F)c(F)c5F)c5ccc2[nH]5)C=C4)C=C3)cc1)[NH+]1CCN(c2nccs2)CC1
REMARK SMILES IDX 8 1 7 2 5 3 6 4 3 6 4 7 2 8 1 9 77 10 78 11 87 12 79 14
REMARK SMILES IDX 86 15 80 16 81 17 82 18 85 19 83 20 84 21 9 22 10 23 11 24
REMARK SMILES IDX 12 25 13 27 14 28 15 29 76 30 16 31 75 32 17 33 18 34 19 35
REMARK SMILES IDX 69 36 20 37 74 38 68 39 70 40 21 41 73 42 67 43 66 44 22 46
REMARK SMILES IDX 54 47 34 48 53 49 35 50 38 51 52 52 71 53 36 54 37 55 51 57
REMARK SMILES IDX 72 58 39 59 23 60 24 61 32 62 25 63 26 64 30 65 33 66 27 67
REMARK SMILES IDX 28 68 31 69 29 70 55 71 56 72 64 73 57 74 58 75 62 76 65 77
REMARK SMILES IDX 59 78 60 79 63 80 61 81 40 82 41 83 49 84 42 85 43 86 47 87
REMARK SMILES IDX 50 88 44 89 45 90 48 91 46 92
REMARK H PARENT 7 5 77 13 11 26 70 45 38 56
REMARK Flexibility Score: inf
ROOT
ATOM      1  C   UNL A   1      37.191  21.132  24.721  1.00  0.00     0.117 C 
ENDROOT
BRANCH   1   2
ATOM      2  N   UNL A   1      35.802  20.727  24.639  1.00  0.00    -0.356 N 
ATOM      3  C   UNL A   1      34.717  21.088  25.376  1.00  0.00     0.228 C 
ATOM      4  O   UNL A   1      33.658  20.504  25.132  1.00  0.00    -0.275 OA
ATOM      5  H   UNL A   1      35.609  20.077  23.926  1.00  0.00     0.163 HD
BRANCH   3   6
ATOM      6  C   UNL A   1      34.757  22.240  26.377  1.00  0.00     0.133 C 
ATOM      7  C   UNL A   1      33.961  21.831  27.626  1.00  0.00     0.024 C 
BRANCH   6   8
ATOM      8  C   UNL A   1      34.394  23.642  25.792  1.00  0.00     0.193 C 
ATOM      9  C   UNL A   1      35.668  24.389  25.376  1.00  0.00     0.076 C 
BRANCH   8  10
ATOM     10  N   UNL A   1      33.341  23.526  24.763  1.00  0.00    -0.329 N 
ATOM     11  C   UNL A   1      31.964  23.772  25.226  1.00  0.00     0.284 C 
ATOM     12  C   UNL A   1      33.552  24.244  23.493  1.00  0.00     0.284 C 
ATOM     13  H   UNL A   1      33.448  22.533  24.559  1.00  0.00     0.348 HD
ATOM     14  C   UNL A   1      31.521  25.244  25.321  1.00  0.00     0.180 C 
ATOM     15  C   UNL A   1      33.135  25.732  23.454  1.00  0.00     0.180 C 
ATOM     16  N   UNL A   1      31.845  25.986  24.107  1.00  0.00    -0.337 N 
BRANCH  16  17
ATOM     17  C   UNL A   1      31.200  27.140  23.788  1.00  0.00     0.185 A 
ATOM     18  N   UNL A   1      30.388  27.248  22.758  1.00  0.00    -0.229 NA
ATOM     19  S   UNL A   1      31.402  28.621  24.673  1.00  0.00    -0.106 S 
ATOM     20  C   UNL A   1      29.843  28.512  22.690  1.00  0.00     0.125 A 
ATOM     21  C   UNL A   1      30.310  29.410  23.620  1.00  0.00     0.088 A 
ENDBRANCH  16  17
ENDBRANCH   8  10
ENDBRANCH   6   8
ENDBRANCH   3   6
ENDBRANCH   1   2
BRANCH   1  22
ATOM     22  C   UNL A   1      38.090  19.936  25.001  1.00  0.00     0.042 C 
BRANCH  22  23
ATOM     23  C   UNL A   1      39.212  20.257  25.978  1.00  0.00     0.118 C 
BRANCH  23  24
ATOM     24  N   UNL A   1      40.210  19.196  26.030  1.00  0.00    -0.352 N 
ATOM     25  C   UNL A   1      41.579  19.287  26.104  1.00  0.00     0.251 C 
ATOM     26  H   UNL A   1      39.851  18.280  26.008  1.00  0.00     0.163 HD
ATOM     27  O   UNL A   1      42.278  18.304  25.904  1.00  0.00    -0.269 OA
BRANCH  25  28
ATOM     28  C   UNL A   1      42.201  20.589  26.418  1.00  0.00     0.039 A 
ATOM     29  C   UNL A   1      42.673  21.392  25.376  1.00  0.00     0.014 A 
ATOM     30  C   UNL A   1      42.309  21.013  27.744  1.00  0.00     0.014 A 
ATOM     31  C   UNL A   1      43.190  22.655  25.661  1.00  0.00     0.010 A 
ATOM     32  C   UNL A   1      42.741  22.303  28.018  1.00  0.00     0.010 A 
ATOM     33  C   UNL A   1      43.192  23.135  26.980  1.00  0.00    -0.014 A 
BRANCH  33  34
ATOM     34  C   UNL A   1      43.672  24.494  27.326  1.00  0.00     0.031 A 
ATOM     35  C   UNL A   1      42.693  25.520  27.814  1.00  0.00     0.074 A 
ATOM     36  C   UNL A   1      44.952  24.835  27.082  1.00  0.00     0.049 A 
ATOM     37  N   UNL A   1      42.854  26.806  27.994  1.00  0.00    -0.248 NA
ATOM     38  C   UNL A   1      41.331  25.039  28.100  1.00  0.00     0.031 C 
ATOM     39  C   UNL A   1      45.983  23.934  26.566  1.00  0.00     0.029 A 
ATOM     40  N   UNL A   1      45.591  26.043  27.202  1.00  0.00    -0.354 N 
ATOM     41  C   UNL A   1      41.613  27.289  28.381  1.00  0.00     0.074 A 
ATOM     42  C   UNL A   1      40.695  26.171  28.357  1.00  0.00     0.031 C 
ATOM     43  C   UNL A   1      47.125  24.621  26.409  1.00  0.00     0.029 A 
ATOM     44  C   UNL A   1      46.893  26.019  26.766  1.00  0.00     0.049 A 
ATOM     45  H   UNL A   1      45.159  26.849  27.567  1.00  0.00     0.167 HD
ATOM     46  C   UNL A   1      41.274  28.550  28.743  1.00  0.00     0.037 A 
ATOM     47  C   UNL A   1      47.789  27.016  26.637  1.00  0.00     0.037 A 
ATOM     48  C   UNL A   1      42.201  29.648  28.781  1.00  0.00     0.049 A 
ATOM     49  C   UNL A   1      47.395  28.411  27.038  1.00  0.00     0.074 A 
ATOM     50  C   UNL A   1      41.983  30.949  29.198  1.00  0.00     0.029 A 
ATOM     51  N   UNL A   1      43.528  29.574  28.377  1.00  0.00    -0.354 N 
ATOM     52  N   UNL A   1      46.237  28.849  27.470  1.00  0.00    -0.248 NA
ATOM     53  C   UNL A   1      48.428  29.450  26.938  1.00  0.00     0.031 C 
ATOM     54  C   UNL A   1      43.160  31.675  28.991  1.00  0.00     0.029 A 
ATOM     55  C   UNL A   1      44.132  30.814  28.508  1.00  0.00     0.049 A 
ATOM     56  H   UNL A   1      43.974  28.761  28.046  1.00  0.00     0.167 HD
ATOM     57  C   UNL A   1      46.408  30.203  27.723  1.00  0.00     0.074 A 
ATOM     58  C   UNL A   1      47.785  30.516  27.396  1.00  0.00     0.031 C 
ATOM     59  C   UNL A   1      45.509  31.104  28.188  1.00  0.00     0.037 A 
BRANCH  46  60
ATOM     60  C   UNL A   1      39.838  28.801  29.105  1.00  0.00     0.064 A 
ATOM     61  C   UNL A   1      38.894  29.220  28.153  1.00  0.00     0.173 A 
ATOM     62  C   UNL A   1      39.397  28.626  30.426  1.00  0.00     0.173 A 
ATOM     63  F   UNL A   1      39.263  29.413  26.877  1.00  0.00    -0.203 F 
ATOM     64  C   UNL A   1      37.582  29.505  28.520  1.00  0.00     0.198 A 
ATOM     65  C   UNL A   1      38.075  28.874  30.782  1.00  0.00     0.198 A 
ATOM     66  F   UNL A   1      40.252  28.218  31.377  1.00  0.00    -0.203 F 
ATOM     67  F   UNL A   1      36.721  29.977  27.608  1.00  0.00    -0.200 F 
ATOM     68  C   UNL A   1      37.171  29.328  29.832  1.00  0.00     0.200 A 
ATOM     69  F   UNL A   1      37.676  28.686  32.048  1.00  0.00    -0.200 F 
ATOM     70  F   UNL A   1      35.908  29.605  30.185  1.00  0.00    -0.200 F 
ENDBRANCH  46  60
BRANCH  47  71
ATOM     71  C   UNL A   1      49.146  26.714  26.112  1.00  0.00     0.064 A 
ATOM     72  C   UNL A   1      50.132  26.157  26.937  1.00  0.00     0.173 A 
ATOM     73  C   UNL A   1      49.469  26.934  24.765  1.00  0.00     0.173 A 
ATOM     74  F   UNL A   1      49.875  25.943  28.235  1.00  0.00    -0.203 F 
ATOM     75  C   UNL A   1      51.392  25.838  26.437  1.00  0.00     0.198 A 
ATOM     76  C   UNL A   1      50.720  26.588  24.259  1.00  0.00     0.198 A 
ATOM     77  F   UNL A   1      48.556  27.454  23.931  1.00  0.00    -0.203 F 
ATOM     78  F   UNL A   1      52.326  25.332  27.253  1.00  0.00    -0.200 F 
ATOM     79  C   UNL A   1      51.683  26.045  25.096  1.00  0.00     0.200 A 
ATOM     80  F   UNL A   1      50.989  26.771  22.959  1.00  0.00    -0.200 F 
ATOM     81  F   UNL A   1      52.889  25.721  24.611  1.00  0.00    -0.200 F 
ENDBRANCH  47  71
BRANCH  59  82
ATOM     82  C   UNL A   1      45.982  32.509  28.420  1.00  0.00     0.064 A 
ATOM     83  C   UNL A   1      45.875  33.498  27.432  1.00  0.00     0.173 A 
ATOM     84  C   UNL A   1      46.467  32.888  29.682  1.00  0.00     0.173 A 
ATOM     85  F   UNL A   1      45.432  33.183  26.206  1.00  0.00    -0.203 F 
ATOM     86  C   UNL A   1      46.242  34.815  27.697  1.00  0.00     0.198 A 
ATOM     87  C   UNL A   1      46.804  34.211  29.952  1.00  0.00     0.198 A 
ATOM     88  F   UNL A   1      46.583  31.979  30.662  1.00  0.00    -0.203 F 
ATOM     89  F   UNL A   1      46.158  35.740  26.731  1.00  0.00    -0.200 F 
ATOM     90  C   UNL A   1      46.693  35.173  28.960  1.00  0.00     0.200 A 
ATOM     91  F   UNL A   1      47.224  34.556  31.176  1.00  0.00    -0.200 F 
ATOM     92  F   UNL A   1      47.023  36.445  29.220  1.00  0.00    -0.200 F 
ENDBRANCH  59  82
ENDBRANCH  33  34
ENDBRANCH  25  28
ENDBRANCH  23  24
ENDBRANCH  22  23
ENDBRANCH   1  22
TORSDOF 13
ENDMDL
