MODEL 1
REMARK VINA RESULT:     -12.4      0.000      0.000
REMARK SMILES O=C(C[S@](=O)c1c([N+](=O)[O-])cc(C(F)(F)F)cc1[N+](=O)[O-])NCCCNC(=O)c1ccc(-c2c3nc(c(-c4c(F)c(F)c(F)c(F)c4F)c4ccc([nH]4)c(-c4c(F)c(F)c(F)c(F)c4F)c4nc(c(-c5c(F)c(F)c(F)c(F)c5F)c5ccc2[nH]5)C=C4)C=C3)cc1
REMARK SMILES IDX 23 1 22 2 1 3 2 4 3 6 4 7 5 8 6 9 7 10 18 11 11 12 17 13
REMARK SMILES IDX 12 14 8 15 9 16 10 17 19 18 20 19 21 20 13 21 14 22 15 23
REMARK SMILES IDX 16 24 24 25 25 26 26 27 27 28 28 30 29 31 30 32 91 33 31 34
REMARK SMILES IDX 90 35 32 36 33 37 34 38 84 39 35 40 89 41 83 42 85 43 36 44
REMARK SMILES IDX 88 45 82 46 81 47 37 49 69 50 49 51 68 52 50 53 53 54 67 55
REMARK SMILES IDX 86 56 51 57 52 58 66 60 87 61 54 62 38 63 39 64 47 65 40 66
REMARK SMILES IDX 41 67 45 68 48 69 42 70 43 71 46 72 44 73 70 74 71 75 79 76
REMARK SMILES IDX 72 77 73 78 77 79 80 80 74 81 75 82 78 83 76 84 55 85 56 86
REMARK SMILES IDX 64 87 57 88 58 89 62 90 65 91 59 92 60 93 63 94 61 95
REMARK H PARENT 22 5 26 29 85 48 53 59
REMARK Flexibility Score: inf
ROOT
ATOM      1  C   UNL A   1      32.124  30.362  26.832  1.00  0.00     0.117 C 
ENDROOT
BRANCH   1   2
ATOM      2  N   UNL A   1      31.938  29.834  25.494  1.00  0.00    -0.355 N 
ATOM      3  O   UNL A   1      34.007  28.852  25.380  1.00  0.00    -0.274 OA
ATOM      4  C   UNL A   1      32.937  29.128  24.845  1.00  0.00     0.233 C 
ATOM      5  H   UNL A   1      31.079  29.979  25.035  1.00  0.00     0.163 HD
BRANCH   4   6
ATOM      6  C   UNL A   1      32.582  28.670  23.446  1.00  0.00     0.210 C 
BRANCH   6   7
ATOM      7  S   UNL A   1      31.439  27.248  23.380  1.00  0.00     0.077 S 
ATOM      8  O   UNL A   1      30.379  27.482  24.413  1.00  0.00    -0.253 OA
BRANCH   7   9
ATOM      9  C   UNL A   1      32.447  25.898  24.054  1.00  0.00     0.194 A 
ATOM     10  C   UNL A   1      32.415  25.559  25.418  1.00  0.00     0.293 A 
ATOM     11  C   UNL A   1      33.395  25.208  23.268  1.00  0.00     0.293 A 
ATOM     12  C   UNL A   1      33.416  24.790  26.036  1.00  0.00     0.100 A 
ATOM     13  C   UNL A   1      34.401  24.419  23.878  1.00  0.00     0.100 A 
ATOM     14  C   UNL A   1      34.454  24.255  25.269  1.00  0.00     0.069 A 
BRANCH  10  15
ATOM     15  N   UNL A   1      31.294  25.934  26.260  1.00  0.00     0.064 N 
ATOM     16  O   UNL A   1      31.456  26.914  27.002  1.00  0.00    -0.258 OA
ATOM     17  O   UNL A   1      30.313  25.188  26.247  1.00  0.00    -0.258 OA
ENDBRANCH  10  15
BRANCH  11  18
ATOM     18  N   UNL A   1      33.346  25.170  21.792  1.00  0.00     0.064 N 
ATOM     19  O   UNL A   1      33.121  24.069  21.269  1.00  0.00    -0.258 OA
ATOM     20  O   UNL A   1      33.510  26.215  21.155  1.00  0.00    -0.258 OA
ENDBRANCH  11  18
BRANCH  14  21
ATOM     21  C   UNL A   1      35.614  23.539  25.927  1.00  0.00     0.416 C 
ATOM     22  F   UNL A   1      36.739  24.303  25.888  1.00  0.00    -0.166 F 
ATOM     23  F   UNL A   1      35.376  23.252  27.230  1.00  0.00    -0.166 F 
ATOM     24  F   UNL A   1      35.927  22.364  25.323  1.00  0.00    -0.166 F 
ENDBRANCH  14  21
ENDBRANCH   7   9
ENDBRANCH   6   7
ENDBRANCH   4   6
ENDBRANCH   1   2
BRANCH   1  25
ATOM     25  C   UNL A   1      31.744  31.836  26.978  1.00  0.00     0.042 C 
BRANCH  25  26
ATOM     26  C   UNL A   1      32.883  32.789  27.338  1.00  0.00     0.118 C 
BRANCH  26  27
ATOM     27  N   UNL A   1      32.448  34.123  27.726  1.00  0.00    -0.352 N 
ATOM     28  C   UNL A   1      33.023  35.001  28.613  1.00  0.00     0.251 C 
ATOM     29  H   UNL A   1      31.624  34.440  27.292  1.00  0.00     0.163 HD
ATOM     30  O   UNL A   1      32.495  36.092  28.813  1.00  0.00    -0.269 OA
BRANCH  28  31
ATOM     31  C   UNL A   1      34.232  34.621  29.377  1.00  0.00     0.039 A 
ATOM     32  C   UNL A   1      34.061  34.130  30.677  1.00  0.00     0.014 A 
ATOM     33  C   UNL A   1      35.514  34.707  28.826  1.00  0.00     0.014 A 
ATOM     34  C   UNL A   1      35.156  33.627  31.382  1.00  0.00     0.010 A 
ATOM     35  C   UNL A   1      36.601  34.168  29.516  1.00  0.00     0.010 A 
ATOM     36  C   UNL A   1      36.427  33.592  30.785  1.00  0.00    -0.014 A 
BRANCH  36  37
ATOM     37  C   UNL A   1      37.548  32.862  31.430  1.00  0.00     0.031 A 
ATOM     38  C   UNL A   1      38.171  31.661  30.784  1.00  0.00     0.074 A 
ATOM     39  C   UNL A   1      37.961  33.257  32.652  1.00  0.00     0.049 A 
ATOM     40  N   UNL A   1      39.120  30.880  31.236  1.00  0.00    -0.248 NA
ATOM     41  C   UNL A   1      37.650  31.277  29.465  1.00  0.00     0.031 C 
ATOM     42  C   UNL A   1      37.410  34.387  33.402  1.00  0.00     0.029 A 
ATOM     43  N   UNL A   1      38.928  32.747  33.482  1.00  0.00    -0.354 N 
ATOM     44  C   UNL A   1      39.311  29.912  30.260  1.00  0.00     0.074 A 
ATOM     45  C   UNL A   1      38.352  30.181  29.208  1.00  0.00     0.031 C 
ATOM     46  C   UNL A   1      38.053  34.491  34.576  1.00  0.00     0.029 A 
ATOM     47  C   UNL A   1      39.037  33.417  34.676  1.00  0.00     0.049 A 
ATOM     48  H   UNL A   1      39.491  31.974  33.244  1.00  0.00     0.167 HD
ATOM     49  C   UNL A   1      40.214  28.901  30.240  1.00  0.00     0.037 A 
ATOM     50  C   UNL A   1      39.832  33.187  35.739  1.00  0.00     0.037 A 
ATOM     51  C   UNL A   1      41.172  28.638  31.283  1.00  0.00     0.049 A 
ATOM     52  C   UNL A   1      40.805  32.042  35.699  1.00  0.00     0.074 A 
ATOM     53  C   UNL A   1      42.166  27.674  31.320  1.00  0.00     0.029 A 
ATOM     54  N   UNL A   1      41.251  29.336  32.480  1.00  0.00    -0.354 N 
ATOM     55  N   UNL A   1      41.024  31.177  34.740  1.00  0.00    -0.248 NA
ATOM     56  C   UNL A   1      41.642  31.843  36.891  1.00  0.00     0.031 C 
ATOM     57  C   UNL A   1      42.816  27.760  32.555  1.00  0.00     0.029 A 
ATOM     58  C   UNL A   1      42.257  28.805  33.273  1.00  0.00     0.049 A 
ATOM     59  H   UNL A   1      40.676  30.095  32.728  1.00  0.00     0.167 HD
ATOM     60  C   UNL A   1      42.033  30.344  35.202  1.00  0.00     0.074 A 
ATOM     61  C   UNL A   1      42.397  30.818  36.521  1.00  0.00     0.031 C 
ATOM     62  C   UNL A   1      42.605  29.281  34.587  1.00  0.00     0.037 A 
BRANCH  49  63
ATOM     63  C   UNL A   1      40.210  27.996  29.044  1.00  0.00     0.064 A 
ATOM     64  C   UNL A   1      40.935  28.310  27.886  1.00  0.00     0.173 A 
ATOM     65  C   UNL A   1      39.514  26.777  29.074  1.00  0.00     0.173 A 
ATOM     66  F   UNL A   1      41.610  29.467  27.805  1.00  0.00    -0.203 F 
ATOM     67  C   UNL A   1      40.943  27.450  26.790  1.00  0.00     0.198 A 
ATOM     68  C   UNL A   1      39.544  25.908  27.987  1.00  0.00     0.198 A 
ATOM     69  F   UNL A   1      38.813  26.426  30.163  1.00  0.00    -0.203 F 
ATOM     70  F   UNL A   1      41.611  27.788  25.679  1.00  0.00    -0.200 F 
ATOM     71  C   UNL A   1      40.254  26.248  26.844  1.00  0.00     0.200 A 
ATOM     72  F   UNL A   1      38.887  24.741  28.044  1.00  0.00    -0.200 F 
ATOM     73  F   UNL A   1      40.268  25.418  25.792  1.00  0.00    -0.200 F 
ENDBRANCH  49  63
BRANCH  50  74
ATOM     74  C   UNL A   1      39.748  34.070  36.929  1.00  0.00     0.064 A 
ATOM     75  C   UNL A   1      38.934  33.733  38.019  1.00  0.00     0.173 A 
ATOM     76  C   UNL A   1      40.477  35.267  37.002  1.00  0.00     0.173 A 
ATOM     77  F   UNL A   1      38.202  32.609  37.983  1.00  0.00    -0.203 F 
ATOM     78  C   UNL A   1      38.839  34.567  39.131  1.00  0.00     0.198 A 
ATOM     79  C   UNL A   1      40.400  36.087  38.126  1.00  0.00     0.198 A 
ATOM     80  F   UNL A   1      41.273  35.631  35.987  1.00  0.00    -0.203 F 
ATOM     81  F   UNL A   1      38.023  34.240  40.142  1.00  0.00    -0.200 F 
ATOM     82  C   UNL A   1      39.576  35.740  39.186  1.00  0.00     0.200 A 
ATOM     83  F   UNL A   1      41.125  37.213  38.180  1.00  0.00    -0.200 F 
ATOM     84  F   UNL A   1      39.489  36.539  40.257  1.00  0.00    -0.200 F 
ENDBRANCH  50  74
BRANCH  62  85
ATOM     85  C   UNL A   1      43.695  28.566  35.329  1.00  0.00     0.064 A 
ATOM     86  C   UNL A   1      45.039  28.944  35.198  1.00  0.00     0.173 A 
ATOM     87  C   UNL A   1      43.390  27.513  36.204  1.00  0.00     0.173 A 
ATOM     88  F   UNL A   1      45.383  29.932  34.359  1.00  0.00    -0.203 F 
ATOM     89  C   UNL A   1      46.041  28.280  35.902  1.00  0.00     0.198 A 
ATOM     90  C   UNL A   1      44.391  26.867  36.925  1.00  0.00     0.198 A 
ATOM     91  F   UNL A   1      42.118  27.115  36.365  1.00  0.00    -0.203 F 
ATOM     92  F   UNL A   1      47.322  28.628  35.729  1.00  0.00    -0.200 F 
ATOM     93  C   UNL A   1      45.715  27.247  36.769  1.00  0.00     0.200 A 
ATOM     94  F   UNL A   1      44.073  25.875  37.769  1.00  0.00    -0.200 F 
ATOM     95  F   UNL A   1      46.680  26.612  37.449  1.00  0.00    -0.200 F 
ENDBRANCH  62  85
ENDBRANCH  36  37
ENDBRANCH  28  31
ENDBRANCH  26  27
ENDBRANCH  25  26
ENDBRANCH   1  25
TORSDOF 15
ENDMDL
MODEL 2
REMARK VINA RESULT:     -12.3      5.743     10.898
REMARK SMILES O=C(C[S@](=O)c1c([N+](=O)[O-])cc(C(F)(F)F)cc1[N+](=O)[O-])NCCCNC(=O)c1ccc(-c2c3nc(c(-c4c(F)c(F)c(F)c(F)c4F)c4ccc([nH]4)c(-c4c(F)c(F)c(F)c(F)c4F)c4nc(c(-c5c(F)c(F)c(F)c(F)c5F)c5ccc2[nH]5)C=C4)C=C3)cc1
REMARK SMILES IDX 23 1 22 2 1 3 2 4 3 6 4 7 5 8 6 9 7 10 18 11 11 12 17 13
REMARK SMILES IDX 12 14 8 15 9 16 10 17 19 18 20 19 21 20 13 21 14 22 15 23
REMARK SMILES IDX 16 24 24 25 25 26 26 27 27 28 28 30 29 31 30 32 91 33 31 34
REMARK SMILES IDX 90 35 32 36 33 37 34 38 84 39 35 40 89 41 83 42 85 43 36 44
REMARK SMILES IDX 88 45 82 46 81 47 37 49 69 50 49 51 68 52 50 53 53 54 67 55
REMARK SMILES IDX 86 56 51 57 52 58 66 60 87 61 54 62 38 63 39 64 47 65 40 66
REMARK SMILES IDX 41 67 45 68 48 69 42 70 43 71 46 72 44 73 70 74 71 75 79 76
REMARK SMILES IDX 72 77 73 78 77 79 80 80 74 81 75 82 78 83 76 84 55 85 56 86
REMARK SMILES IDX 64 87 57 88 58 89 62 90 65 91 59 92 60 93 63 94 61 95
REMARK H PARENT 22 5 26 29 85 48 53 59
REMARK Flexibility Score: inf
ROOT
ATOM      1  C   UNL A   1      36.345  21.254  25.560  1.00  0.00     0.117 C 
ENDROOT
BRANCH   1   2
ATOM      2  N   UNL A   1      35.325  21.539  24.568  1.00  0.00    -0.355 N 
ATOM      3  O   UNL A   1      33.612  20.601  25.770  1.00  0.00    -0.274 OA
ATOM      4  C   UNL A   1      34.009  21.150  24.746  1.00  0.00     0.233 C 
ATOM      5  H   UNL A   1      35.575  22.024  23.748  1.00  0.00     0.163 HD
BRANCH   4   6
ATOM      6  C   UNL A   1      33.083  21.508  23.602  1.00  0.00     0.210 C 
BRANCH   6   7
ATOM      7  S   UNL A   1      31.671  22.567  24.071  1.00  0.00     0.077 S 
ATOM      8  O   UNL A   1      31.029  23.038  22.802  1.00  0.00    -0.253 OA
BRANCH   7   9
ATOM      9  C   UNL A   1      32.487  24.040  24.747  1.00  0.00     0.194 A 
ATOM     10  C   UNL A   1      32.236  24.493  26.054  1.00  0.00     0.293 A 
ATOM     11  C   UNL A   1      33.316  24.864  23.956  1.00  0.00     0.293 A 
ATOM     12  C   UNL A   1      32.553  25.793  26.484  1.00  0.00     0.100 A 
ATOM     13  C   UNL A   1      33.654  26.171  24.384  1.00  0.00     0.100 A 
ATOM     14  C   UNL A   1      33.223  26.665  25.623  1.00  0.00     0.069 A 
BRANCH  10  15
ATOM     15  N   UNL A   1      31.689  23.607  27.065  1.00  0.00     0.064 N 
ATOM     16  O   UNL A   1      30.465  23.660  27.251  1.00  0.00    -0.258 OA
ATOM     17  O   UNL A   1      32.496  22.952  27.728  1.00  0.00    -0.258 OA
ENDBRANCH  10  15
BRANCH  11  18
ATOM     18  N   UNL A   1      33.964  24.401  22.712  1.00  0.00     0.064 N 
ATOM     19  O   UNL A   1      33.388  24.672  21.648  1.00  0.00    -0.258 OA
ATOM     20  O   UNL A   1      35.036  23.793  22.779  1.00  0.00    -0.258 OA
ENDBRANCH  11  18
BRANCH  14  21
ATOM     21  C   UNL A   1      33.455  28.110  26.011  1.00  0.00     0.416 C 
ATOM     22  F   UNL A   1      33.866  28.205  27.303  1.00  0.00    -0.166 F 
ATOM     23  F   UNL A   1      34.403  28.707  25.248  1.00  0.00    -0.166 F 
ATOM     24  F   UNL A   1      32.338  28.876  25.906  1.00  0.00    -0.166 F 
ENDBRANCH  14  21
ENDBRANCH   7   9
ENDBRANCH   6   7
ENDBRANCH   4   6
ENDBRANCH   1   2
BRANCH   1  25
ATOM     25  C   UNL A   1      37.585  20.560  24.996  1.00  0.00     0.042 C 
BRANCH  25  26
ATOM     26  C   UNL A   1      38.883  20.769  25.776  1.00  0.00     0.118 C 
BRANCH  26  27
ATOM     27  N   UNL A   1      39.759  19.607  25.802  1.00  0.00    -0.352 N 
ATOM     28  C   UNL A   1      41.095  19.533  26.115  1.00  0.00     0.251 C 
ATOM     29  H   UNL A   1      39.335  18.753  25.560  1.00  0.00     0.163 HD
ATOM     30  O   UNL A   1      41.668  18.447  26.072  1.00  0.00    -0.269 OA
BRANCH  28  31
ATOM     31  C   UNL A   1      41.865  20.756  26.438  1.00  0.00     0.039 A 
ATOM     32  C   UNL A   1      42.313  21.551  25.376  1.00  0.00     0.014 A 
ATOM     33  C   UNL A   1      42.119  21.144  27.756  1.00  0.00     0.014 A 
ATOM     34  C   UNL A   1      42.918  22.782  25.633  1.00  0.00     0.010 A 
ATOM     35  C   UNL A   1      42.688  22.393  28.012  1.00  0.00     0.010 A 
ATOM     36  C   UNL A   1      43.060  23.238  26.954  1.00  0.00    -0.014 A 
BRANCH  36  37
ATOM     37  C   UNL A   1      43.494  24.631  27.232  1.00  0.00     0.031 A 
ATOM     38  C   UNL A   1      42.532  25.658  27.751  1.00  0.00     0.074 A 
ATOM     39  C   UNL A   1      44.763  24.985  26.947  1.00  0.00     0.049 A 
ATOM     40  N   UNL A   1      42.735  26.928  27.996  1.00  0.00    -0.248 NA
ATOM     41  C   UNL A   1      41.160  25.203  28.014  1.00  0.00     0.031 C 
ATOM     42  C   UNL A   1      45.785  24.088  26.403  1.00  0.00     0.029 A 
ATOM     43  N   UNL A   1      45.408  26.191  27.061  1.00  0.00    -0.354 N 
ATOM     44  C   UNL A   1      41.518  27.427  28.442  1.00  0.00     0.074 A 
ATOM     45  C   UNL A   1      40.573  26.330  28.396  1.00  0.00     0.031 C 
ATOM     46  C   UNL A   1      46.929  24.771  26.240  1.00  0.00     0.029 A 
ATOM     47  C   UNL A   1      46.714  26.160  26.635  1.00  0.00     0.049 A 
ATOM     48  H   UNL A   1      44.976  27.002  27.415  1.00  0.00     0.167 HD
ATOM     49  C   UNL A   1      41.224  28.681  28.863  1.00  0.00     0.037 A 
ATOM     50  C   UNL A   1      47.633  27.141  26.561  1.00  0.00     0.037 A 
ATOM     51  C   UNL A   1      42.166  29.770  28.915  1.00  0.00     0.049 A 
ATOM     52  C   UNL A   1      47.270  28.529  27.010  1.00  0.00     0.074 A 
ATOM     53  C   UNL A   1      41.972  31.057  29.385  1.00  0.00     0.029 A 
ATOM     54  N   UNL A   1      43.479  29.701  28.472  1.00  0.00    -0.354 N 
ATOM     55  N   UNL A   1      46.136  28.970  27.494  1.00  0.00    -0.248 NA
ATOM     56  C   UNL A   1      48.317  29.555  26.900  1.00  0.00     0.031 C 
ATOM     57  C   UNL A   1      43.153  31.781  29.187  1.00  0.00     0.029 A 
ATOM     58  C   UNL A   1      44.098  30.932  28.631  1.00  0.00     0.049 A 
ATOM     59  H   UNL A   1      43.907  28.898  28.099  1.00  0.00     0.167 HD
ATOM     60  C   UNL A   1      46.336  30.316  27.766  1.00  0.00     0.074 A 
ATOM     61  C   UNL A   1      47.707  30.617  27.407  1.00  0.00     0.031 C 
ATOM     62  C   UNL A   1      45.460  31.221  28.266  1.00  0.00     0.037 A 
BRANCH  49  63
ATOM     63  C   UNL A   1      39.815  28.948  29.304  1.00  0.00     0.064 A 
ATOM     64  C   UNL A   1      38.830  29.362  28.396  1.00  0.00     0.173 A 
ATOM     65  C   UNL A   1      39.434  28.740  30.639  1.00  0.00     0.173 A 
ATOM     66  F   UNL A   1      39.146  29.582  27.111  1.00  0.00    -0.203 F 
ATOM     67  C   UNL A   1      37.520  29.584  28.812  1.00  0.00     0.198 A 
ATOM     68  C   UNL A   1      38.118  28.938  31.046  1.00  0.00     0.198 A 
ATOM     69  F   UNL A   1      40.337  28.334  31.544  1.00  0.00    -0.203 F 
ATOM     70  F   UNL A   1      36.603  30.016  27.936  1.00  0.00    -0.200 F 
ATOM     71  C   UNL A   1      37.164  29.365  30.135  1.00  0.00     0.200 A 
ATOM     72  F   UNL A   1      37.772  28.716  32.322  1.00  0.00    -0.200 F 
ATOM     73  F   UNL A   1      35.900  29.572  30.533  1.00  0.00    -0.200 F 
ENDBRANCH  49  63
BRANCH  50  74
ATOM     74  C   UNL A   1      48.994  26.841  26.049  1.00  0.00     0.064 A 
ATOM     75  C   UNL A   1      49.314  27.037  24.698  1.00  0.00     0.173 A 
ATOM     76  C   UNL A   1      50.000  26.353  26.896  1.00  0.00     0.173 A 
ATOM     77  F   UNL A   1      48.377  27.481  23.848  1.00  0.00    -0.203 F 
ATOM     78  C   UNL A   1      50.585  26.741  24.210  1.00  0.00     0.198 A 
ATOM     79  C   UNL A   1      51.278  26.081  26.411  1.00  0.00     0.198 A 
ATOM     80  F   UNL A   1      49.745  26.152  28.197  1.00  0.00    -0.203 F 
ATOM     81  F   UNL A   1      50.853  26.900  22.908  1.00  0.00    -0.200 F 
ATOM     82  C   UNL A   1      51.567  26.269  25.068  1.00  0.00     0.200 A 
ATOM     83  F   UNL A   1      52.227  25.638  27.246  1.00  0.00    -0.200 F 
ATOM     84  F   UNL A   1      52.790  25.990  24.600  1.00  0.00    -0.200 F 
ENDBRANCH  50  74
BRANCH  62  85
ATOM     85  C   UNL A   1      45.963  32.620  28.468  1.00  0.00     0.064 A 
ATOM     86  C   UNL A   1      45.830  33.596  27.469  1.00  0.00     0.173 A 
ATOM     87  C   UNL A   1      46.554  32.997  29.683  1.00  0.00     0.173 A 
ATOM     88  F   UNL A   1      45.289  33.279  26.284  1.00  0.00    -0.203 F 
ATOM     89  C   UNL A   1      46.289  34.895  27.673  1.00  0.00     0.198 A 
ATOM     90  C   UNL A   1      46.989  34.303  29.892  1.00  0.00     0.198 A 
ATOM     91  F   UNL A   1      46.701  32.101  30.670  1.00  0.00    -0.203 F 
ATOM     92  F   UNL A   1      46.192  35.800  26.691  1.00  0.00    -0.200 F 
ATOM     93  C   UNL A   1      46.862  35.249  28.886  1.00  0.00     0.200 A 
ATOM     94  F   UNL A   1      47.535  34.646  31.068  1.00  0.00    -0.200 F 
ATOM     95  F   UNL A   1      47.299  36.500  29.082  1.00  0.00    -0.200 F 
ENDBRANCH  62  85
ENDBRANCH  36  37
ENDBRANCH  28  31
ENDBRANCH  26  27
ENDBRANCH  25  26
ENDBRANCH   1  25
TORSDOF 15
ENDMDL
MODEL 3
REMARK VINA RESULT:     -12.3      5.841     11.052
REMARK SMILES O=C(C[S@](=O)c1c([N+](=O)[O-])cc(C(F)(F)F)cc1[N+](=O)[O-])NCCCNC(=O)c1ccc(-c2c3nc(c(-c4c(F)c(F)c(F)c(F)c4F)c4ccc([nH]4)c(-c4c(F)c(F)c(F)c(F)c4F)c4nc(c(-c5c(F)c(F)c(F)c(F)c5F)c5ccc2[nH]5)C=C4)C=C3)cc1
REMARK SMILES IDX 23 1 22 2 1 3 2 4 3 6 4 7 5 8 6 9 7 10 18 11 11 12 17 13
REMARK SMILES IDX 12 14 8 15 9 16 10 17 19 18 20 19 21 20 13 21 14 22 15 23
REMARK SMILES IDX 16 24 24 25 25 26 26 27 27 28 28 30 29 31 30 32 91 33 31 34
REMARK SMILES IDX 90 35 32 36 33 37 34 38 84 39 35 40 89 41 83 42 85 43 36 44
REMARK SMILES IDX 88 45 82 46 81 47 37 49 69 50 49 51 68 52 50 53 53 54 67 55
REMARK SMILES IDX 86 56 51 57 52 58 66 60 87 61 54 62 38 63 39 64 47 65 40 66
REMARK SMILES IDX 41 67 45 68 48 69 42 70 43 71 46 72 44 73 70 74 71 75 79 76
REMARK SMILES IDX 72 77 73 78 77 79 80 80 74 81 75 82 78 83 76 84 55 85 56 86
REMARK SMILES IDX 64 87 57 88 58 89 62 90 65 91 59 92 60 93 63 94 61 95
REMARK H PARENT 22 5 26 29 85 48 53 59
REMARK Flexibility Score: inf
ROOT
ATOM      1  C   UNL A   1      36.740  19.700  24.955  1.00  0.00     0.117 C 
ENDROOT
BRANCH   1   2
ATOM      2  N   UNL A   1      35.604  20.410  25.513  1.00  0.00    -0.355 N 
ATOM      3  O   UNL A   1      34.028  19.100  24.484  1.00  0.00    -0.274 OA
ATOM      4  C   UNL A   1      34.302  20.062  25.197  1.00  0.00     0.233 C 
ATOM      5  H   UNL A   1      35.763  21.159  26.133  1.00  0.00     0.163 HD
BRANCH   4   6
ATOM      6  C   UNL A   1      33.241  20.922  25.849  1.00  0.00     0.210 C 
BRANCH   6   7
ATOM      7  S   UNL A   1      33.882  22.144  27.046  1.00  0.00     0.077 S 
ATOM      8  O   UNL A   1      32.939  22.162  28.209  1.00  0.00    -0.253 OA
BRANCH   7   9
ATOM      9  C   UNL A   1      33.593  23.721  26.195  1.00  0.00     0.194 A 
ATOM     10  C   UNL A   1      34.647  24.472  25.647  1.00  0.00     0.293 A 
ATOM     11  C   UNL A   1      32.317  24.322  26.150  1.00  0.00     0.293 A 
ATOM     12  C   UNL A   1      34.521  25.831  25.312  1.00  0.00     0.100 A 
ATOM     13  C   UNL A   1      32.174  25.687  25.801  1.00  0.00     0.100 A 
ATOM     14  C   UNL A   1      33.282  26.466  25.439  1.00  0.00     0.069 A 
BRANCH  10  15
ATOM     15  N   UNL A   1      35.923  23.857  25.328  1.00  0.00     0.064 N 
ATOM     16  O   UNL A   1      36.840  24.018  26.146  1.00  0.00    -0.258 OA
ATOM     17  O   UNL A   1      36.021  23.315  24.225  1.00  0.00    -0.258 OA
ENDBRANCH  10  15
BRANCH  11  18
ATOM     18  N   UNL A   1      31.061  23.569  26.350  1.00  0.00     0.064 N 
ATOM     19  O   UNL A   1      30.633  22.929  25.379  1.00  0.00    -0.258 OA
ATOM     20  O   UNL A   1      30.512  23.595  27.455  1.00  0.00    -0.258 OA
ENDBRANCH  11  18
BRANCH  14  21
ATOM     21  C   UNL A   1      33.150  27.957  25.216  1.00  0.00     0.416 C 
ATOM     22  F   UNL A   1      33.404  28.277  23.919  1.00  0.00    -0.166 F 
ATOM     23  F   UNL A   1      31.907  28.417  25.501  1.00  0.00    -0.166 F 
ATOM     24  F   UNL A   1      34.014  28.687  25.968  1.00  0.00    -0.166 F 
ENDBRANCH  14  21
ENDBRANCH   7   9
ENDBRANCH   6   7
ENDBRANCH   4   6
ENDBRANCH   1   2
BRANCH   1  25
ATOM     25  C   UNL A   1      37.981  20.570  24.754  1.00  0.00     0.042 C 
BRANCH  25  26
ATOM     26  C   UNL A   1      39.016  20.531  25.877  1.00  0.00     0.118 C 
BRANCH  26  27
ATOM     27  N   UNL A   1      39.925  19.396  25.814  1.00  0.00    -0.352 N 
ATOM     28  C   UNL A   1      41.272  19.344  26.082  1.00  0.00     0.251 C 
ATOM     29  H   UNL A   1      39.517  18.543  25.539  1.00  0.00     0.163 HD
ATOM     30  O   UNL A   1      41.872  18.280  25.963  1.00  0.00    -0.269 OA
BRANCH  28  31
ATOM     31  C   UNL A   1      42.017  20.571  26.446  1.00  0.00     0.039 A 
ATOM     32  C   UNL A   1      42.483  21.389  25.410  1.00  0.00     0.014 A 
ATOM     33  C   UNL A   1      42.232  20.938  27.777  1.00  0.00     0.014 A 
ATOM     34  C   UNL A   1      43.065  22.624  25.705  1.00  0.00     0.010 A 
ATOM     35  C   UNL A   1      42.778  22.190  28.070  1.00  0.00     0.010 A 
ATOM     36  C   UNL A   1      43.167  23.057  27.037  1.00  0.00    -0.014 A 
BRANCH  36  37
ATOM     37  C   UNL A   1      43.576  24.451  27.350  1.00  0.00     0.031 A 
ATOM     38  C   UNL A   1      42.584  25.463  27.836  1.00  0.00     0.074 A 
ATOM     39  C   UNL A   1      44.854  24.818  27.127  1.00  0.00     0.049 A 
ATOM     40  N   UNL A   1      42.764  26.732  28.106  1.00  0.00    -0.248 NA
ATOM     41  C   UNL A   1      41.204  24.995  28.032  1.00  0.00     0.031 C 
ATOM     42  C   UNL A   1      45.907  23.936  26.619  1.00  0.00     0.029 A 
ATOM     43  N   UNL A   1      45.483  26.028  27.284  1.00  0.00    -0.354 N 
ATOM     44  C   UNL A   1      41.524  27.215  28.501  1.00  0.00     0.074 A 
ATOM     45  C   UNL A   1      40.592  26.112  28.400  1.00  0.00     0.031 C 
ATOM     46  C   UNL A   1      47.051  24.630  26.515  1.00  0.00     0.029 A 
ATOM     47  C   UNL A   1      46.807  26.012  26.917  1.00  0.00     0.049 A 
ATOM     48  H   UNL A   1      45.028  26.831  27.627  1.00  0.00     0.167 HD
ATOM     49  C   UNL A   1      41.200  28.462  28.923  1.00  0.00     0.037 A 
ATOM     50  C   UNL A   1      47.720  27.002  26.895  1.00  0.00     0.037 A 
ATOM     51  C   UNL A   1      42.130  29.558  29.030  1.00  0.00     0.049 A 
ATOM     52  C   UNL A   1      47.325  28.381  27.343  1.00  0.00     0.074 A 
ATOM     53  C   UNL A   1      41.904  30.838  29.506  1.00  0.00     0.029 A 
ATOM     54  N   UNL A   1      43.462  29.505  28.646  1.00  0.00    -0.354 N 
ATOM     55  N   UNL A   1      46.167  28.807  27.781  1.00  0.00    -0.248 NA
ATOM     56  C   UNL A   1      48.367  29.417  27.293  1.00  0.00     0.031 C 
ATOM     57  C   UNL A   1      43.087  31.573  29.370  1.00  0.00     0.029 A 
ATOM     58  C   UNL A   1      44.062  30.739  28.848  1.00  0.00     0.049 A 
ATOM     59  H   UNL A   1      43.914  28.709  28.284  1.00  0.00     0.167 HD
ATOM     60  C   UNL A   1      46.342  30.152  28.077  1.00  0.00     0.074 A 
ATOM     61  C   UNL A   1      47.725  30.468  27.784  1.00  0.00     0.031 C 
ATOM     62  C   UNL A   1      45.438  31.044  28.548  1.00  0.00     0.037 A 
BRANCH  49  63
ATOM     63  C   UNL A   1      39.771  28.713  29.303  1.00  0.00     0.064 A 
ATOM     64  C   UNL A   1      39.319  28.520  30.617  1.00  0.00     0.173 A 
ATOM     65  C   UNL A   1      38.856  29.198  28.357  1.00  0.00     0.173 A 
ATOM     66  F   UNL A   1      40.154  28.050  31.556  1.00  0.00    -0.203 F 
ATOM     67  C   UNL A   1      37.995  28.779  30.964  1.00  0.00     0.198 A 
ATOM     68  C   UNL A   1      37.540  29.480  28.713  1.00  0.00     0.198 A 
ATOM     69  F   UNL A   1      39.241  29.408  27.089  1.00  0.00    -0.203 F 
ATOM     70  F   UNL A   1      37.575  28.551  32.215  1.00  0.00    -0.200 F 
ATOM     71  C   UNL A   1      37.109  29.264  30.014  1.00  0.00     0.200 A 
ATOM     72  F   UNL A   1      36.687  29.960  27.797  1.00  0.00    -0.200 F 
ATOM     73  F   UNL A   1      35.837  29.520  30.351  1.00  0.00    -0.200 F 
ENDBRANCH  49  63
BRANCH  50  74
ATOM     74  C   UNL A   1      49.105  26.718  26.442  1.00  0.00     0.064 A 
ATOM     75  C   UNL A   1      49.484  26.933  25.109  1.00  0.00     0.173 A 
ATOM     76  C   UNL A   1      50.077  26.229  27.328  1.00  0.00     0.173 A 
ATOM     77  F   UNL A   1      48.582  27.379  24.223  1.00  0.00    -0.203 F 
ATOM     78  C   UNL A   1      50.778  26.653  24.676  1.00  0.00     0.198 A 
ATOM     79  C   UNL A   1      51.377  25.973  26.898  1.00  0.00     0.198 A 
ATOM     80  F   UNL A   1      49.764  26.011  28.613  1.00  0.00    -0.203 F 
ATOM     81  F   UNL A   1      51.103  26.829  23.388  1.00  0.00    -0.200 F 
ATOM     82  C   UNL A   1      51.724  26.179  25.571  1.00  0.00     0.200 A 
ATOM     83  F   UNL A   1      52.292  25.528  27.770  1.00  0.00    -0.200 F 
ATOM     84  F   UNL A   1      52.970  25.915  25.156  1.00  0.00    -0.200 F 
ENDBRANCH  50  74
BRANCH  62  85
ATOM     85  C   UNL A   1      45.918  32.444  28.788  1.00  0.00     0.064 A 
ATOM     86  C   UNL A   1      45.817  33.432  27.798  1.00  0.00     0.173 A 
ATOM     87  C   UNL A   1      46.456  32.810  30.031  1.00  0.00     0.173 A 
ATOM     88  F   UNL A   1      45.327  33.126  26.588  1.00  0.00    -0.203 F 
ATOM     89  C   UNL A   1      46.255  34.732  28.038  1.00  0.00     0.198 A 
ATOM     90  C   UNL A   1      46.871  34.116  30.275  1.00  0.00     0.198 A 
ATOM     91  F   UNL A   1      46.572  31.901  31.011  1.00  0.00    -0.203 F 
ATOM     92  F   UNL A   1      46.189  35.650  27.064  1.00  0.00    -0.200 F 
ATOM     93  C   UNL A   1      46.776  35.074  29.278  1.00  0.00     0.200 A 
ATOM     94  F   UNL A   1      47.365  34.448  31.477  1.00  0.00    -0.200 F 
ATOM     95  F   UNL A   1      47.193  36.326  29.508  1.00  0.00    -0.200 F 
ENDBRANCH  62  85
ENDBRANCH  36  37
ENDBRANCH  28  31
ENDBRANCH  26  27
ENDBRANCH  25  26
ENDBRANCH   1  25
TORSDOF 15
ENDMDL
