MODEL 1
REMARK VINA RESULT:     -10.5      0.000      0.000
REMARK SMILES Cc1ccc(N2C(=O)/C(=C\c3ccccc3O[C@H](C)C(=O)NCCCNC(=O)c3ccc(-c4c5nc(c(-c6c(F)c(F)c(F)c(F)c6F)c6ccc([nH]6)c(-c6c(F)c(F)c(F)c(F)c6F)c6nc(c(-c7c(F)c(F)c(F)c(F)c7F)c7ccc4[nH]7)C=C6)C=C5)cc3)SC2=S)c(C)c1
REMARK SMILES IDX 23 1 22 2 20 3 21 4 18 6 19 7 17 8 16 9 11 10 12 11 13 12
REMARK SMILES IDX 15 13 14 14 10 15 6 16 7 17 93 18 8 19 9 20 92 21 94 22 5 23
REMARK SMILES IDX 1 24 2 25 3 26 97 27 4 28 95 29 96 30 24 31 25 32 26 33
REMARK SMILES IDX 27 34 28 36 29 37 30 38 91 39 31 40 90 41 32 42 33 43 34 44
REMARK SMILES IDX 84 45 35 46 89 47 83 48 85 49 36 50 88 51 82 52 81 53 37 55
REMARK SMILES IDX 69 56 49 57 68 58 50 59 53 60 67 61 86 62 51 63 52 64 66 66
REMARK SMILES IDX 87 67 54 68 38 69 39 70 47 71 40 72 41 73 45 74 48 75 42 76
REMARK SMILES IDX 43 77 46 78 44 79 70 80 71 81 79 82 72 83 73 84 77 85 80 86
REMARK SMILES IDX 74 87 75 88 78 89 76 90 55 91 56 92 64 93 57 94 58 95 62 96
REMARK SMILES IDX 65 97 59 98 60 99 63 100 61 101
REMARK H PARENT 22 5 26 35 85 54 53 65
REMARK Flexibility Score: inf
ROOT
ATOM      1  C   UNL A   1      34.555  33.131  30.854  1.00  0.00     0.118 C 
ENDROOT
BRANCH   1   2
ATOM      2  N   UNL A   1      34.960  34.078  31.883  1.00  0.00    -0.353 N 
ATOM      3  C   UNL A   1      36.192  34.291  32.451  1.00  0.00     0.260 C 
ATOM      4  O   UNL A   1      36.291  35.207  33.272  1.00  0.00    -0.271 OA
ATOM      5  H   UNL A   1      34.240  34.656  32.224  1.00  0.00     0.163 HD
BRANCH   3   6
ATOM      6  C   UNL A   1      37.387  33.381  32.111  1.00  0.00     0.258 C 
ATOM      7  C   UNL A   1      38.499  34.252  31.537  1.00  0.00     0.064 C 
BRANCH   6   8
ATOM      8  O   UNL A   1      37.644  32.708  33.335  1.00  0.00    -0.480 OA
BRANCH   8   9
ATOM      9  C   UNL A   1      38.360  31.564  33.484  1.00  0.00     0.127 A 
ATOM     10  C   UNL A   1      39.629  31.746  34.081  1.00  0.00     0.018 A 
ATOM     11  C   UNL A   1      40.522  30.673  34.170  1.00  0.00     0.012 A 
ATOM     12  C   UNL A   1      40.140  29.412  33.715  1.00  0.00     0.001 A 
ATOM     13  C   UNL A   1      37.969  30.290  33.088  1.00  0.00     0.047 A 
ATOM     14  C   UNL A   1      38.861  29.219  33.195  1.00  0.00     0.004 A 
BRANCH  10  15
ATOM     15  C   UNL A   1      40.038  33.049  34.635  1.00  0.00     0.033 C 
ATOM     16  N   UNL A   1      38.723  33.609  38.012  1.00  0.00    -0.261 N 
ATOM     17  C   UNL A   1      38.936  32.777  36.917  1.00  0.00     0.270 C 
ATOM     18  C   UNL A   1      39.286  34.873  37.949  1.00  0.00     0.152 C 
ATOM     19  O   UNL A   1      38.551  31.620  36.801  1.00  0.00    -0.268 OA
ATOM     20  C   UNL A   1      39.711  33.497  35.860  1.00  0.00     0.081 C 
ATOM     21  S   UNL A   1      40.124  35.077  36.409  1.00  0.00    -0.054 SA
ATOM     22  S   UNL A   1      39.337  36.080  39.108  1.00  0.00    -0.051 S 
BRANCH  16  23
ATOM     23  C   UNL A   1      37.904  33.144  39.088  1.00  0.00     0.054 A 
ATOM     24  C   UNL A   1      35.337  31.376  42.088  1.00  0.00     0.044 C 
ATOM     25  C   UNL A   1      36.210  32.016  41.052  1.00  0.00    -0.051 A 
ATOM     26  C   UNL A   1      35.676  32.512  39.863  1.00  0.00     0.005 A 
ATOM     27  C   UNL A   1      37.591  32.104  41.263  1.00  0.00     0.009 A 
ATOM     28  C   UNL A   1      36.514  33.066  38.891  1.00  0.00     0.027 A 
ATOM     29  C   UNL A   1      38.447  32.680  40.305  1.00  0.00    -0.027 A 
ATOM     30  C   UNL A   1      39.910  32.756  40.653  1.00  0.00     0.046 C 
ENDBRANCH  16  23
ENDBRANCH  10  15
ENDBRANCH   8   9
ENDBRANCH   6   8
ENDBRANCH   3   6
ENDBRANCH   1   2
BRANCH   1  31
ATOM     31  C   UNL A   1      34.446  33.765  29.473  1.00  0.00     0.042 C 
BRANCH  31  32
ATOM     32  C   UNL A   1      35.020  32.909  28.355  1.00  0.00     0.118 C 
BRANCH  32  33
ATOM     33  N   UNL A   1      34.215  31.725  28.087  1.00  0.00    -0.352 N 
ATOM     34  C   UNL A   1      34.579  30.412  27.925  1.00  0.00     0.251 C 
ATOM     35  H   UNL A   1      33.249  31.896  28.010  1.00  0.00     0.163 HD
ATOM     36  O   UNL A   1      33.752  29.604  27.512  1.00  0.00    -0.269 OA
BRANCH  34  37
ATOM     37  C   UNL A   1      35.956  29.957  28.224  1.00  0.00     0.039 A 
ATOM     38  C   UNL A   1      36.938  30.102  27.239  1.00  0.00     0.014 A 
ATOM     39  C   UNL A   1      36.277  29.351  29.440  1.00  0.00     0.014 A 
ATOM     40  C   UNL A   1      38.251  29.700  27.498  1.00  0.00     0.010 A 
ATOM     41  C   UNL A   1      37.600  29.027  29.728  1.00  0.00     0.010 A 
ATOM     42  C   UNL A   1      38.601  29.192  28.758  1.00  0.00    -0.014 A 
BRANCH  42  43
ATOM     43  C   UNL A   1      40.001  28.819  29.082  1.00  0.00     0.031 A 
ATOM     44  C   UNL A   1      40.882  29.772  29.841  1.00  0.00     0.074 A 
ATOM     45  C   UNL A   1      40.502  27.653  28.629  1.00  0.00     0.049 A 
ATOM     46  N   UNL A   1      42.154  29.669  30.136  1.00  0.00    -0.248 NA
ATOM     47  C   UNL A   1      40.258  31.022  30.304  1.00  0.00     0.031 C 
ATOM     48  C   UNL A   1      39.763  26.662  27.845  1.00  0.00     0.029 A 
ATOM     49  N   UNL A   1      41.756  27.110  28.752  1.00  0.00    -0.354 N 
ATOM     50  C   UNL A   1      42.485  30.848  30.794  1.00  0.00     0.074 A 
ATOM     51  C   UNL A   1      41.294  31.668  30.819  1.00  0.00     0.031 C 
ATOM     52  C   UNL A   1      40.570  25.622  27.577  1.00  0.00     0.029 A 
ATOM     53  C   UNL A   1      41.891  25.890  28.134  1.00  0.00     0.049 A 
ATOM     54  H   UNL A   1      42.490  27.552  29.237  1.00  0.00     0.167 HD
ATOM     55  C   UNL A   1      43.671  31.203  31.342  1.00  0.00     0.037 A 
ATOM     56  C   UNL A   1      42.964  25.083  28.024  1.00  0.00     0.037 A 
ATOM     57  C   UNL A   1      44.841  30.365  31.357  1.00  0.00     0.049 A 
ATOM     58  C   UNL A   1      44.266  25.500  28.652  1.00  0.00     0.074 A 
ATOM     59  C   UNL A   1      46.064  30.602  31.960  1.00  0.00     0.029 A 
ATOM     60  N   UNL A   1      44.932  29.127  30.740  1.00  0.00    -0.354 N 
ATOM     61  N   UNL A   1      44.548  26.584  29.330  1.00  0.00    -0.248 NA
ATOM     62  C   UNL A   1      45.398  24.576  28.501  1.00  0.00     0.031 C 
ATOM     63  C   UNL A   1      46.908  29.525  31.675  1.00  0.00     0.029 A 
ATOM     64  C   UNL A   1      46.199  28.597  30.930  1.00  0.00     0.049 A 
ATOM     65  H   UNL A   1      44.206  28.689  30.242  1.00  0.00     0.167 HD
ATOM     66  C   UNL A   1      45.876  26.461  29.713  1.00  0.00     0.074 A 
ATOM     67  C   UNL A   1      46.343  25.190  29.200  1.00  0.00     0.031 C 
ATOM     68  C   UNL A   1      46.641  27.323  30.425  1.00  0.00     0.037 A 
BRANCH  55  69
ATOM     69  C   UNL A   1      43.766  32.558  31.980  1.00  0.00     0.064 A 
ATOM     70  C   UNL A   1      43.963  33.719  31.217  1.00  0.00     0.173 A 
ATOM     71  C   UNL A   1      43.611  32.702  33.366  1.00  0.00     0.173 A 
ATOM     72  F   UNL A   1      44.129  33.634  29.889  1.00  0.00    -0.203 F 
ATOM     73  C   UNL A   1      44.026  34.971  31.823  1.00  0.00     0.198 A 
ATOM     74  C   UNL A   1      43.646  33.958  33.966  1.00  0.00     0.198 A 
ATOM     75  F   UNL A   1      43.414  31.624  34.140  1.00  0.00    -0.203 F 
ATOM     76  F   UNL A   1      44.258  36.062  31.079  1.00  0.00    -0.200 F 
ATOM     77  C   UNL A   1      43.859  35.090  33.194  1.00  0.00     0.200 A 
ATOM     78  F   UNL A   1      43.472  34.073  35.290  1.00  0.00    -0.200 F 
ATOM     79  F   UNL A   1      43.909  36.298  33.774  1.00  0.00    -0.200 F 
ENDBRANCH  55  69
BRANCH  56  80
ATOM     80  C   UNL A   1      42.847  23.784  27.314  1.00  0.00     0.064 A 
ATOM     81  C   UNL A   1      42.359  22.649  27.975  1.00  0.00     0.173 A 
ATOM     82  C   UNL A   1      43.230  23.645  25.972  1.00  0.00     0.173 A 
ATOM     83  F   UNL A   1      42.001  22.729  29.265  1.00  0.00    -0.203 F 
ATOM     84  C   UNL A   1      42.275  21.418  27.327  1.00  0.00     0.198 A 
ATOM     85  C   UNL A   1      43.122  22.420  25.318  1.00  0.00     0.198 A 
ATOM     86  F   UNL A   1      43.701  24.702  25.294  1.00  0.00    -0.203 F 
ATOM     87  F   UNL A   1      41.848  20.339  27.997  1.00  0.00    -0.200 F 
ATOM     88  C   UNL A   1      42.653  21.305  25.998  1.00  0.00     0.200 A 
ATOM     89  F   UNL A   1      43.476  22.317  24.029  1.00  0.00    -0.200 F 
ATOM     90  F   UNL A   1      42.572  20.122  25.374  1.00  0.00    -0.200 F 
ENDBRANCH  56  80
BRANCH  68  91
ATOM     91  C   UNL A   1      48.049  26.904  30.729  1.00  0.00     0.064 A 
ATOM     92  C   UNL A   1      48.355  26.118  31.849  1.00  0.00     0.173 A 
ATOM     93  C   UNL A   1      49.096  27.260  29.867  1.00  0.00     0.173 A 
ATOM     94  F   UNL A   1      47.390  25.765  32.711  1.00  0.00    -0.203 F 
ATOM     95  C   UNL A   1      49.666  25.723  32.107  1.00  0.00     0.198 A 
ATOM     96  C   UNL A   1      50.401  26.841  30.113  1.00  0.00     0.198 A 
ATOM     97  F   UNL A   1      48.853  28.007  28.780  1.00  0.00    -0.203 F 
ATOM     98  F   UNL A   1      49.944  25.008  33.206  1.00  0.00    -0.200 F 
ATOM     99  C   UNL A   1      50.684  26.078  31.235  1.00  0.00     0.200 A 
ATOM    100  F   UNL A   1      51.382  27.175  29.265  1.00  0.00    -0.200 F 
ATOM    101  F   UNL A   1      51.944  25.691  31.483  1.00  0.00    -0.200 F 
ENDBRANCH  68  91
ENDBRANCH  42  43
ENDBRANCH  34  37
ENDBRANCH  32  33
ENDBRANCH  31  32
ENDBRANCH   1  31
TORSDOF 14
ENDMDL
MODEL 2
REMARK VINA RESULT:     -10.1      5.191     12.341
REMARK SMILES Cc1ccc(N2C(=O)/C(=C\c3ccccc3O[C@H](C)C(=O)NCCCNC(=O)c3ccc(-c4c5nc(c(-c6c(F)c(F)c(F)c(F)c6F)c6ccc([nH]6)c(-c6c(F)c(F)c(F)c(F)c6F)c6nc(c(-c7c(F)c(F)c(F)c(F)c7F)c7ccc4[nH]7)C=C6)C=C5)cc3)SC2=S)c(C)c1
REMARK SMILES IDX 23 1 22 2 20 3 21 4 18 6 19 7 17 8 16 9 11 10 12 11 13 12
REMARK SMILES IDX 15 13 14 14 10 15 6 16 7 17 93 18 8 19 9 20 92 21 94 22 5 23
REMARK SMILES IDX 1 24 2 25 3 26 97 27 4 28 95 29 96 30 24 31 25 32 26 33
REMARK SMILES IDX 27 34 28 36 29 37 30 38 91 39 31 40 90 41 32 42 33 43 34 44
REMARK SMILES IDX 84 45 35 46 89 47 83 48 85 49 36 50 88 51 82 52 81 53 37 55
REMARK SMILES IDX 69 56 49 57 68 58 50 59 53 60 67 61 86 62 51 63 52 64 66 66
REMARK SMILES IDX 87 67 54 68 38 69 39 70 47 71 40 72 41 73 45 74 48 75 42 76
REMARK SMILES IDX 43 77 46 78 44 79 70 80 71 81 79 82 72 83 73 84 77 85 80 86
REMARK SMILES IDX 74 87 75 88 78 89 76 90 55 91 56 92 64 93 57 94 58 95 62 96
REMARK SMILES IDX 65 97 59 98 60 99 63 100 61 101
REMARK H PARENT 22 5 26 35 85 54 53 65
REMARK Flexibility Score: inf
ROOT
ATOM      1  C   UNL A   1      42.541  22.042  25.601  1.00  0.00     0.118 C 
ENDROOT
BRANCH   1   2
ATOM      2  N   UNL A   1      43.992  21.947  25.524  1.00  0.00    -0.353 N 
ATOM      3  C   UNL A   1      44.960  22.713  26.126  1.00  0.00     0.260 C 
ATOM      4  O   UNL A   1      46.137  22.389  25.947  1.00  0.00    -0.271 OA
ATOM      5  H   UNL A   1      44.332  21.221  24.952  1.00  0.00     0.163 HD
BRANCH   3   6
ATOM      6  C   UNL A   1      44.583  23.961  26.947  1.00  0.00     0.258 C 
ATOM      7  C   UNL A   1      44.978  23.711  28.398  1.00  0.00     0.064 C 
BRANCH   6   8
ATOM      8  O   UNL A   1      45.241  25.015  26.258  1.00  0.00    -0.480 OA
BRANCH   8   9
ATOM      9  C   UNL A   1      44.943  26.337  26.348  1.00  0.00     0.127 A 
ATOM     10  C   UNL A   1      45.888  27.098  27.074  1.00  0.00     0.018 A 
ATOM     11  C   UNL A   1      45.636  28.444  27.357  1.00  0.00     0.012 A 
ATOM     12  C   UNL A   1      44.474  29.048  26.878  1.00  0.00     0.001 A 
ATOM     13  C   UNL A   1      43.818  26.964  25.827  1.00  0.00     0.047 A 
ATOM     14  C   UNL A   1      43.580  28.315  26.100  1.00  0.00     0.004 A 
BRANCH  10  15
ATOM     15  C   UNL A   1      47.159  26.509  27.535  1.00  0.00     0.033 C 
ATOM     16  N   UNL A   1      49.798  26.714  24.998  1.00  0.00    -0.261 N 
ATOM     17  C   UNL A   1      48.524  27.044  25.451  1.00  0.00     0.270 C 
ATOM     18  C   UNL A   1      50.599  25.995  25.870  1.00  0.00     0.152 C 
ATOM     19  O   UNL A   1      47.687  27.700  24.843  1.00  0.00    -0.268 OA
ATOM     20  C   UNL A   1      48.292  26.469  26.812  1.00  0.00     0.081 C 
ATOM     21  S   UNL A   1      49.713  25.666  27.360  1.00  0.00    -0.054 SA
ATOM     22  S   UNL A   1      52.201  25.533  25.716  1.00  0.00    -0.051 S 
BRANCH  16  23
ATOM     23  C   UNL A   1      50.177  27.076  23.667  1.00  0.00     0.054 A 
ATOM     24  C   UNL A   1      50.896  28.302  19.581  1.00  0.00     0.044 C 
ATOM     25  C   UNL A   1      50.661  27.849  20.990  1.00  0.00    -0.051 A 
ATOM     26  C   UNL A   1      49.880  26.728  21.269  1.00  0.00     0.005 A 
ATOM     27  C   UNL A   1      51.215  28.570  22.055  1.00  0.00     0.009 A 
ATOM     28  C   UNL A   1      49.638  26.348  22.592  1.00  0.00     0.027 A 
ATOM     29  C   UNL A   1      51.000  28.189  23.393  1.00  0.00    -0.027 A 
ATOM     30  C   UNL A   1      51.675  29.015  24.456  1.00  0.00     0.046 C 
ENDBRANCH  16  23
ENDBRANCH  10  15
ENDBRANCH   8   9
ENDBRANCH   6   8
ENDBRANCH   3   6
ENDBRANCH   1   2
BRANCH   1  31
ATOM     31  C   UNL A   1      41.932  21.047  26.581  1.00  0.00     0.042 C 
BRANCH  31  32
ATOM     32  C   UNL A   1      40.661  21.542  27.253  1.00  0.00     0.118 C 
BRANCH  32  33
ATOM     33  N   UNL A   1      39.619  21.885  26.295  1.00  0.00    -0.352 N 
ATOM     34  C   UNL A   1      38.904  23.045  26.125  1.00  0.00     0.251 C 
ATOM     35  H   UNL A   1      39.390  21.166  25.664  1.00  0.00     0.163 HD
ATOM     36  O   UNL A   1      37.932  23.049  25.375  1.00  0.00    -0.269 OA
BRANCH  34  37
ATOM     37  C   UNL A   1      39.275  24.284  26.845  1.00  0.00     0.039 A 
ATOM     38  C   UNL A   1      38.832  24.452  28.161  1.00  0.00     0.014 A 
ATOM     39  C   UNL A   1      40.009  25.297  26.226  1.00  0.00     0.014 A 
ATOM     40  C   UNL A   1      39.183  25.603  28.874  1.00  0.00     0.010 A 
ATOM     41  C   UNL A   1      40.427  26.403  26.961  1.00  0.00     0.010 A 
ATOM     42  C   UNL A   1      40.013  26.571  28.291  1.00  0.00    -0.014 A 
BRANCH  42  43
ATOM     43  C   UNL A   1      40.453  27.771  29.047  1.00  0.00     0.031 A 
ATOM     44  C   UNL A   1      41.837  27.830  29.632  1.00  0.00     0.074 A 
ATOM     45  C   UNL A   1      39.583  28.776  29.269  1.00  0.00     0.049 A 
ATOM     46  N   UNL A   1      42.374  28.745  30.400  1.00  0.00    -0.248 NA
ATOM     47  C   UNL A   1      42.728  26.695  29.339  1.00  0.00     0.031 C 
ATOM     48  C   UNL A   1      38.200  28.818  28.793  1.00  0.00     0.029 A 
ATOM     49  N   UNL A   1      39.730  29.949  29.966  1.00  0.00    -0.354 N 
ATOM     50  C   UNL A   1      43.649  28.284  30.702  1.00  0.00     0.074 A 
ATOM     51  C   UNL A   1      43.793  26.991  30.069  1.00  0.00     0.031 C 
ATOM     52  C   UNL A   1      37.633  29.969  29.190  1.00  0.00     0.029 A 
ATOM     53  C   UNL A   1      38.597  30.725  29.982  1.00  0.00     0.049 A 
ATOM     54  H   UNL A   1      40.568  30.209  30.412  1.00  0.00     0.167 HD
ATOM     55  C   UNL A   1      44.618  28.893  31.426  1.00  0.00     0.037 A 
ATOM     56  C   UNL A   1      38.361  31.910  30.577  1.00  0.00     0.037 A 
ATOM     57  C   UNL A   1      44.489  30.201  32.015  1.00  0.00     0.049 A 
ATOM     58  C   UNL A   1      39.460  32.569  31.366  1.00  0.00     0.074 A 
ATOM     59  C   UNL A   1      45.441  30.938  32.696  1.00  0.00     0.029 A 
ATOM     60  N   UNL A   1      43.332  30.965  31.991  1.00  0.00    -0.354 N 
ATOM     61  N   UNL A   1      40.682  32.155  31.587  1.00  0.00    -0.248 NA
ATOM     62  C   UNL A   1      39.143  33.862  31.988  1.00  0.00     0.031 C 
ATOM     63  C   UNL A   1      44.850  32.132  33.118  1.00  0.00     0.029 A 
ATOM     64  C   UNL A   1      43.542  32.159  32.664  1.00  0.00     0.049 A 
ATOM     65  H   UNL A   1      42.488  30.701  31.560  1.00  0.00     0.167 HD
ATOM     66  C   UNL A   1      41.291  33.147  32.343  1.00  0.00     0.074 A 
ATOM     67  C   UNL A   1      40.305  34.190  32.536  1.00  0.00     0.031 C 
ATOM     68  C   UNL A   1      42.553  33.191  32.834  1.00  0.00     0.037 A 
BRANCH  55  69
ATOM     69  C   UNL A   1      45.910  28.158  31.621  1.00  0.00     0.064 A 
ATOM     70  C   UNL A   1      46.040  27.135  32.573  1.00  0.00     0.173 A 
ATOM     71  C   UNL A   1      47.020  28.447  30.813  1.00  0.00     0.173 A 
ATOM     72  F   UNL A   1      45.012  26.828  33.378  1.00  0.00    -0.203 F 
ATOM     73  C   UNL A   1      47.241  26.446  32.724  1.00  0.00     0.198 A 
ATOM     74  C   UNL A   1      48.210  27.737  30.948  1.00  0.00     0.198 A 
ATOM     75  F   UNL A   1      46.947  29.412  29.884  1.00  0.00    -0.203 F 
ATOM     76  F   UNL A   1      47.354  25.502  33.668  1.00  0.00    -0.200 F 
ATOM     77  C   UNL A   1      48.321  26.742  31.907  1.00  0.00     0.200 A 
ATOM     78  F   UNL A   1      49.250  28.016  30.149  1.00  0.00    -0.200 F 
ATOM     79  F   UNL A   1      49.473  26.070  32.048  1.00  0.00    -0.200 F 
ENDBRANCH  55  69
BRANCH  56  80
ATOM     80  C   UNL A   1      37.039  32.568  30.425  1.00  0.00     0.064 A 
ATOM     81  C   UNL A   1      36.033  32.383  31.384  1.00  0.00     0.173 A 
ATOM     82  C   UNL A   1      36.746  33.381  29.321  1.00  0.00     0.173 A 
ATOM     83  F   UNL A   1      36.259  31.597  32.446  1.00  0.00    -0.203 F 
ATOM     84  C   UNL A   1      34.778  32.970  31.235  1.00  0.00     0.198 A 
ATOM     85  C   UNL A   1      35.500  33.989  29.185  1.00  0.00     0.198 A 
ATOM     86  F   UNL A   1      37.677  33.593  28.377  1.00  0.00    -0.203 F 
ATOM     87  F   UNL A   1      33.821  32.739  32.143  1.00  0.00    -0.200 F 
ATOM     88  C   UNL A   1      34.514  33.776  30.137  1.00  0.00     0.200 A 
ATOM     89  F   UNL A   1      35.252  34.777  28.130  1.00  0.00    -0.200 F 
ATOM     90  F   UNL A   1      33.308  34.342  29.994  1.00  0.00    -0.200 F 
ENDBRANCH  56  80
BRANCH  68  91
ATOM     91  C   UNL A   1      42.954  34.423  33.591  1.00  0.00     0.064 A 
ATOM     92  C   UNL A   1      42.895  34.475  34.991  1.00  0.00     0.173 A 
ATOM     93  C   UNL A   1      43.439  35.548  32.909  1.00  0.00     0.173 A 
ATOM     94  F   UNL A   1      42.423  33.430  35.687  1.00  0.00    -0.203 F 
ATOM     95  C   UNL A   1      43.287  35.620  35.679  1.00  0.00     0.198 A 
ATOM     96  C   UNL A   1      43.856  36.681  33.602  1.00  0.00     0.198 A 
ATOM     97  F   UNL A   1      43.519  35.545  31.570  1.00  0.00    -0.203 F 
ATOM     98  F   UNL A   1      43.183  35.665  37.015  1.00  0.00    -0.200 F 
ATOM     99  C   UNL A   1      43.774  36.718  34.985  1.00  0.00     0.200 A 
ATOM    100  F   UNL A   1      44.335  37.736  32.931  1.00  0.00    -0.200 F 
ATOM    101  F   UNL A   1      44.156  37.817  35.651  1.00  0.00    -0.200 F 
ENDBRANCH  68  91
ENDBRANCH  42  43
ENDBRANCH  34  37
ENDBRANCH  32  33
ENDBRANCH  31  32
ENDBRANCH   1  31
TORSDOF 14
ENDMDL
MODEL 3
REMARK VINA RESULT:     -10.0      1.555      3.090
REMARK SMILES Cc1ccc(N2C(=O)/C(=C\c3ccccc3O[C@H](C)C(=O)NCCCNC(=O)c3ccc(-c4c5nc(c(-c6c(F)c(F)c(F)c(F)c6F)c6ccc([nH]6)c(-c6c(F)c(F)c(F)c(F)c6F)c6nc(c(-c7c(F)c(F)c(F)c(F)c7F)c7ccc4[nH]7)C=C6)C=C5)cc3)SC2=S)c(C)c1
REMARK SMILES IDX 23 1 22 2 20 3 21 4 18 6 19 7 17 8 16 9 11 10 12 11 13 12
REMARK SMILES IDX 15 13 14 14 10 15 6 16 7 17 93 18 8 19 9 20 92 21 94 22 5 23
REMARK SMILES IDX 1 24 2 25 3 26 97 27 4 28 95 29 96 30 24 31 25 32 26 33
REMARK SMILES IDX 27 34 28 36 29 37 30 38 91 39 31 40 90 41 32 42 33 43 34 44
REMARK SMILES IDX 84 45 35 46 89 47 83 48 85 49 36 50 88 51 82 52 81 53 37 55
REMARK SMILES IDX 69 56 49 57 68 58 50 59 53 60 67 61 86 62 51 63 52 64 66 66
REMARK SMILES IDX 87 67 54 68 38 69 39 70 47 71 40 72 41 73 45 74 48 75 42 76
REMARK SMILES IDX 43 77 46 78 44 79 70 80 71 81 79 82 72 83 73 84 77 85 80 86
REMARK SMILES IDX 74 87 75 88 78 89 76 90 55 91 56 92 64 93 57 94 58 95 62 96
REMARK SMILES IDX 65 97 59 98 60 99 63 100 61 101
REMARK H PARENT 22 5 26 35 85 54 53 65
REMARK Flexibility Score: inf
ROOT
ATOM      1  C   UNL A   1      35.012  32.199  31.206  1.00  0.00     0.118 C 
ENDROOT
BRANCH   1   2
ATOM      2  N   UNL A   1      35.275  32.942  32.430  1.00  0.00    -0.353 N 
ATOM      3  C   UNL A   1      36.441  33.090  33.139  1.00  0.00     0.260 C 
ATOM      4  O   UNL A   1      36.418  33.830  34.127  1.00  0.00    -0.271 OA
ATOM      5  H   UNL A   1      34.496  33.411  32.808  1.00  0.00     0.163 HD
BRANCH   3   6
ATOM      6  C   UNL A   1      37.711  32.314  32.743  1.00  0.00     0.258 C 
ATOM      7  C   UNL A   1      38.855  33.314  32.608  1.00  0.00     0.064 C 
BRANCH   6   8
ATOM      8  O   UNL A   1      37.819  31.325  33.757  1.00  0.00    -0.480 OA
BRANCH   8   9
ATOM      9  C   UNL A   1      38.914  30.566  34.020  1.00  0.00     0.127 A 
ATOM     10  C   UNL A   1      39.467  30.770  35.306  1.00  0.00     0.018 A 
ATOM     11  C   UNL A   1      40.672  30.154  35.656  1.00  0.00     0.012 A 
ATOM     12  C   UNL A   1      41.302  29.298  34.755  1.00  0.00     0.001 A 
ATOM     13  C   UNL A   1      39.520  29.666  33.153  1.00  0.00     0.047 A 
ATOM     14  C   UNL A   1      40.717  29.041  33.517  1.00  0.00     0.004 A 
BRANCH  10  15
ATOM     15  C   UNL A   1      38.790  31.614  36.308  1.00  0.00     0.033 C 
ATOM     16  N   UNL A   1      40.481  34.830  36.802  1.00  0.00    -0.261 N 
ATOM     17  C   UNL A   1      40.331  33.633  36.106  1.00  0.00     0.270 C 
ATOM     18  C   UNL A   1      39.556  35.086  37.801  1.00  0.00     0.152 C 
ATOM     19  O   UNL A   1      41.023  33.247  35.173  1.00  0.00    -0.268 OA
ATOM     20  C   UNL A   1      39.188  32.847  36.666  1.00  0.00     0.081 C 
ATOM     21  S   UNL A   1      38.422  33.739  37.924  1.00  0.00    -0.054 SA
ATOM     22  S   UNL A   1      39.356  36.452  38.749  1.00  0.00    -0.051 S 
BRANCH  16  23
ATOM     23  C   UNL A   1      41.590  35.678  36.494  1.00  0.00     0.054 A 
ATOM     24  C   UNL A   1      44.681  38.592  35.674  1.00  0.00     0.044 C 
ATOM     25  C   UNL A   1      43.615  37.569  35.929  1.00  0.00    -0.051 A 
ATOM     26  C   UNL A   1      42.494  37.473  35.107  1.00  0.00     0.005 A 
ATOM     27  C   UNL A   1      43.729  36.703  37.023  1.00  0.00     0.009 A 
ATOM     28  C   UNL A   1      41.490  36.541  35.389  1.00  0.00     0.027 A 
ATOM     29  C   UNL A   1      42.740  35.743  37.308  1.00  0.00    -0.027 A 
ATOM     30  C   UNL A   1      42.985  34.838  38.487  1.00  0.00     0.046 C 
ENDBRANCH  16  23
ENDBRANCH  10  15
ENDBRANCH   8   9
ENDBRANCH   6   8
ENDBRANCH   3   6
ENDBRANCH   1   2
BRANCH   1  31
ATOM     31  C   UNL A   1      34.518  33.085  30.068  1.00  0.00     0.042 C 
BRANCH  31  32
ATOM     32  C   UNL A   1      34.934  32.603  28.687  1.00  0.00     0.118 C 
BRANCH  32  33
ATOM     33  N   UNL A   1      34.278  31.360  28.307  1.00  0.00    -0.352 N 
ATOM     34  C   UNL A   1      34.799  30.119  28.032  1.00  0.00     0.251 C 
ATOM     35  H   UNL A   1      33.299  31.418  28.238  1.00  0.00     0.163 HD
ATOM     36  O   UNL A   1      34.074  29.257  27.541  1.00  0.00    -0.269 OA
BRANCH  34  37
ATOM     37  C   UNL A   1      36.221  29.811  28.300  1.00  0.00     0.039 A 
ATOM     38  C   UNL A   1      36.573  29.313  29.559  1.00  0.00     0.014 A 
ATOM     39  C   UNL A   1      37.214  30.050  27.347  1.00  0.00     0.014 A 
ATOM     40  C   UNL A   1      37.905  28.993  29.836  1.00  0.00     0.010 A 
ATOM     41  C   UNL A   1      38.526  29.656  27.595  1.00  0.00     0.010 A 
ATOM     42  C   UNL A   1      38.887  29.129  28.844  1.00  0.00    -0.014 A 
BRANCH  42  43
ATOM     43  C   UNL A   1      40.298  28.736  29.090  1.00  0.00     0.031 A 
ATOM     44  C   UNL A   1      41.239  29.687  29.776  1.00  0.00     0.074 A 
ATOM     45  C   UNL A   1      40.750  27.552  28.632  1.00  0.00     0.049 A 
ATOM     46  N   UNL A   1      42.525  29.566  29.996  1.00  0.00    -0.248 NA
ATOM     47  C   UNL A   1      40.666  30.957  30.251  1.00  0.00     0.031 C 
ATOM     48  C   UNL A   1      39.948  26.561  27.914  1.00  0.00     0.029 A 
ATOM     49  N   UNL A   1      42.000  26.989  28.689  1.00  0.00    -0.354 N 
ATOM     50  C   UNL A   1      42.916  30.750  30.609  1.00  0.00     0.074 A 
ATOM     51  C   UNL A   1      41.742  31.593  30.689  1.00  0.00     0.031 C 
ATOM     52  C   UNL A   1      40.718  25.501  27.618  1.00  0.00     0.029 A 
ATOM     53  C   UNL A   1      42.076  25.755  28.089  1.00  0.00     0.049 A 
ATOM     54  H   UNL A   1      42.769  27.427  29.120  1.00  0.00     0.167 HD
ATOM     55  C   UNL A   1      44.138  31.094  31.078  1.00  0.00     0.037 A 
ATOM     56  C   UNL A   1      43.126  24.927  27.931  1.00  0.00     0.037 A 
ATOM     57  C   UNL A   1      45.293  30.235  31.040  1.00  0.00     0.049 A 
ATOM     58  C   UNL A   1      44.470  25.331  28.472  1.00  0.00     0.074 A 
ATOM     59  C   UNL A   1      46.554  30.460  31.563  1.00  0.00     0.029 A 
ATOM     60  N   UNL A   1      45.325  28.984  30.443  1.00  0.00    -0.354 N 
ATOM     61  N   UNL A   1      44.811  26.423  29.110  1.00  0.00    -0.248 NA
ATOM     62  C   UNL A   1      45.575  24.383  28.271  1.00  0.00     0.031 C 
ATOM     63  C   UNL A   1      47.360  29.362  31.249  1.00  0.00     0.029 A 
ATOM     64  C   UNL A   1      46.591  28.434  30.567  1.00  0.00     0.049 A 
ATOM     65  H   UNL A   1      44.562  28.550  29.998  1.00  0.00     0.167 HD
ATOM     66  C   UNL A   1      46.158  26.282  29.414  1.00  0.00     0.074 A 
ATOM     67  C   UNL A   1      46.571  24.992  28.900  1.00  0.00     0.031 C 
ATOM     68  C   UNL A   1      46.979  27.143  30.062  1.00  0.00     0.037 A 
BRANCH  55  69
ATOM     69  C   UNL A   1      44.296  32.458  31.681  1.00  0.00     0.064 A 
ATOM     70  C   UNL A   1      44.129  32.679  33.057  1.00  0.00     0.173 A 
ATOM     71  C   UNL A   1      44.663  33.551  30.881  1.00  0.00     0.173 A 
ATOM     72  F   UNL A   1      43.767  31.670  33.864  1.00  0.00    -0.203 F 
ATOM     73  C   UNL A   1      44.302  33.948  33.604  1.00  0.00     0.198 A 
ATOM     74  C   UNL A   1      44.862  34.812  31.436  1.00  0.00     0.198 A 
ATOM     75  F   UNL A   1      44.840  33.392  29.561  1.00  0.00    -0.203 F 
ATOM     76  F   UNL A   1      44.096  34.143  34.914  1.00  0.00    -0.200 F 
ATOM     77  C   UNL A   1      44.675  35.010  32.796  1.00  0.00     0.200 A 
ATOM     78  F   UNL A   1      45.236  35.835  30.655  1.00  0.00    -0.200 F 
ATOM     79  F   UNL A   1      44.851  36.229  33.327  1.00  0.00    -0.200 F 
ENDBRANCH  55  69
BRANCH  56  80
ATOM     80  C   UNL A   1      42.944  23.617  27.255  1.00  0.00     0.064 A 
ATOM     81  C   UNL A   1      42.389  22.529  27.942  1.00  0.00     0.173 A 
ATOM     82  C   UNL A   1      43.329  23.420  25.921  1.00  0.00     0.173 A 
ATOM     83  F   UNL A   1      42.026  22.663  29.226  1.00  0.00    -0.203 F 
ATOM     84  C   UNL A   1      42.243  21.287  27.328  1.00  0.00     0.198 A 
ATOM     85  C   UNL A   1      43.159  22.185  25.299  1.00  0.00     0.198 A 
ATOM     86  F   UNL A   1      43.862  24.431  25.219  1.00  0.00    -0.203 F 
ATOM     87  F   UNL A   1      41.752  20.252  28.022  1.00  0.00    -0.200 F 
ATOM     88  C   UNL A   1      42.625  21.117  26.005  1.00  0.00     0.200 A 
ATOM     89  F   UNL A   1      43.517  22.028  24.018  1.00  0.00    -0.200 F 
ATOM     90  F   UNL A   1      42.484  19.923  25.413  1.00  0.00    -0.200 F 
ENDBRANCH  56  80
BRANCH  68  91
ATOM     91  C   UNL A   1      48.396  26.703  30.289  1.00  0.00     0.064 A 
ATOM     92  C   UNL A   1      49.429  27.079  29.419  1.00  0.00     0.173 A 
ATOM     93  C   UNL A   1      48.727  25.930  31.411  1.00  0.00     0.173 A 
ATOM     94  F   UNL A   1      49.160  27.806  28.324  1.00  0.00    -0.203 F 
ATOM     95  C   UNL A   1      50.742  26.677  29.654  1.00  0.00     0.198 A 
ATOM     96  C   UNL A   1      50.044  25.552  31.657  1.00  0.00     0.198 A 
ATOM     97  F   UNL A   1      47.775  25.549  32.274  1.00  0.00    -0.203 F 
ATOM     98  F   UNL A   1      51.708  27.012  28.787  1.00  0.00    -0.200 F 
ATOM     99  C   UNL A   1      51.048  25.921  30.775  1.00  0.00     0.200 A 
ATOM    100  F   UNL A   1      50.340  24.831  32.746  1.00  0.00    -0.200 F 
ATOM    101  F   UNL A   1      52.313  25.540  31.001  1.00  0.00    -0.200 F 
ENDBRANCH  68  91
ENDBRANCH  42  43
ENDBRANCH  34  37
ENDBRANCH  32  33
ENDBRANCH  31  32
ENDBRANCH   1  31
TORSDOF 14
ENDMDL
