MODEL 1
REMARK VINA RESULT:     -13.8      0.000      0.000
REMARK SMILES COc1ccc(CCN2C(=O)C[C@@H](C(=O)NCCCNC(=O)c3ccc(-c4c5nc(c(-c6c(F)c(F)c(F)c(F)c6F)c6ccc([nH]6)c(-c6c(F)c(F)c(F)c(F)c6F)c6nc(c(-c7c(F)c(F)c(F)c(F)c7F)c7ccc4[nH]7)C=C6)C=C5)cc3)S/C2=[NH+]\c2ccc(F)cc2)cc1OC
REMARK SMILES IDX 17 1 16 2 14 3 15 4 13 6 9 7 10 8 87 9 11 10 12 11 86 12
REMARK SMILES IDX 88 13 8 15 7 16 6 17 3 18 4 19 97 20 5 21 96 22 2 23 1 24
REMARK SMILES IDX 98 25 99 26 89 27 90 28 95 29 91 30 94 31 92 32 93 33 18 34
REMARK SMILES IDX 19 35 20 36 21 37 22 39 23 40 24 41 85 42 25 43 84 44 26 45
REMARK SMILES IDX 27 46 28 47 78 48 29 49 83 50 77 51 79 52 30 53 82 54 76 55
REMARK SMILES IDX 75 56 31 58 63 59 43 60 62 61 44 62 47 63 61 64 80 65 45 66
REMARK SMILES IDX 46 67 60 69 81 70 48 71 32 72 33 73 41 74 34 75 35 76 39 77
REMARK SMILES IDX 42 78 36 79 37 80 40 81 38 82 64 83 65 84 73 85 66 86 67 87
REMARK SMILES IDX 71 88 74 89 68 90 69 91 72 92 70 93 49 94 50 95 58 96 51 97
REMARK SMILES IDX 52 98 56 99 59 100 53 101 54 102 57 103 55 104
REMARK H PARENT 16 5 88 14 20 38 79 57 47 68
REMARK Flexibility Score: inf
ROOT
ATOM      1  C   UNL A   1      38.713  21.176  25.444  1.00  0.00     0.117 C 
ENDROOT
BRANCH   1   2
ATOM      2  N   UNL A   1      37.871  22.227  25.983  1.00  0.00    -0.355 N 
ATOM      3  C   UNL A   1      36.592  22.594  25.661  1.00  0.00     0.234 C 
ATOM      4  O   UNL A   1      36.049  23.418  26.403  1.00  0.00    -0.274 OA
ATOM      5  H   UNL A   1      38.288  22.764  26.695  1.00  0.00     0.163 HD
BRANCH   3   6
ATOM      6  C   UNL A   1      35.815  21.999  24.473  1.00  0.00     0.160 C 
ATOM      7  N   UNL A   1      32.984  22.200  23.525  1.00  0.00    -0.191 N 
ATOM      8  C   UNL A   1      33.970  22.936  22.889  1.00  0.00     0.311 C 
ATOM      9  C   UNL A   1      33.273  20.937  24.011  1.00  0.00     0.319 C 
ATOM     10  O   UNL A   1      33.751  23.585  21.862  1.00  0.00    -0.247 OA
ATOM     11  C   UNL A   1      35.334  23.064  23.524  1.00  0.00     0.153 C 
ATOM     12  S   UNL A   1      34.638  20.814  25.091  1.00  0.00    -0.024 SA
ATOM     13  N   UNL A   1      32.512  19.918  23.737  1.00  0.00    -0.235 N 
ATOM     14  H   UNL A   1      31.669  20.037  23.244  1.00  0.00     0.313 HD
BRANCH   7  15
ATOM     15  C   UNL A   1      31.581  22.576  23.220  1.00  0.00     0.251 C 
BRANCH  15  16
ATOM     16  C   UNL A   1      30.832  23.287  24.393  1.00  0.00     0.082 C 
BRANCH  16  17
ATOM     17  C   UNL A   1      31.190  24.721  24.766  1.00  0.00    -0.040 A 
ATOM     18  C   UNL A   1      31.605  27.413  25.608  1.00  0.00     0.160 A 
ATOM     19  C   UNL A   1      31.934  26.351  26.435  1.00  0.00     0.051 A 
ATOM     20  C   UNL A   1      31.122  27.150  24.320  1.00  0.00     0.160 A 
ATOM     21  C   UNL A   1      31.714  25.045  26.010  1.00  0.00     0.008 A 
ATOM     22  C   UNL A   1      30.907  25.807  23.920  1.00  0.00     0.054 A 
BRANCH  18  23
ATOM     23  O   UNL A   1      31.833  28.682  26.069  1.00  0.00    -0.493 OA
ATOM     24  C   UNL A   1      31.648  28.784  27.484  1.00  0.00     0.278 C 
ENDBRANCH  18  23
BRANCH  20  25
ATOM     25  O   UNL A   1      30.794  28.065  23.353  1.00  0.00    -0.493 OA
ATOM     26  C   UNL A   1      29.412  28.276  23.081  1.00  0.00     0.278 C 
ENDBRANCH  20  25
ENDBRANCH  16  17
ENDBRANCH  15  16
ENDBRANCH   7  15
BRANCH  13  27
ATOM     27  C   UNL A   1      32.925  18.638  24.166  1.00  0.00     0.125 A 
ATOM     28  C   UNL A   1      32.583  18.196  25.454  1.00  0.00     0.055 A 
ATOM     29  C   UNL A   1      33.560  17.755  23.285  1.00  0.00     0.055 A 
ATOM     30  C   UNL A   1      32.789  16.865  25.823  1.00  0.00     0.043 A 
ATOM     31  C   UNL A   1      33.760  16.420  23.651  1.00  0.00     0.043 A 
ATOM     32  C   UNL A   1      33.358  15.985  24.910  1.00  0.00     0.123 A 
ATOM     33  F   UNL A   1      33.507  14.696  25.240  1.00  0.00    -0.207 F 
ENDBRANCH  13  27
ENDBRANCH   3   6
ENDBRANCH   1   2
BRANCH   1  34
ATOM     34  C   UNL A   1      40.049  20.990  26.148  1.00  0.00     0.042 C 
BRANCH  34  35
ATOM     35  C   UNL A   1      40.687  22.276  26.651  1.00  0.00     0.118 C 
BRANCH  35  36
ATOM     36  N   UNL A   1      41.770  22.764  25.802  1.00  0.00    -0.352 N 
ATOM     37  C   UNL A   1      42.349  24.010  25.716  1.00  0.00     0.251 C 
ATOM     38  H   UNL A   1      42.149  22.092  25.191  1.00  0.00     0.163 HD
ATOM     39  O   UNL A   1      43.195  24.225  24.851  1.00  0.00    -0.269 OA
BRANCH  37  40
ATOM     40  C   UNL A   1      41.937  25.099  26.630  1.00  0.00     0.039 A 
ATOM     41  C   UNL A   1      40.988  24.837  27.625  1.00  0.00     0.014 A 
ATOM     42  C   UNL A   1      42.489  26.375  26.520  1.00  0.00     0.014 A 
ATOM     43  C   UNL A   1      40.674  25.822  28.568  1.00  0.00     0.010 A 
ATOM     44  C   UNL A   1      42.253  27.318  27.514  1.00  0.00     0.010 A 
ATOM     45  C   UNL A   1      41.347  27.053  28.552  1.00  0.00    -0.014 A 
BRANCH  45  46
ATOM     46  C   UNL A   1      41.129  28.100  29.586  1.00  0.00     0.031 A 
ATOM     47  C   UNL A   1      41.952  28.081  30.845  1.00  0.00     0.074 A 
ATOM     48  C   UNL A   1      40.120  28.986  29.454  1.00  0.00     0.049 A 
ATOM     49  N   UNL A   1      41.788  28.749  31.958  1.00  0.00    -0.248 NA
ATOM     50  C   UNL A   1      43.092  27.149  30.869  1.00  0.00     0.031 C 
ATOM     51  C   UNL A   1      39.227  29.091  28.300  1.00  0.00     0.029 A 
ATOM     52  N   UNL A   1      39.660  29.950  30.317  1.00  0.00    -0.354 N 
ATOM     53  C   UNL A   1      42.775  28.292  32.821  1.00  0.00     0.074 A 
ATOM     54  C   UNL A   1      43.504  27.256  32.122  1.00  0.00     0.031 C 
ATOM     55  C   UNL A   1      38.336  30.072  28.520  1.00  0.00     0.029 A 
ATOM     56  C   UNL A   1      38.560  30.630  29.850  1.00  0.00     0.049 A 
ATOM     57  H   UNL A   1      40.078  30.137  31.188  1.00  0.00     0.167 HD
ATOM     58  C   UNL A   1      43.063  28.713  34.075  1.00  0.00     0.037 A 
ATOM     59  C   UNL A   1      37.806  31.580  30.436  1.00  0.00     0.037 A 
ATOM     60  C   UNL A   1      42.366  29.776  34.749  1.00  0.00     0.049 A 
ATOM     61  C   UNL A   1      38.150  32.034  31.831  1.00  0.00     0.074 A 
ATOM     62  C   UNL A   1      42.612  30.311  36.002  1.00  0.00     0.029 A 
ATOM     63  N   UNL A   1      41.291  30.473  34.218  1.00  0.00    -0.354 N 
ATOM     64  N   UNL A   1      39.107  31.620  32.623  1.00  0.00    -0.248 NA
ATOM     65  C   UNL A   1      37.308  33.090  32.411  1.00  0.00     0.031 C 
ATOM     66  C   UNL A   1      41.664  31.311  36.243  1.00  0.00     0.029 A 
ATOM     67  C   UNL A   1      40.859  31.431  35.121  1.00  0.00     0.049 A 
ATOM     68  H   UNL A   1      40.895  30.312  33.332  1.00  0.00     0.167 HD
ATOM     69  C   UNL A   1      39.011  32.391  33.774  1.00  0.00     0.074 A 
ATOM     70  C   UNL A   1      37.901  33.299  33.578  1.00  0.00     0.031 C 
ATOM     71  C   UNL A   1      39.776  32.351  34.891  1.00  0.00     0.037 A 
BRANCH  58  72
ATOM     72  C   UNL A   1      44.188  28.030  34.798  1.00  0.00     0.064 A 
ATOM     73  C   UNL A   1      45.502  28.515  34.738  1.00  0.00     0.173 A 
ATOM     74  C   UNL A   1      43.943  26.897  35.590  1.00  0.00     0.173 A 
ATOM     75  F   UNL A   1      45.793  29.588  33.986  1.00  0.00    -0.203 F 
ATOM     76  C   UNL A   1      46.536  27.875  35.418  1.00  0.00     0.198 A 
ATOM     77  C   UNL A   1      44.972  26.278  36.294  1.00  0.00     0.198 A 
ATOM     78  F   UNL A   1      42.703  26.394  35.686  1.00  0.00    -0.203 F 
ATOM     79  F   UNL A   1      47.791  28.327  35.302  1.00  0.00    -0.200 F 
ATOM     80  C   UNL A   1      46.268  26.762  36.201  1.00  0.00     0.200 A 
ATOM     81  F   UNL A   1      44.710  25.211  37.062  1.00  0.00    -0.200 F 
ATOM     82  F   UNL A   1      47.262  26.152  36.861  1.00  0.00    -0.200 F 
ENDBRANCH  58  72
BRANCH  59  83
ATOM     83  C   UNL A   1      36.662  32.185  29.704  1.00  0.00     0.064 A 
ATOM     84  C   UNL A   1      35.548  31.410  29.350  1.00  0.00     0.173 A 
ATOM     85  C   UNL A   1      36.661  33.536  29.328  1.00  0.00     0.173 A 
ATOM     86  F   UNL A   1      35.512  30.108  29.669  1.00  0.00    -0.203 F 
ATOM     87  C   UNL A   1      34.490  31.955  28.627  1.00  0.00     0.198 A 
ATOM     88  C   UNL A   1      35.589  34.088  28.629  1.00  0.00     0.198 A 
ATOM     89  F   UNL A   1      37.700  34.323  29.646  1.00  0.00    -0.203 F 
ATOM     90  F   UNL A   1      33.462  31.179  28.258  1.00  0.00    -0.200 F 
ATOM     91  C   UNL A   1      34.509  33.296  28.271  1.00  0.00     0.200 A 
ATOM     92  F   UNL A   1      35.604  35.387  28.301  1.00  0.00    -0.200 F 
ATOM     93  F   UNL A   1      33.491  33.821  27.576  1.00  0.00    -0.200 F 
ENDBRANCH  59  83
BRANCH  71  94
ATOM     94  C   UNL A   1      39.494  33.363  35.962  1.00  0.00     0.064 A 
ATOM     95  C   UNL A   1      38.700  33.059  37.078  1.00  0.00     0.173 A 
ATOM     96  C   UNL A   1      40.086  34.633  35.901  1.00  0.00     0.173 A 
ATOM     97  F   UNL A   1      38.102  31.863  37.174  1.00  0.00    -0.203 F 
ATOM     98  C   UNL A   1      38.496  33.998  38.085  1.00  0.00     0.198 A 
ATOM     99  C   UNL A   1      39.903  35.560  36.924  1.00  0.00     0.198 A 
ATOM    100  F   UNL A   1      40.860  34.969  34.858  1.00  0.00    -0.203 F 
ATOM    101  F   UNL A   1      37.705  33.700  39.125  1.00  0.00    -0.200 F 
ATOM    102  C   UNL A   1      39.106  35.243  38.012  1.00  0.00     0.200 A 
ATOM    103  F   UNL A   1      40.504  36.755  36.857  1.00  0.00    -0.200 F 
ATOM    104  F   UNL A   1      38.921  36.139  38.991  1.00  0.00    -0.200 F 
ENDBRANCH  71  94
ENDBRANCH  45  46
ENDBRANCH  37  40
ENDBRANCH  35  36
ENDBRANCH  34  35
ENDBRANCH   1  34
TORSDOF 16
ENDMDL
MODEL 2
REMARK VINA RESULT:     -13.7      4.933      7.101
REMARK SMILES COc1ccc(CCN2C(=O)C[C@@H](C(=O)NCCCNC(=O)c3ccc(-c4c5nc(c(-c6c(F)c(F)c(F)c(F)c6F)c6ccc([nH]6)c(-c6c(F)c(F)c(F)c(F)c6F)c6nc(c(-c7c(F)c(F)c(F)c(F)c7F)c7ccc4[nH]7)C=C6)C=C5)cc3)S/C2=[NH+]\c2ccc(F)cc2)cc1OC
REMARK SMILES IDX 17 1 16 2 14 3 15 4 13 6 9 7 10 8 87 9 11 10 12 11 86 12
REMARK SMILES IDX 88 13 8 15 7 16 6 17 3 18 4 19 97 20 5 21 96 22 2 23 1 24
REMARK SMILES IDX 98 25 99 26 89 27 90 28 95 29 91 30 94 31 92 32 93 33 18 34
REMARK SMILES IDX 19 35 20 36 21 37 22 39 23 40 24 41 85 42 25 43 84 44 26 45
REMARK SMILES IDX 27 46 28 47 78 48 29 49 83 50 77 51 79 52 30 53 82 54 76 55
REMARK SMILES IDX 75 56 31 58 63 59 43 60 62 61 44 62 47 63 61 64 80 65 45 66
REMARK SMILES IDX 46 67 60 69 81 70 48 71 32 72 33 73 41 74 34 75 35 76 39 77
REMARK SMILES IDX 42 78 36 79 37 80 40 81 38 82 64 83 65 84 73 85 66 86 67 87
REMARK SMILES IDX 71 88 74 89 68 90 69 91 72 92 70 93 49 94 50 95 58 96 51 97
REMARK SMILES IDX 52 98 56 99 59 100 53 101 54 102 57 103 55 104
REMARK H PARENT 16 5 88 14 20 38 79 57 47 68
REMARK Flexibility Score: inf
ROOT
ATOM      1  C   UNL A   1      38.528  20.905  25.751  1.00  0.00     0.117 C 
ENDROOT
BRANCH   1   2
ATOM      2  N   UNL A   1      37.871  22.155  26.082  1.00  0.00    -0.355 N 
ATOM      3  C   UNL A   1      36.700  22.693  25.620  1.00  0.00     0.234 C 
ATOM      4  O   UNL A   1      36.283  23.698  26.204  1.00  0.00    -0.274 OA
ATOM      5  H   UNL A   1      38.345  22.706  26.745  1.00  0.00     0.163 HD
BRANCH   3   6
ATOM      6  C   UNL A   1      35.884  22.080  24.467  1.00  0.00     0.160 C 
ATOM      7  N   UNL A   1      33.028  22.284  23.598  1.00  0.00    -0.191 N 
ATOM      8  C   UNL A   1      34.000  22.999  22.919  1.00  0.00     0.311 C 
ATOM      9  C   UNL A   1      33.322  21.029  24.101  1.00  0.00     0.319 C 
ATOM     10  O   UNL A   1      33.755  23.630  21.886  1.00  0.00    -0.247 OA
ATOM     11  C   UNL A   1      35.383  23.130  23.512  1.00  0.00     0.153 C 
ATOM     12  S   UNL A   1      34.717  20.916  25.143  1.00  0.00    -0.024 SA
ATOM     13  N   UNL A   1      32.547  20.010  23.870  1.00  0.00    -0.235 N 
ATOM     14  H   UNL A   1      31.690  20.125  23.399  1.00  0.00     0.313 HD
BRANCH   7  15
ATOM     15  C   UNL A   1      31.619  22.664  23.326  1.00  0.00     0.251 C 
BRANCH  15  16
ATOM     16  C   UNL A   1      31.017  23.686  24.345  1.00  0.00     0.082 C 
BRANCH  16  17
ATOM     17  C   UNL A   1      31.351  25.168  24.222  1.00  0.00    -0.040 A 
ATOM     18  C   UNL A   1      31.790  27.985  24.217  1.00  0.00     0.160 A 
ATOM     19  C   UNL A   1      32.494  27.157  25.077  1.00  0.00     0.051 A 
ATOM     20  C   UNL A   1      30.899  27.414  23.299  1.00  0.00     0.160 A 
ATOM     21  C   UNL A   1      32.258  25.786  25.071  1.00  0.00     0.008 A 
ATOM     22  C   UNL A   1      30.680  26.013  23.322  1.00  0.00     0.054 A 
BRANCH  18  23
ATOM     23  O   UNL A   1      32.050  29.328  24.259  1.00  0.00    -0.493 OA
ATOM     24  C   UNL A   1      32.862  29.686  25.381  1.00  0.00     0.278 C 
ENDBRANCH  18  23
BRANCH  20  25
ATOM     25  O   UNL A   1      30.159  28.065  22.345  1.00  0.00    -0.493 OA
ATOM     26  C   UNL A   1      28.935  28.667  22.753  1.00  0.00     0.278 C 
ENDBRANCH  20  25
ENDBRANCH  16  17
ENDBRANCH  15  16
ENDBRANCH   7  15
BRANCH  13  27
ATOM     27  C   UNL A   1      32.963  18.736  24.312  1.00  0.00     0.125 A 
ATOM     28  C   UNL A   1      32.529  18.261  25.560  1.00  0.00     0.055 A 
ATOM     29  C   UNL A   1      33.697  17.888  23.474  1.00  0.00     0.055 A 
ATOM     30  C   UNL A   1      32.747  16.930  25.925  1.00  0.00     0.043 A 
ATOM     31  C   UNL A   1      33.908  16.554  23.835  1.00  0.00     0.043 A 
ATOM     32  C   UNL A   1      33.418  16.084  25.048  1.00  0.00     0.123 A 
ATOM     33  F   UNL A   1      33.580  14.795  25.370  1.00  0.00    -0.207 F 
ENDBRANCH  13  27
ENDBRANCH   3   6
ENDBRANCH   1   2
BRANCH   1  34
ATOM     34  C   UNL A   1      40.031  20.880  25.984  1.00  0.00     0.042 C 
BRANCH  34  35
ATOM     35  C   UNL A   1      40.530  19.692  26.792  1.00  0.00     0.118 C 
BRANCH  35  36
ATOM     36  N   UNL A   1      41.576  18.924  26.123  1.00  0.00    -0.352 N 
ATOM     37  C   UNL A   1      42.796  19.317  25.623  1.00  0.00     0.251 C 
ATOM     38  H   UNL A   1      41.375  17.967  26.012  1.00  0.00     0.163 HD
ATOM     39  O   UNL A   1      43.485  18.509  25.005  1.00  0.00    -0.269 OA
BRANCH  37  40
ATOM     40  C   UNL A   1      43.267  20.711  25.791  1.00  0.00     0.039 A 
ATOM     41  C   UNL A   1      43.409  21.528  24.664  1.00  0.00     0.014 A 
ATOM     42  C   UNL A   1      43.559  21.221  27.056  1.00  0.00     0.014 A 
ATOM     43  C   UNL A   1      43.741  22.879  24.817  1.00  0.00     0.010 A 
ATOM     44  C   UNL A   1      43.789  22.582  27.216  1.00  0.00     0.010 A 
ATOM     45  C   UNL A   1      43.880  23.430  26.100  1.00  0.00    -0.014 A 
BRANCH  45  46
ATOM     46  C   UNL A   1      44.133  24.877  26.328  1.00  0.00     0.031 A 
ATOM     47  C   UNL A   1      45.523  25.424  26.149  1.00  0.00     0.074 A 
ATOM     48  C   UNL A   1      43.155  25.671  26.810  1.00  0.00     0.049 A 
ATOM     49  N   UNL A   1      46.013  26.586  26.498  1.00  0.00    -0.248 NA
ATOM     50  C   UNL A   1      46.507  24.521  25.529  1.00  0.00     0.031 C 
ATOM     51  C   UNL A   1      41.773  25.259  27.060  1.00  0.00     0.029 A 
ATOM     52  N   UNL A   1      43.184  26.986  27.203  1.00  0.00    -0.354 N 
ATOM     53  C   UNL A   1      47.363  26.538  26.176  1.00  0.00     0.074 A 
ATOM     54  C   UNL A   1      47.627  25.216  25.649  1.00  0.00     0.031 C 
ATOM     55  C   UNL A   1      41.084  26.303  27.551  1.00  0.00     0.029 A 
ATOM     56  C   UNL A   1      41.985  27.441  27.700  1.00  0.00     0.049 A 
ATOM     57  H   UNL A   1      43.987  27.551  27.135  1.00  0.00     0.167 HD
ATOM     58  C   UNL A   1      48.295  27.514  26.290  1.00  0.00     0.037 A 
ATOM     59  C   UNL A   1      41.657  28.634  28.235  1.00  0.00     0.037 A 
ATOM     60  C   UNL A   1      48.018  28.841  26.771  1.00  0.00     0.049 A 
ATOM     61  C   UNL A   1      42.711  29.704  28.345  1.00  0.00     0.074 A 
ATOM     62  C   UNL A   1      48.882  29.917  26.879  1.00  0.00     0.029 A 
ATOM     63  N   UNL A   1      46.778  29.274  27.215  1.00  0.00    -0.354 N 
ATOM     64  N   UNL A   1      43.975  29.659  28.005  1.00  0.00    -0.248 NA
ATOM     65  C   UNL A   1      42.290  30.993  28.914  1.00  0.00     0.031 C 
ATOM     66  C   UNL A   1      48.171  30.994  27.419  1.00  0.00     0.029 A 
ATOM     67  C   UNL A   1      46.855  30.602  27.603  1.00  0.00     0.049 A 
ATOM     68  H   UNL A   1      45.965  28.722  27.249  1.00  0.00     0.167 HD
ATOM     69  C   UNL A   1      44.489  30.920  28.276  1.00  0.00     0.074 A 
ATOM     70  C   UNL A   1      43.400  31.710  28.811  1.00  0.00     0.031 C 
ATOM     71  C   UNL A   1      45.750  31.382  28.096  1.00  0.00     0.037 A 
BRANCH  58  72
ATOM     72  C   UNL A   1      49.701  27.186  25.876  1.00  0.00     0.064 A 
ATOM     73  C   UNL A   1      50.660  26.761  26.806  1.00  0.00     0.173 A 
ATOM     74  C   UNL A   1      50.083  27.263  24.527  1.00  0.00     0.173 A 
ATOM     75  F   UNL A   1      50.350  26.683  28.109  1.00  0.00    -0.203 F 
ATOM     76  C   UNL A   1      51.960  26.455  26.408  1.00  0.00     0.198 A 
ATOM     77  C   UNL A   1      51.374  26.925  24.128  1.00  0.00     0.198 A 
ATOM     78  F   UNL A   1      49.204  27.659  23.596  1.00  0.00    -0.203 F 
ATOM     79  F   UNL A   1      52.872  26.103  27.323  1.00  0.00    -0.200 F 
ATOM     80  C   UNL A   1      52.312  26.531  25.069  1.00  0.00     0.200 A 
ATOM     81  F   UNL A   1      51.710  26.985  22.832  1.00  0.00    -0.200 F 
ATOM     82  F   UNL A   1      53.561  26.228  24.687  1.00  0.00    -0.200 F 
ENDBRANCH  58  72
BRANCH  59  83
ATOM     83  C   UNL A   1      40.265  28.892  28.688  1.00  0.00     0.064 A 
ATOM     84  C   UNL A   1      39.904  28.712  30.032  1.00  0.00     0.173 A 
ATOM     85  C   UNL A   1      39.265  29.305  27.796  1.00  0.00     0.173 A 
ATOM     86  F   UNL A   1      40.821  28.297  30.919  1.00  0.00    -0.203 F 
ATOM     87  C   UNL A   1      38.594  28.910  30.461  1.00  0.00     0.198 A 
ATOM     88  C   UNL A   1      37.960  29.532  28.231  1.00  0.00     0.198 A 
ATOM     89  F   UNL A   1      39.557  29.498  26.501  1.00  0.00    -0.203 F 
ATOM     90  F   UNL A   1      38.268  28.681  31.740  1.00  0.00    -0.200 F 
ATOM     91  C   UNL A   1      37.624  29.325  29.560  1.00  0.00     0.200 A 
ATOM     92  F   UNL A   1      37.029  29.946  27.362  1.00  0.00    -0.200 F 
ATOM     93  F   UNL A   1      36.364  29.516  29.972  1.00  0.00    -0.200 F 
ENDBRANCH  59  83
BRANCH  71  94
ATOM     94  C   UNL A   1      46.011  32.826  28.406  1.00  0.00     0.064 A 
ATOM     95  C   UNL A   1      46.477  33.242  29.661  1.00  0.00     0.173 A 
ATOM     96  C   UNL A   1      45.857  33.798  27.405  1.00  0.00     0.173 A 
ATOM     97  F   UNL A   1      46.626  32.352  30.654  1.00  0.00    -0.203 F 
ATOM     98  C   UNL A   1      46.762  34.582  29.909  1.00  0.00     0.198 A 
ATOM     99  C   UNL A   1      46.171  35.132  27.647  1.00  0.00     0.198 A 
ATOM    100  F   UNL A   1      45.421  33.449  26.185  1.00  0.00    -0.203 F 
ATOM    101  F   UNL A   1      47.172  34.964  31.126  1.00  0.00    -0.200 F 
ATOM    102  C   UNL A   1      46.619  35.523  28.899  1.00  0.00     0.200 A 
ATOM    103  F   UNL A   1      46.045  36.036  26.667  1.00  0.00    -0.200 F 
ATOM    104  F   UNL A   1      46.911  36.810  29.135  1.00  0.00    -0.200 F 
ENDBRANCH  71  94
ENDBRANCH  45  46
ENDBRANCH  37  40
ENDBRANCH  35  36
ENDBRANCH  34  35
ENDBRANCH   1  34
TORSDOF 16
ENDMDL
MODEL 3
REMARK VINA RESULT:     -13.7      3.402      9.155
REMARK SMILES COc1ccc(CCN2C(=O)C[C@@H](C(=O)NCCCNC(=O)c3ccc(-c4c5nc(c(-c6c(F)c(F)c(F)c(F)c6F)c6ccc([nH]6)c(-c6c(F)c(F)c(F)c(F)c6F)c6nc(c(-c7c(F)c(F)c(F)c(F)c7F)c7ccc4[nH]7)C=C6)C=C5)cc3)S/C2=[NH+]\c2ccc(F)cc2)cc1OC
REMARK SMILES IDX 17 1 16 2 14 3 15 4 13 6 9 7 10 8 87 9 11 10 12 11 86 12
REMARK SMILES IDX 88 13 8 15 7 16 6 17 3 18 4 19 97 20 5 21 96 22 2 23 1 24
REMARK SMILES IDX 98 25 99 26 89 27 90 28 95 29 91 30 94 31 92 32 93 33 18 34
REMARK SMILES IDX 19 35 20 36 21 37 22 39 23 40 24 41 85 42 25 43 84 44 26 45
REMARK SMILES IDX 27 46 28 47 78 48 29 49 83 50 77 51 79 52 30 53 82 54 76 55
REMARK SMILES IDX 75 56 31 58 63 59 43 60 62 61 44 62 47 63 61 64 80 65 45 66
REMARK SMILES IDX 46 67 60 69 81 70 48 71 32 72 33 73 41 74 34 75 35 76 39 77
REMARK SMILES IDX 42 78 36 79 37 80 40 81 38 82 64 83 65 84 73 85 66 86 67 87
REMARK SMILES IDX 71 88 74 89 68 90 69 91 72 92 70 93 49 94 50 95 58 96 51 97
REMARK SMILES IDX 52 98 56 99 59 100 53 101 54 102 57 103 55 104
REMARK H PARENT 16 5 88 14 20 38 79 57 47 68
REMARK Flexibility Score: inf
ROOT
ATOM      1  C   UNL A   1      34.270  30.275  27.484  1.00  0.00     0.117 C 
ENDROOT
BRANCH   1   2
ATOM      2  N   UNL A   1      34.613  29.554  26.273  1.00  0.00    -0.355 N 
ATOM      3  C   UNL A   1      33.814  28.932  25.352  1.00  0.00     0.234 C 
ATOM      4  O   UNL A   1      34.362  28.542  24.316  1.00  0.00    -0.274 OA
ATOM      5  H   UNL A   1      35.578  29.503  26.084  1.00  0.00     0.163 HD
BRANCH   3   6
ATOM      6  C   UNL A   1      32.296  28.752  25.533  1.00  0.00     0.160 C 
ATOM      7  N   UNL A   1      30.303  26.753  24.540  1.00  0.00    -0.191 N 
ATOM      8  C   UNL A   1      30.764  26.667  25.843  1.00  0.00     0.311 C 
ATOM      9  C   UNL A   1      30.119  27.994  23.956  1.00  0.00     0.319 C 
ATOM     10  O   UNL A   1      30.295  25.866  26.657  1.00  0.00    -0.247 OA
ATOM     11  C   UNL A   1      31.964  27.480  26.266  1.00  0.00     0.153 C 
ATOM     12  S   UNL A   1      31.488  29.075  23.979  1.00  0.00    -0.024 SA
ATOM     13  N   UNL A   1      29.007  28.299  23.353  1.00  0.00    -0.235 N 
ATOM     14  H   UNL A   1      28.300  27.625  23.228  1.00  0.00     0.313 HD
BRANCH   7  15
ATOM     15  C   UNL A   1      29.571  25.572  24.019  1.00  0.00     0.251 C 
BRANCH  15  16
ATOM     16  C   UNL A   1      30.455  24.570  23.208  1.00  0.00     0.082 C 
BRANCH  16  17
ATOM     17  C   UNL A   1      31.308  23.541  23.943  1.00  0.00    -0.040 A 
ATOM     18  C   UNL A   1      32.973  21.834  25.505  1.00  0.00     0.160 A 
ATOM     19  C   UNL A   1      31.654  22.062  25.863  1.00  0.00     0.051 A 
ATOM     20  C   UNL A   1      33.467  22.403  24.325  1.00  0.00     0.160 A 
ATOM     21  C   UNL A   1      30.861  22.907  25.093  1.00  0.00     0.008 A 
ATOM     22  C   UNL A   1      32.633  23.262  23.565  1.00  0.00     0.054 A 
BRANCH  18  23
ATOM     23  O   UNL A   1      33.718  21.000  26.294  1.00  0.00    -0.493 OA
ATOM     24  C   UNL A   1      34.135  21.633  27.507  1.00  0.00     0.278 C 
ENDBRANCH  18  23
BRANCH  20  25
ATOM     25  O   UNL A   1      34.721  22.249  23.789  1.00  0.00    -0.493 OA
ATOM     26  C   UNL A   1      35.461  23.426  23.487  1.00  0.00     0.278 C 
ENDBRANCH  20  25
ENDBRANCH  16  17
ENDBRANCH  15  16
ENDBRANCH   7  15
BRANCH  13  27
ATOM     27  C   UNL A   1      28.839  29.619  22.881  1.00  0.00     0.125 A 
ATOM     28  C   UNL A   1      29.302  29.960  21.600  1.00  0.00     0.055 A 
ATOM     29  C   UNL A   1      28.107  30.558  23.618  1.00  0.00     0.055 A 
ATOM     30  C   UNL A   1      28.960  31.187  21.028  1.00  0.00     0.043 A 
ATOM     31  C   UNL A   1      27.757  31.783  23.043  1.00  0.00     0.043 A 
ATOM     32  C   UNL A   1      28.173  32.079  21.749  1.00  0.00     0.123 A 
ATOM     33  F   UNL A   1      27.797  33.233  21.183  1.00  0.00    -0.207 F 
ENDBRANCH  13  27
ENDBRANCH   3   6
ENDBRANCH   1   2
BRANCH   1  34
ATOM     34  C   UNL A   1      33.986  31.757  27.298  1.00  0.00     0.042 C 
BRANCH  34  35
ATOM     35  C   UNL A   1      32.539  32.162  27.532  1.00  0.00     0.118 C 
BRANCH  35  36
ATOM     36  N   UNL A   1      32.346  33.603  27.666  1.00  0.00    -0.352 N 
ATOM     37  C   UNL A   1      33.028  34.533  28.418  1.00  0.00     0.251 C 
ATOM     38  H   UNL A   1      31.607  33.971  27.129  1.00  0.00     0.163 HD
ATOM     39  O   UNL A   1      32.628  35.694  28.452  1.00  0.00    -0.269 OA
BRANCH  37  40
ATOM     40  C   UNL A   1      34.214  34.138  29.211  1.00  0.00     0.039 A 
ATOM     41  C   UNL A   1      34.046  33.336  30.345  1.00  0.00     0.014 A 
ATOM     42  C   UNL A   1      35.495  34.545  28.836  1.00  0.00     0.014 A 
ATOM     43  C   UNL A   1      35.164  32.860  31.038  1.00  0.00     0.010 A 
ATOM     44  C   UNL A   1      36.606  33.991  29.462  1.00  0.00     0.010 A 
ATOM     45  C   UNL A   1      36.457  33.139  30.567  1.00  0.00    -0.014 A 
BRANCH  45  46
ATOM     46  C   UNL A   1      37.680  32.580  31.201  1.00  0.00     0.031 A 
ATOM     47  C   UNL A   1      38.425  31.465  30.519  1.00  0.00     0.074 A 
ATOM     48  C   UNL A   1      38.051  32.982  32.434  1.00  0.00     0.049 A 
ATOM     49  N   UNL A   1      39.372  30.690  30.982  1.00  0.00    -0.248 NA
ATOM     50  C   UNL A   1      38.017  31.153  29.139  1.00  0.00     0.031 C 
ATOM     51  C   UNL A   1      37.397  34.030  33.219  1.00  0.00     0.029 A 
ATOM     52  N   UNL A   1      39.056  32.533  33.256  1.00  0.00    -0.354 N 
ATOM     53  C   UNL A   1      39.643  29.780  29.969  1.00  0.00     0.074 A 
ATOM     54  C   UNL A   1      38.729  30.067  28.884  1.00  0.00     0.031 C 
ATOM     55  C   UNL A   1      38.024  34.152  34.400  1.00  0.00     0.029 A 
ATOM     56  C   UNL A   1      39.090  33.158  34.479  1.00  0.00     0.049 A 
ATOM     57  H   UNL A   1      39.692  31.830  32.992  1.00  0.00     0.167 HD
ATOM     58  C   UNL A   1      40.584  28.807  29.936  1.00  0.00     0.037 A 
ATOM     59  C   UNL A   1      39.878  32.940  35.550  1.00  0.00     0.037 A 
ATOM     60  C   UNL A   1      41.522  28.555  30.998  1.00  0.00     0.049 A 
ATOM     61  C   UNL A   1      40.920  31.854  35.487  1.00  0.00     0.074 A 
ATOM     62  C   UNL A   1      42.545  27.625  31.042  1.00  0.00     0.029 A 
ATOM     63  N   UNL A   1      41.554  29.248  32.199  1.00  0.00    -0.354 N 
ATOM     64  N   UNL A   1      41.191  31.024  34.510  1.00  0.00    -0.248 NA
ATOM     65  C   UNL A   1      41.766  31.676  36.675  1.00  0.00     0.031 C 
ATOM     66  C   UNL A   1      43.178  27.732  32.285  1.00  0.00     0.029 A 
ATOM     67  C   UNL A   1      42.579  28.761  32.995  1.00  0.00     0.049 A 
ATOM     68  H   UNL A   1      40.942  29.976  32.450  1.00  0.00     0.167 HD
ATOM     69  C   UNL A   1      42.264  30.257  34.947  1.00  0.00     0.074 A 
ATOM     70  C   UNL A   1      42.594  30.720  36.278  1.00  0.00     0.031 C 
ATOM     71  C   UNL A   1      42.917  29.262  34.302  1.00  0.00     0.037 A 
BRANCH  58  72
ATOM     72  C   UNL A   1      40.654  27.947  28.707  1.00  0.00     0.064 A 
ATOM     73  C   UNL A   1      41.459  28.293  27.613  1.00  0.00     0.173 A 
ATOM     74  C   UNL A   1      39.934  26.744  28.638  1.00  0.00     0.173 A 
ATOM     75  F   UNL A   1      42.158  29.438  27.623  1.00  0.00    -0.203 F 
ATOM     76  C   UNL A   1      41.519  27.483  26.481  1.00  0.00     0.198 A 
ATOM     77  C   UNL A   1      40.021  25.920  27.518  1.00  0.00     0.198 A 
ATOM     78  F   UNL A   1      39.152  26.363  29.658  1.00  0.00    -0.203 F 
ATOM     79  F   UNL A   1      42.255  27.862  25.428  1.00  0.00    -0.200 F 
ATOM     80  C   UNL A   1      40.806  26.295  26.438  1.00  0.00     0.200 A 
ATOM     81  F   UNL A   1      39.342  24.765  27.483  1.00  0.00    -0.200 F 
ATOM     82  F   UNL A   1      40.871  25.513  25.352  1.00  0.00    -0.200 F 
ENDBRANCH  58  72
BRANCH  59  83
ATOM     83  C   UNL A   1      39.731  33.777  36.770  1.00  0.00     0.064 A 
ATOM     84  C   UNL A   1      38.915  33.360  37.832  1.00  0.00     0.173 A 
ATOM     85  C   UNL A   1      40.382  35.013  36.898  1.00  0.00     0.173 A 
ATOM     86  F   UNL A   1      38.255  32.195  37.748  1.00  0.00    -0.203 F 
ATOM     87  C   UNL A   1      38.736  34.155  38.961  1.00  0.00     0.198 A 
ATOM     88  C   UNL A   1      40.226  35.795  38.040  1.00  0.00     0.198 A 
ATOM     89  F   UNL A   1      41.179  35.457  35.913  1.00  0.00    -0.203 F 
ATOM     90  F   UNL A   1      37.911  33.753  39.937  1.00  0.00    -0.200 F 
ATOM     91  C   UNL A   1      39.397  35.370  39.067  1.00  0.00     0.200 A 
ATOM     92  F   UNL A   1      40.877  36.961  38.145  1.00  0.00    -0.200 F 
ATOM     93  F   UNL A   1      39.225  36.135  40.153  1.00  0.00    -0.200 F 
ENDBRANCH  59  83
BRANCH  71  94
ATOM     94  C   UNL A   1      44.103  28.650  34.987  1.00  0.00     0.064 A 
ATOM     95  C   UNL A   1      45.392  29.185  34.855  1.00  0.00     0.173 A 
ATOM     96  C   UNL A   1      43.929  27.553  35.844  1.00  0.00     0.173 A 
ATOM     97  F   UNL A   1      45.610  30.225  34.037  1.00  0.00    -0.203 F 
ATOM     98  C   UNL A   1      46.468  28.632  35.544  1.00  0.00     0.198 A 
ATOM     99  C   UNL A   1      45.002  27.019  36.553  1.00  0.00     0.198 A 
ATOM    100  F   UNL A   1      42.713  27.009  36.009  1.00  0.00    -0.203 F 
ATOM    101  F   UNL A   1      47.698  29.136  35.377  1.00  0.00    -0.200 F 
ATOM    102  C   UNL A   1      46.270  27.557  36.400  1.00  0.00     0.200 A 
ATOM    103  F   UNL A   1      44.805  25.991  37.388  1.00  0.00    -0.200 F 
ATOM    104  F   UNL A   1      47.304  27.037  37.074  1.00  0.00    -0.200 F 
ENDBRANCH  71  94
ENDBRANCH  45  46
ENDBRANCH  37  40
ENDBRANCH  35  36
ENDBRANCH  34  35
ENDBRANCH   1  34
TORSDOF 16
ENDMDL
