MODEL 1
REMARK VINA RESULT:     -12.8      0.000      0.000
REMARK SMILES O=C(C[C@@H](NC(=O)C1CCC1)c1ccc(Cl)cc1)NCCCNC(=O)c1ccc(-c2c3nc(c(-c4c(F)c(F)c(F)c(F)c4F)c4ccc([nH]4)c(-c4c(F)c(F)c(F)c(F)c4F)c4nc(c(-c5c(F)c(F)c(F)c(F)c5F)c5ccc2[nH]5)C=C4)C=C3)cc1
REMARK SMILES IDX 20 1 19 2 1 3 2 4 3 6 4 7 5 8 6 9 7 11 8 12 9 13 11 14 10 15
REMARK SMILES IDX 12 16 13 17 18 18 14 19 17 20 15 21 16 22 21 23 22 24 23 25
REMARK SMILES IDX 24 26 25 28 26 29 27 30 88 31 28 32 87 33 29 34 30 35 31 36
REMARK SMILES IDX 81 37 32 38 86 39 80 40 82 41 33 42 85 43 79 44 78 45 34 47
REMARK SMILES IDX 66 48 46 49 65 50 47 51 50 52 64 53 83 54 48 55 49 56 63 58
REMARK SMILES IDX 84 59 51 60 35 61 36 62 44 63 37 64 38 65 42 66 45 67 39 68
REMARK SMILES IDX 40 69 43 70 41 71 67 72 68 73 76 74 69 75 70 76 74 77 77 78
REMARK SMILES IDX 71 79 72 80 75 81 73 82 52 83 53 84 61 85 54 86 55 87 59 88
REMARK SMILES IDX 62 89 56 90 57 91 60 92 58 93
REMARK H PARENT 19 5 5 10 23 27 82 46 50 57
REMARK Flexibility Score: inf
ROOT
ATOM      1  C   UNL A   1      31.779  30.518  26.950  1.00  0.00     0.117 C 
ENDROOT
BRANCH   1   2
ATOM      2  N   UNL A   1      32.049  29.945  25.643  1.00  0.00    -0.356 N 
ATOM      3  O   UNL A   1      34.201  29.301  26.103  1.00  0.00    -0.275 OA
ATOM      4  C   UNL A   1      33.263  29.390  25.319  1.00  0.00     0.222 C 
ATOM      5  H   UNL A   1      31.336  29.954  24.964  1.00  0.00     0.163 HD
BRANCH   4   6
ATOM      6  C   UNL A   1      33.358  28.863  23.901  1.00  0.00     0.129 C 
BRANCH   6   7
ATOM      7  C   UNL A   1      32.024  28.216  23.478  1.00  0.00     0.121 C 
BRANCH   7   8
ATOM      8  N   UNL A   1      31.343  29.087  22.489  1.00  0.00    -0.349 N 
ATOM      9  C   UNL A   1      30.120  29.678  22.297  1.00  0.00     0.223 C 
ATOM     10  H   UNL A   1      31.950  29.305  21.747  1.00  0.00     0.164 HD
ATOM     11  O   UNL A   1      29.856  29.811  21.083  1.00  0.00    -0.275 OA
BRANCH   9  12
ATOM     12  C   UNL A   1      29.138  30.235  23.333  1.00  0.00     0.078 C 
ATOM     13  C   UNL A   1      28.975  31.668  23.851  1.00  0.00     0.013 C 
ATOM     14  C   UNL A   1      27.632  30.245  22.955  1.00  0.00     0.013 C 
ATOM     15  C   UNL A   1      27.446  31.461  23.871  1.00  0.00     0.002 C 
ENDBRANCH   9  12
ENDBRANCH   7   8
BRANCH   7  16
ATOM     16  C   UNL A   1      32.034  26.738  23.140  1.00  0.00    -0.025 A 
ATOM     17  C   UNL A   1      33.132  26.193  22.454  1.00  0.00     0.007 A 
ATOM     18  C   UNL A   1      30.964  25.875  23.440  1.00  0.00     0.007 A 
ATOM     19  C   UNL A   1      33.240  24.816  22.243  1.00  0.00     0.021 A 
ATOM     20  C   UNL A   1      31.056  24.501  23.204  1.00  0.00     0.021 A 
ATOM     21  C   UNL A   1      32.212  23.972  22.645  1.00  0.00     0.041 A 
ATOM     22  Cl  UNL A   1      32.376  22.270  22.472  1.00  0.00    -0.084 Cl
ENDBRANCH   7  16
ENDBRANCH   6   7
ENDBRANCH   4   6
ENDBRANCH   1   2
BRANCH   1  23
ATOM     23  C   UNL A   1      31.574  32.025  26.877  1.00  0.00     0.042 C 
BRANCH  23  24
ATOM     24  C   UNL A   1      32.781  32.839  27.328  1.00  0.00     0.118 C 
BRANCH  24  25
ATOM     25  N   UNL A   1      32.452  34.219  27.654  1.00  0.00    -0.352 N 
ATOM     26  C   UNL A   1      32.996  35.052  28.604  1.00  0.00     0.251 C 
ATOM     27  H   UNL A   1      31.731  34.616  27.113  1.00  0.00     0.163 HD
ATOM     28  O   UNL A   1      32.485  36.137  28.841  1.00  0.00    -0.269 OA
BRANCH  26  29
ATOM     29  C   UNL A   1      34.185  34.614  29.366  1.00  0.00     0.039 A 
ATOM     30  C   UNL A   1      34.004  34.087  30.647  1.00  0.00     0.014 A 
ATOM     31  C   UNL A   1      35.466  34.702  28.817  1.00  0.00     0.014 A 
ATOM     32  C   UNL A   1      35.099  33.565  31.341  1.00  0.00     0.010 A 
ATOM     33  C   UNL A   1      36.542  34.113  29.474  1.00  0.00     0.010 A 
ATOM     34  C   UNL A   1      36.366  33.527  30.737  1.00  0.00    -0.014 A 
BRANCH  34  35
ATOM     35  C   UNL A   1      37.515  32.851  31.395  1.00  0.00     0.031 A 
ATOM     36  C   UNL A   1      38.175  31.669  30.744  1.00  0.00     0.074 A 
ATOM     37  C   UNL A   1      37.909  33.255  32.619  1.00  0.00     0.049 A 
ATOM     38  N   UNL A   1      39.120  30.890  31.206  1.00  0.00    -0.248 NA
ATOM     39  C   UNL A   1      37.691  31.299  29.405  1.00  0.00     0.031 C 
ATOM     40  C   UNL A   1      37.323  34.364  33.374  1.00  0.00     0.029 A 
ATOM     41  N   UNL A   1      38.886  32.768  33.452  1.00  0.00    -0.354 N 
ATOM     42  C   UNL A   1      39.335  29.934  30.222  1.00  0.00     0.074 A 
ATOM     43  C   UNL A   1      38.387  30.198  29.161  1.00  0.00     0.031 C 
ATOM     44  C   UNL A   1      37.962  34.484  34.548  1.00  0.00     0.029 A 
ATOM     45  C   UNL A   1      38.968  33.432  34.653  1.00  0.00     0.049 A 
ATOM     46  H   UNL A   1      39.473  32.014  33.213  1.00  0.00     0.167 HD
ATOM     47  C   UNL A   1      40.254  28.939  30.199  1.00  0.00     0.037 A 
ATOM     48  C   UNL A   1      39.752  33.207  35.725  1.00  0.00     0.037 A 
ATOM     49  C   UNL A   1      41.206  28.690  31.250  1.00  0.00     0.049 A 
ATOM     50  C   UNL A   1      40.739  32.071  35.687  1.00  0.00     0.074 A 
ATOM     51  C   UNL A   1      42.215  27.745  31.293  1.00  0.00     0.029 A 
ATOM     52  N   UNL A   1      41.259  29.386  32.450  1.00  0.00    -0.354 N 
ATOM     53  N   UNL A   1      40.981  31.216  34.723  1.00  0.00    -0.248 NA
ATOM     54  C   UNL A   1      41.563  31.869  36.887  1.00  0.00     0.031 C 
ATOM     55  C   UNL A   1      42.840  27.827  32.541  1.00  0.00     0.029 A 
ATOM     56  C   UNL A   1      42.262  28.866  33.253  1.00  0.00     0.049 A 
ATOM     57  H   UNL A   1      40.672  30.136  32.694  1.00  0.00     0.167 HD
ATOM     58  C   UNL A   1      42.000  30.396  35.187  1.00  0.00     0.074 A 
ATOM     59  C   UNL A   1      42.343  30.865  36.513  1.00  0.00     0.031 C 
ATOM     60  C   UNL A   1      42.598  29.347  34.570  1.00  0.00     0.037 A 
BRANCH  47  61
ATOM     61  C   UNL A   1      40.275  28.039  28.997  1.00  0.00     0.064 A 
ATOM     62  C   UNL A   1      41.015  28.358  27.848  1.00  0.00     0.173 A 
ATOM     63  C   UNL A   1      39.579  26.819  29.010  1.00  0.00     0.173 A 
ATOM     64  F   UNL A   1      41.690  29.515  27.780  1.00  0.00    -0.203 F 
ATOM     65  C   UNL A   1      41.034  27.505  26.747  1.00  0.00     0.198 A 
ATOM     66  C   UNL A   1      39.628  25.954  27.920  1.00  0.00     0.198 A 
ATOM     67  F   UNL A   1      38.861  26.461  30.085  1.00  0.00    -0.203 F 
ATOM     68  F   UNL A   1      41.707  27.855  25.643  1.00  0.00    -0.200 F 
ATOM     69  C   UNL A   1      40.347  26.301  26.787  1.00  0.00     0.200 A 
ATOM     70  F   UNL A   1      38.977  24.783  27.967  1.00  0.00    -0.200 F 
ATOM     71  F   UNL A   1      40.375  25.478  25.730  1.00  0.00    -0.200 F 
ENDBRANCH  47  61
BRANCH  48  72
ATOM     72  C   UNL A   1      39.639  34.077  36.925  1.00  0.00     0.064 A 
ATOM     73  C   UNL A   1      40.337  35.291  37.002  1.00  0.00     0.173 A 
ATOM     74  C   UNL A   1      38.846  33.711  38.022  1.00  0.00     0.173 A 
ATOM     75  F   UNL A   1      41.126  35.675  35.988  1.00  0.00    -0.203 F 
ATOM     76  C   UNL A   1      40.261  36.094  38.139  1.00  0.00     0.198 A 
ATOM     77  C   UNL A   1      38.746  34.530  39.145  1.00  0.00     0.198 A 
ATOM     78  F   UNL A   1      38.155  32.561  37.999  1.00  0.00    -0.203 F 
ATOM     79  F   UNL A   1      40.979  37.224  38.206  1.00  0.00    -0.200 F 
ATOM     80  C   UNL A   1      39.461  35.715  39.206  1.00  0.00     0.200 A 
ATOM     81  F   UNL A   1      37.960  34.168  40.168  1.00  0.00    -0.200 F 
ATOM     82  F   UNL A   1      39.388  36.490  40.298  1.00  0.00    -0.200 F 
ENDBRANCH  48  72
BRANCH  60  83
ATOM     83  C   UNL A   1      43.708  28.652  35.305  1.00  0.00     0.064 A 
ATOM     84  C   UNL A   1      45.050  29.026  35.140  1.00  0.00     0.173 A 
ATOM     85  C   UNL A   1      43.420  27.632  36.225  1.00  0.00     0.173 A 
ATOM     86  F   UNL A   1      45.380  29.984  34.260  1.00  0.00    -0.203 F 
ATOM     87  C   UNL A   1      46.063  28.389  35.852  1.00  0.00     0.198 A 
ATOM     88  C   UNL A   1      44.432  27.021  36.960  1.00  0.00     0.198 A 
ATOM     89  F   UNL A   1      42.153  27.239  36.425  1.00  0.00    -0.203 F 
ATOM     90  F   UNL A   1      47.343  28.732  35.644  1.00  0.00    -0.200 F 
ATOM     91  C   UNL A   1      45.753  27.395  36.768  1.00  0.00     0.200 A 
ATOM     92  F   UNL A   1      44.128  26.072  37.857  1.00  0.00    -0.200 F 
ATOM     93  F   UNL A   1      46.729  26.794  37.463  1.00  0.00    -0.200 F 
ENDBRANCH  60  83
ENDBRANCH  34  35
ENDBRANCH  26  29
ENDBRANCH  24  25
ENDBRANCH  23  24
ENDBRANCH   1  23
TORSDOF 14
ENDMDL
MODEL 2
REMARK VINA RESULT:     -12.7      1.511      3.017
REMARK SMILES O=C(C[C@@H](NC(=O)C1CCC1)c1ccc(Cl)cc1)NCCCNC(=O)c1ccc(-c2c3nc(c(-c4c(F)c(F)c(F)c(F)c4F)c4ccc([nH]4)c(-c4c(F)c(F)c(F)c(F)c4F)c4nc(c(-c5c(F)c(F)c(F)c(F)c5F)c5ccc2[nH]5)C=C4)C=C3)cc1
REMARK SMILES IDX 20 1 19 2 1 3 2 4 3 6 4 7 5 8 6 9 7 11 8 12 9 13 11 14 10 15
REMARK SMILES IDX 12 16 13 17 18 18 14 19 17 20 15 21 16 22 21 23 22 24 23 25
REMARK SMILES IDX 24 26 25 28 26 29 27 30 88 31 28 32 87 33 29 34 30 35 31 36
REMARK SMILES IDX 81 37 32 38 86 39 80 40 82 41 33 42 85 43 79 44 78 45 34 47
REMARK SMILES IDX 66 48 46 49 65 50 47 51 50 52 64 53 83 54 48 55 49 56 63 58
REMARK SMILES IDX 84 59 51 60 35 61 36 62 44 63 37 64 38 65 42 66 45 67 39 68
REMARK SMILES IDX 40 69 43 70 41 71 67 72 68 73 76 74 69 75 70 76 74 77 77 78
REMARK SMILES IDX 71 79 72 80 75 81 73 82 52 83 53 84 61 85 54 86 55 87 59 88
REMARK SMILES IDX 62 89 56 90 57 91 60 92 58 93
REMARK H PARENT 19 5 5 10 23 27 82 46 50 57
REMARK Flexibility Score: inf
ROOT
ATOM      1  C   UNL A   1      31.676  30.283  26.921  1.00  0.00     0.117 C 
ENDROOT
BRANCH   1   2
ATOM      2  N   UNL A   1      32.424  29.477  25.973  1.00  0.00    -0.356 N 
ATOM      3  O   UNL A   1      34.155  28.978  27.391  1.00  0.00    -0.275 OA
ATOM      4  C   UNL A   1      33.628  28.897  26.286  1.00  0.00     0.222 C 
ATOM      5  H   UNL A   1      32.054  29.342  25.070  1.00  0.00     0.163 HD
BRANCH   4   6
ATOM      6  C   UNL A   1      34.265  28.111  25.157  1.00  0.00     0.129 C 
BRANCH   6   7
ATOM      7  C   UNL A   1      33.366  26.925  24.756  1.00  0.00     0.121 C 
BRANCH   7   8
ATOM      8  N   UNL A   1      33.272  26.853  23.278  1.00  0.00    -0.349 N 
ATOM      9  C   UNL A   1      33.085  25.914  22.295  1.00  0.00     0.223 C 
ATOM     10  H   UNL A   1      33.374  27.748  22.882  1.00  0.00     0.164 HD
ATOM     11  O   UNL A   1      33.653  26.239  21.231  1.00  0.00    -0.275 OA
BRANCH   9  12
ATOM     12  C   UNL A   1      32.244  24.633  22.324  1.00  0.00     0.078 C 
ATOM     13  C   UNL A   1      32.555  23.278  22.970  1.00  0.00     0.013 C 
ATOM     14  C   UNL A   1      30.920  24.668  23.134  1.00  0.00     0.013 C 
ATOM     15  C   UNL A   1      31.071  23.162  23.380  1.00  0.00     0.002 C 
ENDBRANCH   9  12
ENDBRANCH   7   8
BRANCH   7  16
ATOM     16  C   UNL A   1      33.598  25.598  25.454  1.00  0.00    -0.025 A 
ATOM     17  C   UNL A   1      32.582  25.052  26.256  1.00  0.00     0.007 A 
ATOM     18  C   UNL A   1      34.813  24.893  25.378  1.00  0.00     0.007 A 
ATOM     19  C   UNL A   1      32.705  23.773  26.806  1.00  0.00     0.021 A 
ATOM     20  C   UNL A   1      34.950  23.626  25.951  1.00  0.00     0.021 A 
ATOM     21  C   UNL A   1      33.880  23.054  26.626  1.00  0.00     0.041 A 
ATOM     22  Cl  UNL A   1      34.006  21.447  27.221  1.00  0.00    -0.084 Cl
ENDBRANCH   7  16
ENDBRANCH   6   7
ENDBRANCH   4   6
ENDBRANCH   1   2
BRANCH   1  23
ATOM     23  C   UNL A   1      31.733  31.765  26.577  1.00  0.00     0.042 C 
BRANCH  23  24
ATOM     24  C   UNL A   1      32.861  32.520  27.270  1.00  0.00     0.118 C 
BRANCH  24  25
ATOM     25  N   UNL A   1      32.522  33.904  27.573  1.00  0.00    -0.352 N 
ATOM     26  C   UNL A   1      33.051  34.751  28.518  1.00  0.00     0.251 C 
ATOM     27  H   UNL A   1      31.806  34.290  27.017  1.00  0.00     0.163 HD
ATOM     28  O   UNL A   1      32.532  35.837  28.734  1.00  0.00    -0.269 OA
BRANCH  26  29
ATOM     29  C   UNL A   1      34.232  34.329  29.302  1.00  0.00     0.039 A 
ATOM     30  C   UNL A   1      34.030  33.699  30.532  1.00  0.00     0.014 A 
ATOM     31  C   UNL A   1      35.526  34.532  28.820  1.00  0.00     0.014 A 
ATOM     32  C   UNL A   1      35.125  33.192  31.237  1.00  0.00     0.010 A 
ATOM     33  C   UNL A   1      36.608  33.960  29.483  1.00  0.00     0.010 A 
ATOM     34  C   UNL A   1      36.416  33.274  30.691  1.00  0.00    -0.014 A 
BRANCH  34  35
ATOM     35  C   UNL A   1      37.576  32.619  31.352  1.00  0.00     0.031 A 
ATOM     36  C   UNL A   1      38.277  31.468  30.689  1.00  0.00     0.074 A 
ATOM     37  C   UNL A   1      37.944  33.013  32.587  1.00  0.00     0.049 A 
ATOM     38  N   UNL A   1      39.239  30.709  31.149  1.00  0.00    -0.248 NA
ATOM     39  C   UNL A   1      37.821  31.107  29.338  1.00  0.00     0.031 C 
ATOM     40  C   UNL A   1      37.316  34.092  33.353  1.00  0.00     0.029 A 
ATOM     41  N   UNL A   1      38.925  32.540  33.424  1.00  0.00    -0.354 N 
ATOM     42  C   UNL A   1      39.493  29.776  30.153  1.00  0.00     0.074 A 
ATOM     43  C   UNL A   1      38.550  30.032  29.085  1.00  0.00     0.031 C 
ATOM     44  C   UNL A   1      37.938  34.210  34.537  1.00  0.00     0.029 A 
ATOM     45  C   UNL A   1      38.972  33.185  34.637  1.00  0.00     0.049 A 
ATOM     46  H   UNL A   1      39.535  31.808  33.179  1.00  0.00     0.167 HD
ATOM     47  C   UNL A   1      40.441  28.809  30.124  1.00  0.00     0.037 A 
ATOM     48  C   UNL A   1      39.750  32.964  35.715  1.00  0.00     0.037 A 
ATOM     49  C   UNL A   1      41.387  28.569  31.183  1.00  0.00     0.049 A 
ATOM     50  C   UNL A   1      40.770  31.858  35.670  1.00  0.00     0.074 A 
ATOM     51  C   UNL A   1      42.422  27.652  31.222  1.00  0.00     0.029 A 
ATOM     52  N   UNL A   1      41.406  29.245  32.395  1.00  0.00    -0.354 N 
ATOM     53  N   UNL A   1      41.048  31.027  34.695  1.00  0.00    -0.248 NA
ATOM     54  C   UNL A   1      41.585  31.659  36.876  1.00  0.00     0.031 C 
ATOM     55  C   UNL A   1      43.030  27.731  32.479  1.00  0.00     0.029 A 
ATOM     56  C   UNL A   1      42.414  28.740  33.201  1.00  0.00     0.049 A 
ATOM     57  H   UNL A   1      40.794  29.974  32.644  1.00  0.00     0.167 HD
ATOM     58  C   UNL A   1      42.085  30.228  35.158  1.00  0.00     0.074 A 
ATOM     59  C   UNL A   1      42.398  30.684  36.495  1.00  0.00     0.031 C 
ATOM     60  C   UNL A   1      42.719  29.207  34.530  1.00  0.00     0.037 A 
BRANCH  47  61
ATOM     61  C   UNL A   1      40.502  27.930  28.907  1.00  0.00     0.064 A 
ATOM     62  C   UNL A   1      39.768  26.737  28.820  1.00  0.00     0.173 A 
ATOM     63  C   UNL A   1      41.271  28.308  27.795  1.00  0.00     0.173 A 
ATOM     64  F   UNL A   1      39.024  26.326  29.858  1.00  0.00    -0.203 F 
ATOM     65  C   UNL A   1      39.825  25.941  27.680  1.00  0.00     0.198 A 
ATOM     66  C   UNL A   1      41.299  27.526  26.643  1.00  0.00     0.198 A 
ATOM     67  F   UNL A   1      41.987  29.442  27.820  1.00  0.00    -0.203 F 
ATOM     68  F   UNL A   1      39.156  24.781  27.640  1.00  0.00    -0.200 F 
ATOM     69  C   UNL A   1      40.584  26.340  26.590  1.00  0.00     0.200 A 
ATOM     70  F   UNL A   1      42.020  27.921  25.585  1.00  0.00    -0.200 F 
ATOM     71  F   UNL A   1      40.630  25.577  25.489  1.00  0.00    -0.200 F 
ENDBRANCH  47  61
BRANCH  48  72
ATOM     72  C   UNL A   1      39.598  33.810  36.928  1.00  0.00     0.064 A 
ATOM     73  C   UNL A   1      38.772  33.407  37.988  1.00  0.00     0.173 A 
ATOM     74  C   UNL A   1      40.261  35.040  37.050  1.00  0.00     0.173 A 
ATOM     75  F   UNL A   1      38.099  32.250  37.909  1.00  0.00    -0.203 F 
ATOM     76  C   UNL A   1      38.599  34.213  39.112  1.00  0.00     0.198 A 
ATOM     77  C   UNL A   1      40.112  35.829  38.188  1.00  0.00     0.198 A 
ATOM     78  F   UNL A   1      41.065  35.470  36.066  1.00  0.00    -0.203 F 
ATOM     79  F   UNL A   1      37.764  33.827  40.086  1.00  0.00    -0.200 F 
ATOM     80  C   UNL A   1      39.275  35.420  39.213  1.00  0.00     0.200 A 
ATOM     81  F   UNL A   1      40.778  36.987  38.289  1.00  0.00    -0.200 F 
ATOM     82  F   UNL A   1      39.109  36.193  40.296  1.00  0.00    -0.200 F 
ENDBRANCH  48  72
BRANCH  60  83
ATOM     83  C   UNL A   1      43.840  28.532  35.267  1.00  0.00     0.064 A 
ATOM     84  C   UNL A   1      43.614  27.429  36.103  1.00  0.00     0.173 A 
ATOM     85  C   UNL A   1      45.165  28.963  35.094  1.00  0.00     0.173 A 
ATOM     86  F   UNL A   1      42.365  26.987  36.315  1.00  0.00    -0.203 F 
ATOM     87  C   UNL A   1      44.670  26.796  36.755  1.00  0.00     0.198 A 
ATOM     88  C   UNL A   1      46.220  28.308  35.721  1.00  0.00     0.198 A 
ATOM     89  F   UNL A   1      45.437  30.011  34.301  1.00  0.00    -0.203 F 
ATOM     90  F   UNL A   1      44.425  25.772  37.586  1.00  0.00    -0.200 F 
ATOM     91  C   UNL A   1      45.972  27.230  36.556  1.00  0.00     0.200 A 
ATOM     92  F   UNL A   1      47.480  28.719  35.515  1.00  0.00    -0.200 F 
ATOM     93  F   UNL A   1      46.987  26.611  37.175  1.00  0.00    -0.200 F 
ENDBRANCH  60  83
ENDBRANCH  34  35
ENDBRANCH  26  29
ENDBRANCH  24  25
ENDBRANCH  23  24
ENDBRANCH   1  23
TORSDOF 14
ENDMDL
MODEL 3
REMARK VINA RESULT:     -12.7      6.024     10.904
REMARK SMILES O=C(C[C@@H](NC(=O)C1CCC1)c1ccc(Cl)cc1)NCCCNC(=O)c1ccc(-c2c3nc(c(-c4c(F)c(F)c(F)c(F)c4F)c4ccc([nH]4)c(-c4c(F)c(F)c(F)c(F)c4F)c4nc(c(-c5c(F)c(F)c(F)c(F)c5F)c5ccc2[nH]5)C=C4)C=C3)cc1
REMARK SMILES IDX 20 1 19 2 1 3 2 4 3 6 4 7 5 8 6 9 7 11 8 12 9 13 11 14 10 15
REMARK SMILES IDX 12 16 13 17 18 18 14 19 17 20 15 21 16 22 21 23 22 24 23 25
REMARK SMILES IDX 24 26 25 28 26 29 27 30 88 31 28 32 87 33 29 34 30 35 31 36
REMARK SMILES IDX 81 37 32 38 86 39 80 40 82 41 33 42 85 43 79 44 78 45 34 47
REMARK SMILES IDX 66 48 46 49 65 50 47 51 50 52 64 53 83 54 48 55 49 56 63 58
REMARK SMILES IDX 84 59 51 60 35 61 36 62 44 63 37 64 38 65 42 66 45 67 39 68
REMARK SMILES IDX 40 69 43 70 41 71 67 72 68 73 76 74 69 75 70 76 74 77 77 78
REMARK SMILES IDX 71 79 72 80 75 81 73 82 52 83 53 84 61 85 54 86 55 87 59 88
REMARK SMILES IDX 62 89 56 90 57 91 60 92 58 93
REMARK H PARENT 19 5 5 10 23 27 82 46 50 57
REMARK Flexibility Score: inf
ROOT
ATOM      1  C   UNL A   1      37.312  21.382  24.443  1.00  0.00     0.117 C 
ENDROOT
BRANCH   1   2
ATOM      2  N   UNL A   1      36.173  21.804  25.239  1.00  0.00    -0.356 N 
ATOM      3  O   UNL A   1      37.065  23.813  25.890  1.00  0.00    -0.275 OA
ATOM      4  C   UNL A   1      36.151  22.995  25.920  1.00  0.00     0.222 C 
ATOM      5  H   UNL A   1      35.387  21.212  25.292  1.00  0.00     0.163 HD
BRANCH   4   6
ATOM      6  C   UNL A   1      34.883  23.248  26.711  1.00  0.00     0.129 C 
BRANCH   6   7
ATOM      7  C   UNL A   1      33.733  23.652  25.765  1.00  0.00     0.121 C 
BRANCH   7   8
ATOM      8  N   UNL A   1      32.435  23.278  26.376  1.00  0.00    -0.349 N 
ATOM      9  C   UNL A   1      31.140  23.729  26.418  1.00  0.00     0.223 C 
ATOM     10  H   UNL A   1      32.531  22.460  26.915  1.00  0.00     0.164 HD
ATOM     11  O   UNL A   1      30.581  23.431  27.494  1.00  0.00    -0.275 OA
BRANCH   9  12
ATOM     12  C   UNL A   1      30.326  24.441  25.332  1.00  0.00     0.078 C 
ATOM     13  C   UNL A   1      30.323  25.919  24.926  1.00  0.00     0.013 C 
ATOM     14  C   UNL A   1      30.638  24.079  23.855  1.00  0.00     0.013 C 
ATOM     15  C   UNL A   1      30.186  25.487  23.450  1.00  0.00     0.002 C 
ENDBRANCH   9  12
ENDBRANCH   7   8
BRANCH   7  16
ATOM     16  C   UNL A   1      33.782  25.036  25.148  1.00  0.00    -0.025 A 
ATOM     17  C   UNL A   1      33.897  25.169  23.754  1.00  0.00     0.007 A 
ATOM     18  C   UNL A   1      33.765  26.218  25.912  1.00  0.00     0.007 A 
ATOM     19  C   UNL A   1      33.811  26.420  23.138  1.00  0.00     0.021 A 
ATOM     20  C   UNL A   1      33.708  27.473  25.300  1.00  0.00     0.021 A 
ATOM     21  C   UNL A   1      33.688  27.566  23.915  1.00  0.00     0.041 A 
ATOM     22  Cl  UNL A   1      33.490  29.099  23.164  1.00  0.00    -0.084 Cl
ENDBRANCH   7  16
ENDBRANCH   6   7
ENDBRANCH   4   6
ENDBRANCH   1   2
BRANCH   1  23
ATOM     23  C   UNL A   1      37.983  20.143  25.023  1.00  0.00     0.042 C 
BRANCH  23  24
ATOM     24  C   UNL A   1      39.219  20.442  25.863  1.00  0.00     0.118 C 
BRANCH  24  25
ATOM     25  N   UNL A   1      40.175  19.344  25.885  1.00  0.00    -0.352 N 
ATOM     26  C   UNL A   1      41.531  19.365  26.117  1.00  0.00     0.251 C 
ATOM     27  H   UNL A   1      39.794  18.454  25.707  1.00  0.00     0.163 HD
ATOM     28  O   UNL A   1      42.203  18.359  25.941  1.00  0.00    -0.269 OA
BRANCH  26  29
ATOM     29  C   UNL A   1      42.182  20.622  26.546  1.00  0.00     0.039 A 
ATOM     30  C   UNL A   1      42.729  21.460  25.572  1.00  0.00     0.014 A 
ATOM     31  C   UNL A   1      42.234  20.982  27.894  1.00  0.00     0.014 A 
ATOM     32  C   UNL A   1      43.249  22.702  25.943  1.00  0.00     0.010 A 
ATOM     33  C   UNL A   1      42.680  22.250  28.254  1.00  0.00     0.010 A 
ATOM     34  C   UNL A   1      43.181  23.128  27.280  1.00  0.00    -0.014 A 
BRANCH  34  35
ATOM     35  C   UNL A   1      43.596  24.499  27.676  1.00  0.00     0.031 A 
ATOM     36  C   UNL A   1      42.565  25.541  28.001  1.00  0.00     0.074 A 
ATOM     37  C   UNL A   1      44.904  24.824  27.663  1.00  0.00     0.049 A 
ATOM     38  N   UNL A   1      42.728  26.811  28.269  1.00  0.00    -0.248 NA
ATOM     39  C   UNL A   1      41.161  25.102  28.001  1.00  0.00     0.031 C 
ATOM     40  C   UNL A   1      46.000  23.913  27.327  1.00  0.00     0.029 A 
ATOM     41  N   UNL A   1      45.534  26.016  27.925  1.00  0.00    -0.354 N 
ATOM     42  C   UNL A   1      41.451  27.324  28.458  1.00  0.00     0.074 A 
ATOM     43  C   UNL A   1      40.522  26.240  28.222  1.00  0.00     0.031 C 
ATOM     44  C   UNL A   1      47.165  24.572  27.420  1.00  0.00     0.029 A 
ATOM     45  C   UNL A   1      46.899  25.963  27.772  1.00  0.00     0.049 A 
ATOM     46  H   UNL A   1      45.053  26.832  28.196  1.00  0.00     0.167 HD
ATOM     47  C   UNL A   1      41.090  28.580  28.814  1.00  0.00     0.037 A 
ATOM     48  C   UNL A   1      47.829  26.931  27.884  1.00  0.00     0.037 A 
ATOM     49  C   UNL A   1      42.020  29.651  29.063  1.00  0.00     0.049 A 
ATOM     50  C   UNL A   1      47.397  28.327  28.246  1.00  0.00     0.074 A 
ATOM     51  C   UNL A   1      41.756  30.941  29.486  1.00  0.00     0.029 A 
ATOM     52  N   UNL A   1      43.395  29.558  28.900  1.00  0.00    -0.354 N 
ATOM     53  N   UNL A   1      46.192  28.784  28.489  1.00  0.00    -0.248 NA
ATOM     54  C   UNL A   1      48.454  29.343  28.348  1.00  0.00     0.031 C 
ATOM     55  C   UNL A   1      42.962  31.647  29.522  1.00  0.00     0.029 A 
ATOM     56  C   UNL A   1      43.987  30.780  29.182  1.00  0.00     0.049 A 
ATOM     57  H   UNL A   1      43.878  28.746  28.625  1.00  0.00     0.167 HD
ATOM     58  C   UNL A   1      46.350  30.128  28.800  1.00  0.00     0.074 A 
ATOM     59  C   UNL A   1      47.767  30.409  28.731  1.00  0.00     0.031 C 
ATOM     60  C   UNL A   1      45.402  31.046  29.114  1.00  0.00     0.037 A 
BRANCH  47  61
ATOM     61  C   UNL A   1      39.623  28.869  28.955  1.00  0.00     0.064 A 
ATOM     62  C   UNL A   1      38.960  28.741  30.186  1.00  0.00     0.173 A 
ATOM     63  C   UNL A   1      38.878  29.321  27.855  1.00  0.00     0.173 A 
ATOM     64  F   UNL A   1      39.623  28.305  31.267  1.00  0.00    -0.203 F 
ATOM     65  C   UNL A   1      37.602  29.026  30.303  1.00  0.00     0.198 A 
ATOM     66  C   UNL A   1      37.528  29.636  27.983  1.00  0.00     0.198 A 
ATOM     67  F   UNL A   1      39.462  29.468  26.656  1.00  0.00    -0.203 F 
ATOM     68  F   UNL A   1      36.980  28.848  31.476  1.00  0.00    -0.200 F 
ATOM     69  C   UNL A   1      36.889  29.481  29.203  1.00  0.00     0.200 A 
ATOM     70  F   UNL A   1      36.844  30.092  26.924  1.00  0.00    -0.200 F 
ATOM     71  F   UNL A   1      35.585  29.763  29.320  1.00  0.00    -0.200 F 
ENDBRANCH  47  61
BRANCH  48  72
ATOM     72  C   UNL A   1      49.264  26.614  27.656  1.00  0.00     0.064 A 
ATOM     73  C   UNL A   1      49.795  26.574  26.359  1.00  0.00     0.173 A 
ATOM     74  C   UNL A   1      50.129  26.333  28.724  1.00  0.00     0.173 A 
ATOM     75  F   UNL A   1      49.004  26.814  25.304  1.00  0.00    -0.203 F 
ATOM     76  C   UNL A   1      51.131  26.244  26.139  1.00  0.00     0.198 A 
ATOM     77  C   UNL A   1      51.472  26.034  28.504  1.00  0.00     0.198 A 
ATOM     78  F   UNL A   1      49.672  26.361  29.985  1.00  0.00    -0.203 F 
ATOM     79  F   UNL A   1      51.599  26.162  24.886  1.00  0.00    -0.200 F 
ATOM     80  C   UNL A   1      51.969  25.980  27.211  1.00  0.00     0.200 A 
ATOM     81  F   UNL A   1      52.283  25.796  29.544  1.00  0.00    -0.200 F 
ATOM     82  F   UNL A   1      53.255  25.665  26.997  1.00  0.00    -0.200 F 
ENDBRANCH  48  72
BRANCH  60  83
ATOM     83  C   UNL A   1      45.867  32.436  29.440  1.00  0.00     0.064 A 
ATOM     84  C   UNL A   1      46.243  32.803  30.741  1.00  0.00     0.173 A 
ATOM     85  C   UNL A   1      45.986  33.400  28.427  1.00  0.00     0.173 A 
ATOM     86  F   UNL A   1      46.133  31.923  31.749  1.00  0.00    -0.203 F 
ATOM     87  C   UNL A   1      46.701  34.089  31.018  1.00  0.00     0.198 A 
ATOM     88  C   UNL A   1      46.475  34.674  28.702  1.00  0.00     0.198 A 
ATOM     89  F   UNL A   1      45.645  33.100  27.165  1.00  0.00    -0.203 F 
ATOM     90  F   UNL A   1      47.011  34.430  32.277  1.00  0.00    -0.200 F 
ATOM     91  C   UNL A   1      46.825  35.019  29.998  1.00  0.00     0.200 A 
ATOM     92  F   UNL A   1      46.610  35.567  27.711  1.00  0.00    -0.200 F 
ATOM     93  F   UNL A   1      47.278  36.252  30.265  1.00  0.00    -0.200 F 
ENDBRANCH  60  83
ENDBRANCH  34  35
ENDBRANCH  26  29
ENDBRANCH  24  25
ENDBRANCH  23  24
ENDBRANCH   1  23
TORSDOF 14
ENDMDL
