MODEL 1
REMARK VINA RESULT:     -14.7      0.000      0.000
REMARK SMILES Cc1cccc(CNC(=O)N[C@@H](CC2=c3ccccc3=NC2)C(=O)NCCCNC(=O)c2ccc(-c3c4nc(c(-c5c(F)c(F)c(F)c(F)c5F)c5ccc([nH]5)c(-c5c(F)c(F)c(F)c(F)c5F)c5nc(c(-c6c(F)c(F)c(F)c(F)c6F)c6ccc3[nH]6)C=C5)C=C4)cc2)c1
REMARK SMILES IDX 26 1 25 2 23 3 24 4 12 6 11 7 8 8 9 9 10 11 7 13 6 14 1 15
REMARK SMILES IDX 2 16 3 17 95 18 4 19 5 20 13 21 14 22 15 23 22 24 16 25
REMARK SMILES IDX 20 26 21 27 17 28 19 29 18 30 27 31 28 32 29 33 30 34 31 36
REMARK SMILES IDX 32 37 33 38 94 39 34 40 93 41 35 42 36 43 37 44 87 45 38 46
REMARK SMILES IDX 92 47 86 48 88 49 39 50 91 51 85 52 84 53 40 55 72 56 52 57
REMARK SMILES IDX 71 58 53 59 56 60 70 61 89 62 54 63 55 64 69 66 90 67 57 68
REMARK SMILES IDX 41 69 42 70 50 71 43 72 44 73 48 74 51 75 45 76 46 77 49 78
REMARK SMILES IDX 47 79 73 80 74 81 82 82 75 83 76 84 80 85 83 86 77 87 78 88
REMARK SMILES IDX 81 89 79 90 58 91 59 92 67 93 60 94 61 95 65 96 68 97 62 98
REMARK SMILES IDX 63 99 66 100 64 101
REMARK H PARENT 25 5 8 10 11 12 29 35 88 54 56 65
REMARK Flexibility Score: inf
ROOT
ATOM      1  C   UNL A   1      31.969  29.794  25.289  1.00  0.00     0.117 C 
ENDROOT
BRANCH   1   2
ATOM      2  N   UNL A   1      33.189  29.643  24.511  1.00  0.00    -0.354 N 
ATOM      3  C   UNL A   1      33.792  28.538  23.981  1.00  0.00     0.242 C 
ATOM      4  O   UNL A   1      34.643  28.759  23.106  1.00  0.00    -0.273 OA
ATOM      5  H   UNL A   1      33.665  30.488  24.336  1.00  0.00     0.163 HD
BRANCH   3   6
ATOM      6  C   UNL A   1      33.404  27.066  24.310  1.00  0.00     0.177 C 
BRANCH   6   7
ATOM      7  N   UNL A   1      33.471  26.190  23.143  1.00  0.00    -0.326 N 
ATOM      8  N   UNL A   1      31.421  26.594  22.067  1.00  0.00    -0.334 N 
ATOM      9  C   UNL A   1      32.718  26.253  22.030  1.00  0.00     0.315 C 
ATOM     10  H   UNL A   1      31.083  27.018  21.245  1.00  0.00     0.165 HD
ATOM     11  O   UNL A   1      33.243  25.991  20.949  1.00  0.00    -0.249 OA
ATOM     12  H   UNL A   1      34.144  25.472  23.174  1.00  0.00     0.166 HD
BRANCH   8  13
ATOM     13  C   UNL A   1      30.435  26.440  23.121  1.00  0.00     0.153 C 
BRANCH  13  14
ATOM     14  C   UNL A   1      29.373  27.513  23.099  1.00  0.00    -0.028 A 
ATOM     15  C   UNL A   1      29.088  31.171  22.023  1.00  0.00     0.044 C 
ATOM     16  C   UNL A   1      28.734  29.809  22.543  1.00  0.00    -0.051 A 
ATOM     17  C   UNL A   1      27.450  29.565  23.041  1.00  0.00     0.003 A 
ATOM     18  C   UNL A   1      29.686  28.779  22.574  1.00  0.00     0.009 A 
ATOM     19  C   UNL A   1      27.115  28.306  23.534  1.00  0.00     0.001 A 
ATOM     20  C   UNL A   1      28.066  27.285  23.554  1.00  0.00     0.005 A 
ENDBRANCH  13  14
ENDBRANCH   8  13
ENDBRANCH   6   7
BRANCH   6  21
ATOM     21  C   UNL A   1      34.063  26.426  25.561  1.00  0.00     0.068 C 
BRANCH  21  22
ATOM     22  C   UNL A   1      33.899  24.952  25.736  1.00  0.00    -0.037 C 
ATOM     23  C   UNL A   1      34.861  24.043  25.610  1.00  0.00     0.001 A 
ATOM     24  C   UNL A   1      32.573  24.285  25.937  1.00  0.00     0.174 C 
ATOM     25  C   UNL A   1      36.259  24.123  25.344  1.00  0.00     0.010 A 
ATOM     26  C   UNL A   1      34.099  22.795  25.453  1.00  0.00     0.065 A 
ATOM     27  N   UNL A   1      32.818  22.845  25.663  1.00  0.00    -0.280 NA
ATOM     28  C   UNL A   1      36.859  23.066  24.780  1.00  0.00     0.001 A 
ATOM     29  C   UNL A   1      34.843  21.657  24.862  1.00  0.00     0.028 A 
ATOM     30  C   UNL A   1      36.115  21.857  24.472  1.00  0.00     0.002 A 
ENDBRANCH  21  22
ENDBRANCH   6  21
ENDBRANCH   3   6
ENDBRANCH   1   2
BRANCH   1  31
ATOM     31  C   UNL A   1      32.099  30.703  26.499  1.00  0.00     0.042 C 
BRANCH  31  32
ATOM     32  C   UNL A   1      33.254  30.356  27.433  1.00  0.00     0.118 C 
BRANCH  32  33
ATOM     33  N   UNL A   1      33.933  31.481  28.082  1.00  0.00    -0.352 N 
ATOM     34  C   UNL A   1      35.162  31.522  28.731  1.00  0.00     0.251 C 
ATOM     35  H   UNL A   1      33.446  32.336  28.054  1.00  0.00     0.163 HD
ATOM     36  O   UNL A   1      35.567  32.575  29.217  1.00  0.00    -0.269 OA
BRANCH  34  37
ATOM     37  C   UNL A   1      36.061  30.338  28.708  1.00  0.00     0.039 A 
ATOM     38  C   UNL A   1      36.342  29.666  29.906  1.00  0.00     0.014 A 
ATOM     39  C   UNL A   1      36.809  30.060  27.577  1.00  0.00     0.014 A 
ATOM     40  C   UNL A   1      37.540  28.967  30.029  1.00  0.00     0.010 A 
ATOM     41  C   UNL A   1      38.074  29.563  27.747  1.00  0.00     0.010 A 
ATOM     42  C   UNL A   1      38.457  29.051  28.987  1.00  0.00    -0.014 A 
BRANCH  42  43
ATOM     43  C   UNL A   1      39.850  28.650  29.062  1.00  0.00     0.031 A 
ATOM     44  C   UNL A   1      40.217  27.280  28.656  1.00  0.00     0.074 A 
ATOM     45  C   UNL A   1      40.784  29.601  29.278  1.00  0.00     0.049 A 
ATOM     46  N   UNL A   1      41.331  26.707  28.948  1.00  0.00    -0.248 NA
ATOM     47  C   UNL A   1      39.315  26.422  27.895  1.00  0.00     0.031 C 
ATOM     48  C   UNL A   1      42.215  29.524  29.003  1.00  0.00     0.029 A 
ATOM     49  N   UNL A   1      40.623  30.834  29.936  1.00  0.00    -0.354 N 
ATOM     50  C   UNL A   1      41.414  25.546  28.208  1.00  0.00     0.074 A 
ATOM     51  C   UNL A   1      40.107  25.384  27.623  1.00  0.00     0.031 C 
ATOM     52  C   UNL A   1      42.844  30.475  29.712  1.00  0.00     0.029 A 
ATOM     53  C   UNL A   1      41.854  31.073  30.592  1.00  0.00     0.049 A 
ATOM     54  H   UNL A   1      39.824  31.408  29.940  1.00  0.00     0.167 HD
ATOM     55  C   UNL A   1      42.629  24.939  28.078  1.00  0.00     0.037 A 
ATOM     56  C   UNL A   1      41.934  31.062  31.956  1.00  0.00     0.037 A 
ATOM     57  C   UNL A   1      43.633  25.645  28.875  1.00  0.00     0.049 A 
ATOM     58  C   UNL A   1      42.829  29.979  32.511  1.00  0.00     0.074 A 
ATOM     59  C   UNL A   1      44.574  26.608  28.548  1.00  0.00     0.029 A 
ATOM     60  N   UNL A   1      43.519  25.663  30.262  1.00  0.00    -0.354 N 
ATOM     61  N   UNL A   1      43.191  28.918  31.847  1.00  0.00    -0.248 NA
ATOM     62  C   UNL A   1      43.352  29.996  33.873  1.00  0.00     0.031 C 
ATOM     63  C   UNL A   1      44.982  27.248  29.746  1.00  0.00     0.029 A 
ATOM     64  C   UNL A   1      44.314  26.656  30.804  1.00  0.00     0.049 A 
ATOM     65  H   UNL A   1      42.950  25.053  30.785  1.00  0.00     0.167 HD
ATOM     66  C   UNL A   1      43.931  28.100  32.662  1.00  0.00     0.074 A 
ATOM     67  C   UNL A   1      44.035  28.839  33.906  1.00  0.00     0.031 C 
ATOM     68  C   UNL A   1      44.364  26.872  32.245  1.00  0.00     0.037 A 
BRANCH  55  69
ATOM     69  C   UNL A   1      42.979  23.910  27.017  1.00  0.00     0.064 A 
ATOM     70  C   UNL A   1      42.616  22.556  27.188  1.00  0.00     0.173 A 
ATOM     71  C   UNL A   1      43.717  24.165  25.845  1.00  0.00     0.173 A 
ATOM     72  F   UNL A   1      41.813  22.167  28.187  1.00  0.00    -0.203 F 
ATOM     73  C   UNL A   1      43.059  21.539  26.335  1.00  0.00     0.198 A 
ATOM     74  C   UNL A   1      44.207  23.145  25.020  1.00  0.00     0.198 A 
ATOM     75  F   UNL A   1      43.935  25.408  25.407  1.00  0.00    -0.203 F 
ATOM     76  F   UNL A   1      42.685  20.273  26.560  1.00  0.00    -0.200 F 
ATOM     77  C   UNL A   1      43.887  21.829  25.273  1.00  0.00     0.200 A 
ATOM     78  F   UNL A   1      44.985  23.456  23.973  1.00  0.00    -0.200 F 
ATOM     79  F   UNL A   1      44.346  20.854  24.477  1.00  0.00    -0.200 F 
ENDBRANCH  55  69
BRANCH  56  80
ATOM     80  C   UNL A   1      40.691  31.544  32.617  1.00  0.00     0.064 A 
ATOM     81  C   UNL A   1      40.416  32.923  32.597  1.00  0.00     0.173 A 
ATOM     82  C   UNL A   1      39.625  30.671  32.863  1.00  0.00     0.173 A 
ATOM     83  F   UNL A   1      41.404  33.800  32.360  1.00  0.00    -0.203 F 
ATOM     84  C   UNL A   1      39.108  33.398  32.686  1.00  0.00     0.198 A 
ATOM     85  C   UNL A   1      38.315  31.151  32.936  1.00  0.00     0.198 A 
ATOM     86  F   UNL A   1      39.827  29.346  32.895  1.00  0.00    -0.203 F 
ATOM     87  F   UNL A   1      38.862  34.708  32.551  1.00  0.00    -0.200 F 
ATOM     88  C   UNL A   1      38.056  32.505  32.798  1.00  0.00     0.200 A 
ATOM     89  F   UNL A   1      37.294  30.288  33.036  1.00  0.00    -0.200 F 
ATOM     90  F   UNL A   1      36.792  32.944  32.710  1.00  0.00    -0.200 F 
ENDBRANCH  56  80
BRANCH  68  91
ATOM     91  C   UNL A   1      44.946  25.784  33.123  1.00  0.00     0.064 A 
ATOM     92  C   UNL A   1      46.295  25.391  33.111  1.00  0.00     0.173 A 
ATOM     93  C   UNL A   1      44.155  25.183  34.136  1.00  0.00     0.173 A 
ATOM     94  F   UNL A   1      47.189  25.978  32.304  1.00  0.00    -0.203 F 
ATOM     95  C   UNL A   1      46.794  24.420  33.984  1.00  0.00     0.198 A 
ATOM     96  C   UNL A   1      44.674  24.271  35.053  1.00  0.00     0.198 A 
ATOM     97  F   UNL A   1      42.858  25.486  34.289  1.00  0.00    -0.203 F 
ATOM     98  F   UNL A   1      48.077  24.042  33.888  1.00  0.00    -0.200 F 
ATOM     99  C   UNL A   1      45.989  23.870  34.962  1.00  0.00     0.200 A 
ATOM    100  F   UNL A   1      43.895  23.801  36.037  1.00  0.00    -0.200 F 
ATOM    101  F   UNL A   1      46.486  22.979  35.830  1.00  0.00    -0.200 F 
ENDBRANCH  68  91
ENDBRANCH  42  43
ENDBRANCH  34  37
ENDBRANCH  32  33
ENDBRANCH  31  32
ENDBRANCH   1  31
TORSDOF 15
ENDMDL
MODEL 2
REMARK VINA RESULT:     -14.5      1.239      2.639
REMARK SMILES Cc1cccc(CNC(=O)N[C@@H](CC2=c3ccccc3=NC2)C(=O)NCCCNC(=O)c2ccc(-c3c4nc(c(-c5c(F)c(F)c(F)c(F)c5F)c5ccc([nH]5)c(-c5c(F)c(F)c(F)c(F)c5F)c5nc(c(-c6c(F)c(F)c(F)c(F)c6F)c6ccc3[nH]6)C=C5)C=C4)cc2)c1
REMARK SMILES IDX 26 1 25 2 23 3 24 4 12 6 11 7 8 8 9 9 10 11 7 13 6 14 1 15
REMARK SMILES IDX 2 16 3 17 95 18 4 19 5 20 13 21 14 22 15 23 22 24 16 25
REMARK SMILES IDX 20 26 21 27 17 28 19 29 18 30 27 31 28 32 29 33 30 34 31 36
REMARK SMILES IDX 32 37 33 38 94 39 34 40 93 41 35 42 36 43 37 44 87 45 38 46
REMARK SMILES IDX 92 47 86 48 88 49 39 50 91 51 85 52 84 53 40 55 72 56 52 57
REMARK SMILES IDX 71 58 53 59 56 60 70 61 89 62 54 63 55 64 69 66 90 67 57 68
REMARK SMILES IDX 41 69 42 70 50 71 43 72 44 73 48 74 51 75 45 76 46 77 49 78
REMARK SMILES IDX 47 79 73 80 74 81 82 82 75 83 76 84 80 85 83 86 77 87 78 88
REMARK SMILES IDX 81 89 79 90 58 91 59 92 67 93 60 94 61 95 65 96 68 97 62 98
REMARK SMILES IDX 63 99 66 100 64 101
REMARK H PARENT 25 5 8 10 11 12 29 35 88 54 56 65
REMARK Flexibility Score: inf
ROOT
ATOM      1  C   UNL A   1      31.572  29.938  25.679  1.00  0.00     0.117 C 
ENDROOT
BRANCH   1   2
ATOM      2  N   UNL A   1      31.396  29.973  24.235  1.00  0.00    -0.354 N 
ATOM      3  C   UNL A   1      31.367  28.974  23.303  1.00  0.00     0.242 C 
ATOM      4  O   UNL A   1      30.887  29.283  22.202  1.00  0.00    -0.273 OA
ATOM      5  H   UNL A   1      31.277  30.877  23.864  1.00  0.00     0.163 HD
BRANCH   3   6
ATOM      6  C   UNL A   1      31.775  27.495  23.569  1.00  0.00     0.177 C 
BRANCH   6   7
ATOM      7  N   UNL A   1      30.695  26.553  23.288  1.00  0.00    -0.326 N 
ATOM      8  N   UNL A   1      29.857  26.064  25.429  1.00  0.00    -0.334 N 
ATOM      9  C   UNL A   1      29.686  26.199  24.106  1.00  0.00     0.315 C 
ATOM     10  H   UNL A   1      29.050  26.229  25.968  1.00  0.00     0.165 HD
ATOM     11  O   UNL A   1      28.576  25.998  23.616  1.00  0.00    -0.249 OA
ATOM     12  H   UNL A   1      30.706  26.128  22.400  1.00  0.00     0.166 HD
BRANCH   8  13
ATOM     13  C   UNL A   1      31.039  25.713  26.196  1.00  0.00     0.153 C 
BRANCH  13  14
ATOM     14  C   UNL A   1      31.467  24.279  26.001  1.00  0.00    -0.028 A 
ATOM     15  C   UNL A   1      33.854  21.800  27.668  1.00  0.00     0.044 C 
ATOM     16  C   UNL A   1      32.829  22.385  26.742  1.00  0.00    -0.051 A 
ATOM     17  C   UNL A   1      32.321  21.617  25.689  1.00  0.00     0.003 A 
ATOM     18  C   UNL A   1      32.395  23.711  26.891  1.00  0.00     0.009 A 
ATOM     19  C   UNL A   1      31.376  22.155  24.819  1.00  0.00     0.001 A 
ATOM     20  C   UNL A   1      30.944  23.472  24.979  1.00  0.00     0.005 A 
ENDBRANCH  13  14
ENDBRANCH   8  13
ENDBRANCH   6   7
BRANCH   6  21
ATOM     21  C   UNL A   1      33.132  27.021  22.982  1.00  0.00     0.068 C 
BRANCH  21  22
ATOM     22  C   UNL A   1      33.365  25.547  22.915  1.00  0.00    -0.037 C 
ATOM     23  C   UNL A   1      34.067  24.832  23.788  1.00  0.00     0.001 A 
ATOM     24  C   UNL A   1      32.951  24.697  21.754  1.00  0.00     0.174 C 
ATOM     25  C   UNL A   1      34.740  25.150  25.003  1.00  0.00     0.010 A 
ATOM     26  C   UNL A   1      34.334  23.594  23.040  1.00  0.00     0.065 A 
ATOM     27  N   UNL A   1      33.709  23.428  21.913  1.00  0.00    -0.280 NA
ATOM     28  C   UNL A   1      35.761  24.371  25.386  1.00  0.00     0.001 A 
ATOM     29  C   UNL A   1      35.449  22.762  23.550  1.00  0.00     0.028 A 
ATOM     30  C   UNL A   1      36.156  23.213  24.602  1.00  0.00     0.002 A 
ENDBRANCH  21  22
ENDBRANCH   6  21
ENDBRANCH   3   6
ENDBRANCH   1   2
BRANCH   1  31
ATOM     31  C   UNL A   1      33.011  30.069  26.144  1.00  0.00     0.042 C 
BRANCH  31  32
ATOM     32  C   UNL A   1      33.181  30.204  27.654  1.00  0.00     0.118 C 
BRANCH  32  33
ATOM     33  N   UNL A   1      33.924  31.375  28.128  1.00  0.00    -0.352 N 
ATOM     34  C   UNL A   1      35.217  31.462  28.631  1.00  0.00     0.251 C 
ATOM     35  H   UNL A   1      33.433  32.227  28.084  1.00  0.00     0.163 HD
ATOM     36  O   UNL A   1      35.670  32.550  28.980  1.00  0.00    -0.269 OA
BRANCH  34  37
ATOM     37  C   UNL A   1      36.113  30.276  28.605  1.00  0.00     0.039 A 
ATOM     38  C   UNL A   1      36.371  29.585  29.797  1.00  0.00     0.014 A 
ATOM     39  C   UNL A   1      36.879  30.013  27.483  1.00  0.00     0.014 A 
ATOM     40  C   UNL A   1      37.565  28.880  29.929  1.00  0.00     0.010 A 
ATOM     41  C   UNL A   1      38.140  29.509  27.667  1.00  0.00     0.010 A 
ATOM     42  C   UNL A   1      38.500  28.977  28.905  1.00  0.00    -0.014 A 
BRANCH  42  43
ATOM     43  C   UNL A   1      39.890  28.570  28.998  1.00  0.00     0.031 A 
ATOM     44  C   UNL A   1      40.255  27.196  28.603  1.00  0.00     0.074 A 
ATOM     45  C   UNL A   1      40.826  29.517  29.220  1.00  0.00     0.049 A 
ATOM     46  N   UNL A   1      41.364  26.620  28.910  1.00  0.00    -0.248 NA
ATOM     47  C   UNL A   1      39.358  26.339  27.837  1.00  0.00     0.031 C 
ATOM     48  C   UNL A   1      42.260  29.433  28.960  1.00  0.00     0.029 A 
ATOM     49  N   UNL A   1      40.663  30.755  29.869  1.00  0.00    -0.354 N 
ATOM     50  C   UNL A   1      41.449  25.454  28.178  1.00  0.00     0.074 A 
ATOM     51  C   UNL A   1      40.148  25.295  27.579  1.00  0.00     0.031 C 
ATOM     52  C   UNL A   1      42.885  30.385  29.672  1.00  0.00     0.029 A 
ATOM     53  C   UNL A   1      41.887  30.992  30.538  1.00  0.00     0.049 A 
ATOM     54  H   UNL A   1      39.866  31.333  29.861  1.00  0.00     0.167 HD
ATOM     55  C   UNL A   1      42.663  24.841  28.065  1.00  0.00     0.037 A 
ATOM     56  C   UNL A   1      41.952  30.988  31.902  1.00  0.00     0.037 A 
ATOM     57  C   UNL A   1      43.662  25.547  28.870  1.00  0.00     0.049 A 
ATOM     58  C   UNL A   1      42.836  29.904  32.474  1.00  0.00     0.074 A 
ATOM     59  C   UNL A   1      44.610  26.504  28.548  1.00  0.00     0.029 A 
ATOM     60  N   UNL A   1      43.531  25.573  30.255  1.00  0.00    -0.354 N 
ATOM     61  N   UNL A   1      43.201  28.838  31.819  1.00  0.00    -0.248 NA
ATOM     62  C   UNL A   1      43.344  29.926  33.840  1.00  0.00     0.031 C 
ATOM     63  C   UNL A   1      45.007  27.149  29.747  1.00  0.00     0.029 A 
ATOM     64  C   UNL A   1      44.325  26.565  30.801  1.00  0.00     0.049 A 
ATOM     65  H   UNL A   1      42.954  24.968  30.775  1.00  0.00     0.167 HD
ATOM     66  C   UNL A   1      43.927  28.021  32.646  1.00  0.00     0.074 A 
ATOM     67  C   UNL A   1      44.021  28.765  33.888  1.00  0.00     0.031 C 
ATOM     68  C   UNL A   1      44.360  26.788  32.241  1.00  0.00     0.037 A 
BRANCH  55  69
ATOM     69  C   UNL A   1      43.020  23.805  27.013  1.00  0.00     0.064 A 
ATOM     70  C   UNL A   1      42.693  22.445  27.211  1.00  0.00     0.173 A 
ATOM     71  C   UNL A   1      43.732  24.060  25.825  1.00  0.00     0.173 A 
ATOM     72  F   UNL A   1      41.917  22.052  28.229  1.00  0.00    -0.203 F 
ATOM     73  C   UNL A   1      43.147  21.427  26.366  1.00  0.00     0.198 A 
ATOM     74  C   UNL A   1      44.233  23.040  25.007  1.00  0.00     0.198 A 
ATOM     75  F   UNL A   1      43.912  25.301  25.365  1.00  0.00    -0.203 F 
ATOM     76  F   UNL A   1      42.808  20.155  26.615  1.00  0.00    -0.200 F 
ATOM     77  C   UNL A   1      43.950  21.721  25.285  1.00  0.00     0.200 A 
ATOM     78  F   UNL A   1      44.985  23.353  23.942  1.00  0.00    -0.200 F 
ATOM     79  F   UNL A   1      44.419  20.745  24.496  1.00  0.00    -0.200 F 
ENDBRANCH  55  69
BRANCH  56  80
ATOM     80  C   UNL A   1      40.704  31.479  32.546  1.00  0.00     0.064 A 
ATOM     81  C   UNL A   1      40.438  32.860  32.520  1.00  0.00     0.173 A 
ATOM     82  C   UNL A   1      39.630  30.613  32.782  1.00  0.00     0.173 A 
ATOM     83  F   UNL A   1      41.434  33.730  32.293  1.00  0.00    -0.203 F 
ATOM     84  C   UNL A   1      39.132  33.343  32.591  1.00  0.00     0.198 A 
ATOM     85  C   UNL A   1      38.322  31.101  32.837  1.00  0.00     0.198 A 
ATOM     86  F   UNL A   1      39.823  29.287  32.819  1.00  0.00    -0.203 F 
ATOM     87  F   UNL A   1      38.895  34.654  32.450  1.00  0.00    -0.200 F 
ATOM     88  C   UNL A   1      38.073  32.457  32.692  1.00  0.00     0.200 A 
ATOM     89  F   UNL A   1      37.294  30.244  32.926  1.00  0.00    -0.200 F 
ATOM     90  F   UNL A   1      36.813  32.902  32.588  1.00  0.00    -0.200 F 
ENDBRANCH  56  80
BRANCH  68  91
ATOM     91  C   UNL A   1      44.927  25.702  33.131  1.00  0.00     0.064 A 
ATOM     92  C   UNL A   1      46.268  25.284  33.116  1.00  0.00     0.173 A 
ATOM     93  C   UNL A   1      44.132  25.132  34.158  1.00  0.00     0.173 A 
ATOM     94  F   UNL A   1      47.167  25.841  32.295  1.00  0.00    -0.203 F 
ATOM     95  C   UNL A   1      46.754  24.316  34.000  1.00  0.00     0.198 A 
ATOM     96  C   UNL A   1      44.639  24.224  35.085  1.00  0.00     0.198 A 
ATOM     97  F   UNL A   1      42.842  25.462  34.315  1.00  0.00    -0.203 F 
ATOM     98  F   UNL A   1      48.029  23.912  33.902  1.00  0.00    -0.200 F 
ATOM     99  C   UNL A   1      45.946  23.797  34.992  1.00  0.00     0.200 A 
ATOM    100  F   UNL A   1      43.858  23.783  36.081  1.00  0.00    -0.200 F 
ATOM    101  F   UNL A   1      46.431  22.909  35.869  1.00  0.00    -0.200 F 
ENDBRANCH  68  91
ENDBRANCH  42  43
ENDBRANCH  34  37
ENDBRANCH  32  33
ENDBRANCH  31  32
ENDBRANCH   1  31
TORSDOF 15
ENDMDL
MODEL 3
REMARK VINA RESULT:     -14.4      3.286      9.052
REMARK SMILES Cc1cccc(CNC(=O)N[C@@H](CC2=c3ccccc3=NC2)C(=O)NCCCNC(=O)c2ccc(-c3c4nc(c(-c5c(F)c(F)c(F)c(F)c5F)c5ccc([nH]5)c(-c5c(F)c(F)c(F)c(F)c5F)c5nc(c(-c6c(F)c(F)c(F)c(F)c6F)c6ccc3[nH]6)C=C5)C=C4)cc2)c1
REMARK SMILES IDX 26 1 25 2 23 3 24 4 12 6 11 7 8 8 9 9 10 11 7 13 6 14 1 15
REMARK SMILES IDX 2 16 3 17 95 18 4 19 5 20 13 21 14 22 15 23 22 24 16 25
REMARK SMILES IDX 20 26 21 27 17 28 19 29 18 30 27 31 28 32 29 33 30 34 31 36
REMARK SMILES IDX 32 37 33 38 94 39 34 40 93 41 35 42 36 43 37 44 87 45 38 46
REMARK SMILES IDX 92 47 86 48 88 49 39 50 91 51 85 52 84 53 40 55 72 56 52 57
REMARK SMILES IDX 71 58 53 59 56 60 70 61 89 62 54 63 55 64 69 66 90 67 57 68
REMARK SMILES IDX 41 69 42 70 50 71 43 72 44 73 48 74 51 75 45 76 46 77 49 78
REMARK SMILES IDX 47 79 73 80 74 81 82 82 75 83 76 84 80 85 83 86 77 87 78 88
REMARK SMILES IDX 81 89 79 90 58 91 59 92 67 93 60 94 61 95 65 96 68 97 62 98
REMARK SMILES IDX 63 99 66 100 64 101
REMARK H PARENT 25 5 8 10 11 12 29 35 88 54 56 65
REMARK Flexibility Score: inf
ROOT
ATOM      1  C   UNL A   1      36.261  21.209  24.558  1.00  0.00     0.117 C 
ENDROOT
BRANCH   1   2
ATOM      2  N   UNL A   1      35.257  20.539  25.370  1.00  0.00    -0.354 N 
ATOM      3  C   UNL A   1      33.962  20.865  25.658  1.00  0.00     0.242 C 
ATOM      4  O   UNL A   1      33.265  19.945  26.114  1.00  0.00    -0.273 OA
ATOM      5  H   UNL A   1      35.566  19.701  25.786  1.00  0.00     0.163 HD
BRANCH   3   6
ATOM      6  C   UNL A   1      33.299  22.240  25.348  1.00  0.00     0.177 C 
BRANCH   6   7
ATOM      7  N   UNL A   1      32.261  22.147  24.325  1.00  0.00    -0.326 N 
ATOM      8  N   UNL A   1      33.399  22.773  22.366  1.00  0.00    -0.334 N 
ATOM      9  C   UNL A   1      32.431  22.087  22.991  1.00  0.00     0.315 C 
ATOM     10  H   UNL A   1      33.717  22.367  21.528  1.00  0.00     0.165 HD
ATOM     11  O   UNL A   1      31.672  21.376  22.333  1.00  0.00    -0.249 OA
ATOM     12  H   UNL A   1      31.331  22.126  24.647  1.00  0.00     0.166 HD
BRANCH   8  13
ATOM     13  C   UNL A   1      34.054  24.018  22.723  1.00  0.00     0.153 C 
BRANCH  13  14
ATOM     14  C   UNL A   1      33.125  25.208  22.684  1.00  0.00    -0.028 A 
ATOM     15  C   UNL A   1      33.424  29.019  22.781  1.00  0.00     0.044 C 
ATOM     16  C   UNL A   1      32.841  27.639  22.696  1.00  0.00    -0.051 A 
ATOM     17  C   UNL A   1      31.454  27.470  22.631  1.00  0.00     0.003 A 
ATOM     18  C   UNL A   1      33.666  26.505  22.721  1.00  0.00     0.009 A 
ATOM     19  C   UNL A   1      30.904  26.192  22.561  1.00  0.00     0.001 A 
ATOM     20  C   UNL A   1      31.733  25.070  22.577  1.00  0.00     0.005 A 
ENDBRANCH  13  14
ENDBRANCH   8  13
ENDBRANCH   6   7
BRANCH   6  21
ATOM     21  C   UNL A   1      32.849  23.096  26.562  1.00  0.00     0.068 C 
BRANCH  21  22
ATOM     22  C   UNL A   1      32.001  24.291  26.273  1.00  0.00    -0.037 C 
ATOM     23  C   UNL A   1      32.445  25.529  26.077  1.00  0.00     0.001 A 
ATOM     24  C   UNL A   1      30.504  24.272  26.312  1.00  0.00     0.174 C 
ATOM     25  C   UNL A   1      33.745  26.109  26.022  1.00  0.00     0.010 A 
ATOM     26  C   UNL A   1      31.230  26.335  26.271  1.00  0.00     0.065 A 
ATOM     27  N   UNL A   1      30.100  25.701  26.367  1.00  0.00    -0.280 NA
ATOM     28  C   UNL A   1      33.873  27.410  26.318  1.00  0.00     0.001 A 
ATOM     29  C   UNL A   1      31.450  27.773  26.551  1.00  0.00     0.028 A 
ATOM     30  C   UNL A   1      32.715  28.219  26.658  1.00  0.00     0.002 A 
ENDBRANCH  21  22
ENDBRANCH   6  21
ENDBRANCH   3   6
ENDBRANCH   1   2
BRANCH   1  31
ATOM     31  C   UNL A   1      37.692  20.997  25.021  1.00  0.00     0.042 C 
BRANCH  31  32
ATOM     32  C   UNL A   1      38.298  22.179  25.771  1.00  0.00     0.118 C 
BRANCH  32  33
ATOM     33  N   UNL A   1      39.728  22.095  26.080  1.00  0.00    -0.352 N 
ATOM     34  C   UNL A   1      40.610  23.093  26.482  1.00  0.00     0.251 C 
ATOM     35  H   UNL A   1      40.124  21.199  25.990  1.00  0.00     0.163 HD
ATOM     36  O   UNL A   1      41.789  22.822  26.699  1.00  0.00    -0.269 OA
BRANCH  34  37
ATOM     37  C   UNL A   1      40.105  24.453  26.803  1.00  0.00     0.039 A 
ATOM     38  C   UNL A   1      40.641  25.561  26.130  1.00  0.00     0.014 A 
ATOM     39  C   UNL A   1      39.313  24.651  27.921  1.00  0.00     0.014 A 
ATOM     40  C   UNL A   1      40.628  26.807  26.753  1.00  0.00     0.010 A 
ATOM     41  C   UNL A   1      39.479  25.810  28.633  1.00  0.00     0.010 A 
ATOM     42  C   UNL A   1      40.173  26.879  28.064  1.00  0.00    -0.014 A 
BRANCH  42  43
ATOM     43  C   UNL A   1      40.366  28.007  28.957  1.00  0.00     0.031 A 
ATOM     44  C   UNL A   1      39.359  29.086  28.965  1.00  0.00     0.074 A 
ATOM     45  C   UNL A   1      41.324  27.924  29.904  1.00  0.00     0.049 A 
ATOM     46  N   UNL A   1      39.547  30.255  29.467  1.00  0.00    -0.248 NA
ATOM     47  C   UNL A   1      38.040  28.928  28.362  1.00  0.00     0.031 C 
ATOM     48  C   UNL A   1      41.441  28.713  31.126  1.00  0.00     0.029 A 
ATOM     49  N   UNL A   1      42.501  27.154  29.874  1.00  0.00    -0.354 N 
ATOM     50  C   UNL A   1      38.328  30.898  29.505  1.00  0.00     0.074 A 
ATOM     51  C   UNL A   1      37.439  30.056  28.745  1.00  0.00     0.031 C 
ATOM     52  C   UNL A   1      42.703  28.626  31.578  1.00  0.00     0.029 A 
ATOM     53  C   UNL A   1      43.469  27.921  30.565  1.00  0.00     0.049 A 
ATOM     54  H   UNL A   1      42.625  26.269  29.460  1.00  0.00     0.167 HD
ATOM     55  C   UNL A   1      38.196  32.003  30.294  1.00  0.00     0.037 A 
ATOM     56  C   UNL A   1      44.541  28.453  29.906  1.00  0.00     0.037 A 
ATOM     57  C   UNL A   1      39.483  32.344  30.903  1.00  0.00     0.049 A 
ATOM     58  C   UNL A   1      44.583  29.963  29.918  1.00  0.00     0.074 A 
ATOM     59  C   UNL A   1      40.029  32.066  32.145  1.00  0.00     0.029 A 
ATOM     60  N   UNL A   1      40.538  32.750  30.092  1.00  0.00    -0.354 N 
ATOM     61  N   UNL A   1      43.553  30.722  30.168  1.00  0.00    -0.248 NA
ATOM     62  C   UNL A   1      45.785  30.731  29.613  1.00  0.00     0.031 C 
ATOM     63  C   UNL A   1      41.433  32.251  32.059  1.00  0.00     0.029 A 
ATOM     64  C   UNL A   1      41.737  32.671  30.775  1.00  0.00     0.049 A 
ATOM     65  H   UNL A   1      40.444  33.054  29.160  1.00  0.00     0.167 HD
ATOM     66  C   UNL A   1      43.907  32.037  30.019  1.00  0.00     0.074 A 
ATOM     67  C   UNL A   1      45.324  31.990  29.709  1.00  0.00     0.031 C 
ATOM     68  C   UNL A   1      42.991  33.046  30.134  1.00  0.00     0.037 A 
BRANCH  55  69
ATOM     69  C   UNL A   1      36.874  32.591  30.755  1.00  0.00     0.064 A 
ATOM     70  C   UNL A   1      36.152  33.470  29.917  1.00  0.00     0.173 A 
ATOM     71  C   UNL A   1      36.286  32.388  32.019  1.00  0.00     0.173 A 
ATOM     72  F   UNL A   1      36.512  33.676  28.643  1.00  0.00    -0.203 F 
ATOM     73  C   UNL A   1      35.025  34.175  30.350  1.00  0.00     0.198 A 
ATOM     74  C   UNL A   1      35.190  33.131  32.474  1.00  0.00     0.198 A 
ATOM     75  F   UNL A   1      36.697  31.417  32.838  1.00  0.00    -0.203 F 
ATOM     76  F   UNL A   1      34.392  35.002  29.507  1.00  0.00    -0.200 F 
ATOM     77  C   UNL A   1      34.566  34.035  31.642  1.00  0.00     0.200 A 
ATOM     78  F   UNL A   1      34.743  32.953  33.725  1.00  0.00    -0.200 F 
ATOM     79  F   UNL A   1      33.510  34.738  32.074  1.00  0.00    -0.200 F 
ENDBRANCH  55  69
BRANCH  56  80
ATOM     80  C   UNL A   1      45.005  27.610  28.772  1.00  0.00     0.064 A 
ATOM     81  C   UNL A   1      45.725  26.437  29.061  1.00  0.00     0.173 A 
ATOM     82  C   UNL A   1      44.404  27.710  27.511  1.00  0.00     0.173 A 
ATOM     83  F   UNL A   1      46.315  26.292  30.258  1.00  0.00    -0.203 F 
ATOM     84  C   UNL A   1      45.729  25.358  28.179  1.00  0.00     0.198 A 
ATOM     85  C   UNL A   1      44.399  26.620  26.637  1.00  0.00     0.198 A 
ATOM     86  F   UNL A   1      43.707  28.805  27.177  1.00  0.00    -0.203 F 
ATOM     87  F   UNL A   1      46.327  24.211  28.528  1.00  0.00    -0.200 F 
ATOM     88  C   UNL A   1      45.017  25.432  26.994  1.00  0.00     0.200 A 
ATOM     89  F   UNL A   1      43.703  26.688  25.493  1.00  0.00    -0.200 F 
ATOM     90  F   UNL A   1      44.875  24.343  26.226  1.00  0.00    -0.200 F 
ENDBRANCH  56  80
BRANCH  68  91
ATOM     91  C   UNL A   1      43.199  34.492  29.733  1.00  0.00     0.064 A 
ATOM     92  C   UNL A   1      43.331  35.555  30.641  1.00  0.00     0.173 A 
ATOM     93  C   UNL A   1      43.416  34.832  28.373  1.00  0.00     0.173 A 
ATOM     94  F   UNL A   1      43.292  35.357  31.965  1.00  0.00    -0.203 F 
ATOM     95  C   UNL A   1      43.579  36.865  30.219  1.00  0.00     0.198 A 
ATOM     96  C   UNL A   1      43.737  36.125  27.964  1.00  0.00     0.198 A 
ATOM     97  F   UNL A   1      43.355  33.914  27.398  1.00  0.00    -0.203 F 
ATOM     98  F   UNL A   1      43.638  37.851  31.126  1.00  0.00    -0.200 F 
ATOM     99  C   UNL A   1      43.795  37.148  28.885  1.00  0.00     0.200 A 
ATOM    100  F   UNL A   1      44.011  36.366  26.674  1.00  0.00    -0.200 F 
ATOM    101  F   UNL A   1      44.085  38.396  28.492  1.00  0.00    -0.200 F 
ENDBRANCH  68  91
ENDBRANCH  42  43
ENDBRANCH  34  37
ENDBRANCH  32  33
ENDBRANCH  31  32
ENDBRANCH   1  31
TORSDOF 15
ENDMDL
