MODEL 1
REMARK VINA RESULT:     -13.3      0.000      0.000
REMARK SMILES O=C(NCCCNC(=O)c1ccc(-c2c3nc(c(-c4c(F)c(F)c(F)c(F)c4F)c4ccc([nH]4)c(-c4c(F)c(F)c(F)c(F)c4F)c4nc(c(-c5c(F)c(F)c(F)c(F)c5F)c5ccc2[nH]5)C=C4)C=C3)cc1)C1=Cc2c(ccc(Cl)c2Cl)O[C@H]1C(F)(F)F
REMARK SMILES IDX 5 1 4 2 3 3 1 4 2 5 73 7 74 8 84 9 75 10 83 11 76 12 81 13
REMARK SMILES IDX 77 14 79 15 82 16 78 17 80 18 85 19 86 20 87 21 88 22 6 23
REMARK SMILES IDX 7 24 8 25 9 27 10 28 11 29 72 30 12 31 71 32 13 33 14 34
REMARK SMILES IDX 15 35 65 36 16 37 70 38 64 39 66 40 17 41 69 42 63 43 62 44
REMARK SMILES IDX 18 46 50 47 30 48 49 49 31 50 34 51 48 52 67 53 32 54 33 55
REMARK SMILES IDX 47 57 68 58 35 59 19 60 20 61 28 62 21 63 22 64 26 65 29 66
REMARK SMILES IDX 23 67 24 68 27 69 25 70 51 71 52 72 60 73 53 74 54 75 58 76
REMARK SMILES IDX 61 77 55 78 56 79 59 80 57 81 36 82 37 83 45 84 38 85 39 86
REMARK SMILES IDX 43 87 46 88 40 89 41 90 44 91 42 92
REMARK H PARENT 3 6 7 26 66 45 34 56
REMARK Flexibility Score: inf
ROOT
ATOM      1  C   UNL A   1      33.618  29.133  24.008  1.00  0.00     0.042 C 
ENDROOT
BRANCH   1   2
ATOM      2  C   UNL A   1      32.654  28.751  22.904  1.00  0.00     0.118 C 
BRANCH   2   3
ATOM      3  N   UNL A   1      33.078  27.692  22.009  1.00  0.00    -0.352 N 
ATOM      4  O   UNL A   1      33.439  25.554  21.386  1.00  0.00    -0.270 OA
ATOM      5  C   UNL A   1      33.002  26.339  22.222  1.00  0.00     0.251 C 
ATOM      6  H   UNL A   1      33.465  27.977  21.151  1.00  0.00     0.163 HD
BRANCH   5   7
ATOM      7  C   UNL A   1      32.434  25.812  23.495  1.00  0.00     0.067 C 
ATOM      8  C   UNL A   1      33.303  25.390  24.429  1.00  0.00     0.027 C 
ATOM      9  C   UNL A   1      31.053  25.221  23.386  1.00  0.00     0.314 C 
ATOM     10  C   UNL A   1      33.305  23.910  24.556  1.00  0.00     0.037 A 
ATOM     11  O   UNL A   1      30.977  23.827  23.818  1.00  0.00    -0.475 OA
ATOM     12  C   UNL A   1      32.148  23.210  24.178  1.00  0.00     0.129 A 
ATOM     13  C   UNL A   1      34.494  23.206  24.829  1.00  0.00     0.070 A 
ATOM     14  C   UNL A   1      32.183  21.825  24.022  1.00  0.00     0.049 A 
ATOM     15  C   UNL A   1      34.530  21.818  24.635  1.00  0.00     0.060 A 
ATOM     16  Cl  UNL A   1      35.924  24.078  25.291  1.00  0.00    -0.082 Cl
ATOM     17  C   UNL A   1      33.381  21.137  24.217  1.00  0.00     0.026 A 
ATOM     18  Cl  UNL A   1      35.978  20.894  24.819  1.00  0.00    -0.083 Cl
BRANCH   9  19
ATOM     19  C   UNL A   1      29.998  26.071  24.123  1.00  0.00     0.429 C 
ATOM     20  F   UNL A   1      28.776  26.018  23.545  1.00  0.00    -0.167 F 
ATOM     21  F   UNL A   1      29.854  25.656  25.405  1.00  0.00    -0.167 F 
ATOM     22  F   UNL A   1      30.348  27.380  24.168  1.00  0.00    -0.167 F 
ENDBRANCH   9  19
ENDBRANCH   5   7
ENDBRANCH   2   3
ENDBRANCH   1   2
BRANCH   1  23
ATOM     23  C   UNL A   1      33.043  29.014  25.408  1.00  0.00     0.118 C 
BRANCH  23  24
ATOM     24  N   UNL A   1      32.602  30.284  25.984  1.00  0.00    -0.352 N 
ATOM     25  C   UNL A   1      33.149  31.127  26.925  1.00  0.00     0.251 C 
ATOM     26  H   UNL A   1      31.740  30.600  25.627  1.00  0.00     0.163 HD
ATOM     27  O   UNL A   1      32.506  32.110  27.289  1.00  0.00    -0.269 OA
BRANCH  25  28
ATOM     28  C   UNL A   1      34.466  30.861  27.547  1.00  0.00     0.039 A 
ATOM     29  C   UNL A   1      35.384  31.912  27.682  1.00  0.00     0.014 A 
ATOM     30  C   UNL A   1      34.827  29.590  27.979  1.00  0.00     0.014 A 
ATOM     31  C   UNL A   1      36.599  31.704  28.344  1.00  0.00     0.010 A 
ATOM     32  C   UNL A   1      35.964  29.414  28.756  1.00  0.00     0.010 A 
ATOM     33  C   UNL A   1      36.873  30.465  28.942  1.00  0.00    -0.014 A 
BRANCH  33  34
ATOM     34  C   UNL A   1      38.104  30.209  29.735  1.00  0.00     0.031 A 
ATOM     35  C   UNL A   1      39.161  29.284  29.189  1.00  0.00     0.074 A 
ATOM     36  C   UNL A   1      38.220  30.701  30.985  1.00  0.00     0.049 A 
ATOM     37  N   UNL A   1      40.197  28.755  29.790  1.00  0.00    -0.248 NA
ATOM     38  C   UNL A   1      38.995  28.851  27.792  1.00  0.00     0.031 C 
ATOM     39  C   UNL A   1      37.246  31.566  31.652  1.00  0.00     0.029 A 
ATOM     40  N   UNL A   1      39.203  30.522  31.928  1.00  0.00    -0.354 N 
ATOM     41  C   UNL A   1      40.770  27.893  28.863  1.00  0.00     0.074 A 
ATOM     42  C   UNL A   1      39.934  27.924  27.682  1.00  0.00     0.031 C 
ATOM     43  C   UNL A   1      37.691  31.863  32.883  1.00  0.00     0.029 A 
ATOM     44  C   UNL A   1      38.956  31.173  33.112  1.00  0.00     0.049 A 
ATOM     45  H   UNL A   1      40.008  29.979  31.768  1.00  0.00     0.167 HD
ATOM     46  C   UNL A   1      41.906  27.164  28.972  1.00  0.00     0.037 A 
ATOM     47  C   UNL A   1      39.664  31.197  34.257  1.00  0.00     0.037 A 
ATOM     48  C   UNL A   1      42.769  27.192  30.123  1.00  0.00     0.049 A 
ATOM     49  C   UNL A   1      40.944  30.412  34.342  1.00  0.00     0.074 A 
ATOM     50  C   UNL A   1      43.982  26.556  30.309  1.00  0.00     0.029 A 
ATOM     51  N   UNL A   1      42.511  27.912  31.282  1.00  0.00    -0.354 N 
ATOM     52  N   UNL A   1      41.501  29.637  33.442  1.00  0.00    -0.248 NA
ATOM     53  C   UNL A   1      41.696  30.506  35.601  1.00  0.00     0.031 C 
ATOM     54  C   UNL A   1      44.445  26.863  31.593  1.00  0.00     0.029 A 
ATOM     55  C   UNL A   1      43.540  27.727  32.190  1.00  0.00     0.049 A 
ATOM     56  H   UNL A   1      41.715  28.470  31.435  1.00  0.00     0.167 HD
ATOM     57  C   UNL A   1      42.680  29.177  34.013  1.00  0.00     0.074 A 
ATOM     58  C   UNL A   1      42.764  29.768  35.332  1.00  0.00     0.031 C 
ATOM     59  C   UNL A   1      43.610  28.339  33.492  1.00  0.00     0.037 A 
BRANCH  46  60
ATOM     60  C   UNL A   1      42.283  26.288  27.812  1.00  0.00     0.064 A 
ATOM     61  C   UNL A   1      43.221  26.698  26.851  1.00  0.00     0.173 A 
ATOM     62  C   UNL A   1      41.707  25.018  27.662  1.00  0.00     0.173 A 
ATOM     63  F   UNL A   1      43.793  27.909  26.940  1.00  0.00    -0.203 F 
ATOM     64  C   UNL A   1      43.534  25.889  25.761  1.00  0.00     0.198 A 
ATOM     65  C   UNL A   1      42.049  24.196  26.590  1.00  0.00     0.198 A 
ATOM     66  F   UNL A   1      40.809  24.572  28.553  1.00  0.00    -0.203 F 
ATOM     67  F   UNL A   1      44.382  26.332  24.823  1.00  0.00    -0.200 F 
ATOM     68  C   UNL A   1      42.953  24.637  25.635  1.00  0.00     0.200 A 
ATOM     69  F   UNL A   1      41.496  22.981  26.476  1.00  0.00    -0.200 F 
ATOM     70  F   UNL A   1      43.255  23.860  24.587  1.00  0.00    -0.200 F 
ENDBRANCH  46  60
BRANCH  47  71
ATOM     71  C   UNL A   1      39.198  32.024  35.401  1.00  0.00     0.064 A 
ATOM     72  C   UNL A   1      39.523  33.386  35.475  1.00  0.00     0.173 A 
ATOM     73  C   UNL A   1      38.420  31.483  36.433  1.00  0.00     0.173 A 
ATOM     74  F   UNL A   1      40.282  33.946  34.522  1.00  0.00    -0.203 F 
ATOM     75  C   UNL A   1      39.103  34.170  36.547  1.00  0.00     0.198 A 
ATOM     76  C   UNL A   1      37.976  32.273  37.492  1.00  0.00     0.198 A 
ATOM     77  F   UNL A   1      38.074  30.187  36.406  1.00  0.00    -0.203 F 
ATOM     78  F   UNL A   1      39.463  35.459  36.613  1.00  0.00    -0.200 F 
ATOM     79  C   UNL A   1      38.325  33.615  37.551  1.00  0.00     0.200 A 
ATOM     80  F   UNL A   1      37.211  31.737  38.452  1.00  0.00    -0.200 F 
ATOM     81  F   UNL A   1      37.915  34.370  38.579  1.00  0.00    -0.200 F 
ENDBRANCH  47  71
BRANCH  59  82
ATOM     82  C   UNL A   1      44.820  28.048  34.330  1.00  0.00     0.064 A 
ATOM     83  C   UNL A   1      44.866  26.945  35.196  1.00  0.00     0.173 A 
ATOM     84  C   UNL A   1      45.962  28.855  34.229  1.00  0.00     0.173 A 
ATOM     85  F   UNL A   1      43.792  26.153  35.339  1.00  0.00    -0.203 F 
ATOM     86  C   UNL A   1      46.007  26.675  35.947  1.00  0.00     0.198 A 
ATOM     87  C   UNL A   1      47.110  28.566  34.959  1.00  0.00     0.198 A 
ATOM     88  F   UNL A   1      45.968  29.917  33.409  1.00  0.00    -0.203 F 
ATOM     89  F   UNL A   1      46.015  25.643  36.801  1.00  0.00    -0.200 F 
ATOM     90  C   UNL A   1      47.130  27.480  35.821  1.00  0.00     0.200 A 
ATOM     91  F   UNL A   1      48.199  29.336  34.826  1.00  0.00    -0.200 F 
ATOM     92  F   UNL A   1      48.230  27.213  36.538  1.00  0.00    -0.200 F 
ENDBRANCH  59  82
ENDBRANCH  33  34
ENDBRANCH  25  28
ENDBRANCH  23  24
ENDBRANCH   1  23
TORSDOF 11
ENDMDL
MODEL 2
REMARK VINA RESULT:     -13.3      0.066      1.653
REMARK SMILES O=C(NCCCNC(=O)c1ccc(-c2c3nc(c(-c4c(F)c(F)c(F)c(F)c4F)c4ccc([nH]4)c(-c4c(F)c(F)c(F)c(F)c4F)c4nc(c(-c5c(F)c(F)c(F)c(F)c5F)c5ccc2[nH]5)C=C4)C=C3)cc1)C1=Cc2c(ccc(Cl)c2Cl)O[C@H]1C(F)(F)F
REMARK SMILES IDX 5 1 4 2 3 3 1 4 2 5 73 7 74 8 84 9 75 10 83 11 76 12 81 13
REMARK SMILES IDX 77 14 79 15 82 16 78 17 80 18 85 19 86 20 87 21 88 22 6 23
REMARK SMILES IDX 7 24 8 25 9 27 10 28 11 29 72 30 12 31 71 32 13 33 14 34
REMARK SMILES IDX 15 35 65 36 16 37 70 38 64 39 66 40 17 41 69 42 63 43 62 44
REMARK SMILES IDX 18 46 50 47 30 48 49 49 31 50 34 51 48 52 67 53 32 54 33 55
REMARK SMILES IDX 47 57 68 58 35 59 19 60 20 61 28 62 21 63 22 64 26 65 29 66
REMARK SMILES IDX 23 67 24 68 27 69 25 70 51 71 52 72 60 73 53 74 54 75 58 76
REMARK SMILES IDX 61 77 55 78 56 79 59 80 57 81 36 82 37 83 45 84 38 85 39 86
REMARK SMILES IDX 43 87 46 88 40 89 41 90 44 91 42 92
REMARK H PARENT 3 6 7 26 66 45 34 56
REMARK Flexibility Score: inf
ROOT
ATOM      1  C   UNL A   1      33.554  29.119  23.978  1.00  0.00     0.042 C 
ENDROOT
BRANCH   1   2
ATOM      2  C   UNL A   1      32.579  28.710  22.893  1.00  0.00     0.118 C 
BRANCH   2   3
ATOM      3  N   UNL A   1      33.007  27.652  22.000  1.00  0.00    -0.352 N 
ATOM      4  O   UNL A   1      33.385  25.514  21.384  1.00  0.00    -0.270 OA
ATOM      5  C   UNL A   1      32.946  26.299  22.219  1.00  0.00     0.251 C 
ATOM      6  H   UNL A   1      33.385  27.936  21.138  1.00  0.00     0.163 HD
BRANCH   5   7
ATOM      7  C   UNL A   1      32.394  25.773  23.500  1.00  0.00     0.067 C 
ATOM      8  C   UNL A   1      33.275  25.364  24.429  1.00  0.00     0.027 C 
ATOM      9  C   UNL A   1      31.018  25.166  23.404  1.00  0.00     0.314 C 
ATOM     10  C   UNL A   1      33.293  23.885  24.563  1.00  0.00     0.037 A 
ATOM     11  O   UNL A   1      30.961  23.774  23.844  1.00  0.00    -0.475 OA
ATOM     12  C   UNL A   1      32.141  23.170  24.198  1.00  0.00     0.129 A 
ATOM     13  C   UNL A   1      34.492  23.195  24.831  1.00  0.00     0.070 A 
ATOM     14  C   UNL A   1      32.190  21.786  24.048  1.00  0.00     0.049 A 
ATOM     15  C   UNL A   1      34.541  21.807  24.643  1.00  0.00     0.060 A 
ATOM     16  Cl  UNL A   1      35.916  24.085  25.277  1.00  0.00    -0.082 Cl
ATOM     17  C   UNL A   1      33.397  21.111  24.237  1.00  0.00     0.026 A 
ATOM     18  Cl  UNL A   1      36.000  20.899  24.820  1.00  0.00    -0.083 Cl
BRANCH   9  19
ATOM     19  C   UNL A   1      29.960  26.008  24.145  1.00  0.00     0.429 C 
ATOM     20  F   UNL A   1      30.289  27.318  24.229  1.00  0.00    -0.167 F 
ATOM     21  F   UNL A   1      28.761  25.935  23.520  1.00  0.00    -0.167 F 
ATOM     22  F   UNL A   1      29.771  25.576  25.417  1.00  0.00    -0.167 F 
ENDBRANCH   9  19
ENDBRANCH   5   7
ENDBRANCH   2   3
ENDBRANCH   1   2
BRANCH   1  23
ATOM     23  C   UNL A   1      33.002  29.008  25.388  1.00  0.00     0.118 C 
BRANCH  23  24
ATOM     24  N   UNL A   1      32.562  30.280  25.961  1.00  0.00    -0.352 N 
ATOM     25  C   UNL A   1      33.110  31.124  26.900  1.00  0.00     0.251 C 
ATOM     26  H   UNL A   1      31.701  30.596  25.602  1.00  0.00     0.163 HD
ATOM     27  O   UNL A   1      32.468  32.110  27.260  1.00  0.00    -0.269 OA
BRANCH  25  28
ATOM     28  C   UNL A   1      34.427  30.859  27.522  1.00  0.00     0.039 A 
ATOM     29  C   UNL A   1      35.342  31.911  27.662  1.00  0.00     0.014 A 
ATOM     30  C   UNL A   1      34.789  29.587  27.951  1.00  0.00     0.014 A 
ATOM     31  C   UNL A   1      36.557  31.703  28.325  1.00  0.00     0.010 A 
ATOM     32  C   UNL A   1      35.926  29.411  28.729  1.00  0.00     0.010 A 
ATOM     33  C   UNL A   1      36.832  30.463  28.919  1.00  0.00    -0.014 A 
BRANCH  33  34
ATOM     34  C   UNL A   1      38.062  30.206  29.714  1.00  0.00     0.031 A 
ATOM     35  C   UNL A   1      39.122  29.285  29.166  1.00  0.00     0.074 A 
ATOM     36  C   UNL A   1      38.175  30.694  30.965  1.00  0.00     0.049 A 
ATOM     37  N   UNL A   1      40.158  28.756  29.767  1.00  0.00    -0.248 NA
ATOM     38  C   UNL A   1      38.959  28.856  27.768  1.00  0.00     0.031 C 
ATOM     39  C   UNL A   1      37.199  31.555  31.634  1.00  0.00     0.029 A 
ATOM     40  N   UNL A   1      39.157  30.514  31.909  1.00  0.00    -0.354 N 
ATOM     41  C   UNL A   1      40.733  27.898  28.838  1.00  0.00     0.074 A 
ATOM     42  C   UNL A   1      39.900  27.931  27.656  1.00  0.00     0.031 C 
ATOM     43  C   UNL A   1      37.642  31.850  32.867  1.00  0.00     0.029 A 
ATOM     44  C   UNL A   1      38.907  31.160  33.095  1.00  0.00     0.049 A 
ATOM     45  H   UNL A   1      39.964  29.973  31.749  1.00  0.00     0.167 HD
ATOM     46  C   UNL A   1      41.871  27.171  28.947  1.00  0.00     0.037 A 
ATOM     47  C   UNL A   1      39.613  31.182  34.241  1.00  0.00     0.037 A 
ATOM     48  C   UNL A   1      42.732  27.196  30.099  1.00  0.00     0.049 A 
ATOM     49  C   UNL A   1      40.895  30.399  34.326  1.00  0.00     0.074 A 
ATOM     50  C   UNL A   1      43.946  26.561  30.285  1.00  0.00     0.029 A 
ATOM     51  N   UNL A   1      42.471  27.911  31.260  1.00  0.00    -0.354 N 
ATOM     52  N   UNL A   1      41.455  29.628  33.424  1.00  0.00    -0.248 NA
ATOM     53  C   UNL A   1      41.645  30.490  35.586  1.00  0.00     0.031 C 
ATOM     54  C   UNL A   1      44.406  26.865  31.570  1.00  0.00     0.029 A 
ATOM     55  C   UNL A   1      43.499  27.725  32.169  1.00  0.00     0.049 A 
ATOM     56  H   UNL A   1      41.674  28.468  31.414  1.00  0.00     0.167 HD
ATOM     57  C   UNL A   1      42.634  29.168  33.995  1.00  0.00     0.074 A 
ATOM     58  C   UNL A   1      42.715  29.755  35.316  1.00  0.00     0.031 C 
ATOM     59  C   UNL A   1      43.566  28.334  33.473  1.00  0.00     0.037 A 
BRANCH  46  60
ATOM     60  C   UNL A   1      42.251  26.299  27.784  1.00  0.00     0.064 A 
ATOM     61  C   UNL A   1      41.670  25.036  27.586  1.00  0.00     0.173 A 
ATOM     62  C   UNL A   1      43.203  26.733  26.849  1.00  0.00     0.173 A 
ATOM     63  F   UNL A   1      40.764  24.567  28.458  1.00  0.00    -0.203 F 
ATOM     64  C   UNL A   1      42.059  24.225  26.523  1.00  0.00     0.198 A 
ATOM     65  C   UNL A   1      43.564  25.934  25.767  1.00  0.00     0.198 A 
ATOM     66  F   UNL A   1      43.787  27.933  26.985  1.00  0.00    -0.203 F 
ATOM     67  F   UNL A   1      41.538  22.997  26.396  1.00  0.00    -0.200 F 
ATOM     68  C   UNL A   1      43.000  24.676  25.612  1.00  0.00     0.200 A 
ATOM     69  F   UNL A   1      44.464  26.376  24.879  1.00  0.00    -0.200 F 
ATOM     70  F   UNL A   1      43.373  23.895  24.589  1.00  0.00    -0.200 F 
ENDBRANCH  46  60
BRANCH  47  71
ATOM     71  C   UNL A   1      39.145  32.005  35.387  1.00  0.00     0.064 A 
ATOM     72  C   UNL A   1      38.374  31.432  36.408  1.00  0.00     0.173 A 
ATOM     73  C   UNL A   1      39.457  33.367  35.492  1.00  0.00     0.173 A 
ATOM     74  F   UNL A   1      38.032  30.137  36.343  1.00  0.00    -0.203 F 
ATOM     75  C   UNL A   1      37.918  32.194  37.482  1.00  0.00     0.198 A 
ATOM     76  C   UNL A   1      39.025  34.123  36.580  1.00  0.00     0.198 A 
ATOM     77  F   UNL A   1      40.199  33.962  34.546  1.00  0.00    -0.203 F 
ATOM     78  F   UNL A   1      37.149  31.630  38.423  1.00  0.00    -0.200 F 
ATOM     79  C   UNL A   1      38.249  33.537  37.570  1.00  0.00     0.200 A 
ATOM     80  F   UNL A   1      39.359  35.418  36.670  1.00  0.00    -0.200 F 
ATOM     81  F   UNL A   1      37.817  34.269  38.606  1.00  0.00    -0.200 F 
ENDBRANCH  47  71
BRANCH  59  82
ATOM     82  C   UNL A   1      44.775  28.041  34.312  1.00  0.00     0.064 A 
ATOM     83  C   UNL A   1      44.815  26.945  35.187  1.00  0.00     0.173 A 
ATOM     84  C   UNL A   1      45.922  28.841  34.203  1.00  0.00     0.173 A 
ATOM     85  F   UNL A   1      43.737  26.162  35.338  1.00  0.00    -0.203 F 
ATOM     86  C   UNL A   1      45.956  26.675  35.939  1.00  0.00     0.198 A 
ATOM     87  C   UNL A   1      47.069  28.550  34.934  1.00  0.00     0.198 A 
ATOM     88  F   UNL A   1      45.933  29.896  33.374  1.00  0.00    -0.203 F 
ATOM     89  F   UNL A   1      45.959  25.649  36.800  1.00  0.00    -0.200 F 
ATOM     90  C   UNL A   1      47.083  27.472  35.804  1.00  0.00     0.200 A 
ATOM     91  F   UNL A   1      48.163  29.313  34.793  1.00  0.00    -0.200 F 
ATOM     92  F   UNL A   1      48.183  27.203  36.522  1.00  0.00    -0.200 F 
ENDBRANCH  59  82
ENDBRANCH  33  34
ENDBRANCH  25  28
ENDBRANCH  23  24
ENDBRANCH   1  23
TORSDOF 11
ENDMDL
MODEL 3
REMARK VINA RESULT:     -13.3      0.076      1.604
REMARK SMILES O=C(NCCCNC(=O)c1ccc(-c2c3nc(c(-c4c(F)c(F)c(F)c(F)c4F)c4ccc([nH]4)c(-c4c(F)c(F)c(F)c(F)c4F)c4nc(c(-c5c(F)c(F)c(F)c(F)c5F)c5ccc2[nH]5)C=C4)C=C3)cc1)C1=Cc2c(ccc(Cl)c2Cl)O[C@H]1C(F)(F)F
REMARK SMILES IDX 5 1 4 2 3 3 1 4 2 5 73 7 74 8 84 9 75 10 83 11 76 12 81 13
REMARK SMILES IDX 77 14 79 15 82 16 78 17 80 18 85 19 86 20 87 21 88 22 6 23
REMARK SMILES IDX 7 24 8 25 9 27 10 28 11 29 72 30 12 31 71 32 13 33 14 34
REMARK SMILES IDX 15 35 65 36 16 37 70 38 64 39 66 40 17 41 69 42 63 43 62 44
REMARK SMILES IDX 18 46 50 47 30 48 49 49 31 50 34 51 48 52 67 53 32 54 33 55
REMARK SMILES IDX 47 57 68 58 35 59 19 60 20 61 28 62 21 63 22 64 26 65 29 66
REMARK SMILES IDX 23 67 24 68 27 69 25 70 51 71 52 72 60 73 53 74 54 75 58 76
REMARK SMILES IDX 61 77 55 78 56 79 59 80 57 81 36 82 37 83 45 84 38 85 39 86
REMARK SMILES IDX 43 87 46 88 40 89 41 90 44 91 42 92
REMARK H PARENT 3 6 7 26 66 45 34 56
REMARK Flexibility Score: inf
ROOT
ATOM      1  C   UNL A   1      33.619  29.175  24.028  1.00  0.00     0.042 C 
ENDROOT
BRANCH   1   2
ATOM      2  C   UNL A   1      32.691  28.786  22.897  1.00  0.00     0.118 C 
BRANCH   2   3
ATOM      3  N   UNL A   1      33.148  27.730  22.016  1.00  0.00    -0.352 N 
ATOM      4  O   UNL A   1      33.538  25.593  21.403  1.00  0.00    -0.270 OA
ATOM      5  C   UNL A   1      33.071  26.376  22.225  1.00  0.00     0.251 C 
ATOM      6  H   UNL A   1      33.561  28.017  21.170  1.00  0.00     0.163 HD
BRANCH   5   7
ATOM      7  C   UNL A   1      32.466  25.846  23.480  1.00  0.00     0.067 C 
ATOM      8  C   UNL A   1      33.307  25.409  24.433  1.00  0.00     0.027 C 
ATOM      9  C   UNL A   1      31.082  25.269  23.331  1.00  0.00     0.314 C 
ATOM     10  C   UNL A   1      33.291  23.928  24.548  1.00  0.00     0.037 A 
ATOM     11  O   UNL A   1      30.983  23.873  23.751  1.00  0.00    -0.475 OA
ATOM     12  C   UNL A   1      32.138  23.242  24.137  1.00  0.00     0.129 A 
ATOM     13  C   UNL A   1      34.467  23.211  24.847  1.00  0.00     0.070 A 
ATOM     14  C   UNL A   1      32.164  21.858  23.971  1.00  0.00     0.049 A 
ATOM     15  C   UNL A   1      34.494  21.824  24.644  1.00  0.00     0.060 A 
ATOM     16  Cl  UNL A   1      35.892  24.066  25.351  1.00  0.00    -0.082 Cl
ATOM     17  C   UNL A   1      33.350  21.157  24.192  1.00  0.00     0.026 A 
ATOM     18  Cl  UNL A   1      35.928  20.885  24.858  1.00  0.00    -0.083 Cl
BRANCH   9  19
ATOM     19  C   UNL A   1      30.017  26.124  24.047  1.00  0.00     0.429 C 
ATOM     20  F   UNL A   1      28.772  25.946  23.549  1.00  0.00    -0.167 F 
ATOM     21  F   UNL A   1      29.968  25.826  25.368  1.00  0.00    -0.167 F 
ATOM     22  F   UNL A   1      30.286  27.450  23.950  1.00  0.00    -0.167 F 
ENDBRANCH   9  19
ENDBRANCH   5   7
ENDBRANCH   2   3
ENDBRANCH   1   2
BRANCH   1  23
ATOM     23  C   UNL A   1      33.004  29.054  25.411  1.00  0.00     0.118 C 
BRANCH  23  24
ATOM     24  N   UNL A   1      32.570  30.327  25.987  1.00  0.00    -0.352 N 
ATOM     25  C   UNL A   1      33.124  31.169  26.925  1.00  0.00     0.251 C 
ATOM     26  H   UNL A   1      31.709  30.646  25.632  1.00  0.00     0.163 HD
ATOM     27  O   UNL A   1      32.486  32.156  27.289  1.00  0.00    -0.269 OA
BRANCH  25  28
ATOM     28  C   UNL A   1      34.442  30.898  27.543  1.00  0.00     0.039 A 
ATOM     29  C   UNL A   1      35.358  31.949  27.690  1.00  0.00     0.014 A 
ATOM     30  C   UNL A   1      34.805  29.623  27.961  1.00  0.00     0.014 A 
ATOM     31  C   UNL A   1      36.574  31.736  28.349  1.00  0.00     0.010 A 
ATOM     32  C   UNL A   1      35.944  29.441  28.735  1.00  0.00     0.010 A 
ATOM     33  C   UNL A   1      36.850  30.491  28.932  1.00  0.00    -0.014 A 
BRANCH  33  34
ATOM     34  C   UNL A   1      38.082  30.228  29.723  1.00  0.00     0.031 A 
ATOM     35  C   UNL A   1      39.136  29.304  29.169  1.00  0.00     0.074 A 
ATOM     36  C   UNL A   1      38.200  30.713  30.975  1.00  0.00     0.049 A 
ATOM     37  N   UNL A   1      40.172  28.770  29.766  1.00  0.00    -0.248 NA
ATOM     38  C   UNL A   1      38.968  28.879  27.770  1.00  0.00     0.031 C 
ATOM     39  C   UNL A   1      37.230  31.575  31.649  1.00  0.00     0.029 A 
ATOM     40  N   UNL A   1      39.185  30.526  31.915  1.00  0.00    -0.354 N 
ATOM     41  C   UNL A   1      40.742  27.913  28.832  1.00  0.00     0.074 A 
ATOM     42  C   UNL A   1      39.905  27.952  27.654  1.00  0.00     0.031 C 
ATOM     43  C   UNL A   1      37.677  31.865  32.881  1.00  0.00     0.029 A 
ATOM     44  C   UNL A   1      38.941  31.171  33.103  1.00  0.00     0.049 A 
ATOM     45  H   UNL A   1      39.989  29.983  31.751  1.00  0.00     0.167 HD
ATOM     46  C   UNL A   1      41.877  27.181  28.936  1.00  0.00     0.037 A 
ATOM     47  C   UNL A   1      39.651  31.187  34.247  1.00  0.00     0.037 A 
ATOM     48  C   UNL A   1      42.742  27.200  30.085  1.00  0.00     0.049 A 
ATOM     49  C   UNL A   1      40.930  30.399  34.326  1.00  0.00     0.074 A 
ATOM     50  C   UNL A   1      43.955  26.561  30.266  1.00  0.00     0.029 A 
ATOM     51  N   UNL A   1      42.488  27.914  31.249  1.00  0.00    -0.354 N 
ATOM     52  N   UNL A   1      41.484  29.628  33.421  1.00  0.00    -0.248 NA
ATOM     53  C   UNL A   1      41.684  30.484  35.584  1.00  0.00     0.031 C 
ATOM     54  C   UNL A   1      44.420  26.860  31.550  1.00  0.00     0.029 A 
ATOM     55  C   UNL A   1      43.518  27.722  32.154  1.00  0.00     0.049 A 
ATOM     56  H   UNL A   1      41.693  28.473  31.406  1.00  0.00     0.167 HD
ATOM     57  C   UNL A   1      42.663  29.163  33.986  1.00  0.00     0.074 A 
ATOM     58  C   UNL A   1      42.750  29.746  35.309  1.00  0.00     0.031 C 
ATOM     59  C   UNL A   1      43.591  28.327  33.460  1.00  0.00     0.037 A 
BRANCH  46  60
ATOM     60  C   UNL A   1      42.251  26.311  27.770  1.00  0.00     0.064 A 
ATOM     61  C   UNL A   1      41.673  25.046  27.577  1.00  0.00     0.173 A 
ATOM     62  C   UNL A   1      43.193  26.749  26.827  1.00  0.00     0.173 A 
ATOM     63  F   UNL A   1      40.777  24.573  28.457  1.00  0.00    -0.203 F 
ATOM     64  C   UNL A   1      42.056  24.236  26.511  1.00  0.00     0.198 A 
ATOM     65  C   UNL A   1      43.548  25.951  25.742  1.00  0.00     0.198 A 
ATOM     66  F   UNL A   1      43.773  27.951  26.958  1.00  0.00    -0.203 F 
ATOM     67  F   UNL A   1      41.539  23.006  26.388  1.00  0.00    -0.200 F 
ATOM     68  C   UNL A   1      42.987  24.691  25.591  1.00  0.00     0.200 A 
ATOM     69  F   UNL A   1      44.438  26.397  24.846  1.00  0.00    -0.200 F 
ATOM     70  F   UNL A   1      43.354  23.912  24.565  1.00  0.00    -0.200 F 
ENDBRANCH  46  60
BRANCH  47  71
ATOM     71  C   UNL A   1      39.189  32.008  35.397  1.00  0.00     0.064 A 
ATOM     72  C   UNL A   1      39.523  33.367  35.482  1.00  0.00     0.173 A 
ATOM     73  C   UNL A   1      38.404  31.464  36.423  1.00  0.00     0.173 A 
ATOM     74  F   UNL A   1      40.288  33.929  34.535  1.00  0.00    -0.203 F 
ATOM     75  C   UNL A   1      39.107  34.146  36.560  1.00  0.00     0.198 A 
ATOM     76  C   UNL A   1      37.964  32.250  37.487  1.00  0.00     0.198 A 
ATOM     77  F   UNL A   1      38.049  30.171  36.384  1.00  0.00    -0.203 F 
ATOM     78  F   UNL A   1      39.475  35.432  36.637  1.00  0.00    -0.200 F 
ATOM     79  C   UNL A   1      38.322  33.588  37.558  1.00  0.00     0.200 A 
ATOM     80  F   UNL A   1      37.193  31.711  38.441  1.00  0.00    -0.200 F 
ATOM     81  F   UNL A   1      37.915  34.338  38.591  1.00  0.00    -0.200 F 
ENDBRANCH  47  71
BRANCH  59  82
ATOM     82  C   UNL A   1      44.801  28.028  34.294  1.00  0.00     0.064 A 
ATOM     83  C   UNL A   1      45.936  28.852  34.265  1.00  0.00     0.173 A 
ATOM     84  C   UNL A   1      44.805  26.931  35.168  1.00  0.00     0.173 A 
ATOM     85  F   UNL A   1      45.986  29.903  33.433  1.00  0.00    -0.203 F 
ATOM     86  C   UNL A   1      47.040  28.573  35.066  1.00  0.00     0.198 A 
ATOM     87  C   UNL A   1      45.898  26.672  35.988  1.00  0.00     0.198 A 
ATOM     88  F   UNL A   1      43.739  26.118  35.236  1.00  0.00    -0.203 F 
ATOM     89  F   UNL A   1      48.131  29.347  34.991  1.00  0.00    -0.200 F 
ATOM     90  C   UNL A   1      47.016  27.490  35.932  1.00  0.00     0.200 A 
ATOM     91  F   UNL A   1      45.869  25.633  36.834  1.00  0.00    -0.200 F 
ATOM     92  F   UNL A   1      48.077  27.229  36.709  1.00  0.00    -0.200 F 
ENDBRANCH  59  82
ENDBRANCH  33  34
ENDBRANCH  25  28
ENDBRANCH  23  24
ENDBRANCH   1  23
TORSDOF 11
ENDMDL
