MODEL 1
REMARK VINA RESULT:     -13.5      0.000      0.000
REMARK SMILES COC(=O)c1ccc([C@H]2Nc3c(C(=O)NCCCNC(=O)c4ccc(-c5c6nc(c(-c7c(F)c(F)c(F)c(F)c7F)c7ccc([nH]7)c(-c7c(F)c(F)c(F)c(F)c7F)c7nc(c(-c8c(F)c(F)c(F)c(F)c8F)c8ccc5[nH]8)C=C7)C=C6)cc4)cccc3[C@H]3[C@H]4CC[C@H](C4)[C@H]32)cc1
REMARK SMILES IDX 16 1 15 2 13 3 14 4 12 6 9 7 10 8 95 9 11 10 89 12 93 13
REMARK SMILES IDX 88 14 90 15 92 16 94 17 85 18 87 19 91 20 86 21 8 22 5 23
REMARK SMILES IDX 6 24 97 25 7 26 96 27 3 28 4 29 2 30 1 31 17 32 18 33 19 34
REMARK SMILES IDX 20 35 21 37 22 38 23 39 84 40 24 41 83 42 25 43 26 44 27 45
REMARK SMILES IDX 77 46 28 47 82 48 76 49 78 50 29 51 81 52 75 53 74 54 30 56
REMARK SMILES IDX 62 57 42 58 61 59 43 60 46 61 60 62 79 63 44 64 45 65 59 67
REMARK SMILES IDX 80 68 47 69 31 70 32 71 40 72 33 73 34 74 38 75 41 76 35 77
REMARK SMILES IDX 36 78 39 79 37 80 63 81 64 82 72 83 65 84 66 85 70 86 73 87
REMARK SMILES IDX 67 88 68 89 71 90 69 91 48 92 49 93 57 94 50 95 51 96 55 97
REMARK SMILES IDX 58 98 52 99 53 100 56 101 54 102
REMARK H PARENT 15 5 10 11 19 36 78 55 46 66
REMARK Flexibility Score: inf
ROOT
ATOM      1  C   UNL A   1      38.868  21.045  25.768  1.00  0.00     0.118 C 
ENDROOT
BRANCH   1   2
ATOM      2  N   UNL A   1      38.881  22.400  26.322  1.00  0.00    -0.352 N 
ATOM      3  C   UNL A   1      37.927  23.414  26.227  1.00  0.00     0.253 C 
ATOM      4  O   UNL A   1      38.101  24.472  26.827  1.00  0.00    -0.269 OA
ATOM      5  H   UNL A   1      39.685  22.632  26.839  1.00  0.00     0.163 HD
BRANCH   3   6
ATOM      6  C   UNL A   1      36.752  23.242  25.325  1.00  0.00     0.063 A 
ATOM      7  C   UNL A   1      33.855  21.666  27.058  1.00  0.00     0.113 C 
ATOM      8  N   UNL A   1      35.177  22.341  27.008  1.00  0.00    -0.377 N 
ATOM      9  C   UNL A   1      32.777  22.785  26.917  1.00  0.00     0.027 C 
ATOM     10  C   UNL A   1      35.468  23.100  25.867  1.00  0.00     0.051 A 
ATOM     11  H   UNL A   1      35.823  22.258  27.746  1.00  0.00     0.161 HD
ATOM     12  C   UNL A   1      33.184  23.985  26.017  1.00  0.00     0.030 C 
ATOM     13  C   UNL A   1      31.288  22.595  26.530  1.00  0.00    -0.005 C 
ATOM     14  C   UNL A   1      34.404  23.711  25.183  1.00  0.00    -0.020 A 
ATOM     15  C   UNL A   1      31.846  24.443  25.388  1.00  0.00    -0.003 C 
ATOM     16  C   UNL A   1      31.034  22.231  25.052  1.00  0.00     0.004 C 
ATOM     17  C   UNL A   1      30.850  24.076  26.499  1.00  0.00     0.008 C 
ATOM     18  C   UNL A   1      36.894  23.480  23.955  1.00  0.00     0.016 A 
ATOM     19  C   UNL A   1      34.592  24.165  23.874  1.00  0.00     0.006 A 
ATOM     20  C   UNL A   1      31.373  23.503  24.281  1.00  0.00     0.004 C 
ATOM     21  C   UNL A   1      35.803  23.940  23.225  1.00  0.00     0.001 A 
BRANCH   7  22
ATOM     22  C   UNL A   1      33.781  20.404  26.181  1.00  0.00    -0.025 A 
ATOM     23  C   UNL A   1      33.833  18.012  24.654  1.00  0.00     0.060 A 
ATOM     24  C   UNL A   1      32.897  18.172  25.675  1.00  0.00     0.016 A 
ATOM     25  C   UNL A   1      34.650  19.084  24.301  1.00  0.00     0.016 A 
ATOM     26  C   UNL A   1      32.878  19.353  26.430  1.00  0.00     0.007 A 
ATOM     27  C   UNL A   1      34.575  20.284  25.025  1.00  0.00     0.007 A 
BRANCH  23  28
ATOM     28  C   UNL A   1      33.943  16.698  23.979  1.00  0.00     0.337 C 
ATOM     29  O   UNL A   1      33.719  16.517  22.797  1.00  0.00    -0.246 OA
BRANCH  28  30
ATOM     30  O   UNL A   1      34.220  15.753  24.913  1.00  0.00    -0.465 OA
ATOM     31  C   UNL A   1      35.555  15.768  25.427  1.00  0.00     0.282 C 
ENDBRANCH  28  30
ENDBRANCH  23  28
ENDBRANCH   7  22
ENDBRANCH   3   6
ENDBRANCH   1   2
BRANCH   1  32
ATOM     32  C   UNL A   1      40.197  20.301  25.758  1.00  0.00     0.042 C 
BRANCH  32  33
ATOM     33  C   UNL A   1      41.378  21.012  26.400  1.00  0.00     0.118 C 
BRANCH  33  34
ATOM     34  N   UNL A   1      42.262  21.665  25.444  1.00  0.00    -0.352 N 
ATOM     35  C   UNL A   1      42.729  22.954  25.348  1.00  0.00     0.251 C 
ATOM     36  H   UNL A   1      42.586  21.070  24.730  1.00  0.00     0.163 HD
ATOM     37  O   UNL A   1      43.398  23.258  24.361  1.00  0.00    -0.269 OA
BRANCH  35  38
ATOM     38  C   UNL A   1      42.444  23.998  26.368  1.00  0.00     0.039 A 
ATOM     39  C   UNL A   1      42.980  25.279  26.173  1.00  0.00     0.014 A 
ATOM     40  C   UNL A   1      41.733  23.740  27.541  1.00  0.00     0.014 A 
ATOM     41  C   UNL A   1      42.760  26.296  27.110  1.00  0.00     0.010 A 
ATOM     42  C   UNL A   1      41.434  24.776  28.431  1.00  0.00     0.010 A 
ATOM     43  C   UNL A   1      41.957  26.062  28.237  1.00  0.00    -0.014 A 
BRANCH  43  44
ATOM     44  C   UNL A   1      41.690  27.137  29.232  1.00  0.00     0.031 A 
ATOM     45  C   UNL A   1      42.592  27.315  30.426  1.00  0.00     0.074 A 
ATOM     46  C   UNL A   1      40.609  27.930  29.094  1.00  0.00     0.049 A 
ATOM     47  N   UNL A   1      42.496  28.161  31.422  1.00  0.00    -0.248 NA
ATOM     48  C   UNL A   1      43.740  26.401  30.529  1.00  0.00     0.031 C 
ATOM     49  C   UNL A   1      39.623  27.836  28.017  1.00  0.00     0.029 A 
ATOM     50  N   UNL A   1      40.154  28.968  29.870  1.00  0.00    -0.354 N 
ATOM     51  C   UNL A   1      43.554  27.868  32.274  1.00  0.00     0.074 A 
ATOM     52  C   UNL A   1      44.247  26.730  31.708  1.00  0.00     0.031 C 
ATOM     53  C   UNL A   1      38.695  28.792  28.185  1.00  0.00     0.029 A 
ATOM     54  C   UNL A   1      39.001  29.547  29.397  1.00  0.00     0.049 A 
ATOM     55  H   UNL A   1      40.611  29.269  30.689  1.00  0.00     0.167 HD
ATOM     56  C   UNL A   1      43.932  28.502  33.411  1.00  0.00     0.037 A 
ATOM     57  C   UNL A   1      38.272  30.570  29.884  1.00  0.00     0.037 A 
ATOM     58  C   UNL A   1      43.268  29.656  33.960  1.00  0.00     0.049 A 
ATOM     59  C   UNL A   1      38.724  31.269  31.137  1.00  0.00     0.074 A 
ATOM     60  C   UNL A   1      43.614  30.405  35.071  1.00  0.00     0.029 A 
ATOM     61  N   UNL A   1      42.119  30.228  33.435  1.00  0.00    -0.354 N 
ATOM     62  N   UNL A   1      39.765  31.025  31.894  1.00  0.00    -0.248 NA
ATOM     63  C   UNL A   1      37.901  32.398  31.598  1.00  0.00     0.031 C 
ATOM     64  C   UNL A   1      42.652  31.407  35.242  1.00  0.00     0.029 A 
ATOM     65  C   UNL A   1      41.733  31.311  34.210  1.00  0.00     0.049 A 
ATOM     66  H   UNL A   1      41.646  29.912  32.631  1.00  0.00     0.167 HD
ATOM     67  C   UNL A   1      39.738  31.980  32.901  1.00  0.00     0.074 A 
ATOM     68  C   UNL A   1      38.589  32.823  32.646  1.00  0.00     0.031 C 
ATOM     69  C   UNL A   1      40.588  32.144  33.945  1.00  0.00     0.037 A 
BRANCH  56  70
ATOM     70  C   UNL A   1      45.133  27.965  34.137  1.00  0.00     0.064 A 
ATOM     71  C   UNL A   1      46.427  28.436  33.869  1.00  0.00     0.173 A 
ATOM     72  C   UNL A   1      44.986  26.989  35.135  1.00  0.00     0.173 A 
ATOM     73  F   UNL A   1      46.625  29.361  32.917  1.00  0.00    -0.203 F 
ATOM     74  C   UNL A   1      47.532  27.928  34.548  1.00  0.00     0.198 A 
ATOM     75  C   UNL A   1      46.089  26.506  35.834  1.00  0.00     0.198 A 
ATOM     76  F   UNL A   1      43.770  26.509  35.438  1.00  0.00    -0.203 F 
ATOM     77  F   UNL A   1      48.763  28.356  34.236  1.00  0.00    -0.200 F 
ATOM     78  C   UNL A   1      47.361  26.970  35.534  1.00  0.00     0.200 A 
ATOM     79  F   UNL A   1      45.922  25.589  36.797  1.00  0.00    -0.200 F 
ATOM     80  F   UNL A   1      48.425  26.485  36.191  1.00  0.00    -0.200 F 
ENDBRANCH  56  70
BRANCH  57  81
ATOM     81  C   UNL A   1      37.052  31.021  29.165  1.00  0.00     0.064 A 
ATOM     82  C   UNL A   1      35.936  30.180  29.044  1.00  0.00     0.173 A 
ATOM     83  C   UNL A   1      36.981  32.291  28.573  1.00  0.00     0.173 A 
ATOM     84  F   UNL A   1      35.967  28.948  29.573  1.00  0.00    -0.203 F 
ATOM     85  C   UNL A   1      34.805  30.584  28.340  1.00  0.00     0.198 A 
ATOM     86  C   UNL A   1      35.836  32.703  27.893  1.00  0.00     0.198 A 
ATOM     87  F   UNL A   1      38.019  33.134  28.664  1.00  0.00    -0.203 F 
ATOM     88  F   UNL A   1      33.772  29.741  28.197  1.00  0.00    -0.200 F 
ATOM     89  C   UNL A   1      34.753  31.846  27.769  1.00  0.00     0.200 A 
ATOM     90  F   UNL A   1      35.786  33.928  27.354  1.00  0.00    -0.200 F 
ATOM     91  F   UNL A   1      33.663  32.234  27.093  1.00  0.00    -0.200 F 
ENDBRANCH  57  81
BRANCH  69  92
ATOM     92  C   UNL A   1      40.323  33.296  34.871  1.00  0.00     0.064 A 
ATOM     93  C   UNL A   1      40.841  34.576  34.620  1.00  0.00     0.173 A 
ATOM     94  C   UNL A   1      39.529  33.122  36.014  1.00  0.00     0.173 A 
ATOM     95  F   UNL A   1      41.618  34.792  33.549  1.00  0.00    -0.203 F 
ATOM     96  C   UNL A   1      40.602  35.629  35.499  1.00  0.00     0.198 A 
ATOM     97  C   UNL A   1      39.265  34.185  36.873  1.00  0.00     0.198 A 
ATOM     98  F   UNL A   1      39.003  31.921  36.296  1.00  0.00    -0.203 F 
ATOM     99  F   UNL A   1      41.155  36.828  35.270  1.00  0.00    -0.200 F 
ATOM    100  C   UNL A   1      39.811  35.434  36.621  1.00  0.00     0.200 A 
ATOM    101  F   UNL A   1      38.491  33.999  37.951  1.00  0.00    -0.200 F 
ATOM    102  F   UNL A   1      39.582  36.450  37.467  1.00  0.00    -0.200 F 
ENDBRANCH  69  92
ENDBRANCH  43  44
ENDBRANCH  35  38
ENDBRANCH  33  34
ENDBRANCH  32  33
ENDBRANCH   1  32
TORSDOF 13
ENDMDL
MODEL 2
REMARK VINA RESULT:     -13.4      3.157      8.195
REMARK SMILES COC(=O)c1ccc([C@H]2Nc3c(C(=O)NCCCNC(=O)c4ccc(-c5c6nc(c(-c7c(F)c(F)c(F)c(F)c7F)c7ccc([nH]7)c(-c7c(F)c(F)c(F)c(F)c7F)c7nc(c(-c8c(F)c(F)c(F)c(F)c8F)c8ccc5[nH]8)C=C7)C=C6)cc4)cccc3[C@H]3[C@H]4CC[C@H](C4)[C@H]32)cc1
REMARK SMILES IDX 16 1 15 2 13 3 14 4 12 6 9 7 10 8 95 9 11 10 89 12 93 13
REMARK SMILES IDX 88 14 90 15 92 16 94 17 85 18 87 19 91 20 86 21 8 22 5 23
REMARK SMILES IDX 6 24 97 25 7 26 96 27 3 28 4 29 2 30 1 31 17 32 18 33 19 34
REMARK SMILES IDX 20 35 21 37 22 38 23 39 84 40 24 41 83 42 25 43 26 44 27 45
REMARK SMILES IDX 77 46 28 47 82 48 76 49 78 50 29 51 81 52 75 53 74 54 30 56
REMARK SMILES IDX 62 57 42 58 61 59 43 60 46 61 60 62 79 63 44 64 45 65 59 67
REMARK SMILES IDX 80 68 47 69 31 70 32 71 40 72 33 73 34 74 38 75 41 76 35 77
REMARK SMILES IDX 36 78 39 79 37 80 63 81 64 82 72 83 65 84 66 85 70 86 73 87
REMARK SMILES IDX 67 88 68 89 71 90 69 91 48 92 49 93 57 94 50 95 51 96 55 97
REMARK SMILES IDX 58 98 52 99 53 100 56 101 54 102
REMARK H PARENT 15 5 10 11 19 36 78 55 46 66
REMARK Flexibility Score: inf
ROOT
ATOM      1  C   UNL A   1      31.745  30.648  26.999  1.00  0.00     0.118 C 
ENDROOT
BRANCH   1   2
ATOM      2  N   UNL A   1      33.031  30.323  27.619  1.00  0.00    -0.352 N 
ATOM      3  C   UNL A   1      34.074  29.524  27.149  1.00  0.00     0.253 C 
ATOM      4  O   UNL A   1      35.111  29.431  27.800  1.00  0.00    -0.269 OA
ATOM      5  H   UNL A   1      33.184  30.731  28.501  1.00  0.00     0.163 HD
BRANCH   3   6
ATOM      6  C   UNL A   1      33.885  28.714  25.911  1.00  0.00     0.063 A 
ATOM      7  C   UNL A   1      31.764  25.707  26.495  1.00  0.00     0.113 C 
ATOM      8  N   UNL A   1      32.338  27.029  26.855  1.00  0.00    -0.377 N 
ATOM      9  C   UNL A   1      30.575  25.986  25.524  1.00  0.00     0.027 C 
ATOM     10  C   UNL A   1      32.798  27.837  25.807  1.00  0.00     0.051 A 
ATOM     11  H   UNL A   1      32.393  27.326  27.792  1.00  0.00     0.161 HD
ATOM     12  C   UNL A   1      30.759  27.214  24.590  1.00  0.00     0.030 C 
ATOM     13  C   UNL A   1      29.897  24.969  24.571  1.00  0.00    -0.005 C 
ATOM     14  C   UNL A   1      32.173  27.723  24.554  1.00  0.00    -0.020 A 
ATOM     15  C   UNL A   1      29.998  26.815  23.303  1.00  0.00    -0.003 C 
ATOM     16  C   UNL A   1      30.738  24.554  23.346  1.00  0.00     0.004 C 
ATOM     17  C   UNL A   1      28.893  25.913  23.875  1.00  0.00     0.008 C 
ATOM     18  C   UNL A   1      34.631  29.017  24.769  1.00  0.00     0.016 A 
ATOM     19  C   UNL A   1      32.809  28.227  23.416  1.00  0.00     0.006 A 
ATOM     20  C   UNL A   1      30.769  25.798  22.464  1.00  0.00     0.004 C 
ATOM     21  C   UNL A   1      34.090  28.766  23.513  1.00  0.00     0.001 A 
BRANCH   7  22
ATOM     22  C   UNL A   1      32.830  24.658  26.134  1.00  0.00    -0.025 A 
ATOM     23  C   UNL A   1      34.639  22.610  25.363  1.00  0.00     0.060 A 
ATOM     24  C   UNL A   1      34.725  23.876  24.785  1.00  0.00     0.016 A 
ATOM     25  C   UNL A   1      33.750  22.398  26.415  1.00  0.00     0.016 A 
ATOM     26  C   UNL A   1      33.825  24.883  25.165  1.00  0.00     0.007 A 
ATOM     27  C   UNL A   1      32.900  23.435  26.829  1.00  0.00     0.007 A 
BRANCH  23  28
ATOM     28  C   UNL A   1      35.487  21.519  24.833  1.00  0.00     0.337 C 
ATOM     29  O   UNL A   1      35.182  20.342  24.859  1.00  0.00    -0.246 OA
BRANCH  28  30
ATOM     30  O   UNL A   1      36.672  22.048  24.430  1.00  0.00    -0.465 OA
ATOM     31  C   UNL A   1      37.810  21.672  25.210  1.00  0.00     0.282 C 
ENDBRANCH  28  30
ENDBRANCH  23  28
ENDBRANCH   7  22
ENDBRANCH   3   6
ENDBRANCH   1   2
BRANCH   1  32
ATOM     32  C   UNL A   1      31.403  32.127  26.876  1.00  0.00     0.042 C 
BRANCH  32  33
ATOM     33  C   UNL A   1      32.576  33.093  26.814  1.00  0.00     0.118 C 
BRANCH  33  34
ATOM     34  N   UNL A   1      32.397  34.289  27.626  1.00  0.00    -0.352 N 
ATOM     35  C   UNL A   1      33.051  34.758  28.739  1.00  0.00     0.251 C 
ATOM     36  H   UNL A   1      31.667  34.874  27.318  1.00  0.00     0.163 HD
ATOM     37  O   UNL A   1      32.616  35.771  29.287  1.00  0.00    -0.269 OA
BRANCH  35  38
ATOM     38  C   UNL A   1      34.243  34.086  29.322  1.00  0.00     0.039 A 
ATOM     39  C   UNL A   1      34.037  32.985  30.165  1.00  0.00     0.014 A 
ATOM     40  C   UNL A   1      35.546  34.546  29.125  1.00  0.00     0.014 A 
ATOM     41  C   UNL A   1      35.122  32.326  30.757  1.00  0.00     0.010 A 
ATOM     42  C   UNL A   1      36.634  33.834  29.639  1.00  0.00     0.010 A 
ATOM     43  C   UNL A   1      36.437  32.726  30.475  1.00  0.00    -0.014 A 
BRANCH  43  44
ATOM     44  C   UNL A   1      37.604  32.021  31.073  1.00  0.00     0.031 A 
ATOM     45  C   UNL A   1      38.072  32.363  32.464  1.00  0.00     0.074 A 
ATOM     46  C   UNL A   1      38.280  31.104  30.353  1.00  0.00     0.049 A 
ATOM     47  N   UNL A   1      39.095  31.893  33.136  1.00  0.00    -0.248 NA
ATOM     48  C   UNL A   1      37.305  33.390  33.186  1.00  0.00     0.031 C 
ATOM     49  C   UNL A   1      37.970  30.713  28.977  1.00  0.00     0.029 A 
ATOM     50  N   UNL A   1      39.373  30.338  30.677  1.00  0.00    -0.354 N 
ATOM     51  C   UNL A   1      39.104  32.580  34.344  1.00  0.00     0.074 A 
ATOM     52  C   UNL A   1      38.020  33.538  34.293  1.00  0.00     0.031 C 
ATOM     53  C   UNL A   1      38.835  29.764  28.585  1.00  0.00     0.029 A 
ATOM     54  C   UNL A   1      39.780  29.500  29.667  1.00  0.00     0.049 A 
ATOM     55  H   UNL A   1      39.824  30.386  31.551  1.00  0.00     0.167 HD
ATOM     56  C   UNL A   1      39.921  32.413  35.413  1.00  0.00     0.037 A 
ATOM     57  C   UNL A   1      40.797  28.619  29.616  1.00  0.00     0.037 A 
ATOM     58  C   UNL A   1      40.979  31.438  35.484  1.00  0.00     0.049 A 
ATOM     59  C   UNL A   1      41.679  28.439  30.822  1.00  0.00     0.074 A 
ATOM     60  C   UNL A   1      41.819  31.150  36.546  1.00  0.00     0.029 A 
ATOM     61  N   UNL A   1      41.340  30.590  34.449  1.00  0.00    -0.354 N 
ATOM     62  N   UNL A   1      41.632  29.046  31.983  1.00  0.00    -0.248 NA
ATOM     63  C   UNL A   1      42.752  27.439  30.713  1.00  0.00     0.031 C 
ATOM     64  C   UNL A   1      42.715  30.155  36.140  1.00  0.00     0.029 A 
ATOM     65  C   UNL A   1      42.403  29.790  34.841  1.00  0.00     0.049 A 
ATOM     66  H   UNL A   1      40.907  30.559  33.565  1.00  0.00     0.167 HD
ATOM     67  C   UNL A   1      42.646  28.486  32.747  1.00  0.00     0.074 A 
ATOM     68  C   UNL A   1      43.279  27.475  31.927  1.00  0.00     0.031 C 
ATOM     69  C   UNL A   1      43.023  28.785  34.016  1.00  0.00     0.037 A 
BRANCH  56  70
ATOM     70  C   UNL A   1      39.697  33.303  36.603  1.00  0.00     0.064 A 
ATOM     71  C   UNL A   1      38.786  32.963  37.614  1.00  0.00     0.173 A 
ATOM     72  C   UNL A   1      40.425  34.494  36.750  1.00  0.00     0.173 A 
ATOM     73  F   UNL A   1      38.057  31.841  37.517  1.00  0.00    -0.203 F 
ATOM     74  C   UNL A   1      38.587  33.798  38.711  1.00  0.00     0.198 A 
ATOM     75  C   UNL A   1      40.246  35.311  37.864  1.00  0.00     0.198 A 
ATOM     76  F   UNL A   1      41.315  34.863  35.817  1.00  0.00    -0.203 F 
ATOM     77  F   UNL A   1      37.672  33.478  39.637  1.00  0.00    -0.200 F 
ATOM     78  C   UNL A   1      39.322  34.966  38.839  1.00  0.00     0.200 A 
ATOM     79  F   UNL A   1      40.967  36.433  37.993  1.00  0.00    -0.200 F 
ATOM     80  F   UNL A   1      39.132  35.766  39.897  1.00  0.00    -0.200 F 
ENDBRANCH  56  70
BRANCH  57  81
ATOM     81  C   UNL A   1      41.019  27.810  28.390  1.00  0.00     0.064 A 
ATOM     82  C   UNL A   1      40.347  26.593  28.201  1.00  0.00     0.173 A 
ATOM     83  C   UNL A   1      41.914  28.224  27.393  1.00  0.00     0.173 A 
ATOM     84  F   UNL A   1      39.500  26.145  29.138  1.00  0.00    -0.203 F 
ATOM     85  C   UNL A   1      40.579  25.812  27.071  1.00  0.00     0.198 A 
ATOM     86  C   UNL A   1      42.123  27.454  26.250  1.00  0.00     0.198 A 
ATOM     87  F   UNL A   1      42.578  29.381  27.525  1.00  0.00    -0.203 F 
ATOM     88  F   UNL A   1      39.961  24.630  26.940  1.00  0.00    -0.200 F 
ATOM     89  C   UNL A   1      41.462  26.244  26.095  1.00  0.00     0.200 A 
ATOM     90  F   UNL A   1      42.968  27.882  25.303  1.00  0.00    -0.200 F 
ATOM     91  F   UNL A   1      41.684  25.492  25.007  1.00  0.00    -0.200 F 
ENDBRANCH  57  81
BRANCH  69  92
ATOM     92  C   UNL A   1      44.150  27.985  34.603  1.00  0.00     0.064 A 
ATOM     93  C   UNL A   1      45.483  28.415  34.512  1.00  0.00     0.173 A 
ATOM     94  C   UNL A   1      43.894  26.782  35.277  1.00  0.00     0.173 A 
ATOM     95  F   UNL A   1      45.783  29.550  33.864  1.00  0.00    -0.203 F 
ATOM     96  C   UNL A   1      46.519  27.651  35.044  1.00  0.00     0.198 A 
ATOM     97  C   UNL A   1      44.929  26.038  35.836  1.00  0.00     0.198 A 
ATOM     98  F   UNL A   1      42.637  26.330  35.399  1.00  0.00    -0.203 F 
ATOM     99  F   UNL A   1      47.789  28.053  34.894  1.00  0.00    -0.200 F 
ATOM    100  C   UNL A   1      46.240  26.467  35.709  1.00  0.00     0.200 A 
ATOM    101  F   UNL A   1      44.658  24.899  36.490  1.00  0.00    -0.200 F 
ATOM    102  F   UNL A   1      47.240  25.734  36.221  1.00  0.00    -0.200 F 
ENDBRANCH  69  92
ENDBRANCH  43  44
ENDBRANCH  35  38
ENDBRANCH  33  34
ENDBRANCH  32  33
ENDBRANCH   1  32
TORSDOF 13
ENDMDL
MODEL 3
REMARK VINA RESULT:     -13.4      3.916      5.339
REMARK SMILES COC(=O)c1ccc([C@H]2Nc3c(C(=O)NCCCNC(=O)c4ccc(-c5c6nc(c(-c7c(F)c(F)c(F)c(F)c7F)c7ccc([nH]7)c(-c7c(F)c(F)c(F)c(F)c7F)c7nc(c(-c8c(F)c(F)c(F)c(F)c8F)c8ccc5[nH]8)C=C7)C=C6)cc4)cccc3[C@H]3[C@H]4CC[C@H](C4)[C@H]32)cc1
REMARK SMILES IDX 16 1 15 2 13 3 14 4 12 6 9 7 10 8 95 9 11 10 89 12 93 13
REMARK SMILES IDX 88 14 90 15 92 16 94 17 85 18 87 19 91 20 86 21 8 22 5 23
REMARK SMILES IDX 6 24 97 25 7 26 96 27 3 28 4 29 2 30 1 31 17 32 18 33 19 34
REMARK SMILES IDX 20 35 21 37 22 38 23 39 84 40 24 41 83 42 25 43 26 44 27 45
REMARK SMILES IDX 77 46 28 47 82 48 76 49 78 50 29 51 81 52 75 53 74 54 30 56
REMARK SMILES IDX 62 57 42 58 61 59 43 60 46 61 60 62 79 63 44 64 45 65 59 67
REMARK SMILES IDX 80 68 47 69 31 70 32 71 40 72 33 73 34 74 38 75 41 76 35 77
REMARK SMILES IDX 36 78 39 79 37 80 63 81 64 82 72 83 65 84 66 85 70 86 73 87
REMARK SMILES IDX 67 88 68 89 71 90 69 91 48 92 49 93 57 94 50 95 51 96 55 97
REMARK SMILES IDX 58 98 52 99 53 100 56 101 54 102
REMARK H PARENT 15 5 10 11 19 36 78 55 46 66
REMARK Flexibility Score: inf
ROOT
ATOM      1  C   UNL A   1      38.569  20.895  25.965  1.00  0.00     0.118 C 
ENDROOT
BRANCH   1   2
ATOM      2  N   UNL A   1      38.707  22.290  26.388  1.00  0.00    -0.352 N 
ATOM      3  C   UNL A   1      37.846  23.372  26.199  1.00  0.00     0.253 C 
ATOM      4  O   UNL A   1      38.118  24.462  26.696  1.00  0.00    -0.269 OA
ATOM      5  H   UNL A   1      39.533  22.497  26.881  1.00  0.00     0.163 HD
BRANCH   3   6
ATOM      6  C   UNL A   1      36.653  23.221  25.317  1.00  0.00     0.063 A 
ATOM      7  C   UNL A   1      33.789  21.611  27.074  1.00  0.00     0.113 C 
ATOM      8  N   UNL A   1      35.111  22.285  27.012  1.00  0.00    -0.377 N 
ATOM      9  C   UNL A   1      32.710  22.734  26.980  1.00  0.00     0.027 C 
ATOM     10  C   UNL A   1      35.380  23.069  25.882  1.00  0.00     0.051 A 
ATOM     11  H   UNL A   1      35.771  22.186  27.735  1.00  0.00     0.161 HD
ATOM     12  C   UNL A   1      33.101  23.953  26.098  1.00  0.00     0.030 C 
ATOM     13  C   UNL A   1      31.213  22.555  26.620  1.00  0.00    -0.005 C 
ATOM     14  C   UNL A   1      34.303  23.696  25.234  1.00  0.00    -0.020 A 
ATOM     15  C   UNL A   1      31.751  24.426  25.507  1.00  0.00    -0.003 C 
ATOM     16  C   UNL A   1      30.928  22.224  25.139  1.00  0.00     0.004 C 
ATOM     17  C   UNL A   1      30.777  24.037  26.630  1.00  0.00     0.008 C 
ATOM     18  C   UNL A   1      36.767  23.488  23.951  1.00  0.00     0.016 A 
ATOM     19  C   UNL A   1      34.465  24.178  23.932  1.00  0.00     0.006 A 
ATOM     20  C   UNL A   1      31.254  23.511  24.390  1.00  0.00     0.004 C 
ATOM     21  C   UNL A   1      35.662  23.965  23.253  1.00  0.00     0.001 A 
BRANCH   7  22
ATOM     22  C   UNL A   1      33.694  20.369  26.172  1.00  0.00    -0.025 A 
ATOM     23  C   UNL A   1      33.711  18.010  24.592  1.00  0.00     0.060 A 
ATOM     24  C   UNL A   1      32.797  18.149  25.636  1.00  0.00     0.016 A 
ATOM     25  C   UNL A   1      34.522  19.089  24.246  1.00  0.00     0.016 A 
ATOM     26  C   UNL A   1      32.796  19.313  26.417  1.00  0.00     0.007 A 
ATOM     27  C   UNL A   1      34.464  20.273  24.997  1.00  0.00     0.007 A 
BRANCH  23  28
ATOM     28  C   UNL A   1      33.805  16.712  23.887  1.00  0.00     0.337 C 
ATOM     29  O   UNL A   1      33.591  16.563  22.698  1.00  0.00    -0.246 OA
BRANCH  28  30
ATOM     30  O   UNL A   1      34.055  15.739  24.800  1.00  0.00    -0.465 OA
ATOM     31  C   UNL A   1      35.380  15.726  25.338  1.00  0.00     0.282 C 
ENDBRANCH  28  30
ENDBRANCH  23  28
ENDBRANCH   7  22
ENDBRANCH   3   6
ENDBRANCH   1   2
BRANCH   1  32
ATOM     32  C   UNL A   1      39.835  20.203  25.477  1.00  0.00     0.042 C 
BRANCH  32  33
ATOM     33  C   UNL A   1      40.439  19.159  26.403  1.00  0.00     0.118 C 
BRANCH  33  34
ATOM     34  N   UNL A   1      41.728  18.650  25.956  1.00  0.00    -0.352 N 
ATOM     35  C   UNL A   1      42.954  19.250  25.796  1.00  0.00     0.251 C 
ATOM     36  H   UNL A   1      41.720  17.694  25.722  1.00  0.00     0.163 HD
ATOM     37  O   UNL A   1      43.865  18.589  25.298  1.00  0.00    -0.269 OA
BRANCH  35  38
ATOM     38  C   UNL A   1      43.221  20.663  26.175  1.00  0.00     0.039 A 
ATOM     39  C   UNL A   1      42.923  21.065  27.485  1.00  0.00     0.014 A 
ATOM     40  C   UNL A   1      43.683  21.619  25.269  1.00  0.00     0.014 A 
ATOM     41  C   UNL A   1      43.135  22.388  27.892  1.00  0.00     0.010 A 
ATOM     42  C   UNL A   1      43.983  22.915  25.697  1.00  0.00     0.010 A 
ATOM     43  C   UNL A   1      43.697  23.322  27.008  1.00  0.00    -0.014 A 
BRANCH  43  44
ATOM     44  C   UNL A   1      43.955  24.726  27.430  1.00  0.00     0.031 A 
ATOM     45  C   UNL A   1      45.367  25.241  27.553  1.00  0.00     0.074 A 
ATOM     46  C   UNL A   1      42.925  25.533  27.753  1.00  0.00     0.049 A 
ATOM     47  N   UNL A   1      45.792  26.415  27.950  1.00  0.00    -0.248 NA
ATOM     48  C   UNL A   1      46.445  24.301  27.209  1.00  0.00     0.031 C 
ATOM     49  C   UNL A   1      41.513  25.153  27.731  1.00  0.00     0.029 A 
ATOM     50  N   UNL A   1      42.909  26.843  28.169  1.00  0.00    -0.354 N 
ATOM     51  C   UNL A   1      47.180  26.346  27.923  1.00  0.00     0.074 A 
ATOM     52  C   UNL A   1      47.526  24.998  27.524  1.00  0.00     0.031 C 
ATOM     53  C   UNL A   1      40.766  26.209  28.091  1.00  0.00     0.029 A 
ATOM     54  C   UNL A   1      41.646  27.333  28.400  1.00  0.00     0.049 A 
ATOM     55  H   UNL A   1      43.725  27.379  28.292  1.00  0.00     0.167 HD
ATOM     56  C   UNL A   1      48.086  27.320  28.179  1.00  0.00     0.037 A 
ATOM     57  C   UNL A   1      41.242  28.549  28.814  1.00  0.00     0.037 A 
ATOM     58  C   UNL A   1      47.747  28.673  28.542  1.00  0.00     0.049 A 
ATOM     59  C   UNL A   1      42.267  29.620  29.074  1.00  0.00     0.074 A 
ATOM     60  C   UNL A   1      48.592  29.747  28.760  1.00  0.00     0.029 A 
ATOM     61  N   UNL A   1      46.455  29.136  28.738  1.00  0.00    -0.354 N 
ATOM     62  N   UNL A   1      43.572  29.561  28.977  1.00  0.00    -0.248 NA
ATOM     63  C   UNL A   1      41.757  30.935  29.492  1.00  0.00     0.031 C 
ATOM     64  C   UNL A   1      47.815  30.850  29.128  1.00  0.00     0.029 A 
ATOM     65  C   UNL A   1      46.482  30.476  29.092  1.00  0.00     0.049 A 
ATOM     66  H   UNL A   1      45.639  28.594  28.641  1.00  0.00     0.167 HD
ATOM     67  C   UNL A   1      44.037  30.829  29.295  1.00  0.00     0.074 A 
ATOM     68  C   UNL A   1      42.873  31.645  29.566  1.00  0.00     0.031 C 
ATOM     69  C   UNL A   1      45.315  31.278  29.358  1.00  0.00     0.037 A 
BRANCH  56  70
ATOM     70  C   UNL A   1      49.541  26.961  28.067  1.00  0.00     0.064 A 
ATOM     71  C   UNL A   1      50.282  26.538  29.181  1.00  0.00     0.173 A 
ATOM     72  C   UNL A   1      50.194  27.011  26.826  1.00  0.00     0.173 A 
ATOM     73  F   UNL A   1      49.709  26.483  30.392  1.00  0.00    -0.203 F 
ATOM     74  C   UNL A   1      51.631  26.210  29.063  1.00  0.00     0.198 A 
ATOM     75  C   UNL A   1      51.535  26.653  26.706  1.00  0.00     0.198 A 
ATOM     76  F   UNL A   1      49.531  27.401  25.727  1.00  0.00    -0.203 F 
ATOM     77  F   UNL A   1      52.331  25.861  30.152  1.00  0.00    -0.200 F 
ATOM     78  C   UNL A   1      52.254  26.261  27.826  1.00  0.00     0.200 A 
ATOM     79  F   UNL A   1      52.133  26.689  25.507  1.00  0.00    -0.200 F 
ATOM     80  F   UNL A   1      53.550  25.941  27.713  1.00  0.00    -0.200 F 
ENDBRANCH  56  70
BRANCH  57  81
ATOM     81  C   UNL A   1      39.793  28.836  28.974  1.00  0.00     0.064 A 
ATOM     82  C   UNL A   1      39.153  28.636  30.207  1.00  0.00     0.173 A 
ATOM     83  C   UNL A   1      39.016  29.300  27.903  1.00  0.00     0.173 A 
ATOM     84  F   UNL A   1      39.850  28.171  31.254  1.00  0.00    -0.203 F 
ATOM     85  C   UNL A   1      37.788  28.867  30.354  1.00  0.00     0.198 A 
ATOM     86  C   UNL A   1      37.655  29.558  28.060  1.00  0.00     0.198 A 
ATOM     87  F   UNL A   1      39.581  29.511  26.706  1.00  0.00    -0.203 F 
ATOM     88  F   UNL A   1      37.192  28.620  31.529  1.00  0.00    -0.200 F 
ATOM     89  C   UNL A   1      37.040  29.333  29.284  1.00  0.00     0.200 A 
ATOM     90  F   UNL A   1      36.940  30.020  27.027  1.00  0.00    -0.200 F 
ATOM     91  F   UNL A   1      35.727  29.556  29.427  1.00  0.00    -0.200 F 
ENDBRANCH  57  81
BRANCH  69  92
ATOM     92  C   UNL A   1      45.517  32.725  29.706  1.00  0.00     0.064 A 
ATOM     93  C   UNL A   1      45.715  33.144  31.031  1.00  0.00     0.173 A 
ATOM     94  C   UNL A   1      45.527  33.704  28.700  1.00  0.00     0.173 A 
ATOM     95  F   UNL A   1      45.699  32.251  32.030  1.00  0.00    -0.203 F 
ATOM     96  C   UNL A   1      45.880  34.492  31.337  1.00  0.00     0.198 A 
ATOM     97  C   UNL A   1      45.725  35.047  29.008  1.00  0.00     0.198 A 
ATOM     98  F   UNL A   1      45.350  33.357  27.417  1.00  0.00    -0.203 F 
ATOM     99  F   UNL A   1      46.009  34.875  32.616  1.00  0.00    -0.200 F 
ATOM    100  C   UNL A   1      45.890  35.441  30.326  1.00  0.00     0.200 A 
ATOM    101  F   UNL A   1      45.747  35.962  28.028  1.00  0.00    -0.200 F 
ATOM    102  F   UNL A   1      46.049  36.739  30.624  1.00  0.00    -0.200 F 
ENDBRANCH  69  92
ENDBRANCH  43  44
ENDBRANCH  35  38
ENDBRANCH  33  34
ENDBRANCH  32  33
ENDBRANCH   1  32
TORSDOF 13
ENDMDL
