MODEL 1
REMARK VINA RESULT:     -12.9      0.000      0.000
REMARK SMILES Cc1cc(C)c(C(=O)NC[C@H]2CC[C@@H](C(=O)NCCCNC(=O)c3ccc(-c4c5nc(c(-c6c(F)c(F)c(F)c(F)c6F)c6ccc([nH]6)c(-c6c(F)c(F)c(F)c(F)c6F)c6nc(c(-c7c(F)c(F)c(F)c(F)c7F)c7ccc4[nH]7)C=C6)C=C5)cc3)O2)c(C)c1
REMARK SMILES IDX 18 1 17 2 15 3 16 4 14 6 11 7 12 8 87 9 13 10 10 11 9 12
REMARK SMILES IDX 7 13 8 14 6 16 1 17 2 18 3 19 90 20 4 21 88 22 5 23 89 24
REMARK SMILES IDX 19 25 20 26 21 27 22 28 23 30 24 31 25 32 86 33 26 34 85 35
REMARK SMILES IDX 27 36 28 37 29 38 79 39 30 40 84 41 78 42 80 43 31 44 83 45
REMARK SMILES IDX 77 46 76 47 32 49 64 50 44 51 63 52 45 53 48 54 62 55 81 56
REMARK SMILES IDX 46 57 47 58 61 60 82 61 49 62 33 63 34 64 42 65 35 66 36 67
REMARK SMILES IDX 40 68 43 69 37 70 38 71 41 72 39 73 65 74 66 75 74 76 67 77
REMARK SMILES IDX 68 78 72 79 75 80 69 81 70 82 73 83 71 84 50 85 51 86 59 87
REMARK SMILES IDX 52 88 53 89 57 90 60 91 54 92 55 93 58 94 56 95
REMARK H PARENT 17 5 9 15 21 29 80 48 48 59
REMARK Flexibility Score: inf
ROOT
ATOM      1  C   UNL A   1      31.433  30.772  26.481  1.00  0.00     0.117 C 
ENDROOT
BRANCH   1   2
ATOM      2  N   UNL A   1      31.388  30.267  25.119  1.00  0.00    -0.354 N 
ATOM      3  C   UNL A   1      31.984  29.156  24.590  1.00  0.00     0.249 C 
ATOM      4  O   UNL A   1      31.810  28.926  23.392  1.00  0.00    -0.272 OA
ATOM      5  H   UNL A   1      30.853  30.801  24.488  1.00  0.00     0.163 HD
BRANCH   3   6
ATOM      6  C   UNL A   1      32.873  28.279  25.487  1.00  0.00     0.207 C 
ATOM      7  C   UNL A   1      32.285  26.199  26.399  1.00  0.00     0.138 C 
ATOM      8  C   UNL A   1      33.608  26.027  25.678  1.00  0.00     0.037 C 
ATOM      9  O   UNL A   1      32.094  27.615  26.495  1.00  0.00    -0.363 OA
ATOM     10  C   UNL A   1      33.606  27.188  24.713  1.00  0.00     0.045 C 
BRANCH   7  11
ATOM     11  C   UNL A   1      31.068  25.572  25.680  1.00  0.00     0.148 C 
BRANCH  11  12
ATOM     12  N   UNL A   1      30.881  24.191  26.074  1.00  0.00    -0.349 N 
ATOM     13  C   UNL A   1      31.419  22.977  25.742  1.00  0.00     0.251 C 
ATOM     14  O   UNL A   1      30.568  22.079  25.807  1.00  0.00    -0.269 OA
ATOM     15  H   UNL A   1      30.182  24.102  26.762  1.00  0.00     0.163 HD
BRANCH  13  16
ATOM     16  C   UNL A   1      32.845  22.591  25.379  1.00  0.00     0.045 A 
ATOM     17  C   UNL A   1      36.968  22.186  23.945  1.00  0.00     0.044 C 
ATOM     18  C   UNL A   1      35.551  22.275  24.419  1.00  0.00    -0.051 A 
ATOM     19  C   UNL A   1      34.537  22.647  23.555  1.00  0.00     0.007 A 
ATOM     20  C   UNL A   1      35.212  22.012  25.739  1.00  0.00     0.007 A 
ATOM     21  C   UNL A   1      33.198  22.770  23.994  1.00  0.00    -0.038 A 
ATOM     22  C   UNL A   1      33.893  22.174  26.242  1.00  0.00    -0.038 A 
ATOM     23  C   UNL A   1      32.231  23.149  22.890  1.00  0.00     0.045 C 
ATOM     24  C   UNL A   1      33.797  21.859  27.701  1.00  0.00     0.045 C 
ENDBRANCH  13  16
ENDBRANCH  11  12
ENDBRANCH   7  11
ENDBRANCH   3   6
ENDBRANCH   1   2
BRANCH   1  25
ATOM     25  C   UNL A   1      31.414  32.293  26.534  1.00  0.00     0.042 C 
BRANCH  25  26
ATOM     26  C   UNL A   1      32.600  32.910  27.262  1.00  0.00     0.118 C 
BRANCH  26  27
ATOM     27  N   UNL A   1      32.365  34.286  27.675  1.00  0.00    -0.352 N 
ATOM     28  C   UNL A   1      32.976  35.041  28.648  1.00  0.00     0.251 C 
ATOM     29  H   UNL A   1      31.653  34.750  27.178  1.00  0.00     0.163 HD
ATOM     30  O   UNL A   1      32.517  36.139  28.942  1.00  0.00    -0.269 OA
BRANCH  28  31
ATOM     31  C   UNL A   1      34.165  34.526  29.363  1.00  0.00     0.039 A 
ATOM     32  C   UNL A   1      33.988  33.925  30.613  1.00  0.00     0.014 A 
ATOM     33  C   UNL A   1      35.448  34.639  28.824  1.00  0.00     0.014 A 
ATOM     34  C   UNL A   1      35.083  33.371  31.281  1.00  0.00     0.010 A 
ATOM     35  C   UNL A   1      36.523  34.009  29.446  1.00  0.00     0.010 A 
ATOM     36  C   UNL A   1      36.353  33.368  30.682  1.00  0.00    -0.014 A 
BRANCH  36  37
ATOM     37  C   UNL A   1      37.510  32.694  31.330  1.00  0.00     0.031 A 
ATOM     38  C   UNL A   1      38.193  31.538  30.650  1.00  0.00     0.074 A 
ATOM     39  C   UNL A   1      37.902  33.081  32.560  1.00  0.00     0.049 A 
ATOM     40  N   UNL A   1      39.169  30.781  31.086  1.00  0.00    -0.248 NA
ATOM     41  C   UNL A   1      37.701  31.166  29.314  1.00  0.00     0.031 C 
ATOM     42  C   UNL A   1      37.296  34.158  33.344  1.00  0.00     0.029 A 
ATOM     43  N   UNL A   1      38.901  32.604  33.375  1.00  0.00    -0.354 N 
ATOM     44  C   UNL A   1      39.389  29.836  30.092  1.00  0.00     0.074 A 
ATOM     45  C   UNL A   1      38.419  30.084  29.049  1.00  0.00     0.031 C 
ATOM     46  C   UNL A   1      37.949  34.278  34.511  1.00  0.00     0.029 A 
ATOM     47  C   UNL A   1      38.989  33.258  34.581  1.00  0.00     0.049 A 
ATOM     48  H   UNL A   1      39.497  31.864  33.118  1.00  0.00     0.167 HD
ATOM     49  C   UNL A   1      40.330  28.862  30.046  1.00  0.00     0.037 A 
ATOM     50  C   UNL A   1      39.809  33.048  35.631  1.00  0.00     0.037 A 
ATOM     51  C   UNL A   1      41.318  28.642  31.069  1.00  0.00     0.049 A 
ATOM     52  C   UNL A   1      40.831  31.945  35.553  1.00  0.00     0.074 A 
ATOM     53  C   UNL A   1      42.362  27.733  31.074  1.00  0.00     0.029 A 
ATOM     54  N   UNL A   1      41.381  29.329  32.271  1.00  0.00    -0.354 N 
ATOM     55  N   UNL A   1      41.087  31.117  34.570  1.00  0.00    -0.248 NA
ATOM     56  C   UNL A   1      41.686  31.750  36.733  1.00  0.00     0.031 C 
ATOM     57  C   UNL A   1      43.018  27.827  32.305  1.00  0.00     0.029 A 
ATOM     58  C   UNL A   1      42.425  28.840  33.039  1.00  0.00     0.049 A 
ATOM     59  H   UNL A   1      40.774  30.057  32.539  1.00  0.00     0.167 HD
ATOM     60  C   UNL A   1      42.153  30.335  34.996  1.00  0.00     0.074 A 
ATOM     61  C   UNL A   1      42.507  30.797  36.320  1.00  0.00     0.031 C 
ATOM     62  C   UNL A   1      42.782  29.324  34.348  1.00  0.00     0.037 A 
BRANCH  49  63
ATOM     63  C   UNL A   1      40.345  27.950  28.853  1.00  0.00     0.064 A 
ATOM     64  C   UNL A   1      41.092  28.249  27.704  1.00  0.00     0.173 A 
ATOM     65  C   UNL A   1      39.667  26.722  28.894  1.00  0.00     0.173 A 
ATOM     66  F   UNL A   1      41.751  29.413  27.609  1.00  0.00    -0.203 F 
ATOM     67  C   UNL A   1      41.145  27.359  26.634  1.00  0.00     0.198 A 
ATOM     68  C   UNL A   1      39.748  25.821  27.835  1.00  0.00     0.198 A 
ATOM     69  F   UNL A   1      38.943  26.384  29.972  1.00  0.00    -0.203 F 
ATOM     70  F   UNL A   1      41.837  27.680  25.531  1.00  0.00    -0.200 F 
ATOM     71  C   UNL A   1      40.484  26.142  26.705  1.00  0.00     0.200 A 
ATOM     72  F   UNL A   1      39.122  24.639  27.914  1.00  0.00    -0.200 F 
ATOM     73  F   UNL A   1      40.553  25.278  25.683  1.00  0.00    -0.200 F 
ENDBRANCH  49  63
BRANCH  50  74
ATOM     74  C   UNL A   1      39.712  33.898  36.849  1.00  0.00     0.064 A 
ATOM     75  C   UNL A   1      38.908  33.513  37.933  1.00  0.00     0.173 A 
ATOM     76  C   UNL A   1      40.373  35.131  36.937  1.00  0.00     0.173 A 
ATOM     77  F   UNL A   1      38.238  32.352  37.889  1.00  0.00    -0.203 F 
ATOM     78  C   UNL A   1      38.737  34.348  39.036  1.00  0.00     0.198 A 
ATOM     79  C   UNL A   1      40.230  35.948  38.057  1.00  0.00     0.198 A 
ATOM     80  F   UNL A   1      41.158  35.547  35.933  1.00  0.00    -0.203 F 
ATOM     81  F   UNL A   1      37.906  33.986  40.022  1.00  0.00    -0.200 F 
ATOM     82  C   UNL A   1      39.400  35.563  39.098  1.00  0.00     0.200 A 
ATOM     83  F   UNL A   1      40.886  37.115  38.120  1.00  0.00    -0.200 F 
ATOM     84  F   UNL A   1      39.228  36.368  40.155  1.00  0.00    -0.200 F 
ENDBRANCH  50  74
BRANCH  62  85
ATOM     85  C   UNL A   1      43.955  28.685  35.035  1.00  0.00     0.064 A 
ATOM     86  C   UNL A   1      43.808  27.559  35.859  1.00  0.00     0.173 A 
ATOM     87  C   UNL A   1      45.251  29.186  34.835  1.00  0.00     0.173 A 
ATOM     88  F   UNL A   1      42.590  27.049  36.095  1.00  0.00    -0.203 F 
ATOM     89  C   UNL A   1      44.911  26.978  36.480  1.00  0.00     0.198 A 
ATOM     90  C   UNL A   1      46.354  28.581  35.427  1.00  0.00     0.198 A 
ATOM     91  F   UNL A   1      45.449  30.255  34.049  1.00  0.00    -0.203 F 
ATOM     92  F   UNL A   1      44.739  25.938  37.308  1.00  0.00    -0.200 F 
ATOM     93  C   UNL A   1      46.183  27.484  36.257  1.00  0.00     0.200 A 
ATOM     94  F   UNL A   1      47.584  29.060  35.195  1.00  0.00    -0.200 F 
ATOM     95  F   UNL A   1      47.244  26.917  36.849  1.00  0.00    -0.200 F 
ENDBRANCH  62  85
ENDBRANCH  36  37
ENDBRANCH  28  31
ENDBRANCH  26  27
ENDBRANCH  25  26
ENDBRANCH   1  25
TORSDOF 13
ENDMDL
MODEL 2
REMARK VINA RESULT:     -12.8      5.601     11.157
REMARK SMILES Cc1cc(C)c(C(=O)NC[C@H]2CC[C@@H](C(=O)NCCCNC(=O)c3ccc(-c4c5nc(c(-c6c(F)c(F)c(F)c(F)c6F)c6ccc([nH]6)c(-c6c(F)c(F)c(F)c(F)c6F)c6nc(c(-c7c(F)c(F)c(F)c(F)c7F)c7ccc4[nH]7)C=C6)C=C5)cc3)O2)c(C)c1
REMARK SMILES IDX 18 1 17 2 15 3 16 4 14 6 11 7 12 8 87 9 13 10 10 11 9 12
REMARK SMILES IDX 7 13 8 14 6 16 1 17 2 18 3 19 90 20 4 21 88 22 5 23 89 24
REMARK SMILES IDX 19 25 20 26 21 27 22 28 23 30 24 31 25 32 86 33 26 34 85 35
REMARK SMILES IDX 27 36 28 37 29 38 79 39 30 40 84 41 78 42 80 43 31 44 83 45
REMARK SMILES IDX 77 46 76 47 32 49 64 50 44 51 63 52 45 53 48 54 62 55 81 56
REMARK SMILES IDX 46 57 47 58 61 60 82 61 49 62 33 63 34 64 42 65 35 66 36 67
REMARK SMILES IDX 40 68 43 69 37 70 38 71 41 72 39 73 65 74 66 75 74 76 67 77
REMARK SMILES IDX 68 78 72 79 75 80 69 81 70 82 73 83 71 84 50 85 51 86 59 87
REMARK SMILES IDX 52 88 53 89 57 90 60 91 54 92 55 93 58 94 56 95
REMARK H PARENT 17 5 9 15 21 29 80 48 48 59
REMARK Flexibility Score: inf
ROOT
ATOM      1  C   UNL A   1      37.098  20.753  24.680  1.00  0.00     0.117 C 
ENDROOT
BRANCH   1   2
ATOM      2  N   UNL A   1      35.757  20.499  25.179  1.00  0.00    -0.354 N 
ATOM      3  C   UNL A   1      34.815  21.388  25.614  1.00  0.00     0.249 C 
ATOM      4  O   UNL A   1      33.736  20.937  26.005  1.00  0.00    -0.272 OA
ATOM      5  H   UNL A   1      35.491  19.551  25.209  1.00  0.00     0.163 HD
BRANCH   3   6
ATOM      6  C   UNL A   1      35.151  22.888  25.643  1.00  0.00     0.207 C 
ATOM      7  C   UNL A   1      34.397  24.500  24.114  1.00  0.00     0.138 C 
ATOM      8  C   UNL A   1      34.070  25.000  25.508  1.00  0.00     0.037 C 
ATOM      9  O   UNL A   1      35.303  23.410  24.313  1.00  0.00    -0.363 OA
ATOM     10  C   UNL A   1      34.072  23.727  26.320  1.00  0.00     0.045 C 
BRANCH   7  11
ATOM     11  C   UNL A   1      33.179  24.004  23.301  1.00  0.00     0.148 C 
BRANCH  11  12
ATOM     12  N   UNL A   1      32.705  25.027  22.391  1.00  0.00    -0.349 N 
ATOM     13  C   UNL A   1      32.045  26.222  22.491  1.00  0.00     0.251 C 
ATOM     14  O   UNL A   1      31.303  26.404  21.515  1.00  0.00    -0.269 OA
ATOM     15  H   UNL A   1      32.911  24.803  21.455  1.00  0.00     0.163 HD
BRANCH  13  16
ATOM     16  C   UNL A   1      32.133  27.318  23.542  1.00  0.00     0.045 A 
ATOM     17  C   UNL A   1      32.359  29.867  27.102  1.00  0.00     0.044 C 
ATOM     18  C   UNL A   1      32.245  29.028  25.867  1.00  0.00    -0.051 A 
ATOM     19  C   UNL A   1      31.295  28.027  25.775  1.00  0.00     0.007 A 
ATOM     20  C   UNL A   1      33.099  29.210  24.788  1.00  0.00     0.007 A 
ATOM     21  C   UNL A   1      31.196  27.203  24.631  1.00  0.00    -0.038 A 
ATOM     22  C   UNL A   1      33.077  28.374  23.639  1.00  0.00    -0.038 A 
ATOM     23  C   UNL A   1      30.068  26.194  24.707  1.00  0.00     0.045 C 
ATOM     24  C   UNL A   1      34.118  28.758  22.635  1.00  0.00     0.045 C 
ENDBRANCH  13  16
ENDBRANCH  11  12
ENDBRANCH   7  11
ENDBRANCH   3   6
ENDBRANCH   1   2
BRANCH   1  25
ATOM     25  C   UNL A   1      38.073  19.646  25.051  1.00  0.00     0.042 C 
BRANCH  25  26
ATOM     26  C   UNL A   1      39.315  20.125  25.792  1.00  0.00     0.118 C 
BRANCH  26  27
ATOM     27  N   UNL A   1      40.343  19.101  25.906  1.00  0.00    -0.352 N 
ATOM     28  C   UNL A   1      41.695  19.217  26.128  1.00  0.00     0.251 C 
ATOM     29  H   UNL A   1      40.019  18.177  25.807  1.00  0.00     0.163 HD
ATOM     30  O   UNL A   1      42.413  18.229  26.032  1.00  0.00    -0.269 OA
BRANCH  28  31
ATOM     31  C   UNL A   1      42.293  20.532  26.451  1.00  0.00     0.039 A 
ATOM     32  C   UNL A   1      42.842  21.293  25.415  1.00  0.00     0.014 A 
ATOM     33  C   UNL A   1      42.330  21.016  27.761  1.00  0.00     0.014 A 
ATOM     34  C   UNL A   1      43.354  22.565  25.680  1.00  0.00     0.010 A 
ATOM     35  C   UNL A   1      42.756  22.318  28.010  1.00  0.00     0.010 A 
ATOM     36  C   UNL A   1      43.274  23.108  26.973  1.00  0.00    -0.014 A 
BRANCH  36  37
ATOM     37  C   UNL A   1      43.720  24.499  27.256  1.00  0.00     0.031 A 
ATOM     38  C   UNL A   1      42.742  25.519  27.772  1.00  0.00     0.074 A 
ATOM     39  C   UNL A   1      44.990  24.859  26.983  1.00  0.00     0.049 A 
ATOM     40  N   UNL A   1      42.924  26.794  28.011  1.00  0.00    -0.248 NA
ATOM     41  C   UNL A   1      41.370  25.053  28.034  1.00  0.00     0.031 C 
ATOM     42  C   UNL A   1      46.024  23.977  26.439  1.00  0.00     0.029 A 
ATOM     43  N   UNL A   1      45.628  26.069  27.117  1.00  0.00    -0.354 N 
ATOM     44  C   UNL A   1      41.692  27.282  28.426  1.00  0.00     0.074 A 
ATOM     45  C   UNL A   1      40.757  26.180  28.367  1.00  0.00     0.031 C 
ATOM     46  C   UNL A   1      47.170  24.664  26.311  1.00  0.00     0.029 A 
ATOM     47  C   UNL A   1      46.943  26.047  26.718  1.00  0.00     0.049 A 
ATOM     48  H   UNL A   1      45.184  26.875  27.467  1.00  0.00     0.167 HD
ATOM     49  C   UNL A   1      41.375  28.533  28.838  1.00  0.00     0.037 A 
ATOM     50  C   UNL A   1      47.859  27.035  26.672  1.00  0.00     0.037 A 
ATOM     51  C   UNL A   1      42.316  29.618  28.931  1.00  0.00     0.049 A 
ATOM     52  C   UNL A   1      47.467  28.418  27.121  1.00  0.00     0.074 A 
ATOM     53  C   UNL A   1      42.107  30.898  29.415  1.00  0.00     0.029 A 
ATOM     54  N   UNL A   1      43.640  29.555  28.527  1.00  0.00    -0.354 N 
ATOM     55  N   UNL A   1      46.323  28.845  27.597  1.00  0.00    -0.248 NA
ATOM     56  C   UNL A   1      48.501  29.460  27.033  1.00  0.00     0.031 C 
ATOM     57  C   UNL A   1      43.287  31.628  29.244  1.00  0.00     0.029 A 
ATOM     58  C   UNL A   1      44.250  30.785  28.717  1.00  0.00     0.049 A 
ATOM     59  H   UNL A   1      44.082  28.755  28.159  1.00  0.00     0.167 HD
ATOM     60  C   UNL A   1      46.511  30.186  27.900  1.00  0.00     0.074 A 
ATOM     61  C   UNL A   1      47.883  30.501  27.571  1.00  0.00     0.031 C 
ATOM     62  C   UNL A   1      45.625  31.080  28.406  1.00  0.00     0.037 A 
BRANCH  49  63
ATOM     63  C   UNL A   1      39.950  28.811  29.223  1.00  0.00     0.064 A 
ATOM     64  C   UNL A   1      39.003  29.250  28.286  1.00  0.00     0.173 A 
ATOM     65  C   UNL A   1      39.509  28.557  30.531  1.00  0.00     0.173 A 
ATOM     66  F   UNL A   1      39.373  29.517  27.025  1.00  0.00    -0.203 F 
ATOM     67  C   UNL A   1      37.672  29.440  28.649  1.00  0.00     0.198 A 
ATOM     68  C   UNL A   1      38.171  28.717  30.882  1.00  0.00     0.198 A 
ATOM     69  F   UNL A   1      40.372  28.129  31.465  1.00  0.00    -0.203 F 
ATOM     70  F   UNL A   1      36.792  29.894  27.745  1.00  0.00    -0.200 F 
ATOM     71  C   UNL A   1      37.255  29.162  29.942  1.00  0.00     0.200 A 
ATOM     72  F   UNL A   1      37.768  28.432  32.127  1.00  0.00    -0.200 F 
ATOM     73  F   UNL A   1      35.970  29.326  30.283  1.00  0.00    -0.200 F 
ENDBRANCH  49  63
BRANCH  50  74
ATOM     74  C   UNL A   1      49.242  26.764  26.191  1.00  0.00     0.064 A 
ATOM     75  C   UNL A   1      49.595  26.989  24.852  1.00  0.00     0.173 A 
ATOM     76  C   UNL A   1      50.221  26.230  27.040  1.00  0.00     0.173 A 
ATOM     77  F   UNL A   1      48.687  27.480  23.995  1.00  0.00    -0.203 F 
ATOM     78  C   UNL A   1      50.858  26.649  24.372  1.00  0.00     0.198 A 
ATOM     79  C   UNL A   1      51.497  25.925  26.567  1.00  0.00     0.198 A 
ATOM     80  F   UNL A   1      49.941  26.000  28.331  1.00  0.00    -0.203 F 
ATOM     81  F   UNL A   1      51.141  26.806  23.072  1.00  0.00    -0.200 F 
ATOM     82  C   UNL A   1      51.809  26.120  25.230  1.00  0.00     0.200 A 
ATOM     83  F   UNL A   1      52.417  25.428  27.404  1.00  0.00    -0.200 F 
ATOM     84  F   UNL A   1      53.020  25.785  24.767  1.00  0.00    -0.200 F 
ENDBRANCH  50  74
BRANCH  62  85
ATOM     85  C   UNL A   1      46.125  32.467  28.689  1.00  0.00     0.064 A 
ATOM     86  C   UNL A   1      46.711  32.807  29.918  1.00  0.00     0.173 A 
ATOM     87  C   UNL A   1      46.049  33.461  27.701  1.00  0.00     0.173 A 
ATOM     88  F   UNL A   1      46.795  31.899  30.901  1.00  0.00    -0.203 F 
ATOM     89  C   UNL A   1      47.175  34.099  30.156  1.00  0.00     0.198 A 
ATOM     90  C   UNL A   1      46.547  34.740  27.930  1.00  0.00     0.198 A 
ATOM     91  F   UNL A   1      45.506  33.187  26.505  1.00  0.00    -0.203 F 
ATOM     92  F   UNL A   1      47.679  34.416  31.356  1.00  0.00    -0.200 F 
ATOM     93  C   UNL A   1      47.100  35.061  29.160  1.00  0.00     0.200 A 
ATOM     94  F   UNL A   1      46.491  35.662  26.959  1.00  0.00    -0.200 F 
ATOM     95  F   UNL A   1      47.555  36.301  29.388  1.00  0.00    -0.200 F 
ENDBRANCH  62  85
ENDBRANCH  36  37
ENDBRANCH  28  31
ENDBRANCH  26  27
ENDBRANCH  25  26
ENDBRANCH   1  25
TORSDOF 13
ENDMDL
MODEL 3
REMARK VINA RESULT:     -12.8      4.260     10.680
REMARK SMILES Cc1cc(C)c(C(=O)NC[C@H]2CC[C@@H](C(=O)NCCCNC(=O)c3ccc(-c4c5nc(c(-c6c(F)c(F)c(F)c(F)c6F)c6ccc([nH]6)c(-c6c(F)c(F)c(F)c(F)c6F)c6nc(c(-c7c(F)c(F)c(F)c(F)c7F)c7ccc4[nH]7)C=C6)C=C5)cc3)O2)c(C)c1
REMARK SMILES IDX 18 1 17 2 15 3 16 4 14 6 11 7 12 8 87 9 13 10 10 11 9 12
REMARK SMILES IDX 7 13 8 14 6 16 1 17 2 18 3 19 90 20 4 21 88 22 5 23 89 24
REMARK SMILES IDX 19 25 20 26 21 27 22 28 23 30 24 31 25 32 86 33 26 34 85 35
REMARK SMILES IDX 27 36 28 37 29 38 79 39 30 40 84 41 78 42 80 43 31 44 83 45
REMARK SMILES IDX 77 46 76 47 32 49 64 50 44 51 63 52 45 53 48 54 62 55 81 56
REMARK SMILES IDX 46 57 47 58 61 60 82 61 49 62 33 63 34 64 42 65 35 66 36 67
REMARK SMILES IDX 40 68 43 69 37 70 38 71 41 72 39 73 65 74 66 75 74 76 67 77
REMARK SMILES IDX 68 78 72 79 75 80 69 81 70 82 73 83 71 84 50 85 51 86 59 87
REMARK SMILES IDX 52 88 53 89 57 90 60 91 54 92 55 93 58 94 56 95
REMARK H PARENT 17 5 9 15 21 29 80 48 48 59
REMARK Flexibility Score: inf
ROOT
ATOM      1  C   UNL A   1      33.142  34.275  28.228  1.00  0.00     0.117 C 
ENDROOT
BRANCH   1   2
ATOM      2  N   UNL A   1      33.356  35.701  28.411  1.00  0.00    -0.354 N 
ATOM      3  C   UNL A   1      33.218  36.457  29.542  1.00  0.00     0.249 C 
ATOM      4  O   UNL A   1      33.451  37.664  29.458  1.00  0.00    -0.272 OA
ATOM      5  H   UNL A   1      33.641  36.191  27.607  1.00  0.00     0.163 HD
BRANCH   3   6
ATOM      6  C   UNL A   1      32.739  35.788  30.841  1.00  0.00     0.207 C 
ATOM      7  C   UNL A   1      34.108  34.792  32.465  1.00  0.00     0.138 C 
ATOM      8  C   UNL A   1      33.209  35.789  33.170  1.00  0.00     0.037 C 
ATOM      9  O   UNL A   1      33.543  34.640  31.158  1.00  0.00    -0.363 OA
ATOM     10  C   UNL A   1      32.808  36.717  32.049  1.00  0.00     0.045 C 
BRANCH   7  11
ATOM     11  C   UNL A   1      35.584  35.231  32.331  1.00  0.00     0.148 C 
BRANCH  11  12
ATOM     12  N   UNL A   1      36.482  34.214  32.836  1.00  0.00    -0.349 N 
ATOM     13  C   UNL A   1      37.612  33.576  32.401  1.00  0.00     0.251 C 
ATOM     14  O   UNL A   1      37.646  32.404  32.804  1.00  0.00    -0.269 OA
ATOM     15  H   UNL A   1      36.207  33.897  33.727  1.00  0.00     0.163 HD
BRANCH  13  16
ATOM     16  C   UNL A   1      38.791  34.091  31.589  1.00  0.00     0.045 A 
ATOM     17  C   UNL A   1      42.627  35.084  29.714  1.00  0.00     0.044 C 
ATOM     18  C   UNL A   1      41.306  34.796  30.357  1.00  0.00    -0.051 A 
ATOM     19  C   UNL A   1      41.174  34.790  31.733  1.00  0.00     0.007 A 
ATOM     20  C   UNL A   1      40.181  34.503  29.598  1.00  0.00     0.007 A 
ATOM     21  C   UNL A   1      39.943  34.487  32.358  1.00  0.00    -0.038 A 
ATOM     22  C   UNL A   1      38.936  34.138  30.177  1.00  0.00    -0.038 A 
ATOM     23  C   UNL A   1      39.993  34.572  33.871  1.00  0.00     0.045 C 
ATOM     24  C   UNL A   1      37.894  33.839  29.146  1.00  0.00     0.045 C 
ENDBRANCH  13  16
ENDBRANCH  11  12
ENDBRANCH   7  11
ENDBRANCH   3   6
ENDBRANCH   1   2
BRANCH   1  25
ATOM     25  C   UNL A   1      34.446  33.511  28.056  1.00  0.00     0.042 C 
BRANCH  25  26
ATOM     26  C   UNL A   1      34.558  32.259  28.917  1.00  0.00     0.118 C 
BRANCH  26  27
ATOM     27  N   UNL A   1      34.050  31.065  28.257  1.00  0.00    -0.352 N 
ATOM     28  C   UNL A   1      34.698  29.915  27.875  1.00  0.00     0.251 C 
ATOM     29  H   UNL A   1      33.087  31.085  28.051  1.00  0.00     0.163 HD
ATOM     30  O   UNL A   1      34.112  29.087  27.187  1.00  0.00    -0.269 OA
BRANCH  28  31
ATOM     31  C   UNL A   1      36.108  29.683  28.262  1.00  0.00     0.039 A 
ATOM     32  C   UNL A   1      36.382  29.221  29.553  1.00  0.00     0.014 A 
ATOM     33  C   UNL A   1      37.159  29.928  27.376  1.00  0.00     0.014 A 
ATOM     34  C   UNL A   1      37.697  28.930  29.924  1.00  0.00     0.010 A 
ATOM     35  C   UNL A   1      38.457  29.553  27.715  1.00  0.00     0.010 A 
ATOM     36  C   UNL A   1      38.741  29.051  28.993  1.00  0.00    -0.014 A 
BRANCH  36  37
ATOM     37  C   UNL A   1      40.133  28.651  29.336  1.00  0.00     0.031 A 
ATOM     38  C   UNL A   1      40.995  29.550  30.181  1.00  0.00     0.074 A 
ATOM     39  C   UNL A   1      40.641  27.509  28.831  1.00  0.00     0.049 A 
ATOM     40  N   UNL A   1      42.250  29.408  30.527  1.00  0.00    -0.248 NA
ATOM     41  C   UNL A   1      40.374  30.785  30.686  1.00  0.00     0.031 C 
ATOM     42  C   UNL A   1      39.924  26.572  27.964  1.00  0.00     0.029 A 
ATOM     43  N   UNL A   1      41.887  26.945  28.965  1.00  0.00    -0.354 N 
ATOM     44  C   UNL A   1      42.571  30.539  31.265  1.00  0.00     0.074 A 
ATOM     45  C   UNL A   1      41.395  31.381  31.284  1.00  0.00     0.031 C 
ATOM     46  C   UNL A   1      40.729  25.540  27.667  1.00  0.00     0.029 A 
ATOM     47  C   UNL A   1      42.034  25.762  28.280  1.00  0.00     0.049 A 
ATOM     48  H   UNL A   1      42.606  27.350  29.501  1.00  0.00     0.167 HD
ATOM     49  C   UNL A   1      43.736  30.838  31.888  1.00  0.00     0.037 A 
ATOM     50  C   UNL A   1      43.106  24.955  28.151  1.00  0.00     0.037 A 
ATOM     51  C   UNL A   1      44.892  29.981  31.899  1.00  0.00     0.049 A 
ATOM     52  C   UNL A   1      44.390  25.327  28.843  1.00  0.00     0.074 A 
ATOM     53  C   UNL A   1      46.089  30.160  32.571  1.00  0.00     0.029 A 
ATOM     54  N   UNL A   1      45.000  28.787  31.202  1.00  0.00    -0.354 N 
ATOM     55  N   UNL A   1      44.653  26.355  29.612  1.00  0.00    -0.248 NA
ATOM     56  C   UNL A   1      45.531  24.419  28.652  1.00  0.00     0.031 C 
ATOM     57  C   UNL A   1      46.944  29.108  32.229  1.00  0.00     0.029 A 
ATOM     58  C   UNL A   1      46.257  28.239  31.400  1.00  0.00     0.049 A 
ATOM     59  H   UNL A   1      44.289  28.389  30.649  1.00  0.00     0.167 HD
ATOM     60  C   UNL A   1      45.968  26.196  30.027  1.00  0.00     0.074 A 
ATOM     61  C   UNL A   1      46.447  24.965  29.439  1.00  0.00     0.031 C 
ATOM     62  C   UNL A   1      46.714  26.999  30.826  1.00  0.00     0.037 A 
BRANCH  49  63
ATOM     63  C   UNL A   1      43.833  32.148  32.615  1.00  0.00     0.064 A 
ATOM     64  C   UNL A   1      43.311  32.319  33.905  1.00  0.00     0.173 A 
ATOM     65  C   UNL A   1      44.528  33.225  32.041  1.00  0.00     0.173 A 
ATOM     66  F   UNL A   1      42.629  31.326  34.496  1.00  0.00    -0.203 F 
ATOM     67  C   UNL A   1      43.469  33.523  34.588  1.00  0.00     0.198 A 
ATOM     68  C   UNL A   1      44.711  34.416  32.739  1.00  0.00     0.198 A 
ATOM     69  F   UNL A   1      45.053  33.113  30.811  1.00  0.00    -0.203 F 
ATOM     70  F   UNL A   1      42.932  33.675  35.807  1.00  0.00    -0.200 F 
ATOM     71  C   UNL A   1      44.178  34.565  34.010  1.00  0.00     0.200 A 
ATOM     72  F   UNL A   1      45.411  35.414  32.185  1.00  0.00    -0.200 F 
ATOM     73  F   UNL A   1      44.346  35.715  34.677  1.00  0.00    -0.200 F 
ENDBRANCH  49  63
BRANCH  50  74
ATOM     74  C   UNL A   1      43.021  23.708  27.342  1.00  0.00     0.064 A 
ATOM     75  C   UNL A   1      42.548  22.514  27.906  1.00  0.00     0.173 A 
ATOM     76  C   UNL A   1      43.458  23.668  26.010  1.00  0.00     0.173 A 
ATOM     77  F   UNL A   1      42.137  22.495  29.183  1.00  0.00    -0.203 F 
ATOM     78  C   UNL A   1      42.555  21.322  27.185  1.00  0.00     0.198 A 
ATOM     79  C   UNL A   1      43.429  22.482  25.277  1.00  0.00     0.198 A 
ATOM     80  F   UNL A   1      43.915  24.780  25.417  1.00  0.00    -0.203 F 
ATOM     81  F   UNL A   1      42.166  20.184  27.775  1.00  0.00    -0.200 F 
ATOM     82  C   UNL A   1      42.993  21.307  25.870  1.00  0.00     0.200 A 
ATOM     83  F   UNL A   1      43.839  22.476  24.002  1.00  0.00    -0.200 F 
ATOM     84  F   UNL A   1      43.007  20.160  25.180  1.00  0.00    -0.200 F 
ENDBRANCH  50  74
BRANCH  62  85
ATOM     85  C   UNL A   1      48.107  26.546  31.157  1.00  0.00     0.064 A 
ATOM     86  C   UNL A   1      48.371  25.695  32.241  1.00  0.00     0.173 A 
ATOM     87  C   UNL A   1      49.189  26.941  30.354  1.00  0.00     0.173 A 
ATOM     88  F   UNL A   1      47.376  25.300  33.048  1.00  0.00    -0.203 F 
ATOM     89  C   UNL A   1      49.671  25.281  32.525  1.00  0.00     0.198 A 
ATOM     90  C   UNL A   1      50.479  26.496  30.619  1.00  0.00     0.198 A 
ATOM     91  F   UNL A   1      48.990  27.747  29.300  1.00  0.00    -0.203 F 
ATOM     92  F   UNL A   1      49.907  24.515  33.598  1.00  0.00    -0.200 F 
ATOM     93  C   UNL A   1      50.721  25.675  31.709  1.00  0.00     0.200 A 
ATOM     94  F   UNL A   1      51.490  26.862  29.819  1.00  0.00    -0.200 F 
ATOM     95  F   UNL A   1      51.969  25.268  31.980  1.00  0.00    -0.200 F 
ENDBRANCH  62  85
ENDBRANCH  36  37
ENDBRANCH  28  31
ENDBRANCH  26  27
ENDBRANCH  25  26
ENDBRANCH   1  25
TORSDOF 13
ENDMDL
