MODEL 1
REMARK VINA RESULT:     -13.5      0.000      0.000
REMARK SMILES Cc1cc2nc(C(F)(F)F)c(=O)n([C@H](C)C(=O)NCCCNC(=O)c3ccc(-c4c5nc(c(-c6c(F)c(F)c(F)c(F)c6F)c6ccc([nH]6)c(-c6c(F)c(F)c(F)c(F)c6F)c6nc(c(-c7c(F)c(F)c(F)c(F)c7F)c7ccc4[nH]7)C=C6)C=C5)cc3)c2cc1C
REMARK SMILES IDX 20 1 19 2 18 3 16 4 17 5 14 7 15 8 13 9 1 10 2 11 3 12 90 13
REMARK SMILES IDX 4 14 89 15 91 16 5 17 88 18 6 19 11 20 12 21 7 22 8 23 9 24
REMARK SMILES IDX 10 25 21 26 22 27 23 28 24 30 25 31 26 32 87 33 27 34 86 35
REMARK SMILES IDX 28 36 29 37 30 38 80 39 31 40 85 41 79 42 81 43 32 44 84 45
REMARK SMILES IDX 78 46 77 47 33 49 65 50 45 51 64 52 46 53 49 54 63 55 82 56
REMARK SMILES IDX 47 57 48 58 62 60 83 61 50 62 34 63 35 64 43 65 36 66 37 67
REMARK SMILES IDX 41 68 44 69 38 70 39 71 42 72 40 73 66 74 67 75 75 76 68 77
REMARK SMILES IDX 69 78 73 79 76 80 70 81 71 82 74 83 72 84 51 85 52 86 60 87
REMARK SMILES IDX 53 88 54 89 58 90 61 91 55 92 56 93 59 94 57 95
REMARK H PARENT 18 6 22 29 81 48 49 59
REMARK Flexibility Score: inf
ROOT
ATOM      1  C   UNL A   1      31.375  32.039  26.994  1.00  0.00     0.042 C 
ENDROOT
BRANCH   1   2
ATOM      2  C   UNL A   1      31.493  30.965  25.922  1.00  0.00     0.117 C 
BRANCH   2   3
ATOM      3  N   UNL A   1      32.698  30.170  26.061  1.00  0.00    -0.354 N 
ATOM      4  C   UNL A   1      33.343  29.355  25.173  1.00  0.00     0.242 C 
ATOM      5  O   UNL A   1      34.239  28.632  25.620  1.00  0.00    -0.273 OA
ATOM      6  H   UNL A   1      33.125  30.227  26.947  1.00  0.00     0.163 HD
BRANCH   4   7
ATOM      7  C   UNL A   1      32.826  29.164  23.724  1.00  0.00     0.177 C 
ATOM      8  C   UNL A   1      34.057  28.562  23.002  1.00  0.00     0.042 C 
BRANCH   7   9
ATOM      9  N   UNL A   1      31.563  28.386  23.616  1.00  0.00    -0.293 N 
ATOM     10  C   UNL A   1      30.937  22.931  25.352  1.00  0.00     0.044 C 
ATOM     11  C   UNL A   1      31.171  24.304  24.790  1.00  0.00    -0.046 A 
ATOM     12  C   UNL A   1      30.064  25.064  24.386  1.00  0.00     0.034 A 
ATOM     13  C   UNL A   1      32.444  24.883  24.720  1.00  0.00    -0.046 A 
ATOM     14  C   UNL A   1      30.199  26.393  23.968  1.00  0.00     0.088 A 
ATOM     15  C   UNL A   1      32.576  26.192  24.227  1.00  0.00     0.032 A 
ATOM     16  C   UNL A   1      33.682  24.161  25.181  1.00  0.00     0.044 C 
ATOM     17  N   UNL A   1      29.028  27.078  23.630  1.00  0.00    -0.236 NA
ATOM     18  C   UNL A   1      31.466  26.993  23.943  1.00  0.00     0.071 A 
ATOM     19  C   UNL A   1      29.138  28.284  23.148  1.00  0.00     0.210 A 
ATOM     20  C   UNL A   1      30.475  28.952  22.929  1.00  0.00     0.282 A 
ATOM     21  O   UNL A   1      30.526  29.956  22.237  1.00  0.00    -0.267 OA
BRANCH  19  22
ATOM     22  C   UNL A   1      27.928  29.104  22.786  1.00  0.00     0.438 C 
ATOM     23  F   UNL A   1      26.764  28.425  22.983  1.00  0.00    -0.164 F 
ATOM     24  F   UNL A   1      27.834  30.230  23.557  1.00  0.00    -0.164 F 
ATOM     25  F   UNL A   1      27.909  29.559  21.504  1.00  0.00    -0.164 F 
ENDBRANCH  19  22
ENDBRANCH   7   9
ENDBRANCH   4   7
ENDBRANCH   2   3
ENDBRANCH   1   2
BRANCH   1  26
ATOM     26  C   UNL A   1      32.656  32.825  27.236  1.00  0.00     0.118 C 
BRANCH  26  27
ATOM     27  N   UNL A   1      32.413  34.218  27.587  1.00  0.00    -0.352 N 
ATOM     28  C   UNL A   1      33.020  35.009  28.534  1.00  0.00     0.251 C 
ATOM     29  H   UNL A   1      31.705  34.662  27.067  1.00  0.00     0.163 HD
ATOM     30  O   UNL A   1      32.565  36.118  28.793  1.00  0.00    -0.269 OA
BRANCH  28  31
ATOM     31  C   UNL A   1      34.198  34.504  29.271  1.00  0.00     0.039 A 
ATOM     32  C   UNL A   1      35.480  34.619  28.732  1.00  0.00     0.014 A 
ATOM     33  C   UNL A   1      34.010  33.881  30.507  1.00  0.00     0.014 A 
ATOM     34  C   UNL A   1      36.539  33.945  29.326  1.00  0.00     0.010 A 
ATOM     35  C   UNL A   1      35.096  33.286  31.154  1.00  0.00     0.010 A 
ATOM     36  C   UNL A   1      36.358  33.264  30.541  1.00  0.00    -0.014 A 
BRANCH  36  37
ATOM     37  C   UNL A   1      37.491  32.517  31.144  1.00  0.00     0.031 A 
ATOM     38  C   UNL A   1      37.970  32.845  32.532  1.00  0.00     0.074 A 
ATOM     39  C   UNL A   1      38.062  31.510  30.454  1.00  0.00     0.049 A 
ATOM     40  N   UNL A   1      38.972  32.335  33.204  1.00  0.00    -0.248 NA
ATOM     41  C   UNL A   1      37.229  33.885  33.265  1.00  0.00     0.031 C 
ATOM     42  C   UNL A   1      37.665  31.076  29.114  1.00  0.00     0.029 A 
ATOM     43  N   UNL A   1      39.083  30.659  30.791  1.00  0.00    -0.354 N 
ATOM     44  C   UNL A   1      38.994  33.003  34.422  1.00  0.00     0.074 A 
ATOM     45  C   UNL A   1      37.925  33.976  34.390  1.00  0.00     0.031 C 
ATOM     46  C   UNL A   1      38.402  30.014  28.761  1.00  0.00     0.029 A 
ATOM     47  C   UNL A   1      39.372  29.738  29.815  1.00  0.00     0.049 A 
ATOM     48  H   UNL A   1      39.563  30.703  31.650  1.00  0.00     0.167 HD
ATOM     49  C   UNL A   1      39.825  32.811  35.475  1.00  0.00     0.037 A 
ATOM     50  C   UNL A   1      40.328  28.792  29.762  1.00  0.00     0.037 A 
ATOM     51  C   UNL A   1      40.874  31.825  35.511  1.00  0.00     0.049 A 
ATOM     52  C   UNL A   1      41.277  28.644  30.917  1.00  0.00     0.074 A 
ATOM     53  C   UNL A   1      41.763  31.548  36.535  1.00  0.00     0.029 A 
ATOM     54  N   UNL A   1      41.175  30.950  34.475  1.00  0.00    -0.354 N 
ATOM     55  N   UNL A   1      41.298  29.292  32.057  1.00  0.00    -0.248 NA
ATOM     56  C   UNL A   1      42.340  27.642  30.775  1.00  0.00     0.031 C 
ATOM     57  C   UNL A   1      42.627  30.537  36.105  1.00  0.00     0.029 A 
ATOM     58  C   UNL A   1      42.247  30.148  34.831  1.00  0.00     0.049 A 
ATOM     59  H   UNL A   1      40.696  30.907  33.616  1.00  0.00     0.167 HD
ATOM     60  C   UNL A   1      42.365  28.769  32.772  1.00  0.00     0.074 A 
ATOM     61  C   UNL A   1      42.952  27.734  31.947  1.00  0.00     0.031 C 
ATOM     62  C   UNL A   1      42.822  29.122  33.998  1.00  0.00     0.037 A 
BRANCH  49  63
ATOM     63  C   UNL A   1      39.647  33.690  36.680  1.00  0.00     0.064 A 
ATOM     64  C   UNL A   1      40.242  34.957  36.761  1.00  0.00     0.173 A 
ATOM     65  C   UNL A   1      38.812  33.289  37.735  1.00  0.00     0.173 A 
ATOM     66  F   UNL A   1      41.060  35.384  35.787  1.00  0.00    -0.203 F 
ATOM     67  C   UNL A   1      40.021  35.784  37.861  1.00  0.00     0.198 A 
ATOM     68  C   UNL A   1      38.571  34.128  38.819  1.00  0.00     0.198 A 
ATOM     69  F   UNL A   1      38.213  32.088  37.704  1.00  0.00    -0.203 F 
ATOM     70  F   UNL A   1      40.629  36.976  37.934  1.00  0.00    -0.200 F 
ATOM     71  C   UNL A   1      39.178  35.373  38.883  1.00  0.00     0.200 A 
ATOM     72  F   UNL A   1      37.745  33.736  39.799  1.00  0.00    -0.200 F 
ATOM     73  F   UNL A   1      38.953  36.177  39.932  1.00  0.00    -0.200 F 
ENDBRANCH  49  63
BRANCH  50  74
ATOM     74  C   UNL A   1      40.432  27.922  28.562  1.00  0.00     0.064 A 
ATOM     75  C   UNL A   1      41.187  28.317  27.451  1.00  0.00     0.173 A 
ATOM     76  C   UNL A   1      39.805  26.666  28.515  1.00  0.00     0.173 A 
ATOM     77  F   UNL A   1      41.786  29.517  27.441  1.00  0.00    -0.203 F 
ATOM     78  C   UNL A   1      41.308  27.491  26.334  1.00  0.00     0.198 A 
ATOM     79  C   UNL A   1      39.952  25.830  27.412  1.00  0.00     0.198 A 
ATOM     80  F   UNL A   1      39.072  26.242  29.555  1.00  0.00    -0.203 F 
ATOM     81  F   UNL A   1      42.010  27.906  25.271  1.00  0.00    -0.200 F 
ATOM     82  C   UNL A   1      40.699  26.245  26.320  1.00  0.00     0.200 A 
ATOM     83  F   UNL A   1      39.378  24.620  27.410  1.00  0.00    -0.200 F 
ATOM     84  F   UNL A   1      40.831  25.445  25.253  1.00  0.00    -0.200 F 
ENDBRANCH  50  74
BRANCH  62  85
ATOM     85  C   UNL A   1      44.005  28.370  34.533  1.00  0.00     0.064 A 
ATOM     86  C   UNL A   1      45.313  28.846  34.362  1.00  0.00     0.173 A 
ATOM     87  C   UNL A   1      43.826  27.188  35.268  1.00  0.00     0.173 A 
ATOM     88  F   UNL A   1      45.538  29.964  33.655  1.00  0.00    -0.203 F 
ATOM     89  C   UNL A   1      46.401  28.153  34.887  1.00  0.00     0.198 A 
ATOM     90  C   UNL A   1      44.914  26.516  35.819  1.00  0.00     0.198 A 
ATOM     91  F   UNL A   1      42.594  26.696  35.467  1.00  0.00    -0.203 F 
ATOM     92  F   UNL A   1      47.646  28.602  34.673  1.00  0.00    -0.200 F 
ATOM     93  C   UNL A   1      46.200  26.995  35.622  1.00  0.00     0.200 A 
ATOM     94  F   UNL A   1      44.715  25.404  36.540  1.00  0.00    -0.200 F 
ATOM     95  F   UNL A   1      47.247  26.335  36.136  1.00  0.00    -0.200 F 
ENDBRANCH  62  85
ENDBRANCH  36  37
ENDBRANCH  28  31
ENDBRANCH  26  27
ENDBRANCH   1  26
TORSDOF 12
ENDMDL
MODEL 2
REMARK VINA RESULT:     -13.4      0.500      7.247
REMARK SMILES Cc1cc2nc(C(F)(F)F)c(=O)n([C@H](C)C(=O)NCCCNC(=O)c3ccc(-c4c5nc(c(-c6c(F)c(F)c(F)c(F)c6F)c6ccc([nH]6)c(-c6c(F)c(F)c(F)c(F)c6F)c6nc(c(-c7c(F)c(F)c(F)c(F)c7F)c7ccc4[nH]7)C=C6)C=C5)cc3)c2cc1C
REMARK SMILES IDX 20 1 19 2 18 3 16 4 17 5 14 7 15 8 13 9 1 10 2 11 3 12 90 13
REMARK SMILES IDX 4 14 89 15 91 16 5 17 88 18 6 19 11 20 12 21 7 22 8 23 9 24
REMARK SMILES IDX 10 25 21 26 22 27 23 28 24 30 25 31 26 32 87 33 27 34 86 35
REMARK SMILES IDX 28 36 29 37 30 38 80 39 31 40 85 41 79 42 81 43 32 44 84 45
REMARK SMILES IDX 78 46 77 47 33 49 65 50 45 51 64 52 46 53 49 54 63 55 82 56
REMARK SMILES IDX 47 57 48 58 62 60 83 61 50 62 34 63 35 64 43 65 36 66 37 67
REMARK SMILES IDX 41 68 44 69 38 70 39 71 42 72 40 73 66 74 67 75 75 76 68 77
REMARK SMILES IDX 69 78 73 79 76 80 70 81 71 82 74 83 72 84 51 85 52 86 60 87
REMARK SMILES IDX 53 88 54 89 58 90 61 91 55 92 56 93 59 94 57 95
REMARK H PARENT 18 6 22 29 81 48 49 59
REMARK Flexibility Score: inf
ROOT
ATOM      1  C   UNL A   1      31.409  32.004  27.033  1.00  0.00     0.042 C 
ENDROOT
BRANCH   1   2
ATOM      2  C   UNL A   1      31.570  30.929  25.967  1.00  0.00     0.117 C 
BRANCH   2   3
ATOM      3  N   UNL A   1      32.800  30.176  26.117  1.00  0.00    -0.354 N 
ATOM      4  C   UNL A   1      33.443  29.327  25.261  1.00  0.00     0.242 C 
ATOM      5  O   UNL A   1      34.371  28.656  25.724  1.00  0.00    -0.273 OA
ATOM      6  H   UNL A   1      33.250  30.298  26.985  1.00  0.00     0.163 HD
BRANCH   4   7
ATOM      7  C   UNL A   1      32.891  29.034  23.842  1.00  0.00     0.177 C 
ATOM      8  C   UNL A   1      34.081  28.318  23.157  1.00  0.00     0.042 C 
BRANCH   7   9
ATOM      9  N   UNL A   1      31.593  28.308  23.820  1.00  0.00    -0.293 N 
ATOM     10  C   UNL A   1      30.685  23.186  26.290  1.00  0.00     0.044 C 
ATOM     11  C   UNL A   1      30.992  24.455  25.547  1.00  0.00    -0.046 A 
ATOM     12  C   UNL A   1      29.928  25.199  25.020  1.00  0.00     0.034 A 
ATOM     13  C   UNL A   1      32.292  24.959  25.420  1.00  0.00    -0.046 A 
ATOM     14  C   UNL A   1      30.131  26.449  24.423  1.00  0.00     0.088 A 
ATOM     15  C   UNL A   1      32.492  26.178  24.751  1.00  0.00     0.032 A 
ATOM     16  C   UNL A   1      33.488  24.253  26.001  1.00  0.00     0.044 C 
ATOM     17  N   UNL A   1      28.998  27.132  23.970  1.00  0.00    -0.236 NA
ATOM     18  C   UNL A   1      31.426  26.981  24.337  1.00  0.00     0.071 A 
ATOM     19  C   UNL A   1      29.172  28.252  23.326  1.00  0.00     0.210 A 
ATOM     20  C   UNL A   1      30.542  28.821  23.041  1.00  0.00     0.282 A 
ATOM     21  O   UNL A   1      30.650  29.715  22.216  1.00  0.00    -0.267 OA
BRANCH  19  22
ATOM     22  C   UNL A   1      28.007  29.068  22.831  1.00  0.00     0.438 C 
ATOM     23  F   UNL A   1      26.811  28.461  23.069  1.00  0.00    -0.164 F 
ATOM     24  F   UNL A   1      27.938  30.280  23.460  1.00  0.00    -0.164 F 
ATOM     25  F   UNL A   1      28.043  29.367  21.504  1.00  0.00    -0.164 F 
ENDBRANCH  19  22
ENDBRANCH   7   9
ENDBRANCH   4   7
ENDBRANCH   2   3
ENDBRANCH   1   2
BRANCH   1  26
ATOM     26  C   UNL A   1      32.671  32.810  27.303  1.00  0.00     0.118 C 
BRANCH  26  27
ATOM     27  N   UNL A   1      32.401  34.211  27.602  1.00  0.00    -0.352 N 
ATOM     28  C   UNL A   1      32.975  35.042  28.533  1.00  0.00     0.251 C 
ATOM     29  H   UNL A   1      31.697  34.626  27.052  1.00  0.00     0.163 HD
ATOM     30  O   UNL A   1      32.499  36.153  28.745  1.00  0.00    -0.269 OA
BRANCH  28  31
ATOM     31  C   UNL A   1      34.145  34.581  29.311  1.00  0.00     0.039 A 
ATOM     32  C   UNL A   1      35.426  34.609  28.758  1.00  0.00     0.014 A 
ATOM     33  C   UNL A   1      33.950  34.086  30.603  1.00  0.00     0.014 A 
ATOM     34  C   UNL A   1      36.471  33.968  29.410  1.00  0.00     0.010 A 
ATOM     35  C   UNL A   1      35.023  33.529  31.300  1.00  0.00     0.010 A 
ATOM     36  C   UNL A   1      36.281  33.413  30.686  1.00  0.00    -0.014 A 
BRANCH  36  37
ATOM     37  C   UNL A   1      37.398  32.699  31.355  1.00  0.00     0.031 A 
ATOM     38  C   UNL A   1      38.126  31.588  30.647  1.00  0.00     0.074 A 
ATOM     39  C   UNL A   1      37.788  33.084  32.586  1.00  0.00     0.049 A 
ATOM     40  N   UNL A   1      39.094  30.821  31.087  1.00  0.00    -0.248 NA
ATOM     41  C   UNL A   1      37.716  31.296  29.265  1.00  0.00     0.031 C 
ATOM     42  C   UNL A   1      37.182  34.168  33.360  1.00  0.00     0.029 A 
ATOM     43  N   UNL A   1      38.794  32.620  33.394  1.00  0.00    -0.354 N 
ATOM     44  C   UNL A   1      39.389  29.947  30.049  1.00  0.00     0.074 A 
ATOM     45  C   UNL A   1      38.482  30.256  28.965  1.00  0.00     0.031 C 
ATOM     46  C   UNL A   1      37.855  34.315  34.509  1.00  0.00     0.029 A 
ATOM     47  C   UNL A   1      38.890  33.290  34.587  1.00  0.00     0.049 A 
ATOM     48  H   UNL A   1      39.391  31.877  33.142  1.00  0.00     0.167 HD
ATOM     49  C   UNL A   1      40.339  28.983  30.002  1.00  0.00     0.037 A 
ATOM     50  C   UNL A   1      39.704  33.088  35.640  1.00  0.00     0.037 A 
ATOM     51  C   UNL A   1      41.255  28.694  31.075  1.00  0.00     0.049 A 
ATOM     52  C   UNL A   1      40.706  31.971  35.586  1.00  0.00     0.074 A 
ATOM     53  C   UNL A   1      42.260  27.743  31.120  1.00  0.00     0.029 A 
ATOM     54  N   UNL A   1      41.280  29.357  32.295  1.00  0.00    -0.354 N 
ATOM     55  N   UNL A   1      40.966  31.140  34.605  1.00  0.00    -0.248 NA
ATOM     56  C   UNL A   1      41.521  31.754  36.789  1.00  0.00     0.031 C 
ATOM     57  C   UNL A   1      42.863  27.801  32.380  1.00  0.00     0.029 A 
ATOM     58  C   UNL A   1      42.270  28.822  33.104  1.00  0.00     0.049 A 
ATOM     59  H   UNL A   1      40.683  30.099  32.547  1.00  0.00     0.167 HD
ATOM     60  C   UNL A   1      41.979  30.313  35.066  1.00  0.00     0.074 A 
ATOM     61  C   UNL A   1      42.304  30.757  36.405  1.00  0.00     0.031 C 
ATOM     62  C   UNL A   1      42.581  29.274  34.437  1.00  0.00     0.037 A 
BRANCH  49  63
ATOM     63  C   UNL A   1      40.439  28.154  28.753  1.00  0.00     0.064 A 
ATOM     64  C   UNL A   1      41.259  28.536  27.681  1.00  0.00     0.173 A 
ATOM     65  C   UNL A   1      39.764  26.928  28.657  1.00  0.00     0.173 A 
ATOM     66  F   UNL A   1      41.916  29.705  27.715  1.00  0.00    -0.203 F 
ATOM     67  C   UNL A   1      41.385  27.728  26.552  1.00  0.00     0.198 A 
ATOM     68  C   UNL A   1      39.915  26.110  27.541  1.00  0.00     0.198 A 
ATOM     69  F   UNL A   1      38.972  26.512  29.658  1.00  0.00    -0.203 F 
ATOM     70  F   UNL A   1      42.146  28.130  25.525  1.00  0.00    -0.200 F 
ATOM     71  C   UNL A   1      40.723  26.512  26.489  1.00  0.00     0.200 A 
ATOM     72  F   UNL A   1      39.284  24.928  27.487  1.00  0.00    -0.200 F 
ATOM     73  F   UNL A   1      40.859  25.728  25.409  1.00  0.00    -0.200 F 
ENDBRANCH  49  63
BRANCH  50  74
ATOM     74  C   UNL A   1      39.591  33.965  36.834  1.00  0.00     0.064 A 
ATOM     75  C   UNL A   1      38.810  33.585  37.933  1.00  0.00     0.173 A 
ATOM     76  C   UNL A   1      40.282  35.184  36.913  1.00  0.00     0.173 A 
ATOM     77  F   UNL A   1      38.113  32.440  37.895  1.00  0.00    -0.203 F 
ATOM     78  C   UNL A   1      38.722  34.393  39.065  1.00  0.00     0.198 A 
ATOM     79  C   UNL A   1      40.218  35.975  38.056  1.00  0.00     0.198 A 
ATOM     80  F   UNL A   1      41.044  35.591  35.886  1.00  0.00    -0.203 F 
ATOM     81  F   UNL A   1      37.943  34.022  40.090  1.00  0.00    -0.200 F 
ATOM     82  C   UNL A   1      39.433  35.582  39.129  1.00  0.00     0.200 A 
ATOM     83  F   UNL A   1      40.921  37.114  38.121  1.00  0.00    -0.200 F 
ATOM     84  F   UNL A   1      39.361  36.349  40.226  1.00  0.00    -0.200 F 
ENDBRANCH  50  74
BRANCH  62  85
ATOM     85  C   UNL A   1      43.666  28.554  35.182  1.00  0.00     0.064 A 
ATOM     86  C   UNL A   1      45.014  28.915  35.043  1.00  0.00     0.173 A 
ATOM     87  C   UNL A   1      43.350  27.525  36.083  1.00  0.00     0.173 A 
ATOM     88  F   UNL A   1      45.368  29.883  34.184  1.00  0.00    -0.203 F 
ATOM     89  C   UNL A   1      46.009  28.256  35.761  1.00  0.00     0.198 A 
ATOM     90  C   UNL A   1      44.345  26.891  36.822  1.00  0.00     0.198 A 
ATOM     91  F   UNL A   1      42.075  27.147  36.258  1.00  0.00    -0.203 F 
ATOM     92  F   UNL A   1      47.295  28.588  35.579  1.00  0.00    -0.200 F 
ATOM     93  C   UNL A   1      45.673  27.252  36.656  1.00  0.00     0.200 A 
ATOM     94  F   UNL A   1      44.016  25.930  37.697  1.00  0.00    -0.200 F 
ATOM     95  F   UNL A   1      46.630  26.627  37.354  1.00  0.00    -0.200 F 
ENDBRANCH  62  85
ENDBRANCH  36  37
ENDBRANCH  28  31
ENDBRANCH  26  27
ENDBRANCH   1  26
TORSDOF 12
ENDMDL
MODEL 3
REMARK VINA RESULT:     -13.2      6.223     11.385
REMARK SMILES Cc1cc2nc(C(F)(F)F)c(=O)n([C@H](C)C(=O)NCCCNC(=O)c3ccc(-c4c5nc(c(-c6c(F)c(F)c(F)c(F)c6F)c6ccc([nH]6)c(-c6c(F)c(F)c(F)c(F)c6F)c6nc(c(-c7c(F)c(F)c(F)c(F)c7F)c7ccc4[nH]7)C=C6)C=C5)cc3)c2cc1C
REMARK SMILES IDX 20 1 19 2 18 3 16 4 17 5 14 7 15 8 13 9 1 10 2 11 3 12 90 13
REMARK SMILES IDX 4 14 89 15 91 16 5 17 88 18 6 19 11 20 12 21 7 22 8 23 9 24
REMARK SMILES IDX 10 25 21 26 22 27 23 28 24 30 25 31 26 32 87 33 27 34 86 35
REMARK SMILES IDX 28 36 29 37 30 38 80 39 31 40 85 41 79 42 81 43 32 44 84 45
REMARK SMILES IDX 78 46 77 47 33 49 65 50 45 51 64 52 46 53 49 54 63 55 82 56
REMARK SMILES IDX 47 57 48 58 62 60 83 61 50 62 34 63 35 64 43 65 36 66 37 67
REMARK SMILES IDX 41 68 44 69 38 70 39 71 42 72 40 73 66 74 67 75 75 76 68 77
REMARK SMILES IDX 69 78 73 79 76 80 70 81 71 82 74 83 72 84 51 85 52 86 60 87
REMARK SMILES IDX 53 88 54 89 58 90 61 91 55 92 56 93 59 94 57 95
REMARK H PARENT 18 6 22 29 81 48 49 59
REMARK Flexibility Score: inf
ROOT
ATOM      1  C   UNL A   1      38.380  19.611  24.727  1.00  0.00     0.042 C 
ENDROOT
BRANCH   1   2
ATOM      2  C   UNL A   1      37.014  20.225  25.002  1.00  0.00     0.117 C 
BRANCH   2   3
ATOM      3  N   UNL A   1      37.106  21.589  25.487  1.00  0.00    -0.354 N 
ATOM      4  C   UNL A   1      36.183  22.386  26.105  1.00  0.00     0.242 C 
ATOM      5  O   UNL A   1      36.462  23.583  26.226  1.00  0.00    -0.273 OA
ATOM      6  H   UNL A   1      37.983  22.015  25.347  1.00  0.00     0.163 HD
BRANCH   4   7
ATOM      7  C   UNL A   1      34.756  21.874  26.427  1.00  0.00     0.177 C 
ATOM      8  C   UNL A   1      34.222  22.951  27.405  1.00  0.00     0.042 C 
BRANCH   7   9
ATOM      9  N   UNL A   1      33.911  21.602  25.233  1.00  0.00    -0.293 N 
ATOM     10  C   UNL A   1      32.383  25.574  21.354  1.00  0.00     0.044 C 
ATOM     11  C   UNL A   1      32.688  24.596  22.451  1.00  0.00    -0.046 A 
ATOM     12  C   UNL A   1      32.426  23.236  22.233  1.00  0.00     0.034 A 
ATOM     13  C   UNL A   1      33.290  24.978  23.657  1.00  0.00    -0.046 A 
ATOM     14  C   UNL A   1      32.798  22.258  23.162  1.00  0.00     0.088 A 
ATOM     15  C   UNL A   1      33.589  23.996  24.615  1.00  0.00     0.032 A 
ATOM     16  C   UNL A   1      33.655  26.408  23.955  1.00  0.00     0.044 C 
ATOM     17  N   UNL A   1      32.533  20.926  22.829  1.00  0.00    -0.236 NA
ATOM     18  C   UNL A   1      33.445  22.631  24.350  1.00  0.00     0.071 A 
ATOM     19  C   UNL A   1      32.783  20.007  23.719  1.00  0.00     0.210 A 
ATOM     20  C   UNL A   1      33.327  20.333  25.090  1.00  0.00     0.282 A 
ATOM     21  O   UNL A   1      33.286  19.475  25.959  1.00  0.00    -0.267 OA
BRANCH  19  22
ATOM     22  C   UNL A   1      32.556  18.546  23.432  1.00  0.00     0.438 C 
ATOM     23  F   UNL A   1      31.992  18.340  22.210  1.00  0.00    -0.164 F 
ATOM     24  F   UNL A   1      33.732  17.848  23.420  1.00  0.00    -0.164 F 
ATOM     25  F   UNL A   1      31.778  17.900  24.342  1.00  0.00    -0.164 F 
ENDBRANCH  19  22
ENDBRANCH   7   9
ENDBRANCH   4   7
ENDBRANCH   2   3
ENDBRANCH   1   2
BRANCH   1  26
ATOM     26  C   UNL A   1      39.418  19.886  25.805  1.00  0.00     0.118 C 
BRANCH  26  27
ATOM     27  N   UNL A   1      40.428  18.840  25.906  1.00  0.00    -0.352 N 
ATOM     28  C   UNL A   1      41.784  18.938  26.104  1.00  0.00     0.251 C 
ATOM     29  H   UNL A   1      40.085  17.921  25.819  1.00  0.00     0.163 HD
ATOM     30  O   UNL A   1      42.496  17.945  26.000  1.00  0.00    -0.269 OA
BRANCH  28  31
ATOM     31  C   UNL A   1      42.392  20.252  26.403  1.00  0.00     0.039 A 
ATOM     32  C   UNL A   1      42.335  20.790  27.690  1.00  0.00     0.014 A 
ATOM     33  C   UNL A   1      43.005  20.968  25.371  1.00  0.00     0.014 A 
ATOM     34  C   UNL A   1      42.707  22.111  27.900  1.00  0.00     0.010 A 
ATOM     35  C   UNL A   1      43.469  22.263  25.608  1.00  0.00     0.010 A 
ATOM     36  C   UNL A   1      43.272  22.867  26.860  1.00  0.00    -0.014 A 
BRANCH  36  37
ATOM     37  C   UNL A   1      43.630  24.289  27.092  1.00  0.00     0.031 A 
ATOM     38  C   UNL A   1      45.016  24.788  26.782  1.00  0.00     0.074 A 
ATOM     39  C   UNL A   1      42.691  25.144  27.542  1.00  0.00     0.049 A 
ATOM     40  N   UNL A   1      45.525  25.981  26.963  1.00  0.00    -0.248 NA
ATOM     41  C   UNL A   1      45.957  23.821  26.194  1.00  0.00     0.031 C 
ATOM     42  C   UNL A   1      41.305  24.787  27.848  1.00  0.00     0.029 A 
ATOM     43  N   UNL A   1      42.754  26.489  27.803  1.00  0.00    -0.354 N 
ATOM     44  C   UNL A   1      46.844  25.902  26.533  1.00  0.00     0.074 A 
ATOM     45  C   UNL A   1      47.069  24.538  26.108  1.00  0.00     0.031 C 
ATOM     46  C   UNL A   1      40.638  25.891  28.211  1.00  0.00     0.029 A 
ATOM     47  C   UNL A   1      41.564  27.018  28.237  1.00  0.00     0.049 A 
ATOM     48  H   UNL A   1      43.573  27.024  27.690  1.00  0.00     0.167 HD
ATOM     49  C   UNL A   1      47.777  26.883  26.487  1.00  0.00     0.037 A 
ATOM     50  C   UNL A   1      41.257  28.266  28.636  1.00  0.00     0.037 A 
ATOM     51  C   UNL A   1      47.542  28.246  26.890  1.00  0.00     0.049 A 
ATOM     52  C   UNL A   1      42.327  29.319  28.635  1.00  0.00     0.074 A 
ATOM     53  C   UNL A   1      48.421  29.315  26.872  1.00  0.00     0.029 A 
ATOM     54  N   UNL A   1      46.337  28.729  27.382  1.00  0.00    -0.354 N 
ATOM     55  N   UNL A   1      43.575  29.229  28.241  1.00  0.00    -0.248 NA
ATOM     56  C   UNL A   1      41.952  30.644  29.143  1.00  0.00     0.031 C 
ATOM     57  C   UNL A   1      47.762  30.433  27.393  1.00  0.00     0.029 A 
ATOM     58  C   UNL A   1      46.457  30.075  27.688  1.00  0.00     0.049 A 
ATOM     59  H   UNL A   1      45.518  28.194  27.496  1.00  0.00     0.167 HD
ATOM     60  C   UNL A   1      44.129  30.484  28.442  1.00  0.00     0.074 A 
ATOM     61  C   UNL A   1      43.075  31.326  28.970  1.00  0.00     0.031 C 
ATOM     62  C   UNL A   1      45.399  30.900  28.216  1.00  0.00     0.037 A 
BRANCH  49  63
ATOM     63  C   UNL A   1      49.149  26.526  25.991  1.00  0.00     0.064 A 
ATOM     64  C   UNL A   1      49.552  26.802  24.676  1.00  0.00     0.173 A 
ATOM     65  C   UNL A   1      50.097  25.966  26.862  1.00  0.00     0.173 A 
ATOM     66  F   UNL A   1      48.682  27.325  23.799  1.00  0.00    -0.203 F 
ATOM     67  C   UNL A   1      50.847  26.517  24.248  1.00  0.00     0.198 A 
ATOM     68  C   UNL A   1      51.397  25.708  26.440  1.00  0.00     0.198 A 
ATOM     69  F   UNL A   1      49.765  25.687  28.133  1.00  0.00    -0.203 F 
ATOM     70  F   UNL A   1      51.199  26.758  22.978  1.00  0.00    -0.200 F 
ATOM     71  C   UNL A   1      51.771  25.981  25.133  1.00  0.00     0.200 A 
ATOM     72  F   UNL A   1      52.293  25.203  27.300  1.00  0.00    -0.200 F 
ATOM     73  F   UNL A   1      53.021  25.723  24.723  1.00  0.00    -0.200 F 
ENDBRANCH  49  63
BRANCH  50  74
ATOM     74  C   UNL A   1      39.872  28.575  29.076  1.00  0.00     0.064 A 
ATOM     75  C   UNL A   1      38.925  29.075  28.173  1.00  0.00     0.173 A 
ATOM     76  C   UNL A   1      39.459  28.348  30.399  1.00  0.00     0.173 A 
ATOM     77  F   UNL A   1      39.279  29.328  26.905  1.00  0.00    -0.203 F 
ATOM     78  C   UNL A   1      37.618  29.341  28.577  1.00  0.00     0.198 A 
ATOM     79  C   UNL A   1      38.145  28.586  30.793  1.00  0.00     0.198 A 
ATOM     80  F   UNL A   1      40.328  27.868  31.301  1.00  0.00    -0.203 F 
ATOM     81  F   UNL A   1      36.741  29.850  27.701  1.00  0.00    -0.200 F 
ATOM     82  C   UNL A   1      37.227  29.088  29.883  1.00  0.00     0.200 A 
ATOM     83  F   UNL A   1      37.767  28.322  32.051  1.00  0.00    -0.200 F 
ATOM     84  F   UNL A   1      35.965  29.328  30.265  1.00  0.00    -0.200 F 
ENDBRANCH  50  74
BRANCH  62  85
ATOM     85  C   UNL A   1      45.718  32.333  28.521  1.00  0.00     0.064 A 
ATOM     86  C   UNL A   1      46.232  32.720  29.767  1.00  0.00     0.173 A 
ATOM     87  C   UNL A   1      45.555  33.325  27.541  1.00  0.00     0.173 A 
ATOM     88  F   UNL A   1      46.392  31.812  30.742  1.00  0.00    -0.203 F 
ATOM     89  C   UNL A   1      46.550  34.050  30.029  1.00  0.00     0.198 A 
ATOM     90  C   UNL A   1      45.904  34.648  27.797  1.00  0.00     0.198 A 
ATOM     91  F   UNL A   1      45.075  33.006  26.331  1.00  0.00    -0.203 F 
ATOM     92  F   UNL A   1      46.998  34.404  31.243  1.00  0.00    -0.200 F 
ATOM     93  C   UNL A   1      46.394  35.010  29.042  1.00  0.00     0.200 A 
ATOM     94  F   UNL A   1      45.766  35.572  26.836  1.00  0.00    -0.200 F 
ATOM     95  F   UNL A   1      46.711  36.288  29.292  1.00  0.00    -0.200 F 
ENDBRANCH  62  85
ENDBRANCH  36  37
ENDBRANCH  28  31
ENDBRANCH  26  27
ENDBRANCH   1  26
TORSDOF 12
ENDMDL
