MODEL 1
REMARK VINA RESULT:     -14.4      0.000      0.000
REMARK SMILES C[C@H](C(=O)NCCCNC(=O)c1ccc(-c2c3nc(c(-c4c(F)c(F)c(F)c(F)c4F)c4ccc([nH]4)c(-c4c(F)c(F)c(F)c(F)c4F)c4nc(c(-c5c(F)c(F)c(F)c(F)c5F)c5ccc2[nH]5)C=C4)C=C3)cc1)c1ccc2c3cc(Cl)ccc3n(C(=O)c3ccc(Cl)cc3)c2c1
REMARK SMILES IDX 6 1 5 2 3 3 4 4 2 6 1 7 75 8 76 9 97 10 77 11 96 12 78 13
REMARK SMILES IDX 86 14 79 15 85 16 80 17 84 18 81 19 83 20 82 21 87 22 88 23
REMARK SMILES IDX 89 24 90 25 95 26 91 27 94 28 92 29 93 30 7 31 8 32 9 33
REMARK SMILES IDX 10 34 11 36 12 37 13 38 74 39 14 40 73 41 15 42 16 43 17 44
REMARK SMILES IDX 67 45 18 46 72 47 66 48 68 49 19 50 71 51 65 52 64 53 20 55
REMARK SMILES IDX 52 56 32 57 51 58 33 59 36 60 50 61 69 62 34 63 35 64 49 66
REMARK SMILES IDX 70 67 37 68 21 69 22 70 30 71 23 72 24 73 28 74 31 75 25 76
REMARK SMILES IDX 26 77 29 78 27 79 53 80 54 81 62 82 55 83 56 84 60 85 63 86
REMARK SMILES IDX 57 87 58 88 61 89 59 90 38 91 39 92 47 93 40 94 41 95 45 96
REMARK SMILES IDX 48 97 42 98 43 99 46 100 44 101
REMARK H PARENT 5 5 9 35 68 54 36 65
REMARK Flexibility Score: inf
ROOT
ATOM      1  C   UNL A   1      31.854  30.114  26.240  1.00  0.00     0.117 C 
ENDROOT
BRANCH   1   2
ATOM      2  N   UNL A   1      31.443  29.743  24.894  1.00  0.00    -0.356 N 
ATOM      3  C   UNL A   1      31.153  28.517  24.356  1.00  0.00     0.227 C 
ATOM      4  O   UNL A   1      30.876  28.491  23.154  1.00  0.00    -0.274 OA
ATOM      5  H   UNL A   1      31.360  30.497  24.268  1.00  0.00     0.163 HD
BRANCH   3   6
ATOM      6  C   UNL A   1      31.152  27.253  25.239  1.00  0.00     0.105 C 
ATOM      7  C   UNL A   1      29.953  26.328  24.984  1.00  0.00     0.023 C 
BRANCH   6   8
ATOM      8  C   UNL A   1      32.458  26.485  25.114  1.00  0.00    -0.034 A 
ATOM      9  C   UNL A   1      33.653  26.998  25.614  1.00  0.00     0.005 A 
ATOM     10  C   UNL A   1      32.424  25.187  24.582  1.00  0.00     0.032 A 
ATOM     11  C   UNL A   1      34.781  26.180  25.709  1.00  0.00     0.011 A 
ATOM     12  C   UNL A   1      33.540  24.343  24.729  1.00  0.00     0.057 A 
ATOM     13  C   UNL A   1      34.708  24.827  25.308  1.00  0.00     0.008 A 
ATOM     14  N   UNL A   1      33.708  22.967  24.461  1.00  0.00    -0.276 N 
ATOM     15  C   UNL A   1      35.634  23.759  25.339  1.00  0.00     0.009 A 
ATOM     16  C   UNL A   1      35.063  22.666  24.670  1.00  0.00     0.057 A 
ATOM     17  C   UNL A   1      36.946  23.677  25.843  1.00  0.00     0.031 A 
ATOM     18  C   UNL A   1      35.862  21.556  24.334  1.00  0.00     0.029 A 
ATOM     19  C   UNL A   1      37.703  22.546  25.571  1.00  0.00     0.041 A 
ATOM     20  C   UNL A   1      37.188  21.519  24.793  1.00  0.00     0.023 A 
ATOM     21  Cl  UNL A   1      39.302  22.446  26.180  1.00  0.00    -0.084 Cl
BRANCH  14  22
ATOM     22  C   UNL A   1      32.630  22.114  24.079  1.00  0.00     0.262 C 
ATOM     23  O   UNL A   1      31.599  22.675  23.698  1.00  0.00    -0.268 OA
BRANCH  22  24
ATOM     24  C   UNL A   1      32.484  20.636  24.116  1.00  0.00     0.040 A 
ATOM     25  C   UNL A   1      32.709  20.026  25.370  1.00  0.00     0.015 A 
ATOM     26  C   UNL A   1      32.370  19.820  22.987  1.00  0.00     0.015 A 
ATOM     27  C   UNL A   1      32.829  18.643  25.498  1.00  0.00     0.021 A 
ATOM     28  C   UNL A   1      32.459  18.424  23.122  1.00  0.00     0.021 A 
ATOM     29  C   UNL A   1      32.705  17.845  24.369  1.00  0.00     0.041 A 
ATOM     30  Cl  UNL A   1      32.903  16.143  24.510  1.00  0.00    -0.084 Cl
ENDBRANCH  22  24
ENDBRANCH  14  22
ENDBRANCH   6   8
ENDBRANCH   3   6
ENDBRANCH   1   2
BRANCH   1  31
ATOM     31  C   UNL A   1      31.604  31.592  26.537  1.00  0.00     0.042 C 
BRANCH  31  32
ATOM     32  C   UNL A   1      32.756  32.289  27.251  1.00  0.00     0.118 C 
BRANCH  32  33
ATOM     33  N   UNL A   1      32.473  33.687  27.543  1.00  0.00    -0.352 N 
ATOM     34  C   UNL A   1      33.033  34.518  28.484  1.00  0.00     0.251 C 
ATOM     35  H   UNL A   1      31.775  34.098  26.983  1.00  0.00     0.163 HD
ATOM     36  O   UNL A   1      32.548  35.619  28.698  1.00  0.00    -0.269 OA
BRANCH  34  37
ATOM     37  C   UNL A   1      34.213  34.070  29.255  1.00  0.00     0.039 A 
ATOM     38  C   UNL A   1      34.022  33.280  30.393  1.00  0.00     0.014 A 
ATOM     39  C   UNL A   1      35.503  34.434  28.864  1.00  0.00     0.014 A 
ATOM     40  C   UNL A   1      35.128  32.794  31.097  1.00  0.00     0.010 A 
ATOM     41  C   UNL A   1      36.602  33.891  29.519  1.00  0.00     0.010 A 
ATOM     42  C   UNL A   1      36.426  33.066  30.643  1.00  0.00    -0.014 A 
BRANCH  42  43
ATOM     43  C   UNL A   1      37.633  32.532  31.326  1.00  0.00     0.031 A 
ATOM     44  C   UNL A   1      38.390  31.394  30.700  1.00  0.00     0.074 A 
ATOM     45  C   UNL A   1      37.973  32.983  32.547  1.00  0.00     0.049 A 
ATOM     46  N   UNL A   1      39.341  30.649  31.205  1.00  0.00    -0.248 NA
ATOM     47  C   UNL A   1      37.994  31.020  29.335  1.00  0.00     0.031 C 
ATOM     48  C   UNL A   1      37.301  34.060  33.276  1.00  0.00     0.029 A 
ATOM     49  N   UNL A   1      38.956  32.563  33.409  1.00  0.00    -0.354 N 
ATOM     50  C   UNL A   1      39.628  29.697  30.235  1.00  0.00     0.074 A 
ATOM     51  C   UNL A   1      38.720  29.932  29.132  1.00  0.00     0.031 C 
ATOM     52  C   UNL A   1      37.890  34.217  34.474  1.00  0.00     0.029 A 
ATOM     53  C   UNL A   1      38.953  33.225  34.612  1.00  0.00     0.049 A 
ATOM     54  H   UNL A   1      39.603  31.856  33.185  1.00  0.00     0.167 HD
ATOM     55  C   UNL A   1      40.572  28.725  30.257  1.00  0.00     0.037 A 
ATOM     56  C   UNL A   1      39.706  33.035  35.712  1.00  0.00     0.037 A 
ATOM     57  C   UNL A   1      41.481  28.513  31.352  1.00  0.00     0.049 A 
ATOM     58  C   UNL A   1      40.733  31.938  35.724  1.00  0.00     0.074 A 
ATOM     59  C   UNL A   1      42.511  27.596  31.454  1.00  0.00     0.029 A 
ATOM     60  N   UNL A   1      41.460  29.225  32.543  1.00  0.00    -0.354 N 
ATOM     61  N   UNL A   1      41.025  31.067  34.790  1.00  0.00    -0.248 NA
ATOM     62  C   UNL A   1      41.533  31.798  36.949  1.00  0.00     0.031 C 
ATOM     63  C   UNL A   1      43.075  27.711  32.728  1.00  0.00     0.029 A 
ATOM     64  C   UNL A   1      42.444  28.750  33.396  1.00  0.00     0.049 A 
ATOM     65  H   UNL A   1      40.839  29.959  32.753  1.00  0.00     0.167 HD
ATOM     66  C   UNL A   1      42.060  30.294  35.299  1.00  0.00     0.074 A 
ATOM     67  C   UNL A   1      42.343  30.798  36.628  1.00  0.00     0.031 C 
ATOM     68  C   UNL A   1      42.721  29.267  34.712  1.00  0.00     0.037 A 
BRANCH  55  69
ATOM     69  C   UNL A   1      40.647  27.807  29.069  1.00  0.00     0.064 A 
ATOM     70  C   UNL A   1      41.529  28.042  28.002  1.00  0.00     0.173 A 
ATOM     71  C   UNL A   1      39.821  26.674  28.994  1.00  0.00     0.173 A 
ATOM     72  F   UNL A   1      42.337  29.113  28.017  1.00  0.00    -0.203 F 
ATOM     73  C   UNL A   1      41.542  27.210  26.884  1.00  0.00     0.198 A 
ATOM     74  C   UNL A   1      39.866  25.822  27.892  1.00  0.00     0.198 A 
ATOM     75  F   UNL A   1      38.966  26.392  29.988  1.00  0.00    -0.203 F 
ATOM     76  F   UNL A   1      42.339  27.501  25.846  1.00  0.00    -0.200 F 
ATOM     77  C   UNL A   1      40.715  26.099  26.832  1.00  0.00     0.200 A 
ATOM     78  F   UNL A   1      39.078  24.739  27.853  1.00  0.00    -0.200 F 
ATOM     79  F   UNL A   1      40.726  25.302  25.755  1.00  0.00    -0.200 F 
ENDBRANCH  55  69
BRANCH  56  80
ATOM     80  C   UNL A   1      39.521  33.908  36.896  1.00  0.00     0.064 A 
ATOM     81  C   UNL A   1      38.717  33.496  37.968  1.00  0.00     0.173 A 
ATOM     82  C   UNL A   1      40.125  35.168  36.974  1.00  0.00     0.173 A 
ATOM     83  F   UNL A   1      38.084  32.315  37.914  1.00  0.00    -0.203 F 
ATOM     84  C   UNL A   1      38.530  34.313  39.080  1.00  0.00     0.198 A 
ATOM     85  C   UNL A   1      39.932  35.987  38.086  1.00  0.00     0.198 A 
ATOM     86  F   UNL A   1      40.896  35.605  35.968  1.00  0.00    -0.203 F 
ATOM     87  F   UNL A   1      37.737  33.909  40.082  1.00  0.00    -0.200 F 
ATOM     88  C   UNL A   1      39.144  35.555  39.142  1.00  0.00     0.200 A 
ATOM     89  F   UNL A   1      40.491  37.203  38.130  1.00  0.00    -0.200 F 
ATOM     90  F   UNL A   1      38.967  36.340  40.214  1.00  0.00    -0.200 F 
ENDBRANCH  56  80
BRANCH  68  91
ATOM     91  C   UNL A   1      43.859  28.647  35.470  1.00  0.00     0.064 A 
ATOM     92  C   UNL A   1      45.180  29.091  35.322  1.00  0.00     0.173 A 
ATOM     93  C   UNL A   1      43.602  27.645  36.420  1.00  0.00     0.173 A 
ATOM     94  F   UNL A   1      45.478  30.034  34.416  1.00  0.00    -0.203 F 
ATOM     95  C   UNL A   1      46.205  28.547  36.092  1.00  0.00     0.198 A 
ATOM     96  C   UNL A   1      44.625  27.127  37.208  1.00  0.00     0.198 A 
ATOM     97  F   UNL A   1      42.354  27.188  36.601  1.00  0.00    -0.203 F 
ATOM     98  F   UNL A   1      47.467  28.962  35.912  1.00  0.00    -0.200 F 
ATOM     99  C   UNL A   1      45.927  27.575  37.041  1.00  0.00     0.200 A 
ATOM    100  F   UNL A   1      44.349  26.198  38.135  1.00  0.00    -0.200 F 
ATOM    101  F   UNL A   1      46.912  27.069  37.795  1.00  0.00    -0.200 F 
ENDBRANCH  68  91
ENDBRANCH  42  43
ENDBRANCH  34  37
ENDBRANCH  32  33
ENDBRANCH  31  32
ENDBRANCH   1  31
TORSDOF 13
ENDMDL
MODEL 2
REMARK VINA RESULT:     -14.4      5.590     11.208
REMARK SMILES C[C@H](C(=O)NCCCNC(=O)c1ccc(-c2c3nc(c(-c4c(F)c(F)c(F)c(F)c4F)c4ccc([nH]4)c(-c4c(F)c(F)c(F)c(F)c4F)c4nc(c(-c5c(F)c(F)c(F)c(F)c5F)c5ccc2[nH]5)C=C4)C=C3)cc1)c1ccc2c3cc(Cl)ccc3n(C(=O)c3ccc(Cl)cc3)c2c1
REMARK SMILES IDX 6 1 5 2 3 3 4 4 2 6 1 7 75 8 76 9 97 10 77 11 96 12 78 13
REMARK SMILES IDX 86 14 79 15 85 16 80 17 84 18 81 19 83 20 82 21 87 22 88 23
REMARK SMILES IDX 89 24 90 25 95 26 91 27 94 28 92 29 93 30 7 31 8 32 9 33
REMARK SMILES IDX 10 34 11 36 12 37 13 38 74 39 14 40 73 41 15 42 16 43 17 44
REMARK SMILES IDX 67 45 18 46 72 47 66 48 68 49 19 50 71 51 65 52 64 53 20 55
REMARK SMILES IDX 52 56 32 57 51 58 33 59 36 60 50 61 69 62 34 63 35 64 49 66
REMARK SMILES IDX 70 67 37 68 21 69 22 70 30 71 23 72 24 73 28 74 31 75 25 76
REMARK SMILES IDX 26 77 29 78 27 79 53 80 54 81 62 82 55 83 56 84 60 85 63 86
REMARK SMILES IDX 57 87 58 88 61 89 59 90 38 91 39 92 47 93 40 94 41 95 45 96
REMARK SMILES IDX 48 97 42 98 43 99 46 100 44 101
REMARK H PARENT 5 5 9 35 68 54 36 65
REMARK Flexibility Score: inf
ROOT
ATOM      1  C   UNL A   1      36.735  21.024  24.871  1.00  0.00     0.117 C 
ENDROOT
BRANCH   1   2
ATOM      2  N   UNL A   1      35.407  20.587  25.278  1.00  0.00    -0.356 N 
ATOM      3  C   UNL A   1      34.171  21.106  24.997  1.00  0.00     0.227 C 
ATOM      4  O   UNL A   1      33.204  20.552  25.526  1.00  0.00    -0.274 OA
ATOM      5  H   UNL A   1      35.397  19.786  25.851  1.00  0.00     0.163 HD
BRANCH   3   6
ATOM      6  C   UNL A   1      34.024  22.305  24.040  1.00  0.00     0.105 C 
ATOM      7  C   UNL A   1      32.903  22.131  23.006  1.00  0.00     0.023 C 
BRANCH   6   8
ATOM      8  C   UNL A   1      33.851  23.609  24.804  1.00  0.00    -0.034 A 
ATOM      9  C   UNL A   1      34.856  24.104  25.632  1.00  0.00     0.005 A 
ATOM     10  C   UNL A   1      32.698  24.374  24.572  1.00  0.00     0.032 A 
ATOM     11  C   UNL A   1      34.779  25.409  26.125  1.00  0.00     0.011 A 
ATOM     12  C   UNL A   1      32.643  25.707  25.018  1.00  0.00     0.057 A 
ATOM     13  C   UNL A   1      33.686  26.232  25.773  1.00  0.00     0.008 A 
ATOM     14  N   UNL A   1      31.707  26.734  24.768  1.00  0.00    -0.276 N 
ATOM     15  C   UNL A   1      33.364  27.580  26.052  1.00  0.00     0.009 A 
ATOM     16  C   UNL A   1      32.071  27.830  25.566  1.00  0.00     0.057 A 
ATOM     17  C   UNL A   1      34.069  28.585  26.742  1.00  0.00     0.031 A 
ATOM     18  C   UNL A   1      31.403  29.015  25.930  1.00  0.00     0.029 A 
ATOM     19  C   UNL A   1      33.428  29.780  27.032  1.00  0.00     0.041 A 
ATOM     20  C   UNL A   1      32.103  29.980  26.672  1.00  0.00     0.023 A 
ATOM     21  Cl  UNL A   1      34.285  31.003  27.876  1.00  0.00    -0.084 Cl
BRANCH  14  22
ATOM     22  C   UNL A   1      30.636  26.597  23.836  1.00  0.00     0.262 C 
ATOM     23  O   UNL A   1      30.347  25.444  23.501  1.00  0.00    -0.268 OA
BRANCH  22  24
ATOM     24  C   UNL A   1      29.819  27.610  23.119  1.00  0.00     0.040 A 
ATOM     25  C   UNL A   1      30.541  28.571  22.376  1.00  0.00     0.015 A 
ATOM     26  C   UNL A   1      28.449  27.807  23.311  1.00  0.00     0.015 A 
ATOM     27  C   UNL A   1      29.922  29.702  21.848  1.00  0.00     0.021 A 
ATOM     28  C   UNL A   1      27.820  28.932  22.751  1.00  0.00     0.021 A 
ATOM     29  C   UNL A   1      28.559  29.880  22.039  1.00  0.00     0.041 A 
ATOM     30  Cl  UNL A   1      27.797  31.297  21.435  1.00  0.00    -0.084 Cl
ENDBRANCH  22  24
ENDBRANCH  14  22
ENDBRANCH   6   8
ENDBRANCH   3   6
ENDBRANCH   1   2
BRANCH   1  31
ATOM     31  C   UNL A   1      37.777  19.915  25.001  1.00  0.00     0.042 C 
BRANCH  31  32
ATOM     32  C   UNL A   1      39.045  20.332  25.736  1.00  0.00     0.118 C 
BRANCH  32  33
ATOM     33  N   UNL A   1      40.021  19.255  25.829  1.00  0.00    -0.352 N 
ATOM     34  C   UNL A   1      41.382  19.318  26.017  1.00  0.00     0.251 C 
ATOM     35  H   UNL A   1      39.650  18.346  25.745  1.00  0.00     0.163 HD
ATOM     36  O   UNL A   1      42.065  18.311  25.899  1.00  0.00    -0.269 OA
BRANCH  34  37
ATOM     37  C   UNL A   1      42.024  20.610  26.340  1.00  0.00     0.039 A 
ATOM     38  C   UNL A   1      42.391  21.466  25.297  1.00  0.00     0.014 A 
ATOM     39  C   UNL A   1      42.270  20.975  27.665  1.00  0.00     0.014 A 
ATOM     40  C   UNL A   1      42.940  22.720  25.585  1.00  0.00     0.010 A 
ATOM     41  C   UNL A   1      42.746  22.249  27.953  1.00  0.00     0.010 A 
ATOM     42  C   UNL A   1      43.087  23.134  26.916  1.00  0.00    -0.014 A 
BRANCH  42  43
ATOM     43  C   UNL A   1      43.618  24.474  27.275  1.00  0.00     0.031 A 
ATOM     44  C   UNL A   1      42.679  25.518  27.814  1.00  0.00     0.074 A 
ATOM     45  C   UNL A   1      44.899  24.787  27.009  1.00  0.00     0.049 A 
ATOM     46  N   UNL A   1      42.878  26.798  28.005  1.00  0.00    -0.248 NA
ATOM     47  C   UNL A   1      41.320  25.065  28.143  1.00  0.00     0.031 C 
ATOM     48  C   UNL A   1      45.902  23.875  26.458  1.00  0.00     0.029 A 
ATOM     49  N   UNL A   1      45.570  25.979  27.137  1.00  0.00    -0.354 N 
ATOM     50  C   UNL A   1      41.661  27.307  28.439  1.00  0.00     0.074 A 
ATOM     51  C   UNL A   1      40.720  26.207  28.439  1.00  0.00     0.031 C 
ATOM     52  C   UNL A   1      47.060  24.538  26.295  1.00  0.00     0.029 A 
ATOM     53  C   UNL A   1      46.868  25.930  26.691  1.00  0.00     0.049 A 
ATOM     54  H   UNL A   1      45.159  26.790  27.514  1.00  0.00     0.167 HD
ATOM     55  C   UNL A   1      41.360  28.573  28.817  1.00  0.00     0.037 A 
ATOM     56  C   UNL A   1      47.789  26.906  26.590  1.00  0.00     0.037 A 
ATOM     57  C   UNL A   1      42.309  29.655  28.829  1.00  0.00     0.049 A 
ATOM     58  C   UNL A   1      47.430  28.308  26.994  1.00  0.00     0.074 A 
ATOM     59  C   UNL A   1      42.125  30.960  29.247  1.00  0.00     0.029 A 
ATOM     60  N   UNL A   1      43.623  29.555  28.394  1.00  0.00    -0.354 N 
ATOM     61  N   UNL A   1      46.290  28.774  27.439  1.00  0.00    -0.248 NA
ATOM     62  C   UNL A   1      48.489  29.320  26.876  1.00  0.00     0.031 C 
ATOM     63  C   UNL A   1      43.308  31.667  29.008  1.00  0.00     0.029 A 
ATOM     64  C   UNL A   1      44.254  30.784  28.509  1.00  0.00     0.049 A 
ATOM     65  H   UNL A   1      44.046  28.735  28.053  1.00  0.00     0.167 HD
ATOM     66  C   UNL A   1      46.499  30.125  27.684  1.00  0.00     0.074 A 
ATOM     67  C   UNL A   1      47.877  30.404  27.332  1.00  0.00     0.031 C 
ATOM     68  C   UNL A   1      45.629  31.046  28.164  1.00  0.00     0.037 A 
BRANCH  55  69
ATOM     69  C   UNL A   1      39.940  28.855  29.222  1.00  0.00     0.064 A 
ATOM     70  C   UNL A   1      39.505  28.719  30.550  1.00  0.00     0.173 A 
ATOM     71  C   UNL A   1      38.997  29.266  28.267  1.00  0.00     0.173 A 
ATOM     72  F   UNL A   1      40.361  28.322  31.504  1.00  0.00    -0.203 F 
ATOM     73  C   UNL A   1      38.171  28.929  30.895  1.00  0.00     0.198 A 
ATOM     74  C   UNL A   1      37.673  29.515  28.623  1.00  0.00     0.198 A 
ATOM     75  F   UNL A   1      39.357  29.424  26.984  1.00  0.00    -0.203 F 
ATOM     76  F   UNL A   1      37.766  28.718  32.155  1.00  0.00    -0.200 F 
ATOM     77  C   UNL A   1      37.258  29.332  29.932  1.00  0.00     0.200 A 
ATOM     78  F   UNL A   1      36.797  29.921  27.694  1.00  0.00    -0.200 F 
ATOM     79  F   UNL A   1      35.975  29.531  30.264  1.00  0.00    -0.200 F 
ENDBRANCH  55  69
BRANCH  56  80
ATOM     80  C   UNL A   1      49.149  26.591  26.087  1.00  0.00     0.064 A 
ATOM     81  C   UNL A   1      49.482  26.812  24.745  1.00  0.00     0.173 A 
ATOM     82  C   UNL A   1      50.130  26.053  26.928  1.00  0.00     0.173 A 
ATOM     83  F   UNL A   1      48.559  27.284  23.895  1.00  0.00    -0.203 F 
ATOM     84  C   UNL A   1      50.753  26.510  24.262  1.00  0.00     0.198 A 
ATOM     85  C   UNL A   1      51.401  25.747  26.442  1.00  0.00     0.198 A 
ATOM     86  F   UNL A   1      49.852  25.820  28.219  1.00  0.00    -0.203 F 
ATOM     87  F   UNL A   1      51.041  26.706  22.968  1.00  0.00    -0.200 F 
ATOM     88  C   UNL A   1      51.715  25.986  25.113  1.00  0.00     0.200 A 
ATOM     89  F   UNL A   1      52.317  25.203  27.252  1.00  0.00    -0.200 F 
ATOM     90  F   UNL A   1      52.939  25.699  24.649  1.00  0.00    -0.200 F 
ENDBRANCH  56  80
BRANCH  68  91
ATOM     91  C   UNL A   1      46.145  32.435  28.400  1.00  0.00     0.064 A 
ATOM     92  C   UNL A   1      46.056  33.437  27.424  1.00  0.00     0.173 A 
ATOM     93  C   UNL A   1      46.666  32.784  29.657  1.00  0.00     0.173 A 
ATOM     94  F   UNL A   1      45.582  33.150  26.203  1.00  0.00    -0.203 F 
ATOM     95  C   UNL A   1      46.477  34.737  27.696  1.00  0.00     0.198 A 
ATOM     96  C   UNL A   1      47.057  34.090  29.933  1.00  0.00     0.198 A 
ATOM     97  F   UNL A   1      46.770  31.861  30.625  1.00  0.00    -0.203 F 
ATOM     98  F   UNL A   1      46.413  35.673  26.739  1.00  0.00    -0.200 F 
ATOM     99  C   UNL A   1      46.966  35.065  28.952  1.00  0.00     0.200 A 
ATOM    100  F   UNL A   1      47.514  34.406  31.153  1.00  0.00    -0.200 F 
ATOM    101  F   UNL A   1      47.350  36.321  29.216  1.00  0.00    -0.200 F 
ENDBRANCH  68  91
ENDBRANCH  42  43
ENDBRANCH  34  37
ENDBRANCH  32  33
ENDBRANCH  31  32
ENDBRANCH   1  31
TORSDOF 13
ENDMDL
MODEL 3
REMARK VINA RESULT:     -14.1      1.925      4.011
REMARK SMILES C[C@H](C(=O)NCCCNC(=O)c1ccc(-c2c3nc(c(-c4c(F)c(F)c(F)c(F)c4F)c4ccc([nH]4)c(-c4c(F)c(F)c(F)c(F)c4F)c4nc(c(-c5c(F)c(F)c(F)c(F)c5F)c5ccc2[nH]5)C=C4)C=C3)cc1)c1ccc2c3cc(Cl)ccc3n(C(=O)c3ccc(Cl)cc3)c2c1
REMARK SMILES IDX 6 1 5 2 3 3 4 4 2 6 1 7 75 8 76 9 97 10 77 11 96 12 78 13
REMARK SMILES IDX 86 14 79 15 85 16 80 17 84 18 81 19 83 20 82 21 87 22 88 23
REMARK SMILES IDX 89 24 90 25 95 26 91 27 94 28 92 29 93 30 7 31 8 32 9 33
REMARK SMILES IDX 10 34 11 36 12 37 13 38 74 39 14 40 73 41 15 42 16 43 17 44
REMARK SMILES IDX 67 45 18 46 72 47 66 48 68 49 19 50 71 51 65 52 64 53 20 55
REMARK SMILES IDX 52 56 32 57 51 58 33 59 36 60 50 61 69 62 34 63 35 64 49 66
REMARK SMILES IDX 70 67 37 68 21 69 22 70 30 71 23 72 24 73 28 74 31 75 25 76
REMARK SMILES IDX 26 77 29 78 27 79 53 80 54 81 62 82 55 83 56 84 60 85 63 86
REMARK SMILES IDX 57 87 58 88 61 89 59 90 38 91 39 92 47 93 40 94 41 95 45 96
REMARK SMILES IDX 48 97 42 98 43 99 46 100 44 101
REMARK H PARENT 5 5 9 35 68 54 36 65
REMARK Flexibility Score: inf
ROOT
ATOM      1  C   UNL A   1      33.738  27.147  23.638  1.00  0.00     0.117 C 
ENDROOT
BRANCH   1   2
ATOM      2  N   UNL A   1      32.452  26.652  23.170  1.00  0.00    -0.356 N 
ATOM      3  C   UNL A   1      31.520  25.862  23.789  1.00  0.00     0.227 C 
ATOM      4  O   UNL A   1      30.527  25.552  23.126  1.00  0.00    -0.274 OA
ATOM      5  H   UNL A   1      32.213  26.931  22.256  1.00  0.00     0.163 HD
BRANCH   3   6
ATOM      6  C   UNL A   1      31.714  25.423  25.254  1.00  0.00     0.105 C 
ATOM      7  C   UNL A   1      30.519  25.755  26.158  1.00  0.00     0.023 C 
BRANCH   6   8
ATOM      8  C   UNL A   1      32.066  23.946  25.350  1.00  0.00    -0.034 A 
ATOM      9  C   UNL A   1      31.078  22.968  25.442  1.00  0.00     0.005 A 
ATOM     10  C   UNL A   1      33.413  23.570  25.230  1.00  0.00     0.032 A 
ATOM     11  C   UNL A   1      31.409  21.621  25.282  1.00  0.00     0.011 A 
ATOM     12  C   UNL A   1      33.742  22.219  25.011  1.00  0.00     0.057 A 
ATOM     13  C   UNL A   1      32.746  21.250  25.015  1.00  0.00     0.008 A 
ATOM     14  N   UNL A   1      34.968  21.603  24.680  1.00  0.00    -0.276 N 
ATOM     15  C   UNL A   1      33.369  20.008  24.750  1.00  0.00     0.009 A 
ATOM     16  C   UNL A   1      34.756  20.216  24.705  1.00  0.00     0.057 A 
ATOM     17  C   UNL A   1      32.840  18.711  24.606  1.00  0.00     0.031 A 
ATOM     18  C   UNL A   1      35.629  19.111  24.707  1.00  0.00     0.029 A 
ATOM     19  C   UNL A   1      33.709  17.633  24.533  1.00  0.00     0.041 A 
ATOM     20  C   UNL A   1      35.082  17.821  24.625  1.00  0.00     0.023 A 
ATOM     21  Cl  UNL A   1      33.067  16.053  24.361  1.00  0.00    -0.084 Cl
BRANCH  14  22
ATOM     22  C   UNL A   1      36.148  22.341  24.366  1.00  0.00     0.262 C 
ATOM     23  O   UNL A   1      36.184  22.863  23.247  1.00  0.00    -0.268 OA
BRANCH  22  24
ATOM     24  C   UNL A   1      37.407  22.555  25.126  1.00  0.00     0.040 A 
ATOM     25  C   UNL A   1      38.248  21.427  25.253  1.00  0.00     0.015 A 
ATOM     26  C   UNL A   1      37.693  23.691  25.887  1.00  0.00     0.015 A 
ATOM     27  C   UNL A   1      39.337  21.423  26.123  1.00  0.00     0.021 A 
ATOM     28  C   UNL A   1      38.810  23.697  26.740  1.00  0.00     0.021 A 
ATOM     29  C   UNL A   1      39.614  22.562  26.867  1.00  0.00     0.041 A 
ATOM     30  Cl  UNL A   1      40.925  22.548  27.980  1.00  0.00    -0.084 Cl
ENDBRANCH  22  24
ENDBRANCH  14  22
ENDBRANCH   6   8
ENDBRANCH   3   6
ENDBRANCH   1   2
BRANCH   1  31
ATOM     31  C   UNL A   1      33.676  28.611  24.069  1.00  0.00     0.042 C 
BRANCH  31  32
ATOM     32  C   UNL A   1      33.768  28.822  25.576  1.00  0.00     0.118 C 
BRANCH  32  33
ATOM     33  N   UNL A   1      33.093  30.035  26.015  1.00  0.00    -0.352 N 
ATOM     34  C   UNL A   1      33.434  30.916  27.015  1.00  0.00     0.251 C 
ATOM     35  H   UNL A   1      32.269  30.257  25.524  1.00  0.00     0.163 HD
ATOM     36  O   UNL A   1      32.652  31.792  27.354  1.00  0.00    -0.269 OA
BRANCH  34  37
ATOM     37  C   UNL A   1      34.740  30.790  27.696  1.00  0.00     0.039 A 
ATOM     38  C   UNL A   1      35.579  31.907  27.771  1.00  0.00     0.014 A 
ATOM     39  C   UNL A   1      35.142  29.573  28.252  1.00  0.00     0.014 A 
ATOM     40  C   UNL A   1      36.789  31.824  28.467  1.00  0.00     0.010 A 
ATOM     41  C   UNL A   1      36.309  29.512  29.006  1.00  0.00     0.010 A 
ATOM     42  C   UNL A   1      37.144  30.635  29.120  1.00  0.00    -0.014 A 
BRANCH  42  43
ATOM     43  C   UNL A   1      38.394  30.511  29.914  1.00  0.00     0.031 A 
ATOM     44  C   UNL A   1      39.556  29.744  29.344  1.00  0.00     0.074 A 
ATOM     45  C   UNL A   1      38.443  30.977  31.174  1.00  0.00     0.049 A 
ATOM     46  N   UNL A   1      40.657  29.344  29.928  1.00  0.00    -0.248 NA
ATOM     47  C   UNL A   1      39.440  29.339  27.935  1.00  0.00     0.031 C 
ATOM     48  C   UNL A   1      37.374  31.710  31.855  1.00  0.00     0.029 A 
ATOM     49  N   UNL A   1      39.429  30.873  32.125  1.00  0.00    -0.354 N 
ATOM     50  C   UNL A   1      41.345  28.610  28.970  1.00  0.00     0.074 A 
ATOM     51  C   UNL A   1      40.516  28.582  27.784  1.00  0.00     0.031 C 
ATOM     52  C   UNL A   1      37.760  31.989  33.111  1.00  0.00     0.029 A 
ATOM     53  C   UNL A   1      39.085  31.420  33.337  1.00  0.00     0.049 A 
ATOM     54  H   UNL A   1      40.300  30.447  31.953  1.00  0.00     0.167 HD
ATOM     55  C   UNL A   1      42.563  28.025  29.068  1.00  0.00     0.037 A 
ATOM     56  C   UNL A   1      39.755  31.435  34.505  1.00  0.00     0.037 A 
ATOM     57  C   UNL A   1      43.386  28.074  30.247  1.00  0.00     0.049 A 
ATOM     58  C   UNL A   1      41.095  30.762  34.598  1.00  0.00     0.074 A 
ATOM     59  C   UNL A   1      44.658  27.566  30.435  1.00  0.00     0.029 A 
ATOM     60  N   UNL A   1      43.010  28.663  31.447  1.00  0.00    -0.354 N 
ATOM     61  N   UNL A   1      41.757  30.103  33.680  1.00  0.00    -0.248 NA
ATOM     62  C   UNL A   1      41.779  30.834  35.897  1.00  0.00     0.031 C 
ATOM     63  C   UNL A   1      45.029  27.792  31.764  1.00  0.00     0.029 A 
ATOM     64  C   UNL A   1      44.017  28.507  32.387  1.00  0.00     0.049 A 
ATOM     65  H   UNL A   1      42.155  29.123  31.608  1.00  0.00     0.167 HD
ATOM     66  C   UNL A   1      42.946  29.707  34.276  1.00  0.00     0.074 A 
ATOM     67  C   UNL A   1      42.913  30.197  35.640  1.00  0.00     0.031 C 
ATOM     68  C   UNL A   1      43.974  29.008  33.737  1.00  0.00     0.037 A 
BRANCH  55  69
ATOM     69  C   UNL A   1      43.062  27.262  27.872  1.00  0.00     0.064 A 
ATOM     70  C   UNL A   1      42.725  25.916  27.656  1.00  0.00     0.173 A 
ATOM     71  C   UNL A   1      43.891  27.885  26.927  1.00  0.00     0.173 A 
ATOM     72  F   UNL A   1      41.941  25.267  28.530  1.00  0.00    -0.203 F 
ATOM     73  C   UNL A   1      43.244  25.210  26.572  1.00  0.00     0.198 A 
ATOM     74  C   UNL A   1      44.375  27.188  25.822  1.00  0.00     0.198 A 
ATOM     75  F   UNL A   1      44.237  29.174  27.074  1.00  0.00    -0.203 F 
ATOM     76  F   UNL A   1      42.969  23.906  26.432  1.00  0.00    -0.200 F 
ATOM     77  C   UNL A   1      44.064  25.848  25.655  1.00  0.00     0.200 A 
ATOM     78  F   UNL A   1      45.153  27.812  24.927  1.00  0.00    -0.200 F 
ATOM     79  F   UNL A   1      44.565  25.168  24.614  1.00  0.00    -0.200 F 
ENDBRANCH  55  69
BRANCH  56  80
ATOM     80  C   UNL A   1      39.170  32.118  35.684  1.00  0.00     0.064 A 
ATOM     81  C   UNL A   1      39.497  33.450  35.973  1.00  0.00     0.173 A 
ATOM     82  C   UNL A   1      38.292  31.455  36.550  1.00  0.00     0.173 A 
ATOM     83  F   UNL A   1      40.368  34.108  35.196  1.00  0.00    -0.203 F 
ATOM     84  C   UNL A   1      38.960  34.096  37.084  1.00  0.00     0.198 A 
ATOM     85  C   UNL A   1      37.759  32.101  37.664  1.00  0.00     0.198 A 
ATOM     86  F   UNL A   1      37.957  30.177  36.315  1.00  0.00    -0.203 F 
ATOM     87  F   UNL A   1      39.306  35.362  37.354  1.00  0.00    -0.200 F 
ATOM     88  C   UNL A   1      38.084  33.424  37.924  1.00  0.00     0.200 A 
ATOM     89  F   UNL A   1      36.946  31.442  38.499  1.00  0.00    -0.200 F 
ATOM     90  F   UNL A   1      37.565  34.047  38.991  1.00  0.00    -0.200 F 
ENDBRANCH  56  80
BRANCH  68  91
ATOM     91  C   UNL A   1      45.184  28.776  34.596  1.00  0.00     0.064 A 
ATOM     92  C   UNL A   1      46.234  29.701  34.667  1.00  0.00     0.173 A 
ATOM     93  C   UNL A   1      45.248  27.641  35.420  1.00  0.00     0.173 A 
ATOM     94  F   UNL A   1      46.227  30.792  33.887  1.00  0.00    -0.203 F 
ATOM     95  C   UNL A   1      47.309  29.494  35.528  1.00  0.00     0.198 A 
ATOM     96  C   UNL A   1      46.309  27.454  36.301  1.00  0.00     0.198 A 
ATOM     97  F   UNL A   1      44.266  26.727  35.391  1.00  0.00    -0.203 F 
ATOM     98  F   UNL A   1      48.320  30.374  35.558  1.00  0.00    -0.200 F 
ATOM     99  C   UNL A   1      47.341  28.378  36.351  1.00  0.00     0.200 A 
ATOM    100  F   UNL A   1      46.328  26.382  37.106  1.00  0.00    -0.200 F 
ATOM    101  F   UNL A   1      48.367  28.193  37.193  1.00  0.00    -0.200 F 
ENDBRANCH  68  91
ENDBRANCH  42  43
ENDBRANCH  34  37
ENDBRANCH  32  33
ENDBRANCH  31  32
ENDBRANCH   1  31
TORSDOF 13
ENDMDL
