MODEL 1
REMARK VINA RESULT:     -13.0      0.000      0.000
REMARK SMILES COc1ccccc1-n1cc(CN2C[C@H](C(=O)NCCCNC(=O)c3ccc(-c4c5nc(c(-c6c(F)c(F)c(F)c(F)c6F)c6ccc([nH]6)c(-c6c(F)c(F)c(F)c(F)c6F)c6nc(c(-c7c(F)c(F)c(F)c(F)c7F)c7ccc4[nH]7)C=C6)C=C5)cc3)CC2=O)cn1
REMARK SMILES IDX 19 1 18 2 16 3 17 4 15 6 13 7 14 8 89 9 88 10 90 11 12 12
REMARK SMILES IDX 11 13 9 14 10 15 92 16 91 17 8 18 3 19 4 20 5 21 7 22 6 23
REMARK SMILES IDX 2 24 1 25 20 26 21 27 22 28 23 29 24 31 25 32 26 33 87 34
REMARK SMILES IDX 27 35 86 36 28 37 29 38 30 39 80 40 31 41 85 42 79 43 81 44
REMARK SMILES IDX 32 45 84 46 78 47 77 48 33 50 65 51 45 52 64 53 46 54 49 55
REMARK SMILES IDX 63 56 82 57 47 58 48 59 62 61 83 62 50 63 34 64 35 65 43 66
REMARK SMILES IDX 36 67 37 68 41 69 44 70 38 71 39 72 42 73 40 74 66 75 67 76
REMARK SMILES IDX 75 77 68 78 69 79 73 80 76 81 70 82 71 83 74 84 72 85 51 86
REMARK SMILES IDX 52 87 60 88 53 89 54 90 58 91 61 92 55 93 56 94 59 95 57 96
REMARK H PARENT 18 5 22 30 81 49 49 60
REMARK Flexibility Score: inf
ROOT
ATOM      1  C   UNL A   1      32.527  29.516  24.978  1.00  0.00     0.117 C 
ENDROOT
BRANCH   1   2
ATOM      2  N   UNL A   1      33.179  28.273  24.591  1.00  0.00    -0.356 N 
ATOM      3  C   UNL A   1      32.793  27.136  23.967  1.00  0.00     0.225 C 
ATOM      4  O   UNL A   1      33.705  26.320  23.766  1.00  0.00    -0.275 OA
ATOM      5  H   UNL A   1      34.131  28.256  24.843  1.00  0.00     0.163 HD
BRANCH   3   6
ATOM      6  C   UNL A   1      31.388  26.797  23.462  1.00  0.00     0.107 C 
ATOM      7  N   UNL A   1      30.875  24.699  24.348  1.00  0.00    -0.337 N 
ATOM      8  C   UNL A   1      31.350  25.295  23.119  1.00  0.00     0.133 C 
ATOM      9  C   UNL A   1      30.311  25.651  25.188  1.00  0.00     0.223 C 
ATOM     10  C   UNL A   1      30.189  26.908  24.381  1.00  0.00     0.115 C 
ATOM     11  O   UNL A   1      29.955  25.531  26.335  1.00  0.00    -0.275 OA
BRANCH   7  12
ATOM     12  C   UNL A   1      31.027  23.292  24.667  1.00  0.00     0.158 C 
BRANCH  12  13
ATOM     13  C   UNL A   1      32.329  23.088  25.357  1.00  0.00     0.010 A 
ATOM     14  N   UNL A   1      34.450  22.730  25.888  1.00  0.00    -0.237 N 
ATOM     15  C   UNL A   1      33.584  22.871  24.825  1.00  0.00     0.120 A 
ATOM     16  N   UNL A   1      33.805  22.749  27.073  1.00  0.00    -0.176 NA
ATOM     17  C   UNL A   1      32.559  23.079  26.752  1.00  0.00     0.141 A 
BRANCH  14  18
ATOM     18  C   UNL A   1      35.853  22.690  25.876  1.00  0.00     0.106 A 
ATOM     19  C   UNL A   1      36.546  21.544  25.481  1.00  0.00     0.144 A 
ATOM     20  C   UNL A   1      37.943  21.569  25.467  1.00  0.00     0.049 A 
ATOM     21  C   UNL A   1      38.634  22.730  25.825  1.00  0.00     0.004 A 
ATOM     22  C   UNL A   1      36.543  23.867  26.206  1.00  0.00     0.032 A 
ATOM     23  C   UNL A   1      37.936  23.878  26.200  1.00  0.00     0.003 A 
BRANCH  19  24
ATOM     24  O   UNL A   1      35.949  20.382  25.068  1.00  0.00    -0.494 OA
ATOM     25  C   UNL A   1      36.896  19.325  24.864  1.00  0.00     0.278 C 
ENDBRANCH  19  24
ENDBRANCH  14  18
ENDBRANCH  12  13
ENDBRANCH   7  12
ENDBRANCH   3   6
ENDBRANCH   1   2
BRANCH   1  26
ATOM     26  C   UNL A   1      32.408  29.680  26.496  1.00  0.00     0.042 C 
BRANCH  26  27
ATOM     27  C   UNL A   1      33.747  29.911  27.181  1.00  0.00     0.118 C 
BRANCH  27  28
ATOM     28  N   UNL A   1      33.758  31.125  27.992  1.00  0.00    -0.352 N 
ATOM     29  C   UNL A   1      34.742  31.593  28.834  1.00  0.00     0.251 C 
ATOM     30  H   UNL A   1      32.952  31.685  27.929  1.00  0.00     0.163 HD
ATOM     31  O   UNL A   1      34.486  32.447  29.676  1.00  0.00    -0.269 OA
BRANCH  29  32
ATOM     32  C   UNL A   1      36.103  31.036  28.741  1.00  0.00     0.039 A 
ATOM     33  C   UNL A   1      37.209  31.862  28.962  1.00  0.00     0.014 A 
ATOM     34  C   UNL A   1      36.274  29.682  28.461  1.00  0.00     0.014 A 
ATOM     35  C   UNL A   1      38.481  31.297  29.000  1.00  0.00     0.010 A 
ATOM     36  C   UNL A   1      37.517  29.105  28.610  1.00  0.00     0.010 A 
ATOM     37  C   UNL A   1      38.629  29.909  28.860  1.00  0.00    -0.014 A 
BRANCH  37  38
ATOM     38  C   UNL A   1      39.928  29.287  29.117  1.00  0.00     0.031 A 
ATOM     39  C   UNL A   1      40.247  29.034  30.555  1.00  0.00     0.074 A 
ATOM     40  C   UNL A   1      40.707  28.763  28.147  1.00  0.00     0.049 A 
ATOM     41  N   UNL A   1      41.270  29.457  31.223  1.00  0.00    -0.248 NA
ATOM     42  C   UNL A   1      39.276  28.287  31.369  1.00  0.00     0.031 C 
ATOM     43  C   UNL A   1      40.416  28.659  26.716  1.00  0.00     0.029 A 
ATOM     44  N   UNL A   1      41.885  28.086  28.267  1.00  0.00    -0.354 N 
ATOM     45  C   UNL A   1      41.160  28.915  32.503  1.00  0.00     0.074 A 
ATOM     46  C   UNL A   1      39.853  28.314  32.572  1.00  0.00     0.031 C 
ATOM     47  C   UNL A   1      41.256  27.765  26.152  1.00  0.00     0.029 A 
ATOM     48  C   UNL A   1      42.232  27.347  27.142  1.00  0.00     0.049 A 
ATOM     49  H   UNL A   1      42.440  28.119  29.078  1.00  0.00     0.167 HD
ATOM     50  C   UNL A   1      42.237  28.845  33.336  1.00  0.00     0.037 A 
ATOM     51  C   UNL A   1      43.223  26.428  27.038  1.00  0.00     0.037 A 
ATOM     52  C   UNL A   1      43.291  29.723  32.893  1.00  0.00     0.049 A 
ATOM     53  C   UNL A   1      44.175  26.671  28.150  1.00  0.00     0.074 A 
ATOM     54  C   UNL A   1      43.385  31.083  32.666  1.00  0.00     0.029 A 
ATOM     55  N   UNL A   1      44.381  29.169  32.267  1.00  0.00    -0.354 N 
ATOM     56  N   UNL A   1      44.975  27.698  28.209  1.00  0.00    -0.248 NA
ATOM     57  C   UNL A   1      43.939  25.992  29.416  1.00  0.00     0.031 C 
ATOM     58  C   UNL A   1      44.211  31.205  31.510  1.00  0.00     0.029 A 
ATOM     59  C   UNL A   1      44.626  29.923  31.150  1.00  0.00     0.049 A 
ATOM     60  H   UNL A   1      44.890  28.380  32.565  1.00  0.00     0.167 HD
ATOM     61  C   UNL A   1      44.962  28.067  29.544  1.00  0.00     0.074 A 
ATOM     62  C   UNL A   1      44.411  26.917  30.255  1.00  0.00     0.031 C 
ATOM     63  C   UNL A   1      45.119  29.373  29.913  1.00  0.00     0.037 A 
BRANCH  50  64
ATOM     64  C   UNL A   1      42.495  27.747  34.345  1.00  0.00     0.064 A 
ATOM     65  C   UNL A   1      43.056  26.529  33.903  1.00  0.00     0.173 A 
ATOM     66  C   UNL A   1      41.930  27.716  35.637  1.00  0.00     0.173 A 
ATOM     67  F   UNL A   1      43.625  26.436  32.691  1.00  0.00    -0.203 F 
ATOM     68  C   UNL A   1      42.952  25.351  34.646  1.00  0.00     0.198 A 
ATOM     69  C   UNL A   1      41.877  26.549  36.400  1.00  0.00     0.198 A 
ATOM     70  F   UNL A   1      41.306  28.772  36.169  1.00  0.00    -0.203 F 
ATOM     71  F   UNL A   1      43.367  24.191  34.118  1.00  0.00    -0.200 F 
ATOM     72  C   UNL A   1      42.352  25.359  35.891  1.00  0.00     0.200 A 
ATOM     73  F   UNL A   1      41.281  26.576  37.601  1.00  0.00    -0.200 F 
ATOM     74  F   UNL A   1      42.183  24.220  36.574  1.00  0.00    -0.200 F 
ENDBRANCH  50  64
BRANCH  51  75
ATOM     75  C   UNL A   1      43.326  25.250  26.144  1.00  0.00     0.064 A 
ATOM     76  C   UNL A   1      44.456  25.052  25.332  1.00  0.00     0.173 A 
ATOM     77  C   UNL A   1      42.437  24.164  26.247  1.00  0.00     0.173 A 
ATOM     78  F   UNL A   1      45.378  26.017  25.208  1.00  0.00    -0.203 F 
ATOM     79  C   UNL A   1      44.694  23.834  24.687  1.00  0.00     0.198 A 
ATOM     80  C   UNL A   1      42.666  22.953  25.590  1.00  0.00     0.198 A 
ATOM     81  F   UNL A   1      41.371  24.218  27.059  1.00  0.00    -0.203 F 
ATOM     82  F   UNL A   1      45.817  23.664  23.977  1.00  0.00    -0.200 F 
ATOM     83  C   UNL A   1      43.802  22.783  24.823  1.00  0.00     0.200 A 
ATOM     84  F   UNL A   1      41.810  21.935  25.756  1.00  0.00    -0.200 F 
ATOM     85  F   UNL A   1      44.059  21.599  24.253  1.00  0.00    -0.200 F 
ENDBRANCH  51  75
BRANCH  63  86
ATOM     86  C   UNL A   1      45.597  30.352  28.878  1.00  0.00     0.064 A 
ATOM     87  C   UNL A   1      44.759  31.010  27.962  1.00  0.00     0.173 A 
ATOM     88  C   UNL A   1      46.944  30.743  28.913  1.00  0.00     0.173 A 
ATOM     89  F   UNL A   1      43.440  30.780  27.939  1.00  0.00    -0.203 F 
ATOM     90  C   UNL A   1      45.259  31.972  27.087  1.00  0.00     0.198 A 
ATOM     91  C   UNL A   1      47.430  31.736  28.069  1.00  0.00     0.198 A 
ATOM     92  F   UNL A   1      47.782  30.192  29.806  1.00  0.00    -0.203 F 
ATOM     93  F   UNL A   1      44.441  32.568  26.207  1.00  0.00    -0.200 F 
ATOM     94  C   UNL A   1      46.592  32.339  27.146  1.00  0.00     0.200 A 
ATOM     95  F   UNL A   1      48.709  32.125  28.167  1.00  0.00    -0.200 F 
ATOM     96  F   UNL A   1      47.065  33.294  26.332  1.00  0.00    -0.200 F 
ENDBRANCH  63  86
ENDBRANCH  37  38
ENDBRANCH  29  32
ENDBRANCH  27  28
ENDBRANCH  26  27
ENDBRANCH   1  26
TORSDOF 14
ENDMDL
MODEL 2
REMARK VINA RESULT:     -13.0      2.811      8.711
REMARK SMILES COc1ccccc1-n1cc(CN2C[C@H](C(=O)NCCCNC(=O)c3ccc(-c4c5nc(c(-c6c(F)c(F)c(F)c(F)c6F)c6ccc([nH]6)c(-c6c(F)c(F)c(F)c(F)c6F)c6nc(c(-c7c(F)c(F)c(F)c(F)c7F)c7ccc4[nH]7)C=C6)C=C5)cc3)CC2=O)cn1
REMARK SMILES IDX 19 1 18 2 16 3 17 4 15 6 13 7 14 8 89 9 88 10 90 11 12 12
REMARK SMILES IDX 11 13 9 14 10 15 92 16 91 17 8 18 3 19 4 20 5 21 7 22 6 23
REMARK SMILES IDX 2 24 1 25 20 26 21 27 22 28 23 29 24 31 25 32 26 33 87 34
REMARK SMILES IDX 27 35 86 36 28 37 29 38 30 39 80 40 31 41 85 42 79 43 81 44
REMARK SMILES IDX 32 45 84 46 78 47 77 48 33 50 65 51 45 52 64 53 46 54 49 55
REMARK SMILES IDX 63 56 82 57 47 58 48 59 62 61 83 62 50 63 34 64 35 65 43 66
REMARK SMILES IDX 36 67 37 68 41 69 44 70 38 71 39 72 42 73 40 74 66 75 67 76
REMARK SMILES IDX 75 77 68 78 69 79 73 80 76 81 70 82 71 83 74 84 72 85 51 86
REMARK SMILES IDX 52 87 60 88 53 89 54 90 58 91 61 92 55 93 56 94 59 95 57 96
REMARK H PARENT 18 5 22 30 81 49 49 60
REMARK Flexibility Score: inf
ROOT
ATOM      1  C   UNL A   1      35.620  21.709  24.577  1.00  0.00     0.117 C 
ENDROOT
BRANCH   1   2
ATOM      2  N   UNL A   1      34.569  22.519  25.176  1.00  0.00    -0.356 N 
ATOM      3  C   UNL A   1      33.345  22.949  24.791  1.00  0.00     0.225 C 
ATOM      4  O   UNL A   1      32.723  23.583  25.655  1.00  0.00    -0.275 OA
ATOM      5  H   UNL A   1      34.805  22.827  26.081  1.00  0.00     0.163 HD
BRANCH   3   6
ATOM      6  C   UNL A   1      32.662  22.690  23.444  1.00  0.00     0.107 C 
ATOM      7  N   UNL A   1      31.784  24.743  22.765  1.00  0.00    -0.337 N 
ATOM      8  C   UNL A   1      31.361  23.515  23.399  1.00  0.00     0.133 C 
ATOM      9  C   UNL A   1      33.014  24.593  22.137  1.00  0.00     0.223 C 
ATOM     10  C   UNL A   1      33.318  23.125  22.150  1.00  0.00     0.115 C 
ATOM     11  O   UNL A   1      33.721  25.439  21.645  1.00  0.00    -0.275 OA
BRANCH   7  12
ATOM     12  C   UNL A   1      31.030  25.981  22.833  1.00  0.00     0.158 C 
BRANCH  12  13
ATOM     13  C   UNL A   1      31.403  26.709  24.075  1.00  0.00     0.010 A 
ATOM     14  N   UNL A   1      32.391  27.926  25.641  1.00  0.00    -0.237 N 
ATOM     15  C   UNL A   1      32.506  27.497  24.337  1.00  0.00     0.120 A 
ATOM     16  N   UNL A   1      31.325  27.378  26.263  1.00  0.00    -0.176 NA
ATOM     17  C   UNL A   1      30.679  26.747  25.289  1.00  0.00     0.141 A 
BRANCH  14  18
ATOM     18  C   UNL A   1      33.145  28.899  26.314  1.00  0.00     0.106 A 
ATOM     19  C   UNL A   1      32.703  30.220  26.421  1.00  0.00     0.144 A 
ATOM     20  C   UNL A   1      33.485  31.141  27.121  1.00  0.00     0.049 A 
ATOM     21  C   UNL A   1      34.682  30.742  27.722  1.00  0.00     0.004 A 
ATOM     22  C   UNL A   1      34.331  28.488  26.942  1.00  0.00     0.032 A 
ATOM     23  C   UNL A   1      35.110  29.417  27.628  1.00  0.00     0.003 A 
BRANCH  19  24
ATOM     24  O   UNL A   1      31.521  30.684  25.907  1.00  0.00    -0.494 OA
ATOM     25  C   UNL A   1      31.191  31.991  26.393  1.00  0.00     0.278 C 
ENDBRANCH  19  24
ENDBRANCH  14  18
ENDBRANCH  12  13
ENDBRANCH   7  12
ENDBRANCH   3   6
ENDBRANCH   1   2
BRANCH   1  26
ATOM     26  C   UNL A   1      36.872  22.519  24.229  1.00  0.00     0.042 C 
BRANCH  26  27
ATOM     27  C   UNL A   1      37.550  23.127  25.449  1.00  0.00     0.118 C 
BRANCH  27  28
ATOM     28  N   UNL A   1      38.349  22.154  26.187  1.00  0.00    -0.352 N 
ATOM     29  C   UNL A   1      39.506  22.354  26.908  1.00  0.00     0.251 C 
ATOM     30  H   UNL A   1      38.016  21.229  26.169  1.00  0.00     0.163 HD
ATOM     31  O   UNL A   1      40.224  21.406  27.205  1.00  0.00    -0.269 OA
BRANCH  29  32
ATOM     32  C   UNL A   1      39.896  23.722  27.291  1.00  0.00     0.039 A 
ATOM     33  C   UNL A   1      38.971  24.764  27.184  1.00  0.00     0.014 A 
ATOM     34  C   UNL A   1      41.178  23.959  27.784  1.00  0.00     0.014 A 
ATOM     35  C   UNL A   1      39.309  26.024  27.671  1.00  0.00     0.010 A 
ATOM     36  C   UNL A   1      41.471  25.173  28.368  1.00  0.00     0.010 A 
ATOM     37  C   UNL A   1      40.549  26.217  28.297  1.00  0.00    -0.014 A 
BRANCH  37  38
ATOM     38  C   UNL A   1      40.821  27.470  29.003  1.00  0.00     0.031 A 
ATOM     39  C   UNL A   1      41.842  28.357  28.369  1.00  0.00     0.074 A 
ATOM     40  C   UNL A   1      40.067  27.925  30.026  1.00  0.00     0.049 A 
ATOM     41  N   UNL A   1      42.930  28.812  28.897  1.00  0.00    -0.248 NA
ATOM     42  C   UNL A   1      41.673  28.723  26.953  1.00  0.00     0.031 C 
ATOM     43  C   UNL A   1      38.853  27.328  30.585  1.00  0.00     0.029 A 
ATOM     44  N   UNL A   1      40.164  29.106  30.702  1.00  0.00    -0.354 N 
ATOM     45  C   UNL A   1      43.520  29.641  27.943  1.00  0.00     0.074 A 
ATOM     46  C   UNL A   1      42.773  29.445  26.727  1.00  0.00     0.031 C 
ATOM     47  C   UNL A   1      38.204  28.249  31.330  1.00  0.00     0.029 A 
ATOM     48  C   UNL A   1      39.023  29.443  31.420  1.00  0.00     0.049 A 
ATOM     49  H   UNL A   1      40.971  29.668  30.682  1.00  0.00     0.167 HD
ATOM     50  C   UNL A   1      44.461  30.564  28.292  1.00  0.00     0.037 A 
ATOM     51  C   UNL A   1      38.749  30.631  32.014  1.00  0.00     0.037 A 
ATOM     52  C   UNL A   1      45.007  30.276  29.595  1.00  0.00     0.049 A 
ATOM     53  C   UNL A   1      40.037  31.350  32.188  1.00  0.00     0.074 A 
ATOM     54  C   UNL A   1      45.666  29.195  30.150  1.00  0.00     0.029 A 
ATOM     55  N   UNL A   1      44.596  31.043  30.657  1.00  0.00    -0.354 N 
ATOM     56  N   UNL A   1      40.953  30.999  33.045  1.00  0.00    -0.248 NA
ATOM     57  C   UNL A   1      40.492  32.213  31.108  1.00  0.00     0.031 C 
ATOM     58  C   UNL A   1      45.168  29.110  31.484  1.00  0.00     0.029 A 
ATOM     59  C   UNL A   1      44.298  30.182  31.679  1.00  0.00     0.049 A 
ATOM     60  H   UNL A   1      44.530  32.026  30.680  1.00  0.00     0.167 HD
ATOM     61  C   UNL A   1      42.147  31.197  32.373  1.00  0.00     0.074 A 
ATOM     62  C   UNL A   1      41.811  32.055  31.239  1.00  0.00     0.031 C 
ATOM     63  C   UNL A   1      43.234  30.410  32.624  1.00  0.00     0.037 A 
BRANCH  50  64
ATOM     64  C   UNL A   1      44.652  31.912  27.634  1.00  0.00     0.064 A 
ATOM     65  C   UNL A   1      45.814  32.139  26.864  1.00  0.00     0.173 A 
ATOM     66  C   UNL A   1      43.925  33.069  27.983  1.00  0.00     0.173 A 
ATOM     67  F   UNL A   1      46.586  31.115  26.469  1.00  0.00    -0.203 F 
ATOM     68  C   UNL A   1      46.271  33.427  26.571  1.00  0.00     0.198 A 
ATOM     69  C   UNL A   1      44.355  34.352  27.640  1.00  0.00     0.198 A 
ATOM     70  F   UNL A   1      42.839  33.022  28.760  1.00  0.00    -0.203 F 
ATOM     71  F   UNL A   1      47.456  33.592  25.967  1.00  0.00    -0.200 F 
ATOM     72  C   UNL A   1      45.546  34.533  26.970  1.00  0.00     0.200 A 
ATOM     73  F   UNL A   1      43.644  35.414  28.046  1.00  0.00    -0.200 F 
ATOM     74  F   UNL A   1      46.017  35.769  26.757  1.00  0.00    -0.200 F 
ENDBRANCH  50  64
BRANCH  51  75
ATOM     75  C   UNL A   1      37.439  31.264  32.297  1.00  0.00     0.064 A 
ATOM     76  C   UNL A   1      37.184  31.884  33.532  1.00  0.00     0.173 A 
ATOM     77  C   UNL A   1      36.495  31.496  31.278  1.00  0.00     0.173 A 
ATOM     78  F   UNL A   1      38.050  31.752  34.547  1.00  0.00    -0.203 F 
ATOM     79  C   UNL A   1      36.069  32.705  33.727  1.00  0.00     0.198 A 
ATOM     80  C   UNL A   1      35.373  32.303  31.478  1.00  0.00     0.198 A 
ATOM     81  F   UNL A   1      36.684  31.019  30.040  1.00  0.00    -0.203 F 
ATOM     82  F   UNL A   1      35.898  33.332  34.898  1.00  0.00    -0.200 F 
ATOM     83  C   UNL A   1      35.169  32.921  32.696  1.00  0.00     0.200 A 
ATOM     84  F   UNL A   1      34.528  32.527  30.462  1.00  0.00    -0.200 F 
ATOM     85  F   UNL A   1      34.133  33.753  32.864  1.00  0.00    -0.200 F 
ENDBRANCH  51  75
BRANCH  63  86
ATOM     86  C   UNL A   1      43.207  29.528  33.840  1.00  0.00     0.064 A 
ATOM     87  C   UNL A   1      43.621  29.931  35.122  1.00  0.00     0.173 A 
ATOM     88  C   UNL A   1      42.603  28.267  33.728  1.00  0.00     0.173 A 
ATOM     89  F   UNL A   1      44.104  31.160  35.340  1.00  0.00    -0.203 F 
ATOM     90  C   UNL A   1      43.488  29.088  36.223  1.00  0.00     0.198 A 
ATOM     91  C   UNL A   1      42.430  27.446  34.838  1.00  0.00     0.198 A 
ATOM     92  F   UNL A   1      42.134  27.849  32.541  1.00  0.00    -0.203 F 
ATOM     93  F   UNL A   1      43.913  29.489  37.430  1.00  0.00    -0.200 F 
ATOM     94  C   UNL A   1      42.886  27.850  36.082  1.00  0.00     0.200 A 
ATOM     95  F   UNL A   1      41.799  26.271  34.705  1.00  0.00    -0.200 F 
ATOM     96  F   UNL A   1      42.720  27.056  37.149  1.00  0.00    -0.200 F 
ENDBRANCH  63  86
ENDBRANCH  37  38
ENDBRANCH  29  32
ENDBRANCH  27  28
ENDBRANCH  26  27
ENDBRANCH   1  26
TORSDOF 14
ENDMDL
MODEL 3
REMARK VINA RESULT:     -12.9      2.833      8.754
REMARK SMILES COc1ccccc1-n1cc(CN2C[C@H](C(=O)NCCCNC(=O)c3ccc(-c4c5nc(c(-c6c(F)c(F)c(F)c(F)c6F)c6ccc([nH]6)c(-c6c(F)c(F)c(F)c(F)c6F)c6nc(c(-c7c(F)c(F)c(F)c(F)c7F)c7ccc4[nH]7)C=C6)C=C5)cc3)CC2=O)cn1
REMARK SMILES IDX 19 1 18 2 16 3 17 4 15 6 13 7 14 8 89 9 88 10 90 11 12 12
REMARK SMILES IDX 11 13 9 14 10 15 92 16 91 17 8 18 3 19 4 20 5 21 7 22 6 23
REMARK SMILES IDX 2 24 1 25 20 26 21 27 22 28 23 29 24 31 25 32 26 33 87 34
REMARK SMILES IDX 27 35 86 36 28 37 29 38 30 39 80 40 31 41 85 42 79 43 81 44
REMARK SMILES IDX 32 45 84 46 78 47 77 48 33 50 65 51 45 52 64 53 46 54 49 55
REMARK SMILES IDX 63 56 82 57 47 58 48 59 62 61 83 62 50 63 34 64 35 65 43 66
REMARK SMILES IDX 36 67 37 68 41 69 44 70 38 71 39 72 42 73 40 74 66 75 67 76
REMARK SMILES IDX 75 77 68 78 69 79 73 80 76 81 70 82 71 83 74 84 72 85 51 86
REMARK SMILES IDX 52 87 60 88 53 89 54 90 58 91 61 92 55 93 56 94 59 95 57 96
REMARK H PARENT 18 5 22 30 81 49 49 60
REMARK Flexibility Score: inf
ROOT
ATOM      1  C   UNL A   1      38.352  22.493  25.871  1.00  0.00     0.117 C 
ENDROOT
BRANCH   1   2
ATOM      2  N   UNL A   1      37.362  22.683  24.820  1.00  0.00    -0.356 N 
ATOM      3  C   UNL A   1      36.178  22.113  24.497  1.00  0.00     0.225 C 
ATOM      4  O   UNL A   1      35.599  22.631  23.531  1.00  0.00    -0.275 OA
ATOM      5  H   UNL A   1      37.615  23.399  24.194  1.00  0.00     0.163 HD
BRANCH   3   6
ATOM      6  C   UNL A   1      35.488  20.955  25.224  1.00  0.00     0.107 C 
ATOM      7  N   UNL A   1      33.510  21.833  26.100  1.00  0.00    -0.337 N 
ATOM      8  C   UNL A   1      34.856  21.507  26.517  1.00  0.00     0.133 C 
ATOM      9  C   UNL A   1      33.192  21.226  24.892  1.00  0.00     0.223 C 
ATOM     10  C   UNL A   1      34.297  20.253  24.604  1.00  0.00     0.115 C 
ATOM     11  O   UNL A   1      32.224  21.396  24.192  1.00  0.00    -0.275 OA
BRANCH   7  12
ATOM     12  C   UNL A   1      32.638  22.727  26.838  1.00  0.00     0.158 C 
BRANCH  12  13
ATOM     13  C   UNL A   1      32.880  24.123  26.387  1.00  0.00     0.010 A 
ATOM     14  N   UNL A   1      32.748  26.281  25.900  1.00  0.00    -0.237 N 
ATOM     15  C   UNL A   1      32.066  25.234  26.482  1.00  0.00     0.120 A 
ATOM     16  N   UNL A   1      33.915  25.883  25.351  1.00  0.00    -0.176 NA
ATOM     17  C   UNL A   1      34.039  24.620  25.747  1.00  0.00     0.141 A 
BRANCH  14  18
ATOM     18  C   UNL A   1      32.436  27.649  25.919  1.00  0.00     0.106 A 
ATOM     19  C   UNL A   1      31.760  28.257  24.859  1.00  0.00     0.144 A 
ATOM     20  C   UNL A   1      31.456  29.618  24.942  1.00  0.00     0.049 A 
ATOM     21  C   UNL A   1      31.807  30.354  26.078  1.00  0.00     0.004 A 
ATOM     22  C   UNL A   1      32.762  28.378  27.074  1.00  0.00     0.032 A 
ATOM     23  C   UNL A   1      32.465  29.736  27.142  1.00  0.00     0.003 A 
BRANCH  19  24
ATOM     24  O   UNL A   1      31.337  27.602  23.733  1.00  0.00    -0.494 OA
ATOM     25  C   UNL A   1      29.987  27.134  23.850  1.00  0.00     0.278 C 
ENDBRANCH  19  24
ENDBRANCH  14  18
ENDBRANCH  12  13
ENDBRANCH   7  12
ENDBRANCH   3   6
ENDBRANCH   1   2
BRANCH   1  26
ATOM     26  C   UNL A   1      39.107  21.167  25.746  1.00  0.00     0.042 C 
BRANCH  26  27
ATOM     27  C   UNL A   1      40.379  21.120  26.581  1.00  0.00     0.118 C 
BRANCH  27  28
ATOM     28  N   UNL A   1      41.579  21.361  25.785  1.00  0.00    -0.352 N 
ATOM     29  C   UNL A   1      42.244  22.546  25.562  1.00  0.00     0.251 C 
ATOM     30  H   UNL A   1      41.965  20.569  25.347  1.00  0.00     0.163 HD
ATOM     31  O   UNL A   1      43.038  22.648  24.633  1.00  0.00    -0.269 OA
BRANCH  29  32
ATOM     32  C   UNL A   1      41.971  23.707  26.428  1.00  0.00     0.039 A 
ATOM     33  C   UNL A   1      42.525  23.762  27.710  1.00  0.00     0.014 A 
ATOM     34  C   UNL A   1      41.185  24.753  25.948  1.00  0.00     0.014 A 
ATOM     35  C   UNL A   1      42.367  24.920  28.467  1.00  0.00     0.010 A 
ATOM     36  C   UNL A   1      41.124  25.938  26.649  1.00  0.00     0.010 A 
ATOM     37  C   UNL A   1      41.695  26.023  27.919  1.00  0.00    -0.014 A 
BRANCH  37  38
ATOM     38  C   UNL A   1      41.717  27.309  28.617  1.00  0.00     0.031 A 
ATOM     39  C   UNL A   1      42.826  28.232  28.230  1.00  0.00     0.074 A 
ATOM     40  C   UNL A   1      40.705  27.751  29.392  1.00  0.00     0.049 A 
ATOM     41  N   UNL A   1      43.719  28.761  29.001  1.00  0.00    -0.248 NA
ATOM     42  C   UNL A   1      43.013  28.547  26.804  1.00  0.00     0.031 C 
ATOM     43  C   UNL A   1      39.415  27.105  29.645  1.00  0.00     0.029 A 
ATOM     44  N   UNL A   1      40.570  28.955  30.019  1.00  0.00    -0.354 N 
ATOM     45  C   UNL A   1      44.497  29.593  28.196  1.00  0.00     0.074 A 
ATOM     46  C   UNL A   1      44.100  29.321  26.838  1.00  0.00     0.031 C 
ATOM     47  C   UNL A   1      38.554  28.010  30.158  1.00  0.00     0.029 A 
ATOM     48  C   UNL A   1      39.268  29.251  30.405  1.00  0.00     0.049 A 
ATOM     49  H   UNL A   1      41.327  29.560  30.184  1.00  0.00     0.167 HD
ATOM     50  C   UNL A   1      45.273  30.575  28.736  1.00  0.00     0.037 A 
ATOM     51  C   UNL A   1      38.795  30.438  30.857  1.00  0.00     0.037 A 
ATOM     52  C   UNL A   1      45.476  30.357  30.146  1.00  0.00     0.049 A 
ATOM     53  C   UNL A   1      39.960  31.231  31.326  1.00  0.00     0.074 A 
ATOM     54  C   UNL A   1      46.016  29.330  30.897  1.00  0.00     0.029 A 
ATOM     55  N   UNL A   1      44.769  31.131  31.034  1.00  0.00    -0.354 N 
ATOM     56  N   UNL A   1      40.638  30.956  32.404  1.00  0.00    -0.248 NA
ATOM     57  C   UNL A   1      40.639  32.086  30.364  1.00  0.00     0.031 C 
ATOM     58  C   UNL A   1      45.195  29.257  32.061  1.00  0.00     0.029 A 
ATOM     59  C   UNL A   1      44.256  30.284  31.980  1.00  0.00     0.049 A 
ATOM     60  H   UNL A   1      44.655  32.108  30.997  1.00  0.00     0.167 HD
ATOM     61  C   UNL A   1      41.955  31.200  32.054  1.00  0.00     0.074 A 
ATOM     62  C   UNL A   1      41.885  32.005  30.836  1.00  0.00     0.031 C 
ATOM     63  C   UNL A   1      42.974  30.481  32.609  1.00  0.00     0.037 A 
BRANCH  50  64
ATOM     64  C   UNL A   1      45.567  31.913  28.092  1.00  0.00     0.064 A 
ATOM     65  C   UNL A   1      44.490  32.773  27.782  1.00  0.00     0.173 A 
ATOM     66  C   UNL A   1      46.796  32.242  27.485  1.00  0.00     0.173 A 
ATOM     67  F   UNL A   1      43.272  32.563  28.302  1.00  0.00    -0.203 F 
ATOM     68  C   UNL A   1      44.611  33.806  26.848  1.00  0.00     0.198 A 
ATOM     69  C   UNL A   1      46.926  33.309  26.595  1.00  0.00     0.198 A 
ATOM     70  F   UNL A   1      47.890  31.488  27.633  1.00  0.00    -0.203 F 
ATOM     71  F   UNL A   1      43.526  34.498  26.476  1.00  0.00    -0.200 F 
ATOM     72  C   UNL A   1      45.827  34.065  26.246  1.00  0.00     0.200 A 
ATOM     73  F   UNL A   1      48.112  33.538  26.013  1.00  0.00    -0.200 F 
ATOM     74  F   UNL A   1      45.931  35.004  25.297  1.00  0.00    -0.200 F 
ENDBRANCH  50  64
BRANCH  51  75
ATOM     75  C   UNL A   1      37.430  31.006  30.767  1.00  0.00     0.064 A 
ATOM     76  C   UNL A   1      36.713  31.361  31.922  1.00  0.00     0.173 A 
ATOM     77  C   UNL A   1      36.892  31.447  29.543  1.00  0.00     0.173 A 
ATOM     78  F   UNL A   1      37.171  31.019  33.135  1.00  0.00    -0.203 F 
ATOM     79  C   UNL A   1      35.547  32.130  31.858  1.00  0.00     0.198 A 
ATOM     80  C   UNL A   1      35.719  32.202  29.477  1.00  0.00     0.198 A 
ATOM     81  F   UNL A   1      37.539  31.234  28.388  1.00  0.00    -0.203 F 
ATOM     82  F   UNL A   1      34.931  32.504  32.987  1.00  0.00    -0.200 F 
ATOM     83  C   UNL A   1      35.056  32.558  30.635  1.00  0.00     0.200 A 
ATOM     84  F   UNL A   1      35.273  32.635  28.289  1.00  0.00    -0.200 F 
ATOM     85  F   UNL A   1      33.972  33.343  30.577  1.00  0.00    -0.200 F 
ENDBRANCH  51  75
BRANCH  63  86
ATOM     86  C   UNL A   1      42.673  29.635  33.814  1.00  0.00     0.064 A 
ATOM     87  C   UNL A   1      42.141  28.335  33.757  1.00  0.00     0.173 A 
ATOM     88  C   UNL A   1      43.075  30.109  35.071  1.00  0.00     0.173 A 
ATOM     89  F   UNL A   1      41.836  27.761  32.586  1.00  0.00    -0.203 F 
ATOM     90  C   UNL A   1      41.967  27.573  34.910  1.00  0.00     0.198 A 
ATOM     91  C   UNL A   1      42.942  29.329  36.215  1.00  0.00     0.198 A 
ATOM     92  F   UNL A   1      43.644  31.321  35.182  1.00  0.00    -0.203 F 
ATOM     93  F   UNL A   1      41.435  26.345  34.829  1.00  0.00    -0.200 F 
ATOM     94  C   UNL A   1      42.375  28.067  36.137  1.00  0.00     0.200 A 
ATOM     95  F   UNL A   1      43.387  29.791  37.392  1.00  0.00    -0.200 F 
ATOM     96  F   UNL A   1      42.247  27.319  37.241  1.00  0.00    -0.200 F 
ENDBRANCH  63  86
ENDBRANCH  37  38
ENDBRANCH  29  32
ENDBRANCH  27  28
ENDBRANCH  26  27
ENDBRANCH   1  26
TORSDOF 14
ENDMDL
