MODEL 1
REMARK VINA RESULT:     -11.9      0.000      0.000
REMARK SMILES Cc1cc(C(=O)N2CCC[C@@H]2C(C)C)sc1/C=C/C(=O)NCCCNC(=O)c1ccc(-c2c3nc(c(-c4c(F)c(F)c(F)c(F)c4F)c4ccc([nH]4)c(-c4c(F)c(F)c(F)c(F)c4F)c4nc(c(-c5c(F)c(F)c(F)c(F)c5F)c5ccc2[nH]5)C=C4)C=C3)cc1
REMARK SMILES IDX 22 1 21 2 19 3 20 4 18 6 17 7 16 8 1 9 2 10 3 11 4 12 15 13
REMARK SMILES IDX 5 14 6 15 7 16 8 17 11 18 9 19 10 20 12 21 13 22 14 23 23 24
REMARK SMILES IDX 24 25 25 26 26 27 27 29 28 30 29 31 90 32 30 33 89 34 31 35
REMARK SMILES IDX 32 36 33 37 83 38 34 39 88 40 82 41 84 42 35 43 87 44 81 45
REMARK SMILES IDX 80 46 36 48 68 49 48 50 67 51 49 52 52 53 66 54 85 55 50 56
REMARK SMILES IDX 51 57 65 59 86 60 53 61 37 62 38 63 46 64 39 65 40 66 44 67
REMARK SMILES IDX 47 68 41 69 42 70 45 71 43 72 69 73 70 74 78 75 71 76 72 77
REMARK SMILES IDX 76 78 79 79 73 80 74 81 77 82 75 83 54 84 55 85 63 86 56 87
REMARK SMILES IDX 57 88 61 89 64 90 58 91 59 92 62 93 60 94
REMARK H PARENT 21 5 25 28 84 47 52 58
REMARK Flexibility Score: inf
ROOT
ATOM      1  C   UNL A   1      34.345  35.406  27.991  1.00  0.00     0.118 C 
ENDROOT
BRANCH   1   2
ATOM      2  N   UNL A   1      35.530  35.041  28.747  1.00  0.00    -0.352 N 
ATOM      3  C   UNL A   1      36.227  33.874  28.773  1.00  0.00     0.244 C 
ATOM      4  O   UNL A   1      37.283  33.807  29.396  1.00  0.00    -0.270 OA
ATOM      5  H   UNL A   1      35.884  35.750  29.332  1.00  0.00     0.163 HD
BRANCH   3   6
ATOM      6  C   UNL A   1      35.766  32.713  27.988  1.00  0.00     0.072 C 
ATOM      7  C   UNL A   1      34.696  31.976  28.328  1.00  0.00     0.025 C 
BRANCH   7   8
ATOM      8  C   UNL A   1      34.286  30.822  27.598  1.00  0.00     0.031 A 
ATOM      9  C   UNL A   1      36.330  29.287  27.904  1.00  0.00     0.046 C 
ATOM     10  C   UNL A   1      34.993  29.653  27.339  1.00  0.00    -0.032 A 
ATOM     11  C   UNL A   1      34.270  28.789  26.446  1.00  0.00     0.029 A 
ATOM     12  C   UNL A   1      33.027  29.276  26.088  1.00  0.00     0.093 A 
ATOM     13  S   UNL A   1      32.736  30.763  26.866  1.00  0.00    -0.130 S 
BRANCH  12  14
ATOM     14  C   UNL A   1      32.021  28.584  25.280  1.00  0.00     0.264 C 
ATOM     15  O   UNL A   1      31.392  29.155  24.389  1.00  0.00    -0.268 OA
BRANCH  14  16
ATOM     16  N   UNL A   1      31.904  27.212  25.458  1.00  0.00    -0.335 N 
ATOM     17  C   UNL A   1      31.074  26.657  26.511  1.00  0.00     0.120 C 
ATOM     18  C   UNL A   1      32.059  26.249  24.360  1.00  0.00     0.088 C 
ATOM     19  C   UNL A   1      31.433  25.192  26.478  1.00  0.00     0.024 C 
ATOM     20  C   UNL A   1      31.558  24.920  24.981  1.00  0.00     0.027 C 
BRANCH  18  21
ATOM     21  C   UNL A   1      33.511  26.171  23.798  1.00  0.00     0.005 C 
ATOM     22  C   UNL A   1      34.425  25.303  24.676  1.00  0.00     0.009 C 
ATOM     23  C   UNL A   1      33.564  25.592  22.375  1.00  0.00     0.009 C 
ENDBRANCH  18  21
ENDBRANCH  14  16
ENDBRANCH  12  14
ENDBRANCH   7   8
ENDBRANCH   3   6
ENDBRANCH   1   2
BRANCH   1  24
ATOM     24  C   UNL A   1      33.126  35.561  28.898  1.00  0.00     0.042 C 
BRANCH  24  25
ATOM     25  C   UNL A   1      33.300  36.626  29.977  1.00  0.00     0.118 C 
BRANCH  25  26
ATOM     26  N   UNL A   1      32.363  36.447  31.075  1.00  0.00    -0.352 N 
ATOM     27  C   UNL A   1      32.431  35.624  32.170  1.00  0.00     0.251 C 
ATOM     28  H   UNL A   1      31.553  37.004  31.025  1.00  0.00     0.163 HD
ATOM     29  O   UNL A   1      31.433  35.469  32.870  1.00  0.00    -0.269 OA
BRANCH  27  30
ATOM     30  C   UNL A   1      33.682  34.914  32.516  1.00  0.00     0.039 A 
ATOM     31  C   UNL A   1      33.600  33.584  32.944  1.00  0.00     0.014 A 
ATOM     32  C   UNL A   1      34.922  35.560  32.488  1.00  0.00     0.014 A 
ATOM     33  C   UNL A   1      34.758  32.891  33.302  1.00  0.00     0.010 A 
ATOM     34  C   UNL A   1      36.085  34.850  32.788  1.00  0.00     0.010 A 
ATOM     35  C   UNL A   1      36.013  33.513  33.206  1.00  0.00    -0.014 A 
BRANCH  35  36
ATOM     36  C   UNL A   1      37.257  32.783  33.554  1.00  0.00     0.031 A 
ATOM     37  C   UNL A   1      37.990  33.101  34.827  1.00  0.00     0.074 A 
ATOM     38  C   UNL A   1      37.757  31.874  32.696  1.00  0.00     0.049 A 
ATOM     39  N   UNL A   1      39.129  32.629  35.267  1.00  0.00    -0.248 NA
ATOM     40  C   UNL A   1      37.370  34.100  35.712  1.00  0.00     0.031 C 
ATOM     41  C   UNL A   1      37.161  31.506  31.412  1.00  0.00     0.029 A 
ATOM     42  N   UNL A   1      38.890  31.102  32.771  1.00  0.00    -0.354 N 
ATOM     43  C   UNL A   1      39.372  33.286  36.466  1.00  0.00     0.074 A 
ATOM     44  C   UNL A   1      38.282  34.217  36.667  1.00  0.00     0.031 C 
ATOM     45  C   UNL A   1      37.925  30.571  30.826  1.00  0.00     0.029 A 
ATOM     46  C   UNL A   1      39.079  30.296  31.676  1.00  0.00     0.049 A 
ATOM     47  H   UNL A   1      39.509  31.125  33.537  1.00  0.00     0.167 HD
ATOM     48  C   UNL A   1      40.402  33.116  37.329  1.00  0.00     0.037 A 
ATOM     49  C   UNL A   1      40.075  29.437  31.388  1.00  0.00     0.037 A 
ATOM     50  C   UNL A   1      41.469  32.166  37.145  1.00  0.00     0.049 A 
ATOM     51  C   UNL A   1      41.195  29.251  32.373  1.00  0.00     0.074 A 
ATOM     52  C   UNL A   1      42.527  31.880  37.989  1.00  0.00     0.029 A 
ATOM     53  N   UNL A   1      41.607  31.343  36.038  1.00  0.00    -0.354 N 
ATOM     54  N   UNL A   1      41.389  29.842  33.527  1.00  0.00    -0.248 NA
ATOM     55  C   UNL A   1      42.232  28.272  32.018  1.00  0.00     0.031 C 
ATOM     56  C   UNL A   1      43.324  30.905  37.380  1.00  0.00     0.029 A 
ATOM     57  C   UNL A   1      42.741  30.557  36.171  1.00  0.00     0.049 A 
ATOM     58  H   UNL A   1      40.991  31.320  35.269  1.00  0.00     0.167 HD
ATOM     59  C   UNL A   1      42.554  29.295  34.045  1.00  0.00     0.074 A 
ATOM     60  C   UNL A   1      43.018  28.313  33.086  1.00  0.00     0.031 C 
ATOM     61  C   UNL A   1      43.183  29.581  35.210  1.00  0.00     0.037 A 
BRANCH  48  62
ATOM     62  C   UNL A   1      40.424  33.975  38.557  1.00  0.00     0.064 A 
ATOM     63  C   UNL A   1      41.109  35.200  38.583  1.00  0.00     0.173 A 
ATOM     64  C   UNL A   1      39.726  33.589  39.711  1.00  0.00     0.173 A 
ATOM     65  F   UNL A   1      41.803  35.608  37.510  1.00  0.00    -0.203 F 
ATOM     66  C   UNL A   1      41.116  35.992  39.728  1.00  0.00     0.198 A 
ATOM     67  C   UNL A   1      39.713  34.396  40.845  1.00  0.00     0.198 A 
ATOM     68  F   UNL A   1      39.051  32.430  39.736  1.00  0.00    -0.203 F 
ATOM     69  F   UNL A   1      41.814  37.136  39.745  1.00  0.00    -0.200 F 
ATOM     70  C   UNL A   1      40.414  35.593  40.856  1.00  0.00     0.200 A 
ATOM     71  F   UNL A   1      39.027  34.014  41.931  1.00  0.00    -0.200 F 
ATOM     72  F   UNL A   1      40.418  36.360  41.955  1.00  0.00    -0.200 F 
ENDBRANCH  48  62
BRANCH  49  73
ATOM     73  C   UNL A   1      40.037  28.665  30.122  1.00  0.00     0.064 A 
ATOM     74  C   UNL A   1      40.626  29.171  28.956  1.00  0.00     0.173 A 
ATOM     75  C   UNL A   1      39.424  27.406  30.054  1.00  0.00     0.173 A 
ATOM     76  F   UNL A   1      41.205  30.381  28.969  1.00  0.00    -0.203 F 
ATOM     77  C   UNL A   1      40.592  28.452  27.763  1.00  0.00     0.198 A 
ATOM     78  C   UNL A   1      39.411  26.677  28.866  1.00  0.00     0.198 A 
ATOM     79  F   UNL A   1      38.852  26.877  31.145  1.00  0.00    -0.203 F 
ATOM     80  F   UNL A   1      41.131  28.974  26.653  1.00  0.00    -0.200 F 
ATOM     81  C   UNL A   1      39.990  27.204  27.721  1.00  0.00     0.200 A 
ATOM     82  F   UNL A   1      38.840  25.466  28.832  1.00  0.00    -0.200 F 
ATOM     83  F   UNL A   1      39.962  26.509  26.575  1.00  0.00    -0.200 F 
ENDBRANCH  49  73
BRANCH  61  84
ATOM     84  C   UNL A   1      44.426  28.804  35.525  1.00  0.00     0.064 A 
ATOM     85  C   UNL A   1      44.377  27.606  36.250  1.00  0.00     0.173 A 
ATOM     86  C   UNL A   1      45.675  29.246  35.065  1.00  0.00     0.173 A 
ATOM     87  F   UNL A   1      43.206  27.152  36.726  1.00  0.00    -0.203 F 
ATOM     88  C   UNL A   1      45.538  26.887  36.522  1.00  0.00     0.198 A 
ATOM     89  C   UNL A   1      46.831  28.512  35.318  1.00  0.00     0.198 A 
ATOM     90  F   UNL A   1      45.773  30.386  34.363  1.00  0.00    -0.203 F 
ATOM     91  F   UNL A   1      45.473  25.764  37.251  1.00  0.00    -0.200 F 
ATOM     92  C   UNL A   1      46.762  27.337  36.050  1.00  0.00     0.200 A 
ATOM     93  F   UNL A   1      48.012  28.945  34.854  1.00  0.00    -0.200 F 
ATOM     94  F   UNL A   1      47.877  26.642  36.309  1.00  0.00    -0.200 F 
ENDBRANCH  61  84
ENDBRANCH  35  36
ENDBRANCH  27  30
ENDBRANCH  25  26
ENDBRANCH  24  25
ENDBRANCH   1  24
TORSDOF 14
ENDMDL
MODEL 2
REMARK VINA RESULT:     -11.8      7.470     12.853
REMARK SMILES Cc1cc(C(=O)N2CCC[C@@H]2C(C)C)sc1/C=C/C(=O)NCCCNC(=O)c1ccc(-c2c3nc(c(-c4c(F)c(F)c(F)c(F)c4F)c4ccc([nH]4)c(-c4c(F)c(F)c(F)c(F)c4F)c4nc(c(-c5c(F)c(F)c(F)c(F)c5F)c5ccc2[nH]5)C=C4)C=C3)cc1
REMARK SMILES IDX 22 1 21 2 19 3 20 4 18 6 17 7 16 8 1 9 2 10 3 11 4 12 15 13
REMARK SMILES IDX 5 14 6 15 7 16 8 17 11 18 9 19 10 20 12 21 13 22 14 23 23 24
REMARK SMILES IDX 24 25 25 26 26 27 27 29 28 30 29 31 90 32 30 33 89 34 31 35
REMARK SMILES IDX 32 36 33 37 83 38 34 39 88 40 82 41 84 42 35 43 87 44 81 45
REMARK SMILES IDX 80 46 36 48 68 49 48 50 67 51 49 52 52 53 66 54 85 55 50 56
REMARK SMILES IDX 51 57 65 59 86 60 53 61 37 62 38 63 46 64 39 65 40 66 44 67
REMARK SMILES IDX 47 68 41 69 42 70 45 71 43 72 69 73 70 74 78 75 71 76 72 77
REMARK SMILES IDX 76 78 79 79 73 80 74 81 77 82 75 83 54 84 55 85 63 86 56 87
REMARK SMILES IDX 57 88 61 89 64 90 58 91 59 92 62 93 60 94
REMARK H PARENT 21 5 25 28 84 47 52 58
REMARK Flexibility Score: inf
ROOT
ATOM      1  C   UNL A   1      41.908  19.287  27.688  1.00  0.00     0.118 C 
ENDROOT
BRANCH   1   2
ATOM      2  N   UNL A   1      42.622  20.513  28.001  1.00  0.00    -0.352 N 
ATOM      3  C   UNL A   1      42.173  21.794  28.070  1.00  0.00     0.244 C 
ATOM      4  O   UNL A   1      42.919  22.682  28.472  1.00  0.00    -0.270 OA
ATOM      5  H   UNL A   1      43.581  20.397  28.194  1.00  0.00     0.163 HD
BRANCH   3   6
ATOM      6  C   UNL A   1      40.769  22.111  27.743  1.00  0.00     0.072 C 
ATOM      7  C   UNL A   1      40.320  22.240  26.485  1.00  0.00     0.025 C 
BRANCH   7   8
ATOM      8  C   UNL A   1      38.975  22.600  26.174  1.00  0.00     0.031 A 
ATOM      9  C   UNL A   1      38.900  25.026  27.031  1.00  0.00     0.046 C 
ATOM     10  C   UNL A   1      38.301  23.784  26.450  1.00  0.00    -0.032 A 
ATOM     11  C   UNL A   1      36.911  23.691  26.093  1.00  0.00     0.029 A 
ATOM     12  C   UNL A   1      36.567  22.486  25.511  1.00  0.00     0.093 A 
ATOM     13  S   UNL A   1      37.942  21.488  25.376  1.00  0.00    -0.130 S 
BRANCH  12  14
ATOM     14  C   UNL A   1      35.262  22.131  24.950  1.00  0.00     0.264 C 
ATOM     15  O   UNL A   1      34.792  20.998  25.052  1.00  0.00    -0.268 OA
BRANCH  14  16
ATOM     16  N   UNL A   1      34.502  23.165  24.420  1.00  0.00    -0.335 N 
ATOM     17  C   UNL A   1      34.728  23.653  23.072  1.00  0.00     0.120 C 
ATOM     18  C   UNL A   1      33.122  23.439  24.844  1.00  0.00     0.088 C 
ATOM     19  C   UNL A   1      33.869  24.892  23.020  1.00  0.00     0.024 C 
ATOM     20  C   UNL A   1      32.623  24.458  23.788  1.00  0.00     0.027 C 
BRANCH  18  21
ATOM     21  C   UNL A   1      33.011  23.952  26.312  1.00  0.00     0.005 C 
ATOM     22  C   UNL A   1      32.111  25.192  26.426  1.00  0.00     0.009 C 
ATOM     23  C   UNL A   1      32.445  22.890  27.268  1.00  0.00     0.009 C 
ENDBRANCH  18  21
ENDBRANCH  14  16
ENDBRANCH  12  14
ENDBRANCH   7   8
ENDBRANCH   3   6
ENDBRANCH   1   2
BRANCH   1  24
ATOM     24  C   UNL A   1      42.665  18.442  26.665  1.00  0.00     0.042 C 
BRANCH  24  25
ATOM     25  C   UNL A   1      42.803  19.114  25.302  1.00  0.00     0.118 C 
BRANCH  25  26
ATOM     26  N   UNL A   1      44.032  18.727  24.626  1.00  0.00    -0.352 N 
ATOM     27  C   UNL A   1      45.086  19.496  24.200  1.00  0.00     0.251 C 
ATOM     28  H   UNL A   1      44.122  17.764  24.447  1.00  0.00     0.163 HD
ATOM     29  O   UNL A   1      45.932  19.000  23.460  1.00  0.00    -0.269 OA
BRANCH  27  30
ATOM     30  C   UNL A   1      45.215  20.912  24.610  1.00  0.00     0.039 A 
ATOM     31  C   UNL A   1      45.594  21.194  25.927  1.00  0.00     0.014 A 
ATOM     32  C   UNL A   1      44.904  21.958  23.736  1.00  0.00     0.014 A 
ATOM     33  C   UNL A   1      45.702  22.519  26.355  1.00  0.00     0.010 A 
ATOM     34  C   UNL A   1      45.070  23.281  24.145  1.00  0.00     0.010 A 
ATOM     35  C   UNL A   1      45.462  23.574  25.460  1.00  0.00    -0.014 A 
BRANCH  35  36
ATOM     36  C   UNL A   1      45.600  24.988  25.889  1.00  0.00     0.031 A 
ATOM     37  C   UNL A   1      46.938  25.669  25.827  1.00  0.00     0.074 A 
ATOM     38  C   UNL A   1      44.533  25.639  26.386  1.00  0.00     0.049 A 
ATOM     39  N   UNL A   1      47.275  26.870  26.226  1.00  0.00    -0.248 NA
ATOM     40  C   UNL A   1      48.050  24.889  25.261  1.00  0.00     0.031 C 
ATOM     41  C   UNL A   1      43.192  25.074  26.535  1.00  0.00     0.029 A 
ATOM     42  N   UNL A   1      44.412  26.918  26.872  1.00  0.00    -0.354 N 
ATOM     43  C   UNL A   1      48.637  26.981  25.981  1.00  0.00     0.074 A 
ATOM     44  C   UNL A   1      49.073  25.714  25.432  1.00  0.00     0.031 C 
ATOM     45  C   UNL A   1      42.380  26.005  27.062  1.00  0.00     0.029 A 
ATOM     46  C   UNL A   1      43.149  27.219  27.317  1.00  0.00     0.049 A 
ATOM     47  H   UNL A   1      45.161  27.557  26.900  1.00  0.00     0.167 HD
ATOM     48  C   UNL A   1      49.448  28.048  26.178  1.00  0.00     0.037 A 
ATOM     49  C   UNL A   1      42.668  28.346  27.874  1.00  0.00     0.037 A 
ATOM     50  C   UNL A   1      49.008  29.319  26.693  1.00  0.00     0.049 A 
ATOM     51  C   UNL A   1      43.583  29.524  28.063  1.00  0.00     0.074 A 
ATOM     52  C   UNL A   1      49.740  30.477  26.877  1.00  0.00     0.029 A 
ATOM     53  N   UNL A   1      47.711  29.596  27.101  1.00  0.00    -0.354 N 
ATOM     54  N   UNL A   1      44.858  29.634  27.781  1.00  0.00    -0.248 NA
ATOM     55  C   UNL A   1      42.989  30.737  28.642  1.00  0.00     0.031 C 
ATOM     56  C   UNL A   1      48.895  31.449  27.426  1.00  0.00     0.029 A 
ATOM     57  C   UNL A   1      47.627  30.905  27.549  1.00  0.00     0.049 A 
ATOM     58  H   UNL A   1      46.962  28.958  27.077  1.00  0.00     0.167 HD
ATOM     59  C   UNL A   1      45.215  30.929  28.126  1.00  0.00     0.074 A 
ATOM     60  C   UNL A   1      44.018  31.574  28.627  1.00  0.00     0.031 C 
ATOM     61  C   UNL A   1      46.425  31.530  28.038  1.00  0.00     0.037 A 
BRANCH  48  62
ATOM     62  C   UNL A   1      50.898  27.889  25.832  1.00  0.00     0.064 A 
ATOM     63  C   UNL A   1      51.362  28.069  24.520  1.00  0.00     0.173 A 
ATOM     64  C   UNL A   1      51.840  27.587  26.827  1.00  0.00     0.173 A 
ATOM     65  F   UNL A   1      50.499  28.346  23.531  1.00  0.00    -0.203 F 
ATOM     66  C   UNL A   1      52.713  27.926  24.213  1.00  0.00     0.198 A 
ATOM     67  C   UNL A   1      53.193  27.471  26.520  1.00  0.00     0.198 A 
ATOM     68  F   UNL A   1      51.448  27.410  28.097  1.00  0.00    -0.203 F 
ATOM     69  F   UNL A   1      53.128  28.059  22.945  1.00  0.00    -0.200 F 
ATOM     70  C   UNL A   1      53.628  27.633  25.213  1.00  0.00     0.200 A 
ATOM     71  F   UNL A   1      54.077  27.197  27.489  1.00  0.00    -0.200 F 
ATOM     72  F   UNL A   1      54.928  27.500  24.916  1.00  0.00    -0.200 F 
ENDBRANCH  48  62
BRANCH  49  73
ATOM     73  C   UNL A   1      41.238  28.422  28.264  1.00  0.00     0.064 A 
ATOM     74  C   UNL A   1      40.275  28.902  27.368  1.00  0.00     0.173 A 
ATOM     75  C   UNL A   1      40.806  28.006  29.532  1.00  0.00     0.173 A 
ATOM     76  F   UNL A   1      40.646  29.329  26.151  1.00  0.00    -0.203 F 
ATOM     77  C   UNL A   1      38.931  28.977  27.729  1.00  0.00     0.198 A 
ATOM     78  C   UNL A   1      39.459  28.061  29.884  1.00  0.00     0.198 A 
ATOM     79  F   UNL A   1      41.690  27.534  30.422  1.00  0.00    -0.203 F 
ATOM     80  F   UNL A   1      38.034  29.473  26.866  1.00  0.00    -0.200 F 
ATOM     81  C   UNL A   1      38.524  28.551  28.984  1.00  0.00     0.200 A 
ATOM     82  F   UNL A   1      39.067  27.637  31.092  1.00  0.00    -0.200 F 
ATOM     83  F   UNL A   1      37.230  28.618  29.330  1.00  0.00    -0.200 F 
ENDBRANCH  49  73
BRANCH  61  84
ATOM     84  C   UNL A   1      46.511  32.965  28.466  1.00  0.00     0.064 A 
ATOM     85  C   UNL A   1      46.832  33.317  29.785  1.00  0.00     0.173 A 
ATOM     86  C   UNL A   1      46.304  33.996  27.539  1.00  0.00     0.173 A 
ATOM     87  F   UNL A   1      47.021  32.365  30.711  1.00  0.00    -0.203 F 
ATOM     88  C   UNL A   1      46.923  34.654  30.165  1.00  0.00     0.198 A 
ATOM     89  C   UNL A   1      46.420  35.331  27.917  1.00  0.00     0.198 A 
ATOM     90  F   UNL A   1      45.999  33.709  26.264  1.00  0.00    -0.203 F 
ATOM     91  F   UNL A   1      47.192  34.968  31.439  1.00  0.00    -0.200 F 
ATOM     92  C   UNL A   1      46.723  35.659  29.230  1.00  0.00     0.200 A 
ATOM     93  F   UNL A   1      46.235  36.301  27.010  1.00  0.00    -0.200 F 
ATOM     94  F   UNL A   1      46.816  36.944  29.596  1.00  0.00    -0.200 F 
ENDBRANCH  61  84
ENDBRANCH  35  36
ENDBRANCH  27  30
ENDBRANCH  25  26
ENDBRANCH  24  25
ENDBRANCH   1  24
TORSDOF 14
ENDMDL
MODEL 3
REMARK VINA RESULT:     -11.8      0.246      1.607
REMARK SMILES Cc1cc(C(=O)N2CCC[C@@H]2C(C)C)sc1/C=C/C(=O)NCCCNC(=O)c1ccc(-c2c3nc(c(-c4c(F)c(F)c(F)c(F)c4F)c4ccc([nH]4)c(-c4c(F)c(F)c(F)c(F)c4F)c4nc(c(-c5c(F)c(F)c(F)c(F)c5F)c5ccc2[nH]5)C=C4)C=C3)cc1
REMARK SMILES IDX 22 1 21 2 19 3 20 4 18 6 17 7 16 8 1 9 2 10 3 11 4 12 15 13
REMARK SMILES IDX 5 14 6 15 7 16 8 17 11 18 9 19 10 20 12 21 13 22 14 23 23 24
REMARK SMILES IDX 24 25 25 26 26 27 27 29 28 30 29 31 90 32 30 33 89 34 31 35
REMARK SMILES IDX 32 36 33 37 83 38 34 39 88 40 82 41 84 42 35 43 87 44 81 45
REMARK SMILES IDX 80 46 36 48 68 49 48 50 67 51 49 52 52 53 66 54 85 55 50 56
REMARK SMILES IDX 51 57 65 59 86 60 53 61 37 62 38 63 46 64 39 65 40 66 44 67
REMARK SMILES IDX 47 68 41 69 42 70 45 71 43 72 69 73 70 74 78 75 71 76 72 77
REMARK SMILES IDX 76 78 79 79 73 80 74 81 77 82 75 83 54 84 55 85 63 86 56 87
REMARK SMILES IDX 57 88 61 89 64 90 58 91 59 92 62 93 60 94
REMARK H PARENT 21 5 25 28 84 47 52 58
REMARK Flexibility Score: inf
ROOT
ATOM      1  C   UNL A   1      34.256  35.400  27.937  1.00  0.00     0.118 C 
ENDROOT
BRANCH   1   2
ATOM      2  N   UNL A   1      35.457  35.053  28.676  1.00  0.00    -0.352 N 
ATOM      3  C   UNL A   1      36.163  33.891  28.702  1.00  0.00     0.244 C 
ATOM      4  O   UNL A   1      37.230  33.838  29.307  1.00  0.00    -0.270 OA
ATOM      5  H   UNL A   1      35.815  35.770  29.247  1.00  0.00     0.163 HD
BRANCH   3   6
ATOM      6  C   UNL A   1      35.698  32.718  27.938  1.00  0.00     0.072 C 
ATOM      7  C   UNL A   1      34.642  31.975  28.306  1.00  0.00     0.025 C 
BRANCH   7   8
ATOM      8  C   UNL A   1      34.227  30.809  27.596  1.00  0.00     0.031 A 
ATOM      9  C   UNL A   1      36.293  29.298  27.873  1.00  0.00     0.046 C 
ATOM     10  C   UNL A   1      34.941  29.646  27.333  1.00  0.00    -0.032 A 
ATOM     11  C   UNL A   1      34.209  28.766  26.463  1.00  0.00     0.029 A 
ATOM     12  C   UNL A   1      32.953  29.237  26.128  1.00  0.00     0.093 A 
ATOM     13  S   UNL A   1      32.663  30.729  26.898  1.00  0.00    -0.130 S 
BRANCH  12  14
ATOM     14  C   UNL A   1      31.937  28.527  25.347  1.00  0.00     0.264 C 
ATOM     15  O   UNL A   1      31.196  29.109  24.555  1.00  0.00    -0.268 OA
BRANCH  14  16
ATOM     16  N   UNL A   1      31.938  27.141  25.424  1.00  0.00    -0.335 N 
ATOM     17  C   UNL A   1      31.219  26.444  26.475  1.00  0.00     0.120 C 
ATOM     18  C   UNL A   1      32.099  26.277  24.248  1.00  0.00     0.088 C 
ATOM     19  C   UNL A   1      31.687  25.020  26.309  1.00  0.00     0.024 C 
ATOM     20  C   UNL A   1      31.742  24.870  24.791  1.00  0.00     0.027 C 
BRANCH  18  21
ATOM     21  C   UNL A   1      33.516  26.358  23.603  1.00  0.00     0.005 C 
ATOM     22  C   UNL A   1      34.056  24.974  23.213  1.00  0.00     0.009 C 
ATOM     23  C   UNL A   1      33.540  27.229  22.337  1.00  0.00     0.009 C 
ENDBRANCH  18  21
ENDBRANCH  14  16
ENDBRANCH  12  14
ENDBRANCH   7   8
ENDBRANCH   3   6
ENDBRANCH   1   2
BRANCH   1  24
ATOM     24  C   UNL A   1      33.060  35.591  28.867  1.00  0.00     0.042 C 
BRANCH  24  25
ATOM     25  C   UNL A   1      33.314  36.591  29.991  1.00  0.00     0.118 C 
BRANCH  25  26
ATOM     26  N   UNL A   1      32.387  36.414  31.098  1.00  0.00    -0.352 N 
ATOM     27  C   UNL A   1      32.465  35.592  32.194  1.00  0.00     0.251 C 
ATOM     28  H   UNL A   1      31.577  36.971  31.055  1.00  0.00     0.163 HD
ATOM     29  O   UNL A   1      31.474  35.438  32.903  1.00  0.00    -0.269 OA
BRANCH  27  30
ATOM     30  C   UNL A   1      33.719  34.881  32.529  1.00  0.00     0.039 A 
ATOM     31  C   UNL A   1      33.637  33.683  33.247  1.00  0.00     0.014 A 
ATOM     32  C   UNL A   1      34.971  35.413  32.205  1.00  0.00     0.014 A 
ATOM     33  C   UNL A   1      34.802  32.999  33.602  1.00  0.00     0.010 A 
ATOM     34  C   UNL A   1      36.131  34.700  32.506  1.00  0.00     0.010 A 
ATOM     35  C   UNL A   1      36.058  33.491  33.215  1.00  0.00    -0.014 A 
BRANCH  35  36
ATOM     36  C   UNL A   1      37.304  32.763  33.557  1.00  0.00     0.031 A 
ATOM     37  C   UNL A   1      38.043  33.084  34.826  1.00  0.00     0.074 A 
ATOM     38  C   UNL A   1      37.800  31.853  32.698  1.00  0.00     0.049 A 
ATOM     39  N   UNL A   1      39.185  32.613  35.261  1.00  0.00    -0.248 NA
ATOM     40  C   UNL A   1      37.428  34.083  35.712  1.00  0.00     0.031 C 
ATOM     41  C   UNL A   1      37.197  31.483  31.418  1.00  0.00     0.029 A 
ATOM     42  N   UNL A   1      38.934  31.082  32.769  1.00  0.00    -0.354 N 
ATOM     43  C   UNL A   1      39.435  33.271  36.457  1.00  0.00     0.074 A 
ATOM     44  C   UNL A   1      38.345  34.203  36.662  1.00  0.00     0.031 C 
ATOM     45  C   UNL A   1      37.959  30.547  30.829  1.00  0.00     0.029 A 
ATOM     46  C   UNL A   1      39.118  30.274  31.674  1.00  0.00     0.049 A 
ATOM     47  H   UNL A   1      39.557  31.107  33.531  1.00  0.00     0.167 HD
ATOM     48  C   UNL A   1      40.469  33.104  37.315  1.00  0.00     0.037 A 
ATOM     49  C   UNL A   1      40.112  29.415  31.382  1.00  0.00     0.037 A 
ATOM     50  C   UNL A   1      41.535  32.154  37.127  1.00  0.00     0.049 A 
ATOM     51  C   UNL A   1      41.238  29.231  32.361  1.00  0.00     0.074 A 
ATOM     52  C   UNL A   1      42.598  31.870  37.966  1.00  0.00     0.029 A 
ATOM     53  N   UNL A   1      41.668  31.329  36.020  1.00  0.00    -0.354 N 
ATOM     54  N   UNL A   1      41.438  29.825  33.512  1.00  0.00    -0.248 NA
ATOM     55  C   UNL A   1      42.274  28.253  32.002  1.00  0.00     0.031 C 
ATOM     56  C   UNL A   1      43.392  30.894  37.353  1.00  0.00     0.029 A 
ATOM     57  C   UNL A   1      42.803  30.544  36.149  1.00  0.00     0.049 A 
ATOM     58  H   UNL A   1      41.048  31.305  35.255  1.00  0.00     0.167 HD
ATOM     59  C   UNL A   1      42.605  29.279  34.025  1.00  0.00     0.074 A 
ATOM     60  C   UNL A   1      43.065  28.296  33.066  1.00  0.00     0.031 C 
ATOM     61  C   UNL A   1      43.241  29.567  35.186  1.00  0.00     0.037 A 
BRANCH  48  62
ATOM     62  C   UNL A   1      40.497  33.965  38.542  1.00  0.00     0.064 A 
ATOM     63  C   UNL A   1      39.854  33.574  39.726  1.00  0.00     0.173 A 
ATOM     64  C   UNL A   1      41.203  35.178  38.547  1.00  0.00     0.173 A 
ATOM     65  F   UNL A   1      39.155  32.430  39.769  1.00  0.00    -0.203 F 
ATOM     66  C   UNL A   1      39.893  34.379  40.862  1.00  0.00     0.198 A 
ATOM     67  C   UNL A   1      41.262  35.967  39.692  1.00  0.00     0.198 A 
ATOM     68  F   UNL A   1      41.839  35.594  37.442  1.00  0.00    -0.203 F 
ATOM     69  F   UNL A   1      39.234  34.008  41.968  1.00  0.00    -0.200 F 
ATOM     70  C   UNL A   1      40.601  35.571  40.846  1.00  0.00     0.200 A 
ATOM     71  F   UNL A   1      41.954  37.114  39.678  1.00  0.00    -0.200 F 
ATOM     72  F   UNL A   1      40.642  36.343  41.941  1.00  0.00    -0.200 F 
ENDBRANCH  48  62
BRANCH  49  73
ATOM     73  C   UNL A   1      40.068  28.642  30.117  1.00  0.00     0.064 A 
ATOM     74  C   UNL A   1      40.646  29.148  28.946  1.00  0.00     0.173 A 
ATOM     75  C   UNL A   1      39.461  27.379  30.055  1.00  0.00     0.173 A 
ATOM     76  F   UNL A   1      41.221  30.361  28.953  1.00  0.00    -0.203 F 
ATOM     77  C   UNL A   1      40.606  28.427  27.754  1.00  0.00     0.198 A 
ATOM     78  C   UNL A   1      39.441  26.649  28.869  1.00  0.00     0.198 A 
ATOM     79  F   UNL A   1      38.898  26.850  31.152  1.00  0.00    -0.203 F 
ATOM     80  F   UNL A   1      41.135  28.949  26.640  1.00  0.00    -0.200 F 
ATOM     81  C   UNL A   1      40.009  27.176  27.718  1.00  0.00     0.200 A 
ATOM     82  F   UNL A   1      38.875  25.436  28.841  1.00  0.00    -0.200 F 
ATOM     83  F   UNL A   1      39.976  26.480  26.573  1.00  0.00    -0.200 F 
ENDBRANCH  49  73
BRANCH  61  84
ATOM     84  C   UNL A   1      44.486  28.792  35.496  1.00  0.00     0.064 A 
ATOM     85  C   UNL A   1      45.751  29.246  35.096  1.00  0.00     0.173 A 
ATOM     86  C   UNL A   1      44.416  27.601  36.233  1.00  0.00     0.173 A 
ATOM     87  F   UNL A   1      45.866  30.372  34.374  1.00  0.00    -0.203 F 
ATOM     88  C   UNL A   1      46.900  28.524  35.404  1.00  0.00     0.198 A 
ATOM     89  C   UNL A   1      45.570  26.893  36.560  1.00  0.00     0.198 A 
ATOM     90  F   UNL A   1      43.229  27.127  36.642  1.00  0.00    -0.203 F 
ATOM     91  F   UNL A   1      48.095  28.956  34.978  1.00  0.00    -0.200 F 
ATOM     92  C   UNL A   1      46.809  27.352  36.141  1.00  0.00     0.200 A 
ATOM     93  F   UNL A   1      45.481  25.766  37.279  1.00  0.00    -0.200 F 
ATOM     94  F   UNL A   1      47.917  26.661  36.441  1.00  0.00    -0.200 F 
ENDBRANCH  61  84
ENDBRANCH  35  36
ENDBRANCH  27  30
ENDBRANCH  25  26
ENDBRANCH  24  25
ENDBRANCH   1  24
TORSDOF 14
ENDMDL
