MODEL 1
REMARK VINA RESULT:     -10.4      0.000      0.000
REMARK SMILES C=CCS(=O)(=O)N[C@H](CC(N)=O)C(=O)NCCCNC(=O)c1ccc(-c2c3nc(c(-c4c(F)c(F)c(F)c(F)c4F)c4ccc([nH]4)c(-c4c(F)c(F)c(F)c(F)c4F)c4nc(c(-c5c(F)c(F)c(F)c(F)c5F)c5ccc2[nH]5)C=C4)C=C3)cc1
REMARK SMILES IDX 16 1 15 2 13 3 14 4 8 6 7 7 4 9 5 10 6 11 3 12 2 13 1 14
REMARK SMILES IDX 9 15 10 16 11 17 12 18 17 21 18 22 19 23 20 24 21 26 22 27
REMARK SMILES IDX 23 28 84 29 24 30 83 31 25 32 26 33 27 34 77 35 28 36 82 37
REMARK SMILES IDX 76 38 78 39 29 40 81 41 75 42 74 43 30 45 62 46 42 47 61 48
REMARK SMILES IDX 43 49 46 50 60 51 79 52 44 53 45 54 59 56 80 57 47 58 31 59
REMARK SMILES IDX 32 60 40 61 33 62 34 63 38 64 41 65 35 66 36 67 39 68 37 69
REMARK SMILES IDX 63 70 64 71 72 72 65 73 66 74 70 75 73 76 67 77 68 78 71 79
REMARK SMILES IDX 69 80 48 81 49 82 57 83 50 84 51 85 55 86 58 87 52 88 53 89
REMARK SMILES IDX 56 90 54 91
REMARK H PARENT 15 5 7 8 11 19 11 20 19 25 78 44 46 55
REMARK Flexibility Score: inf
ROOT
ATOM      1  C   UNL A   1      42.624  21.317  26.241  1.00  0.00     0.117 C 
ENDROOT
BRANCH   1   2
ATOM      2  N   UNL A   1      43.171  21.810  24.989  1.00  0.00    -0.355 N 
ATOM      3  C   UNL A   1      44.442  21.793  24.481  1.00  0.00     0.238 C 
ATOM      4  O   UNL A   1      44.561  22.130  23.300  1.00  0.00    -0.273 OA
ATOM      5  H   UNL A   1      42.508  22.234  24.398  1.00  0.00     0.163 HD
BRANCH   3   6
ATOM      6  C   UNL A   1      45.677  21.443  25.340  1.00  0.00     0.168 C 
BRANCH   6   7
ATOM      7  N   UNL A   1      46.532  22.661  25.444  1.00  0.00    -0.202 NA
ATOM      8  H   UNL A   1      47.490  22.319  25.519  1.00  0.00     0.141 HD
BRANCH   7   9
ATOM      9  S   UNL A   1      46.374  23.821  26.632  1.00  0.00     0.215 S 
ATOM     10  O   UNL A   1      47.688  24.156  27.124  1.00  0.00    -0.212 OA
ATOM     11  O   UNL A   1      45.375  23.254  27.518  1.00  0.00    -0.212 OA
BRANCH   9  12
ATOM     12  C   UNL A   1      45.586  25.255  25.824  1.00  0.00     0.180 C 
BRANCH  12  13
ATOM     13  C   UNL A   1      44.095  25.288  26.018  1.00  0.00    -0.017 C 
ATOM     14  C   UNL A   1      43.193  25.401  25.031  1.00  0.00     0.005 C 
ENDBRANCH  12  13
ENDBRANCH   9  12
ENDBRANCH   7   9
ENDBRANCH   6   7
BRANCH   6  15
ATOM     15  C   UNL A   1      46.383  20.249  24.734  1.00  0.00     0.129 C 
BRANCH  15  16
ATOM     16  C   UNL A   1      45.908  18.925  25.269  1.00  0.00     0.219 C 
ATOM     17  N   UNL A   1      46.762  18.330  26.154  1.00  0.00    -0.370 N 
ATOM     18  O   UNL A   1      44.827  18.425  24.993  1.00  0.00    -0.275 OA
ATOM     19  H   UNL A   1      47.628  18.752  26.360  1.00  0.00     0.159 HD
ATOM     20  H   UNL A   1      46.513  17.481  26.585  1.00  0.00     0.159 HD
ENDBRANCH  15  16
ENDBRANCH   6  15
ENDBRANCH   3   6
ENDBRANCH   1   2
BRANCH   1  21
ATOM     21  C   UNL A   1      41.754  22.336  26.961  1.00  0.00     0.042 C 
BRANCH  21  22
ATOM     22  C   UNL A   1      40.344  21.844  27.250  1.00  0.00     0.118 C 
BRANCH  22  23
ATOM     23  N   UNL A   1      39.372  22.356  26.297  1.00  0.00    -0.352 N 
ATOM     24  C   UNL A   1      38.775  23.589  26.201  1.00  0.00     0.251 C 
ATOM     25  H   UNL A   1      39.097  21.713  25.605  1.00  0.00     0.163 HD
ATOM     26  O   UNL A   1      37.824  23.738  25.440  1.00  0.00    -0.269 OA
BRANCH  24  27
ATOM     27  C   UNL A   1      39.247  24.731  27.016  1.00  0.00     0.039 A 
ATOM     28  C   UNL A   1      40.042  25.707  26.408  1.00  0.00     0.014 A 
ATOM     29  C   UNL A   1      38.952  24.829  28.377  1.00  0.00     0.014 A 
ATOM     30  C   UNL A   1      40.485  26.806  27.147  1.00  0.00     0.010 A 
ATOM     31  C   UNL A   1      39.311  25.972  29.088  1.00  0.00     0.010 A 
ATOM     32  C   UNL A   1      40.090  26.969  28.485  1.00  0.00    -0.014 A 
BRANCH  32  33
ATOM     33  C   UNL A   1      40.494  28.166  29.268  1.00  0.00     0.031 A 
ATOM     34  C   UNL A   1      41.868  28.246  29.878  1.00  0.00     0.074 A 
ATOM     35  C   UNL A   1      39.606  29.156  29.478  1.00  0.00     0.049 A 
ATOM     36  N   UNL A   1      42.380  29.175  30.646  1.00  0.00    -0.248 NA
ATOM     37  C   UNL A   1      42.779  27.121  29.613  1.00  0.00     0.031 C 
ATOM     38  C   UNL A   1      38.231  29.178  28.976  1.00  0.00     0.029 A 
ATOM     39  N   UNL A   1      39.721  30.333  30.175  1.00  0.00    -0.354 N 
ATOM     40  C   UNL A   1      43.662  28.740  30.963  1.00  0.00     0.074 A 
ATOM     41  C   UNL A   1      43.827  27.438  30.356  1.00  0.00     0.031 C 
ATOM     42  C   UNL A   1      37.641  30.323  29.357  1.00  0.00     0.029 A 
ATOM     43  C   UNL A   1      38.577  31.092  30.170  1.00  0.00     0.049 A 
ATOM     44  H   UNL A   1      40.548  30.607  30.636  1.00  0.00     0.167 HD
ATOM     45  C   UNL A   1      44.622  29.381  31.672  1.00  0.00     0.037 A 
ATOM     46  C   UNL A   1      38.308  32.272  30.764  1.00  0.00     0.037 A 
ATOM     47  C   UNL A   1      44.458  30.686  32.257  1.00  0.00     0.049 A 
ATOM     48  C   UNL A   1      39.385  32.950  31.568  1.00  0.00     0.074 A 
ATOM     49  C   UNL A   1      45.389  31.444  32.946  1.00  0.00     0.029 A 
ATOM     50  N   UNL A   1      43.285  31.427  32.226  1.00  0.00    -0.354 N 
ATOM     51  N   UNL A   1      40.614  32.561  31.802  1.00  0.00    -0.248 NA
ATOM     52  C   UNL A   1      39.036  34.236  32.187  1.00  0.00     0.031 C 
ATOM     53  C   UNL A   1      44.761  32.614  33.388  1.00  0.00     0.029 A 
ATOM     54  C   UNL A   1      43.460  32.618  32.912  1.00  0.00     0.049 A 
ATOM     55  H   UNL A   1      42.452  31.146  31.782  1.00  0.00     0.167 HD
ATOM     56  C   UNL A   1      41.195  33.566  32.564  1.00  0.00     0.074 A 
ATOM     57  C   UNL A   1      40.187  34.590  32.739  1.00  0.00     0.031 C 
ATOM     58  C   UNL A   1      42.450  33.634  33.072  1.00  0.00     0.037 A 
BRANCH  45  59
ATOM     59  C   UNL A   1      45.937  28.679  31.859  1.00  0.00     0.064 A 
ATOM     60  C   UNL A   1      46.994  28.833  30.947  1.00  0.00     0.173 A 
ATOM     61  C   UNL A   1      46.161  27.875  32.988  1.00  0.00     0.173 A 
ATOM     62  F   UNL A   1      46.831  29.581  29.846  1.00  0.00    -0.203 F 
ATOM     63  C   UNL A   1      48.210  28.182  31.142  1.00  0.00     0.198 A 
ATOM     64  C   UNL A   1      47.390  27.256  33.197  1.00  0.00     0.198 A 
ATOM     65  F   UNL A   1      45.188  27.698  33.895  1.00  0.00    -0.203 F 
ATOM     66  F   UNL A   1      49.184  28.301  30.228  1.00  0.00    -0.200 F 
ATOM     67  C   UNL A   1      48.410  27.403  32.270  1.00  0.00     0.200 A 
ATOM     68  F   UNL A   1      47.587  26.515  34.296  1.00  0.00    -0.200 F 
ATOM     69  F   UNL A   1      49.584  26.786  32.461  1.00  0.00    -0.200 F 
ENDBRANCH  45  59
BRANCH  46  70
ATOM     70  C   UNL A   1      36.966  32.895  30.610  1.00  0.00     0.064 A 
ATOM     71  C   UNL A   1      35.995  32.778  31.616  1.00  0.00     0.173 A 
ATOM     72  C   UNL A   1      36.619  33.606  29.452  1.00  0.00     0.173 A 
ATOM     73  F   UNL A   1      36.270  32.093  32.735  1.00  0.00    -0.203 F 
ATOM     74  C   UNL A   1      34.722  33.323  31.456  1.00  0.00     0.198 A 
ATOM     75  C   UNL A   1      35.358  34.180  29.309  1.00  0.00     0.198 A 
ATOM     76  F   UNL A   1      37.512  33.756  28.463  1.00  0.00    -0.203 F 
ATOM     77  F   UNL A   1      33.798  33.148  32.410  1.00  0.00    -0.200 F 
ATOM     78  C   UNL A   1      34.407  34.029  30.306  1.00  0.00     0.200 A 
ATOM     79  F   UNL A   1      35.064  34.879  28.203  1.00  0.00    -0.200 F 
ATOM     80  F   UNL A   1      33.185  34.556  30.155  1.00  0.00    -0.200 F 
ENDBRANCH  46  70
BRANCH  58  81
ATOM     81  C   UNL A   1      42.822  34.877  33.830  1.00  0.00     0.064 A 
ATOM     82  C   UNL A   1      42.776  34.932  35.231  1.00  0.00     0.173 A 
ATOM     83  C   UNL A   1      43.271  36.017  33.145  1.00  0.00     0.173 A 
ATOM     84  F   UNL A   1      42.340  33.876  35.935  1.00  0.00    -0.203 F 
ATOM     85  C   UNL A   1      43.135  36.092  35.915  1.00  0.00     0.198 A 
ATOM     86  C   UNL A   1      43.664  37.161  33.833  1.00  0.00     0.198 A 
ATOM     87  F   UNL A   1      43.343  36.016  31.805  1.00  0.00    -0.203 F 
ATOM     88  F   UNL A   1      43.028  36.139  37.250  1.00  0.00    -0.200 F 
ATOM     89  C   UNL A   1      43.586  37.201  35.217  1.00  0.00     0.200 A 
ATOM     90  F   UNL A   1      44.117  38.225  33.157  1.00  0.00    -0.200 F 
ATOM     91  F   UNL A   1      43.941  38.312  35.876  1.00  0.00    -0.200 F 
ENDBRANCH  58  81
ENDBRANCH  32  33
ENDBRANCH  24  27
ENDBRANCH  22  23
ENDBRANCH  21  22
ENDBRANCH   1  21
TORSDOF 16
ENDMDL
MODEL 2
REMARK VINA RESULT:      -9.9      4.378     10.298
REMARK SMILES C=CCS(=O)(=O)N[C@H](CC(N)=O)C(=O)NCCCNC(=O)c1ccc(-c2c3nc(c(-c4c(F)c(F)c(F)c(F)c4F)c4ccc([nH]4)c(-c4c(F)c(F)c(F)c(F)c4F)c4nc(c(-c5c(F)c(F)c(F)c(F)c5F)c5ccc2[nH]5)C=C4)C=C3)cc1
REMARK SMILES IDX 16 1 15 2 13 3 14 4 8 6 7 7 4 9 5 10 6 11 3 12 2 13 1 14
REMARK SMILES IDX 9 15 10 16 11 17 12 18 17 21 18 22 19 23 20 24 21 26 22 27
REMARK SMILES IDX 23 28 84 29 24 30 83 31 25 32 26 33 27 34 77 35 28 36 82 37
REMARK SMILES IDX 76 38 78 39 29 40 81 41 75 42 74 43 30 45 62 46 42 47 61 48
REMARK SMILES IDX 43 49 46 50 60 51 79 52 44 53 45 54 59 56 80 57 47 58 31 59
REMARK SMILES IDX 32 60 40 61 33 62 34 63 38 64 41 65 35 66 36 67 39 68 37 69
REMARK SMILES IDX 63 70 64 71 72 72 65 73 66 74 70 75 73 76 67 77 68 78 71 79
REMARK SMILES IDX 69 80 48 81 49 82 57 83 50 84 51 85 55 86 58 87 52 88 53 89
REMARK SMILES IDX 56 90 54 91
REMARK H PARENT 15 5 7 8 11 19 11 20 19 25 78 44 46 55
REMARK Flexibility Score: inf
ROOT
ATOM      1  C   UNL A   1      36.773  20.564  24.635  1.00  0.00     0.117 C 
ENDROOT
BRANCH   1   2
ATOM      2  N   UNL A   1      36.046  21.062  25.790  1.00  0.00    -0.355 N 
ATOM      3  C   UNL A   1      34.715  21.307  25.992  1.00  0.00     0.238 C 
ATOM      4  O   UNL A   1      34.377  21.557  27.153  1.00  0.00    -0.273 OA
ATOM      5  H   UNL A   1      36.614  21.259  26.570  1.00  0.00     0.163 HD
BRANCH   3   6
ATOM      6  C   UNL A   1      33.691  21.342  24.837  1.00  0.00     0.168 C 
BRANCH   6   7
ATOM      7  N   UNL A   1      33.229  22.750  24.668  1.00  0.00    -0.202 NA
ATOM      8  H   UNL A   1      32.322  22.688  24.203  1.00  0.00     0.141 HD
BRANCH   7   9
ATOM      9  S   UNL A   1      34.078  23.926  23.843  1.00  0.00     0.215 S 
ATOM     10  O   UNL A   1      34.999  23.279  22.942  1.00  0.00    -0.212 OA
ATOM     11  O   UNL A   1      34.564  24.788  24.904  1.00  0.00    -0.212 OA
BRANCH   9  12
ATOM     12  C   UNL A   1      32.828  24.893  22.930  1.00  0.00     0.180 C 
BRANCH  12  13
ATOM     13  C   UNL A   1      31.442  24.324  23.059  1.00  0.00    -0.017 C 
ATOM     14  C   UNL A   1      30.395  24.967  23.596  1.00  0.00     0.005 C 
ENDBRANCH  12  13
ENDBRANCH   9  12
ENDBRANCH   7   9
ENDBRANCH   6   7
BRANCH   6  15
ATOM     15  C   UNL A   1      32.575  20.362  25.130  1.00  0.00     0.129 C 
BRANCH  15  16
ATOM     16  C   UNL A   1      33.037  18.935  25.259  1.00  0.00     0.219 C 
ATOM     17  N   UNL A   1      32.757  18.354  26.463  1.00  0.00    -0.370 N 
ATOM     18  O   UNL A   1      33.573  18.307  24.357  1.00  0.00    -0.275 OA
ATOM     19  H   UNL A   1      32.325  18.881  27.175  1.00  0.00     0.159 HD
ATOM     20  H   UNL A   1      32.987  17.410  26.620  1.00  0.00     0.159 HD
ENDBRANCH  15  16
ENDBRANCH   6  15
ENDBRANCH   3   6
ENDBRANCH   1   2
BRANCH   1  21
ATOM     21  C   UNL A   1      37.831  19.530  24.989  1.00  0.00     0.042 C 
BRANCH  21  22
ATOM     22  C   UNL A   1      39.033  20.108  25.720  1.00  0.00     0.118 C 
BRANCH  22  23
ATOM     23  N   UNL A   1      40.109  19.140  25.869  1.00  0.00    -0.352 N 
ATOM     24  C   UNL A   1      41.454  19.319  26.077  1.00  0.00     0.251 C 
ATOM     25  H   UNL A   1      39.825  18.198  25.813  1.00  0.00     0.163 HD
ATOM     26  O   UNL A   1      42.213  18.361  25.963  1.00  0.00    -0.269 OA
BRANCH  24  27
ATOM     27  C   UNL A   1      42.003  20.652  26.414  1.00  0.00     0.039 A 
ATOM     28  C   UNL A   1      42.263  21.553  25.377  1.00  0.00     0.014 A 
ATOM     29  C   UNL A   1      42.304  21.008  27.730  1.00  0.00     0.014 A 
ATOM     30  C   UNL A   1      42.762  22.824  25.667  1.00  0.00     0.010 A 
ATOM     31  C   UNL A   1      42.709  22.307  28.027  1.00  0.00     0.010 A 
ATOM     32  C   UNL A   1      42.952  23.228  26.998  1.00  0.00    -0.014 A 
BRANCH  32  33
ATOM     33  C   UNL A   1      43.417  24.600  27.330  1.00  0.00     0.031 A 
ATOM     34  C   UNL A   1      42.453  25.616  27.883  1.00  0.00     0.074 A 
ATOM     35  C   UNL A   1      44.693  24.950  27.081  1.00  0.00     0.049 A 
ATOM     36  N   UNL A   1      42.653  26.877  28.171  1.00  0.00    -0.248 NA
ATOM     37  C   UNL A   1      41.073  25.162  28.118  1.00  0.00     0.031 C 
ATOM     38  C   UNL A   1      45.714  24.071  26.508  1.00  0.00     0.029 A 
ATOM     39  N   UNL A   1      45.351  26.141  27.269  1.00  0.00    -0.354 N 
ATOM     40  C   UNL A   1      41.428  27.366  28.607  1.00  0.00     0.074 A 
ATOM     41  C   UNL A   1      40.476  26.284  28.488  1.00  0.00     0.031 C 
ATOM     42  C   UNL A   1      46.873  24.742  26.418  1.00  0.00     0.029 A 
ATOM     43  C   UNL A   1      46.668  26.111  26.880  1.00  0.00     0.049 A 
ATOM     44  H   UNL A   1      44.918  26.940  27.648  1.00  0.00     0.167 HD
ATOM     45  C   UNL A   1      41.130  28.597  29.088  1.00  0.00     0.037 A 
ATOM     46  C   UNL A   1      47.602  27.082  26.884  1.00  0.00     0.037 A 
ATOM     47  C   UNL A   1      42.086  29.664  29.224  1.00  0.00     0.049 A 
ATOM     48  C   UNL A   1      47.237  28.448  27.400  1.00  0.00     0.074 A 
ATOM     49  C   UNL A   1      41.896  30.929  29.752  1.00  0.00     0.029 A 
ATOM     50  N   UNL A   1      43.413  29.594  28.823  1.00  0.00    -0.354 N 
ATOM     51  N   UNL A   1      46.093  28.877  27.874  1.00  0.00    -0.248 NA
ATOM     52  C   UNL A   1      48.298  29.465  27.386  1.00  0.00     0.031 C 
ATOM     53  C   UNL A   1      43.089  31.646  29.613  1.00  0.00     0.029 A 
ATOM     54  C   UNL A   1      44.043  30.805  29.063  1.00  0.00     0.049 A 
ATOM     55  H   UNL A   1      43.842  28.802  28.427  1.00  0.00     0.167 HD
ATOM     56  C   UNL A   1      46.304  30.198  28.245  1.00  0.00     0.074 A 
ATOM     57  C   UNL A   1      47.691  30.495  27.956  1.00  0.00     0.031 C 
ATOM     58  C   UNL A   1      45.428  31.085  28.778  1.00  0.00     0.037 A 
BRANCH  45  59
ATOM     59  C   UNL A   1      39.710  28.859  29.503  1.00  0.00     0.064 A 
ATOM     60  C   UNL A   1      39.263  28.610  30.811  1.00  0.00     0.173 A 
ATOM     61  C   UNL A   1      38.792  29.407  28.594  1.00  0.00     0.173 A 
ATOM     62  F   UNL A   1      40.095  28.076  31.718  1.00  0.00    -0.203 F 
ATOM     63  C   UNL A   1      37.945  28.869  31.181  1.00  0.00     0.198 A 
ATOM     64  C   UNL A   1      37.485  29.699  28.978  1.00  0.00     0.198 A 
ATOM     65  F   UNL A   1      39.166  29.672  27.333  1.00  0.00    -0.203 F 
ATOM     66  F   UNL A   1      37.529  28.570  32.420  1.00  0.00    -0.200 F 
ATOM     67  C   UNL A   1      37.061  29.420  30.268  1.00  0.00     0.200 A 
ATOM     68  F   UNL A   1      36.637  30.247  28.098  1.00  0.00    -0.200 F 
ATOM     69  F   UNL A   1      35.797  29.679  30.629  1.00  0.00    -0.200 F 
ENDBRANCH  45  59
BRANCH  46  70
ATOM     70  C   UNL A   1      48.977  26.795  26.395  1.00  0.00     0.064 A 
ATOM     71  C   UNL A   1      49.333  27.026  25.058  1.00  0.00     0.173 A 
ATOM     72  C   UNL A   1      49.960  26.270  27.247  1.00  0.00     0.173 A 
ATOM     73  F   UNL A   1      48.424  27.510  24.199  1.00  0.00    -0.203 F 
ATOM     74  C   UNL A   1      50.607  26.717  24.587  1.00  0.00     0.198 A 
ATOM     75  C   UNL A   1      51.245  25.995  26.783  1.00  0.00     0.198 A 
ATOM     76  F   UNL A   1      49.678  26.038  28.537  1.00  0.00    -0.203 F 
ATOM     77  F   UNL A   1      50.901  26.897  23.292  1.00  0.00    -0.200 F 
ATOM     78  C   UNL A   1      51.564  26.207  25.450  1.00  0.00     0.200 A 
ATOM     79  F   UNL A   1      52.172  25.520  27.626  1.00  0.00    -0.200 F 
ATOM     80  F   UNL A   1      52.790  25.915  24.998  1.00  0.00    -0.200 F 
ENDBRANCH  46  70
BRANCH  58  81
ATOM     81  C   UNL A   1      45.952  32.450  29.125  1.00  0.00     0.064 A 
ATOM     82  C   UNL A   1      46.538  32.724  30.370  1.00  0.00     0.173 A 
ATOM     83  C   UNL A   1      45.903  33.489  28.182  1.00  0.00     0.173 A 
ATOM     84  F   UNL A   1      46.597  31.771  31.313  1.00  0.00    -0.203 F 
ATOM     85  C   UNL A   1      47.026  33.994  30.668  1.00  0.00     0.198 A 
ATOM     86  C   UNL A   1      46.425  34.746  28.470  1.00  0.00     0.198 A 
ATOM     87  F   UNL A   1      45.361  33.279  26.972  1.00  0.00    -0.203 F 
ATOM     88  F   UNL A   1      47.530  34.247  31.884  1.00  0.00    -0.200 F 
ATOM     89  C   UNL A   1      46.977  35.001  29.716  1.00  0.00     0.200 A 
ATOM     90  F   UNL A   1      46.393  35.712  27.542  1.00  0.00    -0.200 F 
ATOM     91  F   UNL A   1      47.456  36.220  30.000  1.00  0.00    -0.200 F 
ENDBRANCH  58  81
ENDBRANCH  32  33
ENDBRANCH  24  27
ENDBRANCH  22  23
ENDBRANCH  21  22
ENDBRANCH   1  21
TORSDOF 16
ENDMDL
MODEL 3
REMARK VINA RESULT:      -9.8      5.591     10.876
REMARK SMILES C=CCS(=O)(=O)N[C@H](CC(N)=O)C(=O)NCCCNC(=O)c1ccc(-c2c3nc(c(-c4c(F)c(F)c(F)c(F)c4F)c4ccc([nH]4)c(-c4c(F)c(F)c(F)c(F)c4F)c4nc(c(-c5c(F)c(F)c(F)c(F)c5F)c5ccc2[nH]5)C=C4)C=C3)cc1
REMARK SMILES IDX 16 1 15 2 13 3 14 4 8 6 7 7 4 9 5 10 6 11 3 12 2 13 1 14
REMARK SMILES IDX 9 15 10 16 11 17 12 18 17 21 18 22 19 23 20 24 21 26 22 27
REMARK SMILES IDX 23 28 84 29 24 30 83 31 25 32 26 33 27 34 77 35 28 36 82 37
REMARK SMILES IDX 76 38 78 39 29 40 81 41 75 42 74 43 30 45 62 46 42 47 61 48
REMARK SMILES IDX 43 49 46 50 60 51 79 52 44 53 45 54 59 56 80 57 47 58 31 59
REMARK SMILES IDX 32 60 40 61 33 62 34 63 38 64 41 65 35 66 36 67 39 68 37 69
REMARK SMILES IDX 63 70 64 71 72 72 65 73 66 74 70 75 73 76 67 77 68 78 71 79
REMARK SMILES IDX 69 80 48 81 49 82 57 83 50 84 51 85 55 86 58 87 52 88 53 89
REMARK SMILES IDX 56 90 54 91
REMARK H PARENT 15 5 7 8 11 19 11 20 19 25 78 44 46 55
REMARK Flexibility Score: inf
ROOT
ATOM      1  C   UNL A   1      32.215  28.059  27.505  1.00  0.00     0.117 C 
ENDROOT
BRANCH   1   2
ATOM      2  N   UNL A   1      31.198  27.055  27.244  1.00  0.00    -0.355 N 
ATOM      3  C   UNL A   1      30.814  26.425  26.092  1.00  0.00     0.238 C 
ATOM      4  O   UNL A   1      30.035  25.477  26.222  1.00  0.00    -0.273 OA
ATOM      5  H   UNL A   1      30.693  26.777  28.042  1.00  0.00     0.163 HD
BRANCH   3   6
ATOM      6  C   UNL A   1      31.264  26.902  24.693  1.00  0.00     0.168 C 
BRANCH   6   7
ATOM      7  N   UNL A   1      30.045  27.255  23.908  1.00  0.00    -0.202 NA
ATOM      8  H   UNL A   1      29.936  26.510  23.220  1.00  0.00     0.141 HD
BRANCH   7   9
ATOM      9  S   UNL A   1      29.853  28.680  23.063  1.00  0.00     0.215 S 
ATOM     10  O   UNL A   1      30.261  28.462  21.697  1.00  0.00    -0.212 OA
ATOM     11  O   UNL A   1      30.538  29.653  23.892  1.00  0.00    -0.212 OA
BRANCH   9  12
ATOM     12  C   UNL A   1      28.075  29.082  23.166  1.00  0.00     0.180 C 
BRANCH  12  13
ATOM     13  C   UNL A   1      27.774  30.502  22.773  1.00  0.00    -0.017 C 
ATOM     14  C   UNL A   1      27.380  31.466  23.618  1.00  0.00     0.005 C 
ENDBRANCH  12  13
ENDBRANCH   9  12
ENDBRANCH   7   9
ENDBRANCH   6   7
BRANCH   6  15
ATOM     15  C   UNL A   1      32.117  25.829  24.051  1.00  0.00     0.129 C 
BRANCH  15  16
ATOM     16  C   UNL A   1      31.474  25.175  22.857  1.00  0.00     0.219 C 
ATOM     17  N   UNL A   1      30.542  24.225  23.163  1.00  0.00    -0.370 N 
ATOM     18  O   UNL A   1      31.710  25.487  21.699  1.00  0.00    -0.275 OA
ATOM     19  H   UNL A   1      30.370  23.990  24.104  1.00  0.00     0.159 HD
ATOM     20  H   UNL A   1      30.042  23.775  22.444  1.00  0.00     0.159 HD
ENDBRANCH  15  16
ENDBRANCH   6  15
ENDBRANCH   3   6
ENDBRANCH   1   2
BRANCH   1  21
ATOM     21  C   UNL A   1      31.765  29.473  27.172  1.00  0.00     0.042 C 
BRANCH  21  22
ATOM     22  C   UNL A   1      32.767  30.256  26.338  1.00  0.00     0.118 C 
BRANCH  22  23
ATOM     23  N   UNL A   1      32.742  31.680  26.635  1.00  0.00    -0.352 N 
ATOM     24  C   UNL A   1      33.510  32.431  27.491  1.00  0.00     0.251 C 
ATOM     25  H   UNL A   1      32.063  32.191  26.138  1.00  0.00     0.163 HD
ATOM     26  O   UNL A   1      33.176  33.586  27.740  1.00  0.00    -0.269 OA
BRANCH  24  27
ATOM     27  C   UNL A   1      34.716  31.862  28.133  1.00  0.00     0.039 A 
ATOM     28  C   UNL A   1      35.849  32.668  28.266  1.00  0.00     0.014 A 
ATOM     29  C   UNL A   1      34.756  30.535  28.566  1.00  0.00     0.014 A 
ATOM     30  C   UNL A   1      36.995  32.164  28.886  1.00  0.00     0.010 A 
ATOM     31  C   UNL A   1      35.862  30.064  29.270  1.00  0.00     0.010 A 
ATOM     32  C   UNL A   1      36.998  30.869  29.430  1.00  0.00    -0.014 A 
BRANCH  32  33
ATOM     33  C   UNL A   1      38.183  30.340  30.154  1.00  0.00     0.031 A 
ATOM     34  C   UNL A   1      38.464  30.770  31.569  1.00  0.00     0.074 A 
ATOM     35  C   UNL A   1      39.039  29.515  29.519  1.00  0.00     0.049 A 
ATOM     36  N   UNL A   1      39.478  30.470  32.340  1.00  0.00    -0.248 NA
ATOM     37  C   UNL A   1      37.489  31.680  32.191  1.00  0.00     0.031 C 
ATOM     38  C   UNL A   1      38.901  29.057  28.136  1.00  0.00     0.029 A 
ATOM     39  N   UNL A   1      40.199  28.921  29.950  1.00  0.00    -0.354 N 
ATOM     40  C   UNL A   1      39.269  31.161  33.528  1.00  0.00     0.074 A 
ATOM     41  C   UNL A   1      38.066  31.944  33.354  1.00  0.00     0.031 C 
ATOM     42  C   UNL A   1      39.919  28.233  27.842  1.00  0.00     0.029 A 
ATOM     43  C   UNL A   1      40.806  28.142  28.996  1.00  0.00     0.049 A 
ATOM     44  H   UNL A   1      40.560  29.041  30.859  1.00  0.00     0.167 HD
ATOM     45  C   UNL A   1      39.999  31.126  34.668  1.00  0.00     0.037 A 
ATOM     46  C   UNL A   1      41.957  27.442  29.043  1.00  0.00     0.037 A 
ATOM     47  C   UNL A   1      41.186  30.329  34.843  1.00  0.00     0.049 A 
ATOM     48  C   UNL A   1      42.763  27.441  30.315  1.00  0.00     0.074 A 
ATOM     49  C   UNL A   1      41.965  30.181  35.977  1.00  0.00     0.029 A 
ATOM     50  N   UNL A   1      41.768  29.549  33.854  1.00  0.00    -0.354 N 
ATOM     51  N   UNL A   1      42.518  28.043  31.452  1.00  0.00    -0.248 NA
ATOM     52  C   UNL A   1      44.005  26.655  30.309  1.00  0.00     0.031 C 
ATOM     53  C   UNL A   1      43.053  29.363  35.658  1.00  0.00     0.029 A 
ATOM     54  C   UNL A   1      42.915  28.944  34.344  1.00  0.00     0.049 A 
ATOM     55  H   UNL A   1      41.419  29.442  32.940  1.00  0.00     0.167 HD
ATOM     56  C   UNL A   1      43.552  27.685  32.305  1.00  0.00     0.074 A 
ATOM     57  C   UNL A   1      44.420  26.798  31.559  1.00  0.00     0.031 C 
ATOM     58  C   UNL A   1      43.765  28.055  33.592  1.00  0.00     0.037 A 
BRANCH  45  59
ATOM     59  C   UNL A   1      39.539  31.975  35.819  1.00  0.00     0.064 A 
ATOM     60  C   UNL A   1      38.541  31.541  36.706  1.00  0.00     0.173 A 
ATOM     61  C   UNL A   1      40.133  33.223  36.065  1.00  0.00     0.173 A 
ATOM     62  F   UNL A   1      37.931  30.361  36.512  1.00  0.00    -0.203 F 
ATOM     63  C   UNL A   1      38.133  32.338  37.773  1.00  0.00     0.198 A 
ATOM     64  C   UNL A   1      39.748  34.000  37.155  1.00  0.00     0.198 A 
ATOM     65  F   UNL A   1      41.096  33.685  35.253  1.00  0.00    -0.203 F 
ATOM     66  F   UNL A   1      37.140  31.924  38.573  1.00  0.00    -0.200 F 
ATOM     67  C   UNL A   1      38.742  33.561  38.002  1.00  0.00     0.200 A 
ATOM     68  F   UNL A   1      40.350  35.175  37.383  1.00  0.00    -0.200 F 
ATOM     69  F   UNL A   1      38.357  34.321  39.035  1.00  0.00    -0.200 F 
ENDBRANCH  45  59
BRANCH  46  70
ATOM     70  C   UNL A   1      42.411  26.673  27.853  1.00  0.00     0.064 A 
ATOM     71  C   UNL A   1      42.018  25.340  27.661  1.00  0.00     0.173 A 
ATOM     72  C   UNL A   1      43.256  27.246  26.892  1.00  0.00     0.173 A 
ATOM     73  F   UNL A   1      41.225  24.740  28.561  1.00  0.00    -0.203 F 
ATOM     74  C   UNL A   1      42.476  24.603  26.571  1.00  0.00     0.198 A 
ATOM     75  C   UNL A   1      43.685  26.519  25.784  1.00  0.00     0.198 A 
ATOM     76  F   UNL A   1      43.655  28.520  27.021  1.00  0.00    -0.203 F 
ATOM     77  F   UNL A   1      42.129  23.315  26.442  1.00  0.00    -0.200 F 
ATOM     78  C   UNL A   1      43.305  25.195  25.630  1.00  0.00     0.200 A 
ATOM     79  F   UNL A   1      44.470  27.101  24.866  1.00  0.00    -0.200 F 
ATOM     80  F   UNL A   1      43.742  24.488  24.579  1.00  0.00    -0.200 F 
ENDBRANCH  46  70
BRANCH  58  81
ATOM     81  C   UNL A   1      44.959  27.470  34.292  1.00  0.00     0.064 A 
ATOM     82  C   UNL A   1      44.893  26.242  34.968  1.00  0.00     0.173 A 
ATOM     83  C   UNL A   1      46.198  28.129  34.251  1.00  0.00     0.173 A 
ATOM     84  F   UNL A   1      43.730  25.578  35.050  1.00  0.00    -0.203 F 
ATOM     85  C   UNL A   1      46.015  25.712  35.602  1.00  0.00     0.198 A 
ATOM     86  C   UNL A   1      47.325  27.578  34.854  1.00  0.00     0.198 A 
ATOM     87  F   UNL A   1      46.319  29.302  33.611  1.00  0.00    -0.203 F 
ATOM     88  F   UNL A   1      45.913  24.566  36.289  1.00  0.00    -0.200 F 
ATOM     89  C   UNL A   1      47.230  26.376  35.538  1.00  0.00     0.200 A 
ATOM     90  F   UNL A   1      48.502  28.213  34.775  1.00  0.00    -0.200 F 
ATOM     91  F   UNL A   1      48.310  25.860  36.140  1.00  0.00    -0.200 F 
ENDBRANCH  58  81
ENDBRANCH  32  33
ENDBRANCH  24  27
ENDBRANCH  22  23
ENDBRANCH  21  22
ENDBRANCH   1  21
TORSDOF 16
ENDMDL
