MODEL 1
REMARK VINA RESULT:     -11.5      0.000      0.000
REMARK SMILES [NH3+][C@H]1COC[C@@H]1C(=O)NC1(CC(=O)NCCCNC(=O)c2ccc(-c3c4nc(c(-c5c(F)c(F)c(F)c(F)c5F)c5ccc([nH]5)c(-c5c(F)c(F)c(F)c(F)c5F)c5nc(c(-c6c(F)c(F)c(F)c(F)c6F)c6ccc3[nH]6)C=C5)C=C4)cc2)CCC1
REMARK SMILES IDX 15 1 14 2 12 3 13 4 11 6 10 7 84 8 86 9 85 10 9 11 7 12 8 13
REMARK SMILES IDX 6 15 2 16 3 17 4 18 5 19 1 20 16 24 17 25 18 26 19 27 20 29
REMARK SMILES IDX 21 30 22 31 83 32 23 33 82 34 24 35 25 36 26 37 76 38 27 39
REMARK SMILES IDX 81 40 75 41 77 42 28 43 80 44 74 45 73 46 29 48 61 49 41 50
REMARK SMILES IDX 60 51 42 52 45 53 59 54 78 55 43 56 44 57 58 59 79 60 46 61
REMARK SMILES IDX 30 62 31 63 39 64 32 65 33 66 37 67 40 68 34 69 35 70 38 71
REMARK SMILES IDX 36 72 62 73 63 74 71 75 64 76 65 77 69 78 72 79 66 80 67 81
REMARK SMILES IDX 70 82 68 83 47 84 48 85 56 86 49 87 50 88 54 89 57 90 51 91
REMARK SMILES IDX 52 92 55 93 53 94
REMARK H PARENT 14 5 9 14 1 21 1 22 1 23 18 28 77 47 45 58
REMARK Flexibility Score: inf
ROOT
ATOM      1  C   UNL A   1      36.546  20.477  24.937  1.00  0.00     0.117 C 
ENDROOT
BRANCH   1   2
ATOM      2  N   UNL A   1      36.903  21.665  24.189  1.00  0.00    -0.356 N 
ATOM      3  C   UNL A   1      36.095  22.559  23.562  1.00  0.00     0.222 C 
ATOM      4  O   UNL A   1      36.606  23.353  22.769  1.00  0.00    -0.275 OA
ATOM      5  H   UNL A   1      37.868  21.852  24.128  1.00  0.00     0.163 HD
BRANCH   3   6
ATOM      6  C   UNL A   1      34.607  22.600  23.828  1.00  0.00     0.128 C 
BRANCH   6   7
ATOM      7  C   UNL A   1      33.994  23.979  24.198  1.00  0.00     0.049 C 
ATOM      8  C   UNL A   1      34.825  24.664  25.322  1.00  0.00     0.029 C 
ATOM      9  C   UNL A   1      32.842  23.872  25.217  1.00  0.00     0.029 C 
ATOM     10  C   UNL A   1      33.874  24.030  26.349  1.00  0.00     0.005 C 
BRANCH   7  11
ATOM     11  N   UNL A   1      33.857  24.806  22.978  1.00  0.00    -0.350 N 
ATOM     12  C   UNL A   1      33.448  26.024  22.560  1.00  0.00     0.232 C 
ATOM     13  O   UNL A   1      33.617  26.188  21.338  1.00  0.00    -0.274 OA
ATOM     14  H   UNL A   1      34.173  24.289  22.202  1.00  0.00     0.164 HD
BRANCH  12  15
ATOM     15  C   UNL A   1      32.806  27.179  23.318  1.00  0.00     0.164 C 
ATOM     16  C   UNL A   1      33.661  28.047  24.219  1.00  0.00     0.221 C 
ATOM     17  C   UNL A   1      33.122  27.750  25.616  1.00  0.00     0.225 C 
ATOM     18  O   UNL A   1      31.787  27.253  25.481  1.00  0.00    -0.374 OA
ATOM     19  C   UNL A   1      31.574  26.840  24.123  1.00  0.00     0.180 C 
BRANCH  16  20
ATOM     20  N   UNL A   1      33.457  29.481  23.910  1.00  0.00    -0.352 N 
ATOM     21  H   UNL A   1      32.834  29.571  23.107  1.00  0.00     0.344 HD
ATOM     22  H   UNL A   1      34.355  29.913  23.693  1.00  0.00     0.344 HD
ATOM     23  H   UNL A   1      33.042  29.948  24.716  1.00  0.00     0.344 HD
ENDBRANCH  16  20
ENDBRANCH  12  15
ENDBRANCH   7  11
ENDBRANCH   6   7
ENDBRANCH   3   6
ENDBRANCH   1   2
BRANCH   1  24
ATOM     24  C   UNL A   1      37.742  19.531  25.047  1.00  0.00     0.042 C 
BRANCH  24  25
ATOM     25  C   UNL A   1      39.019  20.216  25.516  1.00  0.00     0.118 C 
BRANCH  25  26
ATOM     26  N   UNL A   1      40.079  19.254  25.775  1.00  0.00    -0.352 N 
ATOM     27  C   UNL A   1      41.395  19.457  26.103  1.00  0.00     0.251 C 
ATOM     28  H   UNL A   1      39.809  18.310  25.704  1.00  0.00     0.163 HD
ATOM     29  O   UNL A   1      42.176  18.511  26.054  1.00  0.00    -0.269 OA
BRANCH  27  30
ATOM     30  C   UNL A   1      41.889  20.794  26.510  1.00  0.00     0.039 A 
ATOM     31  C   UNL A   1      42.003  21.074  27.876  1.00  0.00     0.014 A 
ATOM     32  C   UNL A   1      42.169  21.792  25.573  1.00  0.00     0.014 A 
ATOM     33  C   UNL A   1      42.423  22.338  28.299  1.00  0.00     0.010 A 
ATOM     34  C   UNL A   1      42.660  23.027  25.993  1.00  0.00     0.010 A 
ATOM     35  C   UNL A   1      42.774  23.320  27.360  1.00  0.00    -0.014 A 
BRANCH  35  36
ATOM     36  C   UNL A   1      43.222  24.669  27.789  1.00  0.00     0.031 A 
ATOM     37  C   UNL A   1      42.208  25.729  28.121  1.00  0.00     0.074 A 
ATOM     38  C   UNL A   1      44.537  24.955  27.831  1.00  0.00     0.049 A 
ATOM     39  N   UNL A   1      42.395  26.986  28.438  1.00  0.00    -0.248 NA
ATOM     40  C   UNL A   1      40.792  25.330  28.064  1.00  0.00     0.031 C 
ATOM     41  C   UNL A   1      45.616  24.025  27.493  1.00  0.00     0.029 A 
ATOM     42  N   UNL A   1      45.190  26.116  28.164  1.00  0.00    -0.354 N 
ATOM     43  C   UNL A   1      41.126  27.527  28.602  1.00  0.00     0.074 A 
ATOM     44  C   UNL A   1      40.176  26.479  28.299  1.00  0.00     0.031 C 
ATOM     45  C   UNL A   1      46.795  24.647  27.647  1.00  0.00     0.029 A 
ATOM     46  C   UNL A   1      46.556  26.026  28.062  1.00  0.00     0.049 A 
ATOM     47  H   UNL A   1      44.723  26.934  28.448  1.00  0.00     0.167 HD
ATOM     48  C   UNL A   1      40.783  28.779  28.992  1.00  0.00     0.037 A 
ATOM     49  C   UNL A   1      47.508  26.955  28.271  1.00  0.00     0.037 A 
ATOM     50  C   UNL A   1      41.731  29.812  29.319  1.00  0.00     0.049 A 
ATOM     51  C   UNL A   1      47.102  28.336  28.712  1.00  0.00     0.074 A 
ATOM     52  C   UNL A   1      41.486  31.099  29.765  1.00  0.00     0.029 A 
ATOM     53  N   UNL A   1      43.109  29.672  29.236  1.00  0.00    -0.354 N 
ATOM     54  N   UNL A   1      45.902  28.821  28.913  1.00  0.00    -0.248 NA
ATOM     55  C   UNL A   1      48.187  29.295  28.966  1.00  0.00     0.031 C 
ATOM     56  C   UNL A   1      42.715  31.750  29.920  1.00  0.00     0.029 A 
ATOM     57  C   UNL A   1      43.727  30.853  29.614  1.00  0.00     0.049 A 
ATOM     58  H   UNL A   1      43.578  28.854  28.952  1.00  0.00     0.167 HD
ATOM     59  C   UNL A   1      46.084  30.129  29.339  1.00  0.00     0.074 A 
ATOM     60  C   UNL A   1      47.513  30.357  29.384  1.00  0.00     0.031 C 
ATOM     61  C   UNL A   1      45.151  31.059  29.661  1.00  0.00     0.037 A 
BRANCH  48  62
ATOM     62  C   UNL A   1      39.320  29.096  29.097  1.00  0.00     0.064 A 
ATOM     63  C   UNL A   1      38.639  29.022  30.322  1.00  0.00     0.173 A 
ATOM     64  C   UNL A   1      38.596  29.512  27.969  1.00  0.00     0.173 A 
ATOM     65  F   UNL A   1      39.282  28.618  31.428  1.00  0.00    -0.203 F 
ATOM     66  C   UNL A   1      37.282  29.323  30.409  1.00  0.00     0.198 A 
ATOM     67  C   UNL A   1      37.246  29.843  28.065  1.00  0.00     0.198 A 
ATOM     68  F   UNL A   1      39.199  29.607  26.776  1.00  0.00    -0.203 F 
ATOM     69  F   UNL A   1      36.644  29.197  31.580  1.00  0.00    -0.200 F 
ATOM     70  C   UNL A   1      36.589  29.740  29.282  1.00  0.00     0.200 A 
ATOM     71  F   UNL A   1      36.580  30.256  26.979  1.00  0.00    -0.200 F 
ATOM     72  F   UNL A   1      35.284  30.036  29.369  1.00  0.00    -0.200 F 
ENDBRANCH  48  62
BRANCH  49  73
ATOM     73  C   UNL A   1      48.939  26.603  28.084  1.00  0.00     0.064 A 
ATOM     74  C   UNL A   1      49.512  26.571  26.805  1.00  0.00     0.173 A 
ATOM     75  C   UNL A   1      49.762  26.296  29.176  1.00  0.00     0.173 A 
ATOM     76  F   UNL A   1      48.759  26.838  25.727  1.00  0.00    -0.203 F 
ATOM     77  C   UNL A   1      50.849  26.224  26.624  1.00  0.00     0.198 A 
ATOM     78  C   UNL A   1      51.106  25.976  28.998  1.00  0.00     0.198 A 
ATOM     79  F   UNL A   1      49.263  26.319  30.422  1.00  0.00    -0.203 F 
ATOM     80  F   UNL A   1      51.361  26.158  25.387  1.00  0.00    -0.200 F 
ATOM     81  C   UNL A   1      51.646  25.933  27.721  1.00  0.00     0.200 A 
ATOM     82  F   UNL A   1      51.878  25.709  30.060  1.00  0.00    -0.200 F 
ATOM     83  F   UNL A   1      52.934  25.605  27.547  1.00  0.00    -0.200 F 
ENDBRANCH  49  73
BRANCH  61  84
ATOM     84  C   UNL A   1      45.647  32.396  30.127  1.00  0.00     0.064 A 
ATOM     85  C   UNL A   1      45.934  32.645  31.477  1.00  0.00     0.173 A 
ATOM     86  C   UNL A   1      45.875  33.428  29.204  1.00  0.00     0.173 A 
ATOM     87  F   UNL A   1      45.719  31.693  32.398  1.00  0.00    -0.203 F 
ATOM     88  C   UNL A   1      46.409  33.886  31.889  1.00  0.00     0.198 A 
ATOM     89  C   UNL A   1      46.376  34.659  29.616  1.00  0.00     0.198 A 
ATOM     90  F   UNL A   1      45.621  33.239  27.900  1.00  0.00    -0.203 F 
ATOM     91  F   UNL A   1      46.636  34.116  33.190  1.00  0.00    -0.200 F 
ATOM     92  C   UNL A   1      46.637  34.890  30.959  1.00  0.00     0.200 A 
ATOM     93  F   UNL A   1      46.606  35.624  28.715  1.00  0.00    -0.200 F 
ATOM     94  F   UNL A   1      47.100  36.082  31.358  1.00  0.00    -0.200 F 
ENDBRANCH  61  84
ENDBRANCH  35  36
ENDBRANCH  27  30
ENDBRANCH  25  26
ENDBRANCH  24  25
ENDBRANCH   1  24
TORSDOF 14
ENDMDL
MODEL 2
REMARK VINA RESULT:     -11.5      5.086     10.452
REMARK SMILES [NH3+][C@H]1COC[C@@H]1C(=O)NC1(CC(=O)NCCCNC(=O)c2ccc(-c3c4nc(c(-c5c(F)c(F)c(F)c(F)c5F)c5ccc([nH]5)c(-c5c(F)c(F)c(F)c(F)c5F)c5nc(c(-c6c(F)c(F)c(F)c(F)c6F)c6ccc3[nH]6)C=C5)C=C4)cc2)CCC1
REMARK SMILES IDX 15 1 14 2 12 3 13 4 11 6 10 7 84 8 86 9 85 10 9 11 7 12 8 13
REMARK SMILES IDX 6 15 2 16 3 17 4 18 5 19 1 20 16 24 17 25 18 26 19 27 20 29
REMARK SMILES IDX 21 30 22 31 83 32 23 33 82 34 24 35 25 36 26 37 76 38 27 39
REMARK SMILES IDX 81 40 75 41 77 42 28 43 80 44 74 45 73 46 29 48 61 49 41 50
REMARK SMILES IDX 60 51 42 52 45 53 59 54 78 55 43 56 44 57 58 59 79 60 46 61
REMARK SMILES IDX 30 62 31 63 39 64 32 65 33 66 37 67 40 68 34 69 35 70 38 71
REMARK SMILES IDX 36 72 62 73 63 74 71 75 64 76 65 77 69 78 72 79 66 80 67 81
REMARK SMILES IDX 70 82 68 83 47 84 48 85 56 86 49 87 50 88 54 89 57 90 51 91
REMARK SMILES IDX 52 92 55 93 53 94
REMARK H PARENT 14 5 9 14 1 21 1 22 1 23 18 28 77 47 45 58
REMARK Flexibility Score: inf
ROOT
ATOM      1  C   UNL A   1      31.428  30.654  25.963  1.00  0.00     0.117 C 
ENDROOT
BRANCH   1   2
ATOM      2  N   UNL A   1      31.733  29.730  27.037  1.00  0.00    -0.356 N 
ATOM      3  C   UNL A   1      31.548  28.385  27.091  1.00  0.00     0.222 C 
ATOM      4  O   UNL A   1      31.635  27.826  28.186  1.00  0.00    -0.275 OA
ATOM      5  H   UNL A   1      32.133  30.134  27.841  1.00  0.00     0.163 HD
BRANCH   3   6
ATOM      6  C   UNL A   1      31.254  27.579  25.845  1.00  0.00     0.128 C 
BRANCH   6   7
ATOM      7  C   UNL A   1      32.158  26.345  25.575  1.00  0.00     0.049 C 
ATOM      8  C   UNL A   1      33.660  26.720  25.740  1.00  0.00     0.029 C 
ATOM      9  C   UNL A   1      32.453  26.132  24.076  1.00  0.00     0.029 C 
ATOM     10  C   UNL A   1      33.707  27.013  24.232  1.00  0.00     0.005 C 
BRANCH   7  11
ATOM     11  N   UNL A   1      31.733  25.218  26.434  1.00  0.00    -0.350 N 
ATOM     12  C   UNL A   1      32.029  23.932  26.725  1.00  0.00     0.232 C 
ATOM     13  O   UNL A   1      31.305  23.470  27.625  1.00  0.00    -0.274 OA
ATOM     14  H   UNL A   1      30.969  25.505  26.985  1.00  0.00     0.164 HD
BRANCH  12  15
ATOM     15  C   UNL A   1      33.053  22.980  26.122  1.00  0.00     0.164 C 
ATOM     16  C   UNL A   1      34.528  23.199  26.398  1.00  0.00     0.221 C 
ATOM     17  C   UNL A   1      35.096  23.563  25.029  1.00  0.00     0.225 C 
ATOM     18  O   UNL A   1      34.209  23.051  24.029  1.00  0.00    -0.374 OA
ATOM     19  C   UNL A   1      32.945  22.744  24.634  1.00  0.00     0.180 C 
BRANCH  16  20
ATOM     20  N   UNL A   1      35.162  21.949  26.875  1.00  0.00    -0.352 N 
ATOM     21  H   UNL A   1      34.733  21.665  27.757  1.00  0.00     0.344 HD
ATOM     22  H   UNL A   1      36.159  22.106  27.018  1.00  0.00     0.344 HD
ATOM     23  H   UNL A   1      35.029  21.213  26.181  1.00  0.00     0.344 HD
ENDBRANCH  16  20
ENDBRANCH  12  15
ENDBRANCH   7  11
ENDBRANCH   6   7
ENDBRANCH   3   6
ENDBRANCH   1   2
BRANCH   1  24
ATOM     24  C   UNL A   1      31.318  32.082  26.497  1.00  0.00     0.042 C 
BRANCH  24  25
ATOM     25  C   UNL A   1      32.643  32.653  26.987  1.00  0.00     0.118 C 
BRANCH  25  26
ATOM     26  N   UNL A   1      32.490  34.012  27.482  1.00  0.00    -0.352 N 
ATOM     27  C   UNL A   1      33.081  34.633  28.552  1.00  0.00     0.251 C 
ATOM     28  H   UNL A   1      31.867  34.574  26.967  1.00  0.00     0.163 HD
ATOM     29  O   UNL A   1      32.641  35.715  28.933  1.00  0.00    -0.269 OA
BRANCH  27  30
ATOM     30  C   UNL A   1      34.231  34.022  29.258  1.00  0.00     0.039 A 
ATOM     31  C   UNL A   1      35.523  34.416  28.892  1.00  0.00     0.014 A 
ATOM     32  C   UNL A   1      34.060  33.020  30.216  1.00  0.00     0.014 A 
ATOM     33  C   UNL A   1      36.634  33.831  29.504  1.00  0.00     0.010 A 
ATOM     34  C   UNL A   1      35.165  32.489  30.880  1.00  0.00     0.010 A 
ATOM     35  C   UNL A   1      36.464  32.875  30.517  1.00  0.00    -0.014 A 
BRANCH  35  36
ATOM     36  C   UNL A   1      37.632  32.240  31.179  1.00  0.00     0.031 A 
ATOM     37  C   UNL A   1      38.409  31.167  30.468  1.00  0.00     0.074 A 
ATOM     38  C   UNL A   1      37.962  32.593  32.436  1.00  0.00     0.049 A 
ATOM     39  N   UNL A   1      39.407  30.438  30.903  1.00  0.00    -0.248 NA
ATOM     40  C   UNL A   1      37.992  30.850  29.092  1.00  0.00     0.031 C 
ATOM     41  C   UNL A   1      37.262  33.592  33.245  1.00  0.00     0.029 A 
ATOM     42  N   UNL A   1      38.964  32.141  33.258  1.00  0.00    -0.354 N 
ATOM     43  C   UNL A   1      39.723  29.572  29.864  1.00  0.00     0.074 A 
ATOM     44  C   UNL A   1      38.780  29.827  28.797  1.00  0.00     0.031 C 
ATOM     45  C   UNL A   1      37.862  33.686  34.442  1.00  0.00     0.029 A 
ATOM     46  C   UNL A   1      38.967  32.733  34.497  1.00  0.00     0.049 A 
ATOM     47  H   UNL A   1      39.618  31.458  32.986  1.00  0.00     0.167 HD
ATOM     48  C   UNL A   1      40.724  28.661  29.797  1.00  0.00     0.037 A 
ATOM     49  C   UNL A   1      39.765  32.523  35.561  1.00  0.00     0.037 A 
ATOM     50  C   UNL A   1      41.678  28.427  30.849  1.00  0.00     0.049 A 
ATOM     51  C   UNL A   1      40.875  31.512  35.458  1.00  0.00     0.074 A 
ATOM     52  C   UNL A   1      42.755  27.558  30.863  1.00  0.00     0.029 A 
ATOM     53  N   UNL A   1      41.668  29.072  32.078  1.00  0.00    -0.354 N 
ATOM     54  N   UNL A   1      41.196  30.736  34.452  1.00  0.00    -0.248 NA
ATOM     55  C   UNL A   1      41.741  31.357  36.636  1.00  0.00     0.031 C 
ATOM     56  C   UNL A   1      43.377  27.651  32.112  1.00  0.00     0.029 A 
ATOM     57  C   UNL A   1      42.715  28.612  32.861  1.00  0.00     0.049 A 
ATOM     58  H   UNL A   1      41.015  29.755  32.353  1.00  0.00     0.167 HD
ATOM     59  C   UNL A   1      42.312  30.019  34.864  1.00  0.00     0.074 A 
ATOM     60  C   UNL A   1      42.623  30.466  36.205  1.00  0.00     0.031 C 
ATOM     61  C   UNL A   1      43.014  29.075  34.191  1.00  0.00     0.037 A 
BRANCH  48  62
ATOM     62  C   UNL A   1      40.845  27.856  28.535  1.00  0.00     0.064 A 
ATOM     63  C   UNL A   1      41.579  28.323  27.435  1.00  0.00     0.173 A 
ATOM     64  C   UNL A   1      40.251  26.588  28.436  1.00  0.00     0.173 A 
ATOM     65  F   UNL A   1      42.157  29.533  27.473  1.00  0.00    -0.203 F 
ATOM     66  C   UNL A   1      41.689  27.566  26.271  1.00  0.00     0.198 A 
ATOM     67  C   UNL A   1      40.388  25.820  27.283  1.00  0.00     0.198 A 
ATOM     68  F   UNL A   1      39.545  26.091  29.462  1.00  0.00    -0.203 F 
ATOM     69  F   UNL A   1      42.353  28.056  25.215  1.00  0.00    -0.200 F 
ATOM     70  C   UNL A   1      41.099  26.313  26.199  1.00  0.00     0.200 A 
ATOM     71  F   UNL A   1      39.828  24.605  27.218  1.00  0.00    -0.200 F 
ATOM     72  F   UNL A   1      41.211  25.582  25.080  1.00  0.00    -0.200 F 
ENDBRANCH  48  62
BRANCH  49  73
ATOM     73  C   UNL A   1      39.554  33.301  36.809  1.00  0.00     0.064 A 
ATOM     74  C   UNL A   1      38.748  32.802  37.842  1.00  0.00     0.173 A 
ATOM     75  C   UNL A   1      40.155  34.554  36.996  1.00  0.00     0.173 A 
ATOM     76  F   UNL A   1      38.136  31.617  37.700  1.00  0.00    -0.203 F 
ATOM     77  C   UNL A   1      38.534  33.537  39.006  1.00  0.00     0.198 A 
ATOM     78  C   UNL A   1      39.963  35.275  38.172  1.00  0.00     0.198 A 
ATOM     79  F   UNL A   1      40.941  35.072  36.041  1.00  0.00    -0.203 F 
ATOM     80  F   UNL A   1      37.723  33.057  39.959  1.00  0.00    -0.200 F 
ATOM     81  C   UNL A   1      39.147  34.770  39.173  1.00  0.00     0.200 A 
ATOM     82  F   UNL A   1      40.568  36.460  38.337  1.00  0.00    -0.200 F 
ATOM     83  F   UNL A   1      38.945  35.473  40.295  1.00  0.00    -0.200 F 
ENDBRANCH  49  73
BRANCH  61  84
ATOM     84  C   UNL A   1      44.209  28.487  34.881  1.00  0.00     0.064 A 
ATOM     85  C   UNL A   1      44.116  27.310  35.639  1.00  0.00     0.173 A 
ATOM     86  C   UNL A   1      45.471  29.087  34.749  1.00  0.00     0.173 A 
ATOM     87  F   UNL A   1      42.928  26.708  35.805  1.00  0.00    -0.203 F 
ATOM     88  C   UNL A   1      45.238  26.768  36.259  1.00  0.00     0.198 A 
ATOM     89  C   UNL A   1      46.596  28.527  35.348  1.00  0.00     0.198 A 
ATOM     90  F   UNL A   1      45.614  30.210  34.031  1.00  0.00    -0.203 F 
ATOM     91  F   UNL A   1      45.118  25.667  37.014  1.00  0.00    -0.200 F 
ATOM     92  C   UNL A   1      46.478  27.372  36.107  1.00  0.00     0.200 A 
ATOM     93  F   UNL A   1      47.795  29.105  35.191  1.00  0.00    -0.200 F 
ATOM     94  F   UNL A   1      47.557  26.845  36.700  1.00  0.00    -0.200 F 
ENDBRANCH  61  84
ENDBRANCH  35  36
ENDBRANCH  27  30
ENDBRANCH  25  26
ENDBRANCH  24  25
ENDBRANCH   1  24
TORSDOF 14
ENDMDL
MODEL 3
REMARK VINA RESULT:     -11.4      5.244     10.628
REMARK SMILES [NH3+][C@H]1COC[C@@H]1C(=O)NC1(CC(=O)NCCCNC(=O)c2ccc(-c3c4nc(c(-c5c(F)c(F)c(F)c(F)c5F)c5ccc([nH]5)c(-c5c(F)c(F)c(F)c(F)c5F)c5nc(c(-c6c(F)c(F)c(F)c(F)c6F)c6ccc3[nH]6)C=C5)C=C4)cc2)CCC1
REMARK SMILES IDX 15 1 14 2 12 3 13 4 11 6 10 7 84 8 86 9 85 10 9 11 7 12 8 13
REMARK SMILES IDX 6 15 2 16 3 17 4 18 5 19 1 20 16 24 17 25 18 26 19 27 20 29
REMARK SMILES IDX 21 30 22 31 83 32 23 33 82 34 24 35 25 36 26 37 76 38 27 39
REMARK SMILES IDX 81 40 75 41 77 42 28 43 80 44 74 45 73 46 29 48 61 49 41 50
REMARK SMILES IDX 60 51 42 52 45 53 59 54 78 55 43 56 44 57 58 59 79 60 46 61
REMARK SMILES IDX 30 62 31 63 39 64 32 65 33 66 37 67 40 68 34 69 35 70 38 71
REMARK SMILES IDX 36 72 62 73 63 74 71 75 64 76 65 77 69 78 72 79 66 80 67 81
REMARK SMILES IDX 70 82 68 83 47 84 48 85 56 86 49 87 50 88 54 89 57 90 51 91
REMARK SMILES IDX 52 92 55 93 53 94
REMARK H PARENT 14 5 9 14 1 21 1 22 1 23 18 28 77 47 45 58
REMARK Flexibility Score: inf
ROOT
ATOM      1  C   UNL A   1      31.302  30.856  26.277  1.00  0.00     0.117 C 
ENDROOT
BRANCH   1   2
ATOM      2  N   UNL A   1      32.398  30.414  25.440  1.00  0.00    -0.356 N 
ATOM      3  C   UNL A   1      32.555  29.235  24.783  1.00  0.00     0.222 C 
ATOM      4  O   UNL A   1      33.670  28.957  24.338  1.00  0.00    -0.275 OA
ATOM      5  H   UNL A   1      33.134  31.059  25.330  1.00  0.00     0.163 HD
BRANCH   3   6
ATOM      6  C   UNL A   1      31.396  28.283  24.584  1.00  0.00     0.128 C 
BRANCH   6   7
ATOM      7  C   UNL A   1      30.907  28.062  23.127  1.00  0.00     0.049 C 
ATOM      8  C   UNL A   1      30.365  29.390  22.523  1.00  0.00     0.029 C 
ATOM      9  C   UNL A   1      29.463  27.525  23.050  1.00  0.00     0.029 C 
ATOM     10  C   UNL A   1      28.961  28.979  22.995  1.00  0.00     0.005 C 
BRANCH   7  11
ATOM     11  N   UNL A   1      31.990  27.449  22.326  1.00  0.00    -0.350 N 
ATOM     12  C   UNL A   1      32.682  26.297  22.177  1.00  0.00     0.232 C 
ATOM     13  O   UNL A   1      33.508  26.356  21.249  1.00  0.00    -0.274 OA
ATOM     14  H   UNL A   1      32.322  28.110  21.676  1.00  0.00     0.164 HD
BRANCH  12  15
ATOM     15  C   UNL A   1      32.634  24.993  22.962  1.00  0.00     0.164 C 
ATOM     16  C   UNL A   1      31.321  24.246  23.089  1.00  0.00     0.221 C 
ATOM     17  C   UNL A   1      31.000  24.340  24.578  1.00  0.00     0.225 C 
ATOM     18  O   UNL A   1      32.223  24.580  25.281  1.00  0.00    -0.374 OA
ATOM     19  C   UNL A   1      33.219  25.034  24.354  1.00  0.00     0.180 C 
BRANCH  16  20
ATOM     20  N   UNL A   1      31.490  22.824  22.712  1.00  0.00    -0.352 N 
ATOM     21  H   UNL A   1      30.962  22.235  23.358  1.00  0.00     0.344 HD
ATOM     22  H   UNL A   1      32.478  22.575  22.756  1.00  0.00     0.344 HD
ATOM     23  H   UNL A   1      31.145  22.680  21.763  1.00  0.00     0.344 HD
ENDBRANCH  16  20
ENDBRANCH  12  15
ENDBRANCH   7  11
ENDBRANCH   6   7
ENDBRANCH   3   6
ENDBRANCH   1   2
BRANCH   1  24
ATOM     24  C   UNL A   1      31.351  32.372  26.471  1.00  0.00     0.042 C 
BRANCH  24  25
ATOM     25  C   UNL A   1      32.590  32.851  27.217  1.00  0.00     0.118 C 
BRANCH  25  26
ATOM     26  N   UNL A   1      32.462  34.239  27.633  1.00  0.00    -0.352 N 
ATOM     27  C   UNL A   1      33.068  34.911  28.664  1.00  0.00     0.251 C 
ATOM     28  H   UNL A   1      31.844  34.780  27.090  1.00  0.00     0.163 HD
ATOM     29  O   UNL A   1      32.648  36.019  28.983  1.00  0.00    -0.269 OA
BRANCH  27  30
ATOM     30  C   UNL A   1      34.213  34.322  29.398  1.00  0.00     0.039 A 
ATOM     31  C   UNL A   1      35.502  34.523  28.892  1.00  0.00     0.014 A 
ATOM     32  C   UNL A   1      34.030  33.521  30.527  1.00  0.00     0.014 A 
ATOM     33  C   UNL A   1      36.603  33.947  29.532  1.00  0.00     0.010 A 
ATOM     34  C   UNL A   1      35.134  33.009  31.208  1.00  0.00     0.010 A 
ATOM     35  C   UNL A   1      36.430  33.201  30.707  1.00  0.00    -0.014 A 
BRANCH  35  36
ATOM     36  C   UNL A   1      37.586  32.580  31.401  1.00  0.00     0.031 A 
ATOM     37  C   UNL A   1      38.326  31.439  30.760  1.00  0.00     0.074 A 
ATOM     38  C   UNL A   1      37.939  33.009  32.628  1.00  0.00     0.049 A 
ATOM     39  N   UNL A   1      39.308  30.714  31.236  1.00  0.00    -0.248 NA
ATOM     40  C   UNL A   1      37.886  31.040  29.413  1.00  0.00     0.031 C 
ATOM     41  C   UNL A   1      37.275  34.081  33.372  1.00  0.00     0.029 A 
ATOM     42  N   UNL A   1      38.937  32.587  33.471  1.00  0.00    -0.354 N 
ATOM     43  C   UNL A   1      39.589  29.770  30.256  1.00  0.00     0.074 A 
ATOM     44  C   UNL A   1      38.643  29.977  29.182  1.00  0.00     0.031 C 
ATOM     45  C   UNL A   1      37.890  34.240  34.554  1.00  0.00     0.029 A 
ATOM     46  C   UNL A   1      38.969  33.262  34.666  1.00  0.00     0.049 A 
ATOM     47  H   UNL A   1      39.569  31.869  33.241  1.00  0.00     0.167 HD
ATOM     48  C   UNL A   1      40.565  28.829  30.243  1.00  0.00     0.037 A 
ATOM     49  C   UNL A   1      39.772  33.104  35.735  1.00  0.00     0.037 A 
ATOM     50  C   UNL A   1      41.522  28.641  31.302  1.00  0.00     0.049 A 
ATOM     51  C   UNL A   1      40.852  32.057  35.693  1.00  0.00     0.074 A 
ATOM     52  C   UNL A   1      42.575  27.745  31.366  1.00  0.00     0.029 A 
ATOM     53  N   UNL A   1      41.543  29.369  32.483  1.00  0.00    -0.354 N 
ATOM     54  N   UNL A   1      41.142  31.205  34.741  1.00  0.00    -0.248 NA
ATOM     55  C   UNL A   1      41.726  31.960  36.871  1.00  0.00     0.031 C 
ATOM     56  C   UNL A   1      43.212  27.906  32.601  1.00  0.00     0.029 A 
ATOM     57  C   UNL A   1      42.585  28.934  33.287  1.00  0.00     0.049 A 
ATOM     58  H   UNL A   1      40.912  30.088  32.715  1.00  0.00     0.167 HD
ATOM     59  C   UNL A   1      42.241  30.487  35.191  1.00  0.00     0.074 A 
ATOM     60  C   UNL A   1      42.578  31.016  36.496  1.00  0.00     0.031 C 
ATOM     61  C   UNL A   1      42.911  29.479  34.579  1.00  0.00     0.037 A 
BRANCH  48  62
ATOM     62  C   UNL A   1      40.650  27.935  29.040  1.00  0.00     0.064 A 
ATOM     63  C   UNL A   1      41.542  28.203  27.990  1.00  0.00     0.173 A 
ATOM     64  C   UNL A   1      39.858  26.780  28.949  1.00  0.00     0.173 A 
ATOM     65  F   UNL A   1      42.312  29.301  28.022  1.00  0.00    -0.203 F 
ATOM     66  C   UNL A   1      41.617  27.365  26.880  1.00  0.00     0.198 A 
ATOM     67  C   UNL A   1      39.958  25.928  27.852  1.00  0.00     0.198 A 
ATOM     68  F   UNL A   1      38.995  26.474  29.928  1.00  0.00    -0.203 F 
ATOM     69  F   UNL A   1      42.440  27.669  25.867  1.00  0.00    -0.200 F 
ATOM     70  C   UNL A   1      40.830  26.226  26.815  1.00  0.00     0.200 A 
ATOM     71  F   UNL A   1      39.205  24.821  27.796  1.00  0.00    -0.200 F 
ATOM     72  F   UNL A   1      40.907  25.416  25.749  1.00  0.00    -0.200 F 
ENDBRANCH  48  62
BRANCH  49  73
ATOM     73  C   UNL A   1      39.596  33.971  36.928  1.00  0.00     0.064 A 
ATOM     74  C   UNL A   1      38.837  33.541  38.026  1.00  0.00     0.173 A 
ATOM     75  C   UNL A   1      40.182  35.243  36.997  1.00  0.00     0.173 A 
ATOM     76  F   UNL A   1      38.240  32.341  37.998  1.00  0.00    -0.203 F 
ATOM     77  C   UNL A   1      38.655  34.360  39.139  1.00  0.00     0.198 A 
ATOM     78  C   UNL A   1      40.023  36.049  38.122  1.00  0.00     0.198 A 
ATOM     79  F   UNL A   1      40.922  35.698  35.975  1.00  0.00    -0.203 F 
ATOM     80  F   UNL A   1      37.889  33.942  40.156  1.00  0.00    -0.200 F 
ATOM     81  C   UNL A   1      39.253  35.610  39.188  1.00  0.00     0.200 A 
ATOM     82  F   UNL A   1      40.613  37.251  38.173  1.00  0.00    -0.200 F 
ATOM     83  F   UNL A   1      39.082  36.394  40.262  1.00  0.00    -0.200 F 
ENDBRANCH  49  73
BRANCH  61  84
ATOM     84  C   UNL A   1      44.096  28.906  35.298  1.00  0.00     0.064 A 
ATOM     85  C   UNL A   1      45.389  29.412  35.102  1.00  0.00     0.173 A 
ATOM     86  C   UNL A   1      43.929  27.865  36.223  1.00  0.00     0.173 A 
ATOM     87  F   UNL A   1      45.601  30.398  34.217  1.00  0.00    -0.203 F 
ATOM     88  C   UNL A   1      46.476  28.881  35.790  1.00  0.00     0.198 A 
ATOM     89  C   UNL A   1      45.015  27.354  36.929  1.00  0.00     0.198 A 
ATOM     90  F   UNL A   1      42.711  27.350  36.450  1.00  0.00    -0.203 F 
ATOM     91  F   UNL A   1      47.710  29.350  35.555  1.00  0.00    -0.200 F 
ATOM     92  C   UNL A   1      46.288  27.858  36.708  1.00  0.00     0.200 A 
ATOM     93  F   UNL A   1      44.829  26.374  37.824  1.00  0.00    -0.200 F 
ATOM     94  F   UNL A   1      47.335  27.351  37.373  1.00  0.00    -0.200 F 
ENDBRANCH  61  84
ENDBRANCH  35  36
ENDBRANCH  27  30
ENDBRANCH  25  26
ENDBRANCH  24  25
ENDBRANCH   1  24
TORSDOF 14
ENDMDL
