MODEL 1
REMARK VINA RESULT:     -12.9      0.000      0.000
REMARK SMILES NS(=O)(=O)c1ccc(N2N=C(C(=O)NCCCNC(=O)c3ccc(-c4c5nc(c(-c6c(F)c(F)c(F)c(F)c6F)c6ccc([nH]6)c(-c6c(F)c(F)c(F)c(F)c6F)c6nc(c(-c7c(F)c(F)c(F)c(F)c7F)c7ccc4[nH]7)C=C6)C=C5)cc3)C[C@H]2c2cccs2)cc1
REMARK SMILES IDX 15 1 14 2 12 3 13 4 11 6 9 7 10 8 85 9 84 10 8 11 5 12 6 13
REMARK SMILES IDX 92 14 7 15 91 16 2 17 3 18 4 19 1 20 86 23 87 24 90 25 88 26
REMARK SMILES IDX 89 27 16 28 17 29 18 30 19 31 20 33 21 34 22 35 83 36 23 37
REMARK SMILES IDX 82 38 24 39 25 40 26 41 76 42 27 43 81 44 75 45 77 46 28 47
REMARK SMILES IDX 80 48 74 49 73 50 29 52 61 53 41 54 60 55 42 56 45 57 59 58
REMARK SMILES IDX 78 59 43 60 44 61 58 63 79 64 46 65 30 66 31 67 39 68 32 69
REMARK SMILES IDX 33 70 37 71 40 72 34 73 35 74 38 75 36 76 62 77 63 78 71 79
REMARK SMILES IDX 64 80 65 81 69 82 72 83 66 84 67 85 70 86 68 87 47 88 48 89
REMARK SMILES IDX 56 90 49 91 50 92 54 93 57 94 51 95 52 96 55 97 53 98
REMARK H PARENT 14 5 1 21 1 22 18 32 77 51 45 62
REMARK Flexibility Score: inf
ROOT
ATOM      1  C   UNL A   1      32.225  28.050  23.052  1.00  0.00     0.118 C 
ENDROOT
BRANCH   1   2
ATOM      2  N   UNL A   1      32.566  27.218  21.918  1.00  0.00    -0.351 N 
ATOM      3  C   UNL A   1      32.917  25.904  21.757  1.00  0.00     0.267 C 
ATOM      4  O   UNL A   1      33.278  25.561  20.633  1.00  0.00    -0.268 OA
ATOM      5  H   UNL A   1      32.539  27.710  21.065  1.00  0.00     0.163 HD
BRANCH   3   6
ATOM      6  C   UNL A   1      32.851  24.846  22.847  1.00  0.00     0.128 C 
ATOM      7  N   UNL A   1      32.628  22.893  23.682  1.00  0.00    -0.256 N 
ATOM      8  N   UNL A   1      32.746  23.591  22.523  1.00  0.00    -0.171 NA
ATOM      9  C   UNL A   1      32.674  23.729  24.880  1.00  0.00     0.154 C 
ATOM     10  C   UNL A   1      33.022  25.111  24.310  1.00  0.00     0.097 C 
BRANCH   7  11
ATOM     11  C   UNL A   1      32.949  21.541  23.749  1.00  0.00     0.060 A 
ATOM     12  C   UNL A   1      33.454  18.789  23.989  1.00  0.00     0.082 A 
ATOM     13  C   UNL A   1      34.236  19.700  24.701  1.00  0.00     0.024 A 
ATOM     14  C   UNL A   1      32.453  19.236  23.127  1.00  0.00     0.024 A 
ATOM     15  C   UNL A   1      33.988  21.072  24.566  1.00  0.00     0.029 A 
ATOM     16  C   UNL A   1      32.205  20.604  23.018  1.00  0.00     0.029 A 
BRANCH  12  17
ATOM     17  S   UNL A   1      33.719  17.049  24.132  1.00  0.00     0.238 S 
ATOM     18  O   UNL A   1      34.028  16.518  22.821  1.00  0.00    -0.207 OA
ATOM     19  O   UNL A   1      32.686  16.500  24.970  1.00  0.00    -0.207 OA
BRANCH  17  20
ATOM     20  N   UNL A   1      35.150  16.917  25.001  1.00  0.00    -0.225 NA
ATOM     21  H   UNL A   1      34.947  16.577  25.942  1.00  0.00     0.137 HD
ATOM     22  H   UNL A   1      35.599  17.831  25.059  1.00  0.00     0.137 HD
ENDBRANCH  17  20
ENDBRANCH  12  17
ENDBRANCH   7  11
BRANCH   9  23
ATOM     23  C   UNL A   1      31.415  23.714  25.730  1.00  0.00     0.030 A 
ATOM     24  C   UNL A   1      30.929  22.653  26.476  1.00  0.00     0.017 A 
ATOM     25  S   UNL A   1      30.343  25.055  25.808  1.00  0.00    -0.147 S 
ATOM     26  C   UNL A   1      29.700  22.955  27.128  1.00  0.00     0.012 A 
ATOM     27  C   UNL A   1      29.287  24.242  26.876  1.00  0.00     0.065 A 
ENDBRANCH   9  23
ENDBRANCH   3   6
ENDBRANCH   1   2
BRANCH   1  28
ATOM     28  C   UNL A   1      33.415  28.904  23.479  1.00  0.00     0.042 C 
BRANCH  28  29
ATOM     29  C   UNL A   1      33.569  28.981  24.996  1.00  0.00     0.118 C 
BRANCH  29  30
ATOM     30  N   UNL A   1      33.022  30.220  25.534  1.00  0.00    -0.352 N 
ATOM     31  C   UNL A   1      33.300  30.888  26.698  1.00  0.00     0.251 C 
ATOM     32  H   UNL A   1      32.338  30.647  24.969  1.00  0.00     0.163 HD
ATOM     33  O   UNL A   1      32.541  31.775  27.078  1.00  0.00    -0.269 OA
BRANCH  31  34
ATOM     34  C   UNL A   1      34.502  30.562  27.493  1.00  0.00     0.039 A 
ATOM     35  C   UNL A   1      35.488  31.540  27.654  1.00  0.00     0.014 A 
ATOM     36  C   UNL A   1      34.701  29.282  28.016  1.00  0.00     0.014 A 
ATOM     37  C   UNL A   1      36.654  31.244  28.362  1.00  0.00     0.010 A 
ATOM     38  C   UNL A   1      35.819  29.014  28.799  1.00  0.00     0.010 A 
ATOM     39  C   UNL A   1      36.820  29.982  28.954  1.00  0.00    -0.014 A 
BRANCH  39  40
ATOM     40  C   UNL A   1      38.061  29.639  29.693  1.00  0.00     0.031 A 
ATOM     41  C   UNL A   1      38.294  30.200  31.069  1.00  0.00     0.074 A 
ATOM     42  C   UNL A   1      38.994  28.865  29.107  1.00  0.00     0.049 A 
ATOM     43  N   UNL A   1      39.330  30.062  31.857  1.00  0.00    -0.248 NA
ATOM     44  C   UNL A   1      37.235  31.061  31.622  1.00  0.00     0.031 C 
ATOM     45  C   UNL A   1      38.906  28.309  27.757  1.00  0.00     0.029 A 
ATOM     46  N   UNL A   1      40.203  28.416  29.574  1.00  0.00    -0.354 N 
ATOM     47  C   UNL A   1      39.058  30.833  32.979  1.00  0.00     0.074 A 
ATOM     48  C   UNL A   1      37.787  31.485  32.748  1.00  0.00     0.031 C 
ATOM     49  C   UNL A   1      40.000  27.569  27.514  1.00  0.00     0.029 A 
ATOM     50  C   UNL A   1      40.877  27.623  28.679  1.00  0.00     0.049 A 
ATOM     51  H   UNL A   1      40.554  28.642  30.466  1.00  0.00     0.167 HD
ATOM     52  C   UNL A   1      39.785  30.964  34.114  1.00  0.00     0.037 A 
ATOM     53  C   UNL A   1      42.068  27.006  28.793  1.00  0.00     0.037 A 
ATOM     54  C   UNL A   1      41.027  30.279  34.357  1.00  0.00     0.049 A 
ATOM     55  C   UNL A   1      42.839  27.136  30.078  1.00  0.00     0.074 A 
ATOM     56  C   UNL A   1      41.815  30.294  35.493  1.00  0.00     0.029 A 
ATOM     57  N   UNL A   1      41.658  29.449  33.443  1.00  0.00    -0.354 N 
ATOM     58  N   UNL A   1      42.539  27.814  31.158  1.00  0.00    -0.248 NA
ATOM     59  C   UNL A   1      44.108  26.399  30.163  1.00  0.00     0.031 C 
ATOM     60  C   UNL A   1      42.942  29.499  35.255  1.00  0.00     0.029 A 
ATOM     61  C   UNL A   1      42.831  28.951  33.986  1.00  0.00     0.049 A 
ATOM     62  H   UNL A   1      41.322  29.242  32.540  1.00  0.00     0.167 HD
ATOM     63  C   UNL A   1      43.562  27.563  32.062  1.00  0.00     0.074 A 
ATOM     64  C   UNL A   1      44.483  26.656  31.408  1.00  0.00     0.031 C 
ATOM     65  C   UNL A   1      43.726  28.039  33.321  1.00  0.00     0.037 A 
BRANCH  52  66
ATOM     66  C   UNL A   1      39.246  31.872  35.182  1.00  0.00     0.064 A 
ATOM     67  C   UNL A   1      38.466  31.381  36.242  1.00  0.00     0.173 A 
ATOM     68  C   UNL A   1      39.530  33.246  35.161  1.00  0.00     0.173 A 
ATOM     69  F   UNL A   1      38.154  30.078  36.303  1.00  0.00    -0.203 F 
ATOM     70  C   UNL A   1      37.962  32.236  37.218  1.00  0.00     0.198 A 
ATOM     71  C   UNL A   1      39.051  34.093  36.157  1.00  0.00     0.198 A 
ATOM     72  F   UNL A   1      40.274  33.768  34.173  1.00  0.00    -0.203 F 
ATOM     73  F   UNL A   1      37.173  31.752  38.187  1.00  0.00    -0.200 F 
ATOM     74  C   UNL A   1      38.260  33.590  37.179  1.00  0.00     0.200 A 
ATOM     75  F   UNL A   1      39.350  35.399  36.125  1.00  0.00    -0.200 F 
ATOM     76  F   UNL A   1      37.778  34.411  38.122  1.00  0.00    -0.200 F 
ENDBRANCH  52  66
BRANCH  53  77
ATOM     77  C   UNL A   1      42.580  26.169  27.675  1.00  0.00     0.064 A 
ATOM     78  C   UNL A   1      43.512  26.684  26.764  1.00  0.00     0.173 A 
ATOM     79  C   UNL A   1      42.152  24.847  27.496  1.00  0.00     0.173 A 
ATOM     80  F   UNL A   1      43.940  27.950  26.886  1.00  0.00    -0.203 F 
ATOM     81  C   UNL A   1      43.979  25.915  25.700  1.00  0.00     0.198 A 
ATOM     82  C   UNL A   1      42.641  24.070  26.449  1.00  0.00     0.198 A 
ATOM     83  F   UNL A   1      41.269  24.305  28.347  1.00  0.00    -0.203 F 
ATOM     84  F   UNL A   1      44.836  26.447  24.818  1.00  0.00    -0.200 F 
ATOM     85  C   UNL A   1      43.546  24.607  25.546  1.00  0.00     0.200 A 
ATOM     86  F   UNL A   1      42.233  22.801  26.312  1.00  0.00    -0.200 F 
ATOM     87  F   UNL A   1      43.998  23.866  24.525  1.00  0.00    -0.200 F 
ENDBRANCH  53  77
BRANCH  65  88
ATOM     88  C   UNL A   1      44.921  27.552  34.087  1.00  0.00     0.064 A 
ATOM     89  C   UNL A   1      44.874  26.387  34.866  1.00  0.00     0.173 A 
ATOM     90  C   UNL A   1      46.136  28.250  34.018  1.00  0.00     0.173 A 
ATOM     91  F   UNL A   1      43.730  25.694  34.976  1.00  0.00    -0.203 F 
ATOM     92  C   UNL A   1      45.991  25.956  35.576  1.00  0.00     0.198 A 
ATOM     93  C   UNL A   1      47.261  27.799  34.703  1.00  0.00     0.198 A 
ATOM     94  F   UNL A   1      46.235  29.365  33.279  1.00  0.00    -0.203 F 
ATOM     95  F   UNL A   1      45.908  24.872  36.358  1.00  0.00    -0.200 F 
ATOM     96  C   UNL A   1      47.184  26.658  35.489  1.00  0.00     0.200 A 
ATOM     97  F   UNL A   1      48.416  28.471  34.608  1.00  0.00    -0.200 F 
ATOM     98  F   UNL A   1      48.260  26.241  36.170  1.00  0.00    -0.200 F 
ENDBRANCH  65  88
ENDBRANCH  39  40
ENDBRANCH  31  34
ENDBRANCH  29  30
ENDBRANCH  28  29
ENDBRANCH   1  28
TORSDOF 14
ENDMDL
MODEL 2
REMARK VINA RESULT:     -12.8      0.553      7.219
REMARK SMILES NS(=O)(=O)c1ccc(N2N=C(C(=O)NCCCNC(=O)c3ccc(-c4c5nc(c(-c6c(F)c(F)c(F)c(F)c6F)c6ccc([nH]6)c(-c6c(F)c(F)c(F)c(F)c6F)c6nc(c(-c7c(F)c(F)c(F)c(F)c7F)c7ccc4[nH]7)C=C6)C=C5)cc3)C[C@H]2c2cccs2)cc1
REMARK SMILES IDX 15 1 14 2 12 3 13 4 11 6 9 7 10 8 85 9 84 10 8 11 5 12 6 13
REMARK SMILES IDX 92 14 7 15 91 16 2 17 3 18 4 19 1 20 86 23 87 24 90 25 88 26
REMARK SMILES IDX 89 27 16 28 17 29 18 30 19 31 20 33 21 34 22 35 83 36 23 37
REMARK SMILES IDX 82 38 24 39 25 40 26 41 76 42 27 43 81 44 75 45 77 46 28 47
REMARK SMILES IDX 80 48 74 49 73 50 29 52 61 53 41 54 60 55 42 56 45 57 59 58
REMARK SMILES IDX 78 59 43 60 44 61 58 63 79 64 46 65 30 66 31 67 39 68 32 69
REMARK SMILES IDX 33 70 37 71 40 72 34 73 35 74 38 75 36 76 62 77 63 78 71 79
REMARK SMILES IDX 64 80 65 81 69 82 72 83 66 84 67 85 70 86 68 87 47 88 48 89
REMARK SMILES IDX 56 90 49 91 50 92 54 93 57 94 51 95 52 96 55 97 53 98
REMARK H PARENT 14 5 1 21 1 22 18 32 77 51 45 62
REMARK Flexibility Score: inf
ROOT
ATOM      1  C   UNL A   1      32.223  28.027  23.009  1.00  0.00     0.118 C 
ENDROOT
BRANCH   1   2
ATOM      2  N   UNL A   1      32.560  27.184  21.880  1.00  0.00    -0.351 N 
ATOM      3  C   UNL A   1      32.914  25.870  21.730  1.00  0.00     0.267 C 
ATOM      4  O   UNL A   1      33.269  25.516  20.608  1.00  0.00    -0.268 OA
ATOM      5  H   UNL A   1      32.528  27.668  21.023  1.00  0.00     0.163 HD
BRANCH   3   6
ATOM      6  C   UNL A   1      32.854  24.823  22.831  1.00  0.00     0.128 C 
ATOM      7  N   UNL A   1      32.632  22.878  23.686  1.00  0.00    -0.256 N 
ATOM      8  N   UNL A   1      32.739  23.565  22.520  1.00  0.00    -0.171 NA
ATOM      9  C   UNL A   1      32.696  23.724  24.876  1.00  0.00     0.154 C 
ATOM     10  C   UNL A   1      33.044  25.100  24.290  1.00  0.00     0.097 C 
BRANCH   7  11
ATOM     11  C   UNL A   1      32.946  21.525  23.762  1.00  0.00     0.060 A 
ATOM     12  C   UNL A   1      33.441  18.773  24.023  1.00  0.00     0.082 A 
ATOM     13  C   UNL A   1      34.245  19.688  24.706  1.00  0.00     0.024 A 
ATOM     14  C   UNL A   1      32.423  19.216  23.180  1.00  0.00     0.024 A 
ATOM     15  C   UNL A   1      34.002  21.060  24.560  1.00  0.00     0.029 A 
ATOM     16  C   UNL A   1      32.180  20.584  23.060  1.00  0.00     0.029 A 
BRANCH  12  17
ATOM     17  S   UNL A   1      33.700  17.034  24.181  1.00  0.00     0.238 S 
ATOM     18  O   UNL A   1      34.024  16.493  22.877  1.00  0.00    -0.207 OA
ATOM     19  O   UNL A   1      32.654  16.493  25.009  1.00  0.00    -0.207 OA
BRANCH  17  20
ATOM     20  N   UNL A   1      35.120  16.903  25.069  1.00  0.00    -0.225 NA
ATOM     21  H   UNL A   1      35.913  17.161  24.481  1.00  0.00     0.137 HD
ATOM     22  H   UNL A   1      35.232  15.941  25.390  1.00  0.00     0.137 HD
ENDBRANCH  17  20
ENDBRANCH  12  17
ENDBRANCH   7  11
BRANCH   9  23
ATOM     23  C   UNL A   1      31.447  23.724  25.741  1.00  0.00     0.030 A 
ATOM     24  C   UNL A   1      30.966  22.674  26.505  1.00  0.00     0.017 A 
ATOM     25  S   UNL A   1      30.380  25.070  25.815  1.00  0.00    -0.147 S 
ATOM     26  C   UNL A   1      29.746  22.987  27.167  1.00  0.00     0.012 A 
ATOM     27  C   UNL A   1      29.334  24.273  26.905  1.00  0.00     0.065 A 
ENDBRANCH   9  23
ENDBRANCH   3   6
ENDBRANCH   1   2
BRANCH   1  28
ATOM     28  C   UNL A   1      33.438  28.821  23.478  1.00  0.00     0.042 C 
BRANCH  28  29
ATOM     29  C   UNL A   1      33.507  28.945  24.998  1.00  0.00     0.118 C 
BRANCH  29  30
ATOM     30  N   UNL A   1      32.912  30.191  25.468  1.00  0.00    -0.352 N 
ATOM     31  C   UNL A   1      33.141  30.915  26.608  1.00  0.00     0.251 C 
ATOM     32  H   UNL A   1      32.233  30.574  24.867  1.00  0.00     0.163 HD
ATOM     33  O   UNL A   1      32.349  31.795  26.929  1.00  0.00    -0.269 OA
BRANCH  31  34
ATOM     34  C   UNL A   1      34.330  30.656  27.447  1.00  0.00     0.039 A 
ATOM     35  C   UNL A   1      35.248  31.691  27.649  1.00  0.00     0.014 A 
ATOM     36  C   UNL A   1      34.584  29.387  27.973  1.00  0.00     0.014 A 
ATOM     37  C   UNL A   1      36.402  31.461  28.400  1.00  0.00     0.010 A 
ATOM     38  C   UNL A   1      35.686  29.183  28.798  1.00  0.00     0.010 A 
ATOM     39  C   UNL A   1      36.621  30.208  28.995  1.00  0.00    -0.014 A 
BRANCH  39  40
ATOM     40  C   UNL A   1      37.851  29.935  29.779  1.00  0.00     0.031 A 
ATOM     41  C   UNL A   1      38.912  29.028  29.218  1.00  0.00     0.074 A 
ATOM     42  C   UNL A   1      37.989  30.464  31.009  1.00  0.00     0.049 A 
ATOM     43  N   UNL A   1      40.032  28.626  29.763  1.00  0.00    -0.248 NA
ATOM     44  C   UNL A   1      38.666  28.470  27.879  1.00  0.00     0.031 C 
ATOM     45  C   UNL A   1      37.005  31.312  31.681  1.00  0.00     0.029 A 
ATOM     46  N   UNL A   1      39.014  30.362  31.914  1.00  0.00    -0.354 N 
ATOM     47  C   UNL A   1      40.607  27.754  28.847  1.00  0.00     0.074 A 
ATOM     48  C   UNL A   1      39.686  27.638  27.737  1.00  0.00     0.031 C 
ATOM     49  C   UNL A   1      37.485  31.677  32.881  1.00  0.00     0.029 A 
ATOM     50  C   UNL A   1      38.796  31.066  33.073  1.00  0.00     0.049 A 
ATOM     51  H   UNL A   1      39.828  29.833  31.751  1.00  0.00     0.167 HD
ATOM     52  C   UNL A   1      41.807  27.130  28.909  1.00  0.00     0.037 A 
ATOM     53  C   UNL A   1      39.573  31.205  34.163  1.00  0.00     0.037 A 
ATOM     54  C   UNL A   1      42.738  27.283  29.995  1.00  0.00     0.049 A 
ATOM     55  C   UNL A   1      40.919  30.532  34.192  1.00  0.00     0.074 A 
ATOM     56  C   UNL A   1      44.004  26.744  30.132  1.00  0.00     0.029 A 
ATOM     57  N   UNL A   1      42.500  28.041  31.133  1.00  0.00    -0.354 N 
ATOM     58  N   UNL A   1      41.480  29.764  33.291  1.00  0.00    -0.248 NA
ATOM     59  C   UNL A   1      41.745  30.760  35.386  1.00  0.00     0.031 C 
ATOM     60  C   UNL A   1      44.520  27.148  31.368  1.00  0.00     0.029 A 
ATOM     61  C   UNL A   1      43.594  27.977  31.981  1.00  0.00     0.049 A 
ATOM     62  H   UNL A   1      41.676  28.550  31.311  1.00  0.00     0.167 HD
ATOM     63  C   UNL A   1      42.734  29.443  33.791  1.00  0.00     0.074 A 
ATOM     64  C   UNL A   1      42.857  30.113  35.069  1.00  0.00     0.031 C 
ATOM     65  C   UNL A   1      43.699  28.664  33.243  1.00  0.00     0.037 A 
BRANCH  52  66
ATOM     66  C   UNL A   1      42.184  26.236  27.763  1.00  0.00     0.064 A 
ATOM     67  C   UNL A   1      42.971  26.698  26.696  1.00  0.00     0.173 A 
ATOM     68  C   UNL A   1      41.772  24.895  27.739  1.00  0.00     0.173 A 
ATOM     69  F   UNL A   1      43.378  27.975  26.661  1.00  0.00    -0.203 F 
ATOM     70  C   UNL A   1      43.302  25.861  25.633  1.00  0.00     0.198 A 
ATOM     71  C   UNL A   1      42.133  24.052  26.691  1.00  0.00     0.198 A 
ATOM     72  F   UNL A   1      41.022  24.399  28.736  1.00  0.00    -0.203 F 
ATOM     73  F   UNL A   1      44.006  26.341  24.599  1.00  0.00    -0.200 F 
ATOM     74  C   UNL A   1      42.888  24.537  25.634  1.00  0.00     0.200 A 
ATOM     75  F   UNL A   1      41.743  22.770  26.700  1.00  0.00    -0.200 F 
ATOM     76  F   UNL A   1      43.211  23.732  24.613  1.00  0.00    -0.200 F 
ENDBRANCH  52  66
BRANCH  53  77
ATOM     77  C   UNL A   1      39.119  32.054  35.295  1.00  0.00     0.064 A 
ATOM     78  C   UNL A   1      39.446  33.416  35.345  1.00  0.00     0.173 A 
ATOM     79  C   UNL A   1      38.353  31.528  36.344  1.00  0.00     0.173 A 
ATOM     80  F   UNL A   1      40.191  33.962  34.373  1.00  0.00    -0.203 F 
ATOM     81  C   UNL A   1      39.045  34.214  36.414  1.00  0.00     0.198 A 
ATOM     82  C   UNL A   1      37.928  32.333  37.398  1.00  0.00     0.198 A 
ATOM     83  F   UNL A   1      38.005  30.232  36.337  1.00  0.00    -0.203 F 
ATOM     84  F   UNL A   1      39.410  35.503  36.459  1.00  0.00    -0.200 F 
ATOM     85  C   UNL A   1      38.282  33.673  37.438  1.00  0.00     0.200 A 
ATOM     86  F   UNL A   1      37.177  31.811  38.377  1.00  0.00    -0.200 F 
ATOM     87  F   UNL A   1      37.893  34.442  38.464  1.00  0.00    -0.200 F 
ENDBRANCH  53  77
BRANCH  65  88
ATOM     88  C   UNL A   1      44.986  28.531  34.003  1.00  0.00     0.064 A 
ATOM     89  C   UNL A   1      45.189  27.504  34.936  1.00  0.00     0.173 A 
ATOM     90  C   UNL A   1      46.038  29.431  33.775  1.00  0.00     0.173 A 
ATOM     91  F   UNL A   1      44.207  26.628  35.200  1.00  0.00    -0.203 F 
ATOM     92  C   UNL A   1      46.387  27.403  35.637  1.00  0.00     0.198 A 
ATOM     93  C   UNL A   1      47.246  29.308  34.454  1.00  0.00     0.198 A 
ATOM     94  F   UNL A   1      45.896  30.426  32.886  1.00  0.00    -0.203 F 
ATOM     95  F   UNL A   1      46.540  26.447  36.564  1.00  0.00    -0.200 F 
ATOM     96  C   UNL A   1      47.416  28.300  35.392  1.00  0.00     0.200 A 
ATOM     97  F   UNL A   1      48.243  30.168  34.207  1.00  0.00    -0.200 F 
ATOM     98  F   UNL A   1      48.570  28.200  36.066  1.00  0.00    -0.200 F 
ENDBRANCH  65  88
ENDBRANCH  39  40
ENDBRANCH  31  34
ENDBRANCH  29  30
ENDBRANCH  28  29
ENDBRANCH   1  28
TORSDOF 14
ENDMDL
MODEL 3
REMARK VINA RESULT:     -12.8      2.214      3.309
REMARK SMILES NS(=O)(=O)c1ccc(N2N=C(C(=O)NCCCNC(=O)c3ccc(-c4c5nc(c(-c6c(F)c(F)c(F)c(F)c6F)c6ccc([nH]6)c(-c6c(F)c(F)c(F)c(F)c6F)c6nc(c(-c7c(F)c(F)c(F)c(F)c7F)c7ccc4[nH]7)C=C6)C=C5)cc3)C[C@H]2c2cccs2)cc1
REMARK SMILES IDX 15 1 14 2 12 3 13 4 11 6 9 7 10 8 85 9 84 10 8 11 5 12 6 13
REMARK SMILES IDX 92 14 7 15 91 16 2 17 3 18 4 19 1 20 86 23 87 24 90 25 88 26
REMARK SMILES IDX 89 27 16 28 17 29 18 30 19 31 20 33 21 34 22 35 83 36 23 37
REMARK SMILES IDX 82 38 24 39 25 40 26 41 76 42 27 43 81 44 75 45 77 46 28 47
REMARK SMILES IDX 80 48 74 49 73 50 29 52 61 53 41 54 60 55 42 56 45 57 59 58
REMARK SMILES IDX 78 59 43 60 44 61 58 63 79 64 46 65 30 66 31 67 39 68 32 69
REMARK SMILES IDX 33 70 37 71 40 72 34 73 35 74 38 75 36 76 62 77 63 78 71 79
REMARK SMILES IDX 64 80 65 81 69 82 72 83 66 84 67 85 70 86 68 87 47 88 48 89
REMARK SMILES IDX 56 90 49 91 50 92 54 93 57 94 51 95 52 96 55 97 53 98
REMARK H PARENT 14 5 1 21 1 22 18 32 77 51 45 62
REMARK Flexibility Score: inf
ROOT
ATOM      1  C   UNL A   1      32.401  27.445  23.935  1.00  0.00     0.118 C 
ENDROOT
BRANCH   1   2
ATOM      2  N   UNL A   1      32.588  26.794  22.656  1.00  0.00    -0.351 N 
ATOM      3  C   UNL A   1      33.135  25.606  22.250  1.00  0.00     0.267 C 
ATOM      4  O   UNL A   1      33.249  25.434  21.038  1.00  0.00    -0.268 OA
ATOM      5  H   UNL A   1      32.244  27.329  21.905  1.00  0.00     0.163 HD
BRANCH   3   6
ATOM      6  C   UNL A   1      33.564  24.483  23.181  1.00  0.00     0.128 C 
ATOM      7  N   UNL A   1      34.892  23.072  24.080  1.00  0.00    -0.256 N 
ATOM      8  N   UNL A   1      34.816  24.135  23.238  1.00  0.00    -0.171 NA
ATOM      9  C   UNL A   1      33.605  22.679  24.650  1.00  0.00     0.154 C 
ATOM     10  C   UNL A   1      32.669  23.796  24.165  1.00  0.00     0.097 C 
BRANCH   7  11
ATOM     11  C   UNL A   1      36.081  22.737  24.720  1.00  0.00     0.060 A 
ATOM     12  C   UNL A   1      38.567  22.158  25.890  1.00  0.00     0.082 A 
ATOM     13  C   UNL A   1      37.918  21.185  25.128  1.00  0.00     0.024 A 
ATOM     14  C   UNL A   1      37.971  23.399  26.111  1.00  0.00     0.024 A 
ATOM     15  C   UNL A   1      36.672  21.475  24.558  1.00  0.00     0.029 A 
ATOM     16  C   UNL A   1      36.738  23.680  25.522  1.00  0.00     0.029 A 
BRANCH  12  17
ATOM     17  S   UNL A   1      40.143  21.846  26.621  1.00  0.00     0.238 S 
ATOM     18  O   UNL A   1      40.247  20.431  26.914  1.00  0.00    -0.207 OA
ATOM     19  O   UNL A   1      40.396  22.864  27.606  1.00  0.00    -0.207 OA
BRANCH  17  20
ATOM     20  N   UNL A   1      41.240  22.112  25.376  1.00  0.00    -0.225 NA
ATOM     21  H   UNL A   1      40.733  22.258  24.503  1.00  0.00     0.137 HD
ATOM     22  H   UNL A   1      41.851  21.300  25.283  1.00  0.00     0.137 HD
ENDBRANCH  17  20
ENDBRANCH  12  17
ENDBRANCH   7  11
BRANCH   9  23
ATOM     23  C   UNL A   1      33.133  21.282  24.285  1.00  0.00     0.030 A 
ATOM     24  C   UNL A   1      32.500  20.898  23.115  1.00  0.00     0.017 A 
ATOM     25  S   UNL A   1      33.262  19.956  25.372  1.00  0.00    -0.147 S 
ATOM     26  C   UNL A   1      32.151  19.517  23.104  1.00  0.00     0.012 A 
ATOM     27  C   UNL A   1      32.541  18.880  24.258  1.00  0.00     0.065 A 
ENDBRANCH   9  23
ENDBRANCH   3   6
ENDBRANCH   1   2
BRANCH   1  28
ATOM     28  C   UNL A   1      33.333  28.644  24.079  1.00  0.00     0.042 C 
BRANCH  28  29
ATOM     29  C   UNL A   1      33.662  28.961  25.536  1.00  0.00     0.118 C 
BRANCH  29  30
ATOM     30  N   UNL A   1      33.216  30.297  25.914  1.00  0.00    -0.352 N 
ATOM     31  C   UNL A   1      33.577  31.094  26.968  1.00  0.00     0.251 C 
ATOM     32  H   UNL A   1      32.543  30.690  25.313  1.00  0.00     0.163 HD
ATOM     33  O   UNL A   1      32.891  32.074  27.243  1.00  0.00    -0.269 OA
BRANCH  31  34
ATOM     34  C   UNL A   1      34.782  30.794  27.770  1.00  0.00     0.039 A 
ATOM     35  C   UNL A   1      35.706  31.818  28.003  1.00  0.00     0.014 A 
ATOM     36  C   UNL A   1      35.046  29.501  28.228  1.00  0.00     0.014 A 
ATOM     37  C   UNL A   1      36.874  31.551  28.718  1.00  0.00     0.010 A 
ATOM     38  C   UNL A   1      36.163  29.257  29.020  1.00  0.00     0.010 A 
ATOM     39  C   UNL A   1      37.103  30.271  29.247  1.00  0.00    -0.014 A 
BRANCH  39  40
ATOM     40  C   UNL A   1      38.348  29.960  29.992  1.00  0.00     0.031 A 
ATOM     41  C   UNL A   1      38.526  30.464  31.399  1.00  0.00     0.074 A 
ATOM     42  C   UNL A   1      39.333  29.269  29.388  1.00  0.00     0.049 A 
ATOM     43  N   UNL A   1      39.555  30.344  32.199  1.00  0.00    -0.248 NA
ATOM     44  C   UNL A   1      37.412  31.236  31.971  1.00  0.00     0.031 C 
ATOM     45  C   UNL A   1      39.299  28.777  28.011  1.00  0.00     0.029 A 
ATOM     46  N   UNL A   1      40.557  28.864  29.857  1.00  0.00    -0.354 N 
ATOM     47  C   UNL A   1      39.221  31.042  33.352  1.00  0.00     0.074 A 
ATOM     48  C   UNL A   1      37.920  31.633  33.128  1.00  0.00     0.031 C 
ATOM     49  C   UNL A   1      40.437  28.111  27.753  1.00  0.00     0.029 A 
ATOM     50  C   UNL A   1      41.290  28.155  28.937  1.00  0.00     0.049 A 
ATOM     51  H   UNL A   1      40.880  29.064  30.765  1.00  0.00     0.167 HD
ATOM     52  C   UNL A   1      39.920  31.155  34.507  1.00  0.00     0.037 A 
ATOM     53  C   UNL A   1      42.511  27.599  29.044  1.00  0.00     0.037 A 
ATOM     54  C   UNL A   1      41.194  30.529  34.740  1.00  0.00     0.049 A 
ATOM     55  C   UNL A   1      43.251  27.707  30.349  1.00  0.00     0.074 A 
ATOM     56  C   UNL A   1      41.960  30.530  35.891  1.00  0.00     0.029 A 
ATOM     57  N   UNL A   1      41.886  29.781  33.799  1.00  0.00    -0.354 N 
ATOM     58  N   UNL A   1      42.896  28.313  31.455  1.00  0.00    -0.248 NA
ATOM     59  C   UNL A   1      44.558  27.038  30.424  1.00  0.00     0.031 C 
ATOM     60  C   UNL A   1      43.133  29.811  35.636  1.00  0.00     0.029 A 
ATOM     61  C   UNL A   1      43.076  29.322  34.341  1.00  0.00     0.049 A 
ATOM     62  H   UNL A   1      41.577  29.601  32.881  1.00  0.00     0.167 HD
ATOM     63  C   UNL A   1      43.916  28.074  32.366  1.00  0.00     0.074 A 
ATOM     64  C   UNL A   1      44.897  27.253  31.687  1.00  0.00     0.031 C 
ATOM     65  C   UNL A   1      44.031  28.494  33.650  1.00  0.00     0.037 A 
BRANCH  52  66
ATOM     66  C   UNL A   1      39.313  31.978  35.607  1.00  0.00     0.064 A 
ATOM     67  C   UNL A   1      39.568  33.353  35.725  1.00  0.00     0.173 A 
ATOM     68  C   UNL A   1      38.447  31.390  36.542  1.00  0.00     0.173 A 
ATOM     69  F   UNL A   1      40.399  33.961  34.866  1.00  0.00    -0.203 F 
ATOM     70  C   UNL A   1      39.009  34.101  36.758  1.00  0.00     0.198 A 
ATOM     71  C   UNL A   1      37.864  32.148  37.554  1.00  0.00     0.198 A 
ATOM     72  F   UNL A   1      38.164  30.080  36.473  1.00  0.00    -0.203 F 
ATOM     73  F   UNL A   1      39.313  35.400  36.883  1.00  0.00    -0.200 F 
ATOM     74  C   UNL A   1      38.152  33.499  37.668  1.00  0.00     0.200 A 
ATOM     75  F   UNL A   1      37.026  31.568  38.425  1.00  0.00    -0.200 F 
ATOM     76  F   UNL A   1      37.610  34.222  38.659  1.00  0.00    -0.200 F 
ENDBRANCH  52  66
BRANCH  53  77
ATOM     77  C   UNL A   1      43.088  26.849  27.898  1.00  0.00     0.064 A 
ATOM     78  C   UNL A   1      43.013  25.450  27.847  1.00  0.00     0.173 A 
ATOM     79  C   UNL A   1      43.721  27.509  26.836  1.00  0.00     0.173 A 
ATOM     80  F   UNL A   1      42.431  24.774  28.847  1.00  0.00    -0.203 F 
ATOM     81  C   UNL A   1      43.572  24.738  26.788  1.00  0.00     0.198 A 
ATOM     82  C   UNL A   1      44.254  26.797  25.764  1.00  0.00     0.198 A 
ATOM     83  F   UNL A   1      43.810  28.847  26.833  1.00  0.00    -0.203 F 
ATOM     84  F   UNL A   1      43.526  23.398  26.787  1.00  0.00    -0.200 F 
ATOM     85  C   UNL A   1      44.188  25.412  25.745  1.00  0.00     0.200 A 
ATOM     86  F   UNL A   1      44.835  27.452  24.749  1.00  0.00    -0.200 F 
ATOM     87  F   UNL A   1      44.723  24.726  24.725  1.00  0.00    -0.200 F 
ENDBRANCH  53  77
BRANCH  65  88
ATOM     88  C   UNL A   1      45.238  28.037  34.414  1.00  0.00     0.064 A 
ATOM     89  C   UNL A   1      46.424  28.786  34.439  1.00  0.00     0.173 A 
ATOM     90  C   UNL A   1      45.198  26.844  35.152  1.00  0.00     0.173 A 
ATOM     91  F   UNL A   1      46.516  29.926  33.736  1.00  0.00    -0.203 F 
ATOM     92  C   UNL A   1      47.536  28.341  35.147  1.00  0.00     0.198 A 
ATOM     93  C   UNL A   1      46.301  26.418  35.886  1.00  0.00     0.198 A 
ATOM     94  F   UNL A   1      44.084  26.096  35.168  1.00  0.00    -0.203 F 
ATOM     95  F   UNL A   1      48.675  29.045  35.112  1.00  0.00    -0.200 F 
ATOM     96  C   UNL A   1      47.472  27.162  35.874  1.00  0.00     0.200 A 
ATOM     97  F   UNL A   1      46.234  25.285  36.598  1.00  0.00    -0.200 F 
ATOM     98  F   UNL A   1      48.543  26.736  36.558  1.00  0.00    -0.200 F 
ENDBRANCH  65  88
ENDBRANCH  39  40
ENDBRANCH  31  34
ENDBRANCH  29  30
ENDBRANCH  28  29
ENDBRANCH   1  28
TORSDOF 14
ENDMDL
