MODEL 1
REMARK VINA RESULT:     -11.5      0.000      0.000
REMARK SMILES C[NH2+][C@]1(C(=O)NCCCNC(=O)c2ccc(-c3c4nc(c(-c5c(F)c(F)c(F)c(F)c5F)c5ccc([nH]5)c(-c5c(F)c(F)c(F)c(F)c5F)c5nc(c(-c6c(F)c(F)c(F)c(F)c6F)c6ccc3[nH]6)C=C5)C=C4)cc2)CCC[C@@H]1CC[N@H+]1CCC[C@H]([NH+](C)C)C1
REMARK SMILES IDX 7 1 6 2 4 3 5 4 3 6 76 7 79 8 77 9 78 10 2 11 1 12 80 15
REMARK SMILES IDX 81 16 82 17 83 18 90 19 84 21 86 22 85 23 87 24 88 25 89 26
REMARK SMILES IDX 8 28 9 29 10 30 11 31 12 33 13 34 14 35 75 36 15 37 74 38
REMARK SMILES IDX 16 39 17 40 18 41 68 42 19 43 73 44 67 45 69 46 20 47 72 48
REMARK SMILES IDX 66 49 65 50 21 52 53 53 33 54 52 55 34 56 37 57 51 58 70 59
REMARK SMILES IDX 35 60 36 61 50 63 71 64 38 65 22 66 23 67 31 68 24 69 25 70
REMARK SMILES IDX 29 71 32 72 26 73 27 74 30 75 28 76 54 77 55 78 63 79 56 80
REMARK SMILES IDX 57 81 61 82 64 83 58 84 59 85 62 86 60 87 39 88 40 89 48 90
REMARK SMILES IDX 41 91 42 92 46 93 49 94 43 95 44 96 47 97 45 98
REMARK H PARENT 6 5 2 13 2 14 82 20 87 27 10 32 69 51 37 62
REMARK Flexibility Score: inf
ROOT
ATOM      1  C   UNL A   1      31.982  27.898  26.812  1.00  0.00     0.118 C 
ENDROOT
BRANCH   1   2
ATOM      2  N   UNL A   1      31.086  26.762  26.936  1.00  0.00    -0.351 N 
ATOM      3  C   UNL A   1      30.316  26.087  26.043  1.00  0.00     0.281 C 
ATOM      4  O   UNL A   1      29.654  25.155  26.525  1.00  0.00    -0.268 OA
ATOM      5  H   UNL A   1      31.023  26.411  27.854  1.00  0.00     0.163 HD
BRANCH   3   6
ATOM      6  C   UNL A   1      30.312  26.349  24.497  1.00  0.00     0.178 C 
ATOM      7  C   UNL A   1      30.494  27.808  24.052  1.00  0.00     0.079 C 
ATOM      8  C   UNL A   1      31.548  25.653  23.837  1.00  0.00     0.066 C 
ATOM      9  C   UNL A   1      30.953  27.707  22.604  1.00  0.00     0.008 C 
ATOM     10  C   UNL A   1      31.791  26.428  22.526  1.00  0.00     0.011 C 
BRANCH   6  11
ATOM     11  N   UNL A   1      29.064  25.755  23.909  1.00  0.00    -0.336 N 
ATOM     12  C   UNL A   1      27.903  26.638  23.911  1.00  0.00     0.331 C 
ATOM     13  H   UNL A   1      29.262  25.494  22.943  1.00  0.00     0.346 HD
ATOM     14  H   UNL A   1      28.819  24.960  24.501  1.00  0.00     0.346 HD
ENDBRANCH   6  11
BRANCH   8  15
ATOM     15  C   UNL A   1      31.400  24.130  23.626  1.00  0.00     0.072 C 
BRANCH  15  16
ATOM     16  C   UNL A   1      32.717  23.337  23.600  1.00  0.00     0.262 C 
BRANCH  16  17
ATOM     17  N   UNL A   1      33.358  23.068  24.901  1.00  0.00    -0.330 N 
ATOM     18  C   UNL A   1      32.423  22.792  25.996  1.00  0.00     0.262 C 
ATOM     19  C   UNL A   1      34.278  21.915  24.765  1.00  0.00     0.327 C 
ATOM     20  H   UNL A   1      33.853  23.925  25.148  1.00  0.00     0.348 HD
ATOM     21  C   UNL A   1      33.174  22.703  27.323  1.00  0.00     0.068 C 
ATOM     22  C   UNL A   1      35.134  21.630  26.032  1.00  0.00     0.239 C 
ATOM     23  C   UNL A   1      34.253  21.627  27.302  1.00  0.00     0.077 C 
BRANCH  22  24
ATOM     24  N   UNL A   1      36.386  22.415  26.188  1.00  0.00    -0.333 N 
ATOM     25  C   UNL A   1      37.525  21.743  25.555  1.00  0.00     0.332 C 
ATOM     26  C   UNL A   1      36.306  23.794  25.717  1.00  0.00     0.332 C 
ATOM     27  H   UNL A   1      36.526  22.463  27.196  1.00  0.00     0.348 HD
ENDBRANCH  22  24
ENDBRANCH  16  17
ENDBRANCH  15  16
ENDBRANCH   8  15
ENDBRANCH   3   6
ENDBRANCH   1   2
BRANCH   1  28
ATOM     28  C   UNL A   1      33.387  27.445  26.426  1.00  0.00     0.042 C 
BRANCH  28  29
ATOM     29  C   UNL A   1      34.269  28.589  25.935  1.00  0.00     0.118 C 
BRANCH  29  30
ATOM     30  N   UNL A   1      33.894  29.862  26.533  1.00  0.00    -0.352 N 
ATOM     31  C   UNL A   1      34.488  30.559  27.554  1.00  0.00     0.251 C 
ATOM     32  H   UNL A   1      33.095  30.287  26.145  1.00  0.00     0.163 HD
ATOM     33  O   UNL A   1      33.902  31.509  28.064  1.00  0.00    -0.269 OA
BRANCH  31  34
ATOM     34  C   UNL A   1      35.824  30.169  28.055  1.00  0.00     0.039 A 
ATOM     35  C   UNL A   1      35.929  29.647  29.348  1.00  0.00     0.014 A 
ATOM     36  C   UNL A   1      36.972  30.353  27.280  1.00  0.00     0.014 A 
ATOM     37  C   UNL A   1      37.178  29.264  29.843  1.00  0.00     0.010 A 
ATOM     38  C   UNL A   1      38.206  29.908  27.747  1.00  0.00     0.010 A 
ATOM     39  C   UNL A   1      38.323  29.366  29.036  1.00  0.00    -0.014 A 
BRANCH  39  40
ATOM     40  C   UNL A   1      39.650  28.916  29.528  1.00  0.00     0.031 A 
ATOM     41  C   UNL A   1      40.418  29.758  30.509  1.00  0.00     0.074 A 
ATOM     42  C   UNL A   1      40.188  27.782  29.042  1.00  0.00     0.049 A 
ATOM     43  N   UNL A   1      41.616  29.569  31.002  1.00  0.00    -0.248 NA
ATOM     44  C   UNL A   1      39.762  30.986  30.981  1.00  0.00     0.031 C 
ATOM     45  C   UNL A   1      39.559  26.904  28.055  1.00  0.00     0.029 A 
ATOM     46  N   UNL A   1      41.393  27.179  29.306  1.00  0.00    -0.354 N 
ATOM     47  C   UNL A   1      41.862  30.659  31.826  1.00  0.00     0.074 A 
ATOM     48  C   UNL A   1      40.709  31.530  31.729  1.00  0.00     0.031 C 
ATOM     49  C   UNL A   1      40.374  25.865  27.809  1.00  0.00     0.029 A 
ATOM     50  C   UNL A   1      41.596  26.023  28.592  1.00  0.00     0.049 A 
ATOM     51  H   UNL A   1      42.048  27.540  29.945  1.00  0.00     0.167 HD
ATOM     52  C   UNL A   1      42.941  30.901  32.608  1.00  0.00     0.037 A 
ATOM     53  C   UNL A   1      42.653  25.189  28.566  1.00  0.00     0.037 A 
ATOM     54  C   UNL A   1      44.074  30.020  32.720  1.00  0.00     0.049 A 
ATOM     55  C   UNL A   1      43.842  25.484  29.440  1.00  0.00     0.074 A 
ATOM     56  C   UNL A   1      45.187  30.143  33.532  1.00  0.00     0.029 A 
ATOM     57  N   UNL A   1      44.238  28.850  31.992  1.00  0.00    -0.354 N 
ATOM     58  N   UNL A   1      44.035  26.483  30.266  1.00  0.00    -0.248 NA
ATOM     59  C   UNL A   1      44.959  24.530  29.381  1.00  0.00     0.031 C 
ATOM     60  C   UNL A   1      46.047  29.073  33.262  1.00  0.00     0.029 A 
ATOM     61  C   UNL A   1      45.446  28.254  32.319  1.00  0.00     0.049 A 
ATOM     62  H   UNL A   1      43.592  28.494  31.340  1.00  0.00     0.167 HD
ATOM     63  C   UNL A   1      45.278  26.267  30.845  1.00  0.00     0.074 A 
ATOM     64  C   UNL A   1      45.788  25.031  30.285  1.00  0.00     0.031 C 
ATOM     65  C   UNL A   1      45.938  27.023  31.756  1.00  0.00     0.037 A 
BRANCH  52  66
ATOM     66  C   UNL A   1      42.948  32.173  33.407  1.00  0.00     0.064 A 
ATOM     67  C   UNL A   1      43.495  33.360  32.896  1.00  0.00     0.173 A 
ATOM     68  C   UNL A   1      42.371  32.214  34.685  1.00  0.00     0.173 A 
ATOM     69  F   UNL A   1      44.068  33.373  31.683  1.00  0.00    -0.203 F 
ATOM     70  C   UNL A   1      43.491  34.533  33.647  1.00  0.00     0.198 A 
ATOM     71  C   UNL A   1      42.341  33.396  35.421  1.00  0.00     0.198 A 
ATOM     72  F   UNL A   1      41.829  31.109  35.218  1.00  0.00    -0.203 F 
ATOM     73  F   UNL A   1      44.064  35.641  33.159  1.00  0.00    -0.200 F 
ATOM     74  C   UNL A   1      42.908  34.552  34.906  1.00  0.00     0.200 A 
ATOM     75  F   UNL A   1      41.765  33.416  36.632  1.00  0.00    -0.200 F 
ATOM     76  F   UNL A   1      42.900  35.683  35.625  1.00  0.00    -0.200 F 
ENDBRANCH  52  66
BRANCH  53  77
ATOM     77  C   UNL A   1      42.624  23.984  27.699  1.00  0.00     0.064 A 
ATOM     78  C   UNL A   1      42.258  22.735  28.218  1.00  0.00     0.173 A 
ATOM     79  C   UNL A   1      42.958  24.053  26.339  1.00  0.00     0.173 A 
ATOM     80  F   UNL A   1      41.950  22.614  29.517  1.00  0.00    -0.203 F 
ATOM     81  C   UNL A   1      42.244  21.596  27.413  1.00  0.00     0.198 A 
ATOM     82  C   UNL A   1      42.916  22.920  25.529  1.00  0.00     0.198 A 
ATOM     83  F   UNL A   1      43.310  25.227  25.792  1.00  0.00    -0.203 F 
ATOM     84  F   UNL A   1      41.930  20.407  27.945  1.00  0.00    -0.200 F 
ATOM     85  C   UNL A   1      42.567  21.691  26.068  1.00  0.00     0.200 A 
ATOM     86  F   UNL A   1      43.215  23.020  24.226  1.00  0.00    -0.200 F 
ATOM     87  F   UNL A   1      42.548  20.598  25.294  1.00  0.00    -0.200 F 
ENDBRANCH  53  77
BRANCH  65  88
ATOM     88  C   UNL A   1      47.270  26.521  32.228  1.00  0.00     0.064 A 
ATOM     89  C   UNL A   1      47.381  25.624  33.302  1.00  0.00     0.173 A 
ATOM     90  C   UNL A   1      48.449  26.915  31.576  1.00  0.00     0.173 A 
ATOM     91  F   UNL A   1      46.285  25.230  33.967  1.00  0.00    -0.203 F 
ATOM     92  C   UNL A   1      48.625  25.159  33.718  1.00  0.00     0.198 A 
ATOM     93  C   UNL A   1      49.689  26.424  31.978  1.00  0.00     0.198 A 
ATOM     94  F   UNL A   1      48.398  27.767  30.542  1.00  0.00    -0.203 F 
ATOM     95  F   UNL A   1      48.710  24.339  34.775  1.00  0.00    -0.200 F 
ATOM     96  C   UNL A   1      49.776  25.552  33.052  1.00  0.00     0.200 A 
ATOM     97  F   UNL A   1      50.799  26.795  31.324  1.00  0.00    -0.200 F 
ATOM     98  F   UNL A   1      50.972  25.097  33.452  1.00  0.00    -0.200 F 
ENDBRANCH  65  88
ENDBRANCH  39  40
ENDBRANCH  31  34
ENDBRANCH  29  30
ENDBRANCH  28  29
ENDBRANCH   1  28
TORSDOF 15
ENDMDL
MODEL 2
REMARK VINA RESULT:     -11.4      4.397      7.990
REMARK SMILES C[NH2+][C@]1(C(=O)NCCCNC(=O)c2ccc(-c3c4nc(c(-c5c(F)c(F)c(F)c(F)c5F)c5ccc([nH]5)c(-c5c(F)c(F)c(F)c(F)c5F)c5nc(c(-c6c(F)c(F)c(F)c(F)c6F)c6ccc3[nH]6)C=C5)C=C4)cc2)CCC[C@@H]1CC[N@H+]1CCC[C@H]([NH+](C)C)C1
REMARK SMILES IDX 7 1 6 2 4 3 5 4 3 6 76 7 79 8 77 9 78 10 2 11 1 12 80 15
REMARK SMILES IDX 81 16 82 17 83 18 90 19 84 21 86 22 85 23 87 24 88 25 89 26
REMARK SMILES IDX 8 28 9 29 10 30 11 31 12 33 13 34 14 35 75 36 15 37 74 38
REMARK SMILES IDX 16 39 17 40 18 41 68 42 19 43 73 44 67 45 69 46 20 47 72 48
REMARK SMILES IDX 66 49 65 50 21 52 53 53 33 54 52 55 34 56 37 57 51 58 70 59
REMARK SMILES IDX 35 60 36 61 50 63 71 64 38 65 22 66 23 67 31 68 24 69 25 70
REMARK SMILES IDX 29 71 32 72 26 73 27 74 30 75 28 76 54 77 55 78 63 79 56 80
REMARK SMILES IDX 57 81 61 82 64 83 58 84 59 85 62 86 60 87 39 88 40 89 48 90
REMARK SMILES IDX 41 91 42 92 46 93 49 94 43 95 44 96 47 97 45 98
REMARK H PARENT 6 5 2 13 2 14 82 20 87 27 10 32 69 51 37 62
REMARK Flexibility Score: inf
ROOT
ATOM      1  C   UNL A   1      37.153  20.558  24.885  1.00  0.00     0.118 C 
ENDROOT
BRANCH   1   2
ATOM      2  N   UNL A   1      36.924  21.555  23.854  1.00  0.00    -0.351 N 
ATOM      3  C   UNL A   1      36.171  22.686  23.808  1.00  0.00     0.281 C 
ATOM      4  O   UNL A   1      36.210  23.295  22.728  1.00  0.00    -0.268 OA
ATOM      5  H   UNL A   1      37.414  21.375  23.019  1.00  0.00     0.163 HD
BRANCH   3   6
ATOM      6  C   UNL A   1      35.385  23.279  25.028  1.00  0.00     0.178 C 
ATOM      7  C   UNL A   1      34.986  24.759  24.929  1.00  0.00     0.079 C 
ATOM      8  C   UNL A   1      33.993  22.576  25.156  1.00  0.00     0.066 C 
ATOM      9  C   UNL A   1      33.856  24.913  25.937  1.00  0.00     0.008 C 
ATOM     10  C   UNL A   1      33.109  23.577  25.926  1.00  0.00     0.011 C 
BRANCH   6  11
ATOM     11  N   UNL A   1      36.167  23.010  26.283  1.00  0.00    -0.336 N 
ATOM     12  C   UNL A   1      37.382  23.804  26.431  1.00  0.00     0.331 C 
ATOM     13  H   UNL A   1      35.562  23.206  27.081  1.00  0.00     0.346 HD
ATOM     14  H   UNL A   1      36.466  22.036  26.231  1.00  0.00     0.346 HD
ENDBRANCH   6  11
BRANCH   8  15
ATOM     15  C   UNL A   1      34.030  21.173  25.801  1.00  0.00     0.072 C 
BRANCH  15  16
ATOM     16  C   UNL A   1      32.750  20.338  25.636  1.00  0.00     0.262 C 
BRANCH  16  17
ATOM     17  N   UNL A   1      32.842  19.137  24.785  1.00  0.00    -0.330 N 
ATOM     18  C   UNL A   1      32.312  19.310  23.428  1.00  0.00     0.262 C 
ATOM     19  C   UNL A   1      34.259  18.714  24.686  1.00  0.00     0.327 C 
ATOM     20  H   UNL A   1      32.262  18.431  25.236  1.00  0.00     0.348 HD
ATOM     21  C   UNL A   1      32.293  17.972  22.693  1.00  0.00     0.068 C 
ATOM     22  C   UNL A   1      34.470  17.365  23.940  1.00  0.00     0.239 C 
ATOM     23  C   UNL A   1      33.679  17.340  22.613  1.00  0.00     0.077 C 
BRANCH  22  24
ATOM     24  N   UNL A   1      34.313  16.123  24.741  1.00  0.00    -0.333 N 
ATOM     25  C   UNL A   1      35.545  15.788  25.461  1.00  0.00     0.332 C 
ATOM     26  C   UNL A   1      33.187  16.132  25.670  1.00  0.00     0.332 C 
ATOM     27  H   UNL A   1      34.108  15.404  24.048  1.00  0.00     0.348 HD
ENDBRANCH  22  24
ENDBRANCH  16  17
ENDBRANCH  15  16
ENDBRANCH   8  15
ENDBRANCH   3   6
ENDBRANCH   1   2
BRANCH   1  28
ATOM     28  C   UNL A   1      38.558  19.974  24.776  1.00  0.00     0.042 C 
BRANCH  28  29
ATOM     29  C   UNL A   1      39.270  19.876  26.121  1.00  0.00     0.118 C 
BRANCH  29  30
ATOM     30  N   UNL A   1      40.394  18.952  26.077  1.00  0.00    -0.352 N 
ATOM     31  C   UNL A   1      41.741  19.209  26.092  1.00  0.00     0.251 C 
ATOM     32  H   UNL A   1      40.150  17.999  26.031  1.00  0.00     0.163 HD
ATOM     33  O   UNL A   1      42.535  18.311  25.830  1.00  0.00    -0.269 OA
BRANCH  31  34
ATOM     34  C   UNL A   1      42.245  20.563  26.408  1.00  0.00     0.039 A 
ATOM     35  C   UNL A   1      42.564  21.424  25.354  1.00  0.00     0.014 A 
ATOM     36  C   UNL A   1      42.447  20.972  27.730  1.00  0.00     0.014 A 
ATOM     37  C   UNL A   1      43.035  22.711  25.625  1.00  0.00     0.010 A 
ATOM     38  C   UNL A   1      42.852  22.277  28.000  1.00  0.00     0.010 A 
ATOM     39  C   UNL A   1      43.156  23.157  26.951  1.00  0.00    -0.014 A 
BRANCH  39  40
ATOM     40  C   UNL A   1      43.608  24.538  27.257  1.00  0.00     0.031 A 
ATOM     41  C   UNL A   1      42.632  25.554  27.781  1.00  0.00     0.074 A 
ATOM     42  C   UNL A   1      44.882  24.891  27.004  1.00  0.00     0.049 A 
ATOM     43  N   UNL A   1      42.819  26.824  28.044  1.00  0.00    -0.248 NA
ATOM     44  C   UNL A   1      41.258  25.089  28.020  1.00  0.00     0.031 C 
ATOM     45  C   UNL A   1      45.911  24.007  26.455  1.00  0.00     0.029 A 
ATOM     46  N   UNL A   1      45.527  26.092  27.165  1.00  0.00    -0.354 N 
ATOM     47  C   UNL A   1      41.586  27.309  28.461  1.00  0.00     0.074 A 
ATOM     48  C   UNL A   1      40.648  26.210  28.371  1.00  0.00     0.031 C 
ATOM     49  C   UNL A   1      47.061  24.689  26.342  1.00  0.00     0.029 A 
ATOM     50  C   UNL A   1      46.843  26.066  26.775  1.00  0.00     0.049 A 
ATOM     51  H   UNL A   1      45.088  26.896  27.526  1.00  0.00     0.167 HD
ATOM     52  C   UNL A   1      41.271  28.551  28.900  1.00  0.00     0.037 A 
ATOM     53  C   UNL A   1      47.768  27.044  26.760  1.00  0.00     0.037 A 
ATOM     54  C   UNL A   1      42.215  29.633  29.011  1.00  0.00     0.049 A 
ATOM     55  C   UNL A   1      47.391  28.417  27.248  1.00  0.00     0.074 A 
ATOM     56  C   UNL A   1      42.010  30.910  29.504  1.00  0.00     0.029 A 
ATOM     57  N   UNL A   1      43.544  29.564  28.620  1.00  0.00    -0.354 N 
ATOM     58  N   UNL A   1      46.240  28.847  27.704  1.00  0.00    -0.248 NA
ATOM     59  C   UNL A   1      48.446  29.441  27.223  1.00  0.00     0.031 C 
ATOM     60  C   UNL A   1      43.202  31.628  29.368  1.00  0.00     0.029 A 
ATOM     61  C   UNL A   1      44.165  30.784  28.838  1.00  0.00     0.049 A 
ATOM     62  H   UNL A   1      43.982  28.767  28.243  1.00  0.00     0.167 HD
ATOM     63  C   UNL A   1      46.436  30.179  28.045  1.00  0.00     0.074 A 
ATOM     64  C   UNL A   1      47.823  30.482  27.756  1.00  0.00     0.031 C 
ATOM     65  C   UNL A   1      45.548  31.069  28.549  1.00  0.00     0.037 A 
BRANCH  52  66
ATOM     66  C   UNL A   1      39.846  28.808  29.294  1.00  0.00     0.064 A 
ATOM     67  C   UNL A   1      38.891  29.242  28.361  1.00  0.00     0.173 A 
ATOM     68  C   UNL A   1      39.419  28.584  30.611  1.00  0.00     0.173 A 
ATOM     69  F   UNL A   1      39.248  29.481  27.090  1.00  0.00    -0.203 F 
ATOM     70  C   UNL A   1      37.571  29.472  28.740  1.00  0.00     0.198 A 
ATOM     71  C   UNL A   1      38.091  28.785  30.980  1.00  0.00     0.198 A 
ATOM     72  F   UNL A   1      40.289  28.162  31.541  1.00  0.00    -0.203 F 
ATOM     73  F   UNL A   1      36.689  29.935  27.843  1.00  0.00    -0.200 F 
ATOM     74  C   UNL A   1      37.170  29.237  30.047  1.00  0.00     0.200 A 
ATOM     75  F   UNL A   1      37.703  28.545  32.240  1.00  0.00    -0.200 F 
ATOM     76  F   UNL A   1      35.898  29.453  30.409  1.00  0.00    -0.200 F 
ENDBRANCH  52  66
BRANCH  53  77
ATOM     77  C   UNL A   1      49.146  26.755  26.288  1.00  0.00     0.064 A 
ATOM     78  C   UNL A   1      49.510  26.979  24.953  1.00  0.00     0.173 A 
ATOM     79  C   UNL A   1      50.125  26.253  27.157  1.00  0.00     0.173 A 
ATOM     80  F   UNL A   1      48.603  27.438  24.080  1.00  0.00    -0.203 F 
ATOM     81  C   UNL A   1      50.797  26.694  24.500  1.00  0.00     0.198 A 
ATOM     82  C   UNL A   1      51.420  25.996  26.709  1.00  0.00     0.198 A 
ATOM     83  F   UNL A   1      49.830  26.027  28.445  1.00  0.00    -0.203 F 
ATOM     84  F   UNL A   1      51.106  26.878  23.210  1.00  0.00    -0.200 F 
ATOM     85  C   UNL A   1      51.753  26.209  25.380  1.00  0.00     0.200 A 
ATOM     86  F   UNL A   1      52.344  25.541  27.567  1.00  0.00    -0.200 F 
ATOM     87  F   UNL A   1      52.992  25.941  24.946  1.00  0.00    -0.200 F 
ENDBRANCH  53  77
BRANCH  65  88
ATOM     88  C   UNL A   1      46.055  32.448  28.851  1.00  0.00     0.064 A 
ATOM     89  C   UNL A   1      46.621  32.769  30.095  1.00  0.00     0.173 A 
ATOM     90  C   UNL A   1      46.007  33.453  27.872  1.00  0.00     0.173 A 
ATOM     91  F   UNL A   1      46.675  31.848  31.069  1.00  0.00    -0.203 F 
ATOM     92  C   UNL A   1      47.099  34.051  30.353  1.00  0.00     0.198 A 
ATOM     93  C   UNL A   1      46.513  34.725  28.125  1.00  0.00     0.198 A 
ATOM     94  F   UNL A   1      45.481  33.196  26.665  1.00  0.00    -0.203 F 
ATOM     95  F   UNL A   1      47.592  34.347  31.564  1.00  0.00    -0.200 F 
ATOM     96  C   UNL A   1      47.052  35.024  29.367  1.00  0.00     0.200 A 
ATOM     97  F   UNL A   1      46.479  35.661  27.167  1.00  0.00    -0.200 F 
ATOM     98  F   UNL A   1      47.518  36.256  29.617  1.00  0.00    -0.200 F 
ENDBRANCH  65  88
ENDBRANCH  39  40
ENDBRANCH  31  34
ENDBRANCH  29  30
ENDBRANCH  28  29
ENDBRANCH   1  28
TORSDOF 15
ENDMDL
MODEL 3
REMARK VINA RESULT:     -11.3      4.287      8.957
REMARK SMILES C[NH2+][C@]1(C(=O)NCCCNC(=O)c2ccc(-c3c4nc(c(-c5c(F)c(F)c(F)c(F)c5F)c5ccc([nH]5)c(-c5c(F)c(F)c(F)c(F)c5F)c5nc(c(-c6c(F)c(F)c(F)c(F)c6F)c6ccc3[nH]6)C=C5)C=C4)cc2)CCC[C@@H]1CC[N@H+]1CCC[C@H]([NH+](C)C)C1
REMARK SMILES IDX 7 1 6 2 4 3 5 4 3 6 76 7 79 8 77 9 78 10 2 11 1 12 80 15
REMARK SMILES IDX 81 16 82 17 83 18 90 19 84 21 86 22 85 23 87 24 88 25 89 26
REMARK SMILES IDX 8 28 9 29 10 30 11 31 12 33 13 34 14 35 75 36 15 37 74 38
REMARK SMILES IDX 16 39 17 40 18 41 68 42 19 43 73 44 67 45 69 46 20 47 72 48
REMARK SMILES IDX 66 49 65 50 21 52 53 53 33 54 52 55 34 56 37 57 51 58 70 59
REMARK SMILES IDX 35 60 36 61 50 63 71 64 38 65 22 66 23 67 31 68 24 69 25 70
REMARK SMILES IDX 29 71 32 72 26 73 27 74 30 75 28 76 54 77 55 78 63 79 56 80
REMARK SMILES IDX 57 81 61 82 64 83 58 84 59 85 62 86 60 87 39 88 40 89 48 90
REMARK SMILES IDX 41 91 42 92 46 93 49 94 43 95 44 96 47 97 45 98
REMARK H PARENT 6 5 2 13 2 14 82 20 87 27 10 32 69 51 37 62
REMARK Flexibility Score: inf
ROOT
ATOM      1  C   UNL A   1      37.133  20.435  25.005  1.00  0.00     0.118 C 
ENDROOT
BRANCH   1   2
ATOM      2  N   UNL A   1      37.056  21.431  23.950  1.00  0.00    -0.351 N 
ATOM      3  C   UNL A   1      36.373  22.599  23.826  1.00  0.00     0.281 C 
ATOM      4  O   UNL A   1      36.545  23.192  22.750  1.00  0.00    -0.268 OA
ATOM      5  H   UNL A   1      37.611  21.215  23.166  1.00  0.00     0.163 HD
BRANCH   3   6
ATOM      6  C   UNL A   1      35.511  23.248  24.963  1.00  0.00     0.178 C 
ATOM      7  C   UNL A   1      35.150  24.731  24.785  1.00  0.00     0.079 C 
ATOM      8  C   UNL A   1      34.099  22.575  25.009  1.00  0.00     0.066 C 
ATOM      9  C   UNL A   1      33.951  24.940  25.699  1.00  0.00     0.008 C 
ATOM     10  C   UNL A   1      33.180  23.618  25.677  1.00  0.00     0.011 C 
BRANCH   6  11
ATOM     11  N   UNL A   1      36.191  23.010  26.281  1.00  0.00    -0.336 N 
ATOM     12  C   UNL A   1      37.429  23.757  26.477  1.00  0.00     0.331 C 
ATOM     13  H   UNL A   1      35.543  23.271  27.024  1.00  0.00     0.346 HD
ATOM     14  H   UNL A   1      36.448  22.023  26.296  1.00  0.00     0.346 HD
ENDBRANCH   6  11
BRANCH   8  15
ATOM     15  C   UNL A   1      34.059  21.195  25.702  1.00  0.00     0.072 C 
BRANCH  15  16
ATOM     16  C   UNL A   1      32.757  20.400  25.513  1.00  0.00     0.262 C 
BRANCH  16  17
ATOM     17  N   UNL A   1      32.839  19.170  24.702  1.00  0.00    -0.330 N 
ATOM     18  C   UNL A   1      32.308  19.302  23.341  1.00  0.00     0.262 C 
ATOM     19  C   UNL A   1      34.252  18.733  24.617  1.00  0.00     0.327 C 
ATOM     20  H   UNL A   1      32.254  18.484  25.178  1.00  0.00     0.348 HD
ATOM     21  C   UNL A   1      32.278  17.940  22.651  1.00  0.00     0.068 C 
ATOM     22  C   UNL A   1      34.452  17.357  23.916  1.00  0.00     0.239 C 
ATOM     23  C   UNL A   1      33.658  17.294  22.592  1.00  0.00     0.077 C 
BRANCH  22  24
ATOM     24  N   UNL A   1      34.286  16.145  24.758  1.00  0.00    -0.333 N 
ATOM     25  C   UNL A   1      35.530  15.795  25.450  1.00  0.00     0.332 C 
ATOM     26  C   UNL A   1      33.191  16.213  25.722  1.00  0.00     0.332 C 
ATOM     27  H   UNL A   1      34.039  15.412  24.094  1.00  0.00     0.348 HD
ENDBRANCH  22  24
ENDBRANCH  16  17
ENDBRANCH  15  16
ENDBRANCH   8  15
ENDBRANCH   3   6
ENDBRANCH   1   2
BRANCH   1  28
ATOM     28  C   UNL A   1      38.460  19.684  24.949  1.00  0.00     0.042 C 
BRANCH  28  29
ATOM     29  C   UNL A   1      39.366  19.984  26.138  1.00  0.00     0.118 C 
BRANCH  29  30
ATOM     30  N   UNL A   1      40.550  19.137  26.149  1.00  0.00    -0.352 N 
ATOM     31  C   UNL A   1      41.876  19.484  26.193  1.00  0.00     0.251 C 
ATOM     32  H   UNL A   1      40.371  18.169  26.121  1.00  0.00     0.163 HD
ATOM     33  O   UNL A   1      42.735  18.635  25.976  1.00  0.00    -0.269 OA
BRANCH  31  34
ATOM     34  C   UNL A   1      42.281  20.876  26.487  1.00  0.00     0.039 A 
ATOM     35  C   UNL A   1      42.440  21.768  25.423  1.00  0.00     0.014 A 
ATOM     36  C   UNL A   1      42.545  21.294  27.795  1.00  0.00     0.014 A 
ATOM     37  C   UNL A   1      42.814  23.090  25.674  1.00  0.00     0.010 A 
ATOM     38  C   UNL A   1      42.851  22.628  28.051  1.00  0.00     0.010 A 
ATOM     39  C   UNL A   1      42.996  23.538  26.992  1.00  0.00    -0.014 A 
BRANCH  39  40
ATOM     40  C   UNL A   1      43.345  24.952  27.281  1.00  0.00     0.031 A 
ATOM     41  C   UNL A   1      44.739  25.454  27.027  1.00  0.00     0.074 A 
ATOM     42  C   UNL A   1      42.421  25.765  27.828  1.00  0.00     0.049 A 
ATOM     43  N   UNL A   1      45.253  26.633  27.277  1.00  0.00    -0.248 NA
ATOM     44  C   UNL A   1      45.688  24.499  26.438  1.00  0.00     0.031 C 
ATOM     45  C   UNL A   1      41.049  25.382  28.160  1.00  0.00     0.029 A 
ATOM     46  N   UNL A   1      42.503  27.080  28.213  1.00  0.00    -0.354 N 
ATOM     47  C   UNL A   1      46.584  26.554  26.891  1.00  0.00     0.074 A 
ATOM     48  C   UNL A   1      46.812  25.199  26.436  1.00  0.00     0.031 C 
ATOM     49  C   UNL A   1      40.411  26.442  28.680  1.00  0.00     0.029 A 
ATOM     50  C   UNL A   1      41.338  27.567  28.754  1.00  0.00     0.049 A 
ATOM     51  H   UNL A   1      43.317  27.623  28.110  1.00  0.00     0.167 HD
ATOM     52  C   UNL A   1      47.525  27.529  26.895  1.00  0.00     0.037 A 
ATOM     53  C   UNL A   1      41.052  28.781  29.260  1.00  0.00     0.037 A 
ATOM     54  C   UNL A   1      47.286  28.882  27.326  1.00  0.00     0.049 A 
ATOM     55  C   UNL A   1      42.117  29.846  29.258  1.00  0.00     0.074 A 
ATOM     56  C   UNL A   1      48.154  29.959  27.309  1.00  0.00     0.029 A 
ATOM     57  N   UNL A   1      46.088  29.342  27.854  1.00  0.00    -0.354 N 
ATOM     58  N   UNL A   1      43.353  29.779  28.828  1.00  0.00    -0.248 NA
ATOM     59  C   UNL A   1      41.743  31.156  29.809  1.00  0.00     0.031 C 
ATOM     60  C   UNL A   1      47.497  31.059  27.870  1.00  0.00     0.029 A 
ATOM     61  C   UNL A   1      46.203  30.681  28.190  1.00  0.00     0.049 A 
ATOM     62  H   UNL A   1      45.277  28.798  27.973  1.00  0.00     0.167 HD
ATOM     63  C   UNL A   1      43.897  31.041  29.029  1.00  0.00     0.074 A 
ATOM     64  C   UNL A   1      42.849  31.858  29.608  1.00  0.00     0.031 C 
ATOM     65  C   UNL A   1      45.150  31.482  28.761  1.00  0.00     0.037 A 
BRANCH  52  66
ATOM     66  C   UNL A   1      48.902  27.167  26.419  1.00  0.00     0.064 A 
ATOM     67  C   UNL A   1      49.896  26.727  27.307  1.00  0.00     0.173 A 
ATOM     68  C   UNL A   1      49.223  27.226  25.055  1.00  0.00     0.173 A 
ATOM     69  F   UNL A   1      49.645  26.661  28.623  1.00  0.00    -0.203 F 
ATOM     70  C   UNL A   1      51.168  26.391  26.850  1.00  0.00     0.198 A 
ATOM     71  C   UNL A   1      50.486  26.860  24.597  1.00  0.00     0.198 A 
ATOM     72  F   UNL A   1      48.307  27.634  24.162  1.00  0.00    -0.203 F 
ATOM     73  F   UNL A   1      52.116  26.023  27.723  1.00  0.00    -0.200 F 
ATOM     74  C   UNL A   1      51.460  26.452  25.495  1.00  0.00     0.200 A 
ATOM     75  F   UNL A   1      50.762  26.906  23.286  1.00  0.00    -0.200 F 
ATOM     76  F   UNL A   1      52.683  26.122  25.056  1.00  0.00    -0.200 F 
ENDBRANCH  52  66
BRANCH  53  77
ATOM     77  C   UNL A   1      39.694  29.063  29.788  1.00  0.00     0.064 A 
ATOM     78  C   UNL A   1      39.382  28.823  31.134  1.00  0.00     0.173 A 
ATOM     79  C   UNL A   1      38.682  29.580  28.967  1.00  0.00     0.173 A 
ATOM     80  F   UNL A   1      40.310  28.310  31.954  1.00  0.00    -0.203 F 
ATOM     81  C   UNL A   1      38.105  29.070  31.633  1.00  0.00     0.198 A 
ATOM     82  C   UNL A   1      37.413  29.854  29.473  1.00  0.00     0.198 A 
ATOM     83  F   UNL A   1      38.930  29.833  27.673  1.00  0.00    -0.203 F 
ATOM     84  F   UNL A   1      37.822  28.791  32.913  1.00  0.00    -0.200 F 
ATOM     85  C   UNL A   1      37.123  29.591  30.804  1.00  0.00     0.200 A 
ATOM     86  F   UNL A   1      36.472  30.372  28.672  1.00  0.00    -0.200 F 
ATOM     87  F   UNL A   1      35.896  29.835  31.285  1.00  0.00    -0.200 F 
ENDBRANCH  53  77
BRANCH  65  88
ATOM     88  C   UNL A   1      45.450  32.921  29.061  1.00  0.00     0.064 A 
ATOM     89  C   UNL A   1      45.943  33.326  30.311  1.00  0.00     0.173 A 
ATOM     90  C   UNL A   1      45.276  33.903  28.073  1.00  0.00     0.173 A 
ATOM     91  F   UNL A   1      46.111  32.427  31.292  1.00  0.00    -0.203 F 
ATOM     92  C   UNL A   1      46.228  34.664  30.567  1.00  0.00     0.198 A 
ATOM     93  C   UNL A   1      45.590  35.236  28.325  1.00  0.00     0.198 A 
ATOM     94  F   UNL A   1      44.812  33.568  26.860  1.00  0.00    -0.203 F 
ATOM     95  F   UNL A   1      46.654  35.033  31.783  1.00  0.00    -0.200 F 
ATOM     96  C   UNL A   1      46.060  35.615  29.573  1.00  0.00     0.200 A 
ATOM     97  F   UNL A   1      45.440  36.153  27.359  1.00  0.00    -0.200 F 
ATOM     98  F   UNL A   1      46.342  36.902  29.821  1.00  0.00    -0.200 F 
ENDBRANCH  65  88
ENDBRANCH  39  40
ENDBRANCH  31  34
ENDBRANCH  29  30
ENDBRANCH  28  29
ENDBRANCH   1  28
TORSDOF 15
ENDMDL
