MODEL 1
REMARK VINA RESULT:     -12.2      0.000      0.000
REMARK SMILES O=C(NCCCNC(=O)c1cc(Br)ccc1OC(=O)c1ccc(F)cc1)c1ccc(-c2c3nc(c(-c4c(F)c(F)c(F)c(F)c4F)c4ccc([nH]4)c(-c4c(F)c(F)c(F)c(F)c4F)c4nc(c(-c5c(F)c(F)c(F)c(F)c5F)c5ccc2[nH]5)C=C4)C=C3)cc1
REMARK SMILES IDX 5 1 4 2 3 3 1 4 2 5 27 7 28 8 89 9 29 10 88 11 30 12 31 13
REMARK SMILES IDX 32 14 82 15 33 16 87 17 81 18 83 19 34 20 86 21 80 22 79 23
REMARK SMILES IDX 35 25 67 26 47 27 66 28 48 29 51 30 65 31 84 32 49 33 50 34
REMARK SMILES IDX 64 36 85 37 52 38 36 39 37 40 45 41 38 42 39 43 43 44 46 45
REMARK SMILES IDX 40 46 41 47 44 48 42 49 68 50 69 51 77 52 70 53 71 54 75 55
REMARK SMILES IDX 78 56 72 57 73 58 76 59 74 60 53 61 54 62 62 63 55 64 56 65
REMARK SMILES IDX 60 66 63 67 57 68 58 69 61 70 59 71 6 72 7 73 8 74 9 76
REMARK SMILES IDX 10 77 11 78 16 79 12 80 15 81 13 82 14 83 17 84 18 85 19 86
REMARK SMILES IDX 20 87 21 88 26 89 22 90 25 91 23 92 24 93
REMARK H PARENT 3 6 83 24 51 35 7 75
REMARK Flexibility Score: inf
ROOT
ATOM      1  C   UNL A   1      32.578  28.087  25.674  1.00  0.00     0.042 C 
ENDROOT
BRANCH   1   2
ATOM      2  C   UNL A   1      33.251  29.327  25.102  1.00  0.00     0.118 C 
BRANCH   2   3
ATOM      3  N   UNL A   1      32.790  30.555  25.740  1.00  0.00    -0.352 N 
ATOM      4  O   UNL A   1      32.538  32.107  27.341  1.00  0.00    -0.269 OA
ATOM      5  C   UNL A   1      33.223  31.203  26.869  1.00  0.00     0.251 C 
ATOM      6  H   UNL A   1      32.039  30.995  25.282  1.00  0.00     0.163 HD
BRANCH   5   7
ATOM      7  C   UNL A   1      34.498  30.837  27.526  1.00  0.00     0.039 A 
ATOM      8  C   UNL A   1      35.487  31.790  27.767  1.00  0.00     0.014 A 
ATOM      9  C   UNL A   1      34.667  29.529  27.999  1.00  0.00     0.014 A 
ATOM     10  C   UNL A   1      36.685  31.417  28.368  1.00  0.00     0.010 A 
ATOM     11  C   UNL A   1      35.833  29.175  28.683  1.00  0.00     0.010 A 
ATOM     12  C   UNL A   1      36.857  30.117  28.863  1.00  0.00    -0.014 A 
BRANCH  12  13
ATOM     13  C   UNL A   1      38.060  29.807  29.673  1.00  0.00     0.031 A 
ATOM     14  C   UNL A   1      38.251  30.382  31.046  1.00  0.00     0.074 A 
ATOM     15  C   UNL A   1      38.979  28.970  29.151  1.00  0.00     0.049 A 
ATOM     16  N   UNL A   1      39.241  30.193  31.882  1.00  0.00    -0.248 NA
ATOM     17  C   UNL A   1      37.206  31.286  31.548  1.00  0.00     0.031 C 
ATOM     18  C   UNL A   1      38.903  28.369  27.816  1.00  0.00     0.029 A 
ATOM     19  N   UNL A   1      40.142  28.466  29.673  1.00  0.00    -0.354 N 
ATOM     20  C   UNL A   1      38.946  30.960  32.999  1.00  0.00     0.074 A 
ATOM     21  C   UNL A   1      37.694  31.635  32.733  1.00  0.00     0.031 C 
ATOM     22  C   UNL A   1      39.947  27.549  27.641  1.00  0.00     0.029 A 
ATOM     23  C   UNL A   1      40.800  27.611  28.823  1.00  0.00     0.049 A 
ATOM     24  H   UNL A   1      40.474  28.694  30.572  1.00  0.00     0.167 HD
ATOM     25  C   UNL A   1      39.658  31.077  34.144  1.00  0.00     0.037 A 
ATOM     26  C   UNL A   1      41.972  26.965  28.965  1.00  0.00     0.037 A 
ATOM     27  C   UNL A   1      40.889  30.378  34.412  1.00  0.00     0.049 A 
ATOM     28  C   UNL A   1      42.748  27.137  30.237  1.00  0.00     0.074 A 
ATOM     29  C   UNL A   1      41.643  30.381  35.573  1.00  0.00     0.029 A 
ATOM     30  N   UNL A   1      41.546  29.557  33.510  1.00  0.00    -0.354 N 
ATOM     31  N   UNL A   1      42.433  27.830  31.304  1.00  0.00    -0.248 NA
ATOM     32  C   UNL A   1      44.045  26.452  30.324  1.00  0.00     0.031 C 
ATOM     33  C   UNL A   1      42.781  29.600  35.357  1.00  0.00     0.029 A 
ATOM     34  C   UNL A   1      42.716  29.076  34.076  1.00  0.00     0.049 A 
ATOM     35  H   UNL A   1      41.229  29.347  32.601  1.00  0.00     0.167 HD
ATOM     36  C   UNL A   1      43.491  27.669  32.186  1.00  0.00     0.074 A 
ATOM     37  C   UNL A   1      44.444  26.788  31.544  1.00  0.00     0.031 C 
ATOM     38  C   UNL A   1      43.659  28.211  33.415  1.00  0.00     0.037 A 
BRANCH  25  39
ATOM     39  C   UNL A   1      39.142  31.986  35.218  1.00  0.00     0.064 A 
ATOM     40  C   UNL A   1      39.512  33.341  35.234  1.00  0.00     0.173 A 
ATOM     41  C   UNL A   1      38.399  31.493  36.298  1.00  0.00     0.173 A 
ATOM     42  F   UNL A   1      40.231  33.856  34.227  1.00  0.00    -0.203 F 
ATOM     43  C   UNL A   1      39.177  34.161  36.308  1.00  0.00     0.198 A 
ATOM     44  C   UNL A   1      38.050  32.321  37.362  1.00  0.00     0.198 A 
ATOM     45  F   UNL A   1      38.019  30.207  36.325  1.00  0.00    -0.203 F 
ATOM     46  F   UNL A   1      39.576  35.440  36.323  1.00  0.00    -0.200 F 
ATOM     47  C   UNL A   1      38.449  33.650  37.372  1.00  0.00     0.200 A 
ATOM     48  F   UNL A   1      37.337  31.830  38.386  1.00  0.00    -0.200 F 
ATOM     49  F   UNL A   1      38.138  34.437  38.411  1.00  0.00    -0.200 F 
ENDBRANCH  25  39
BRANCH  26  50
ATOM     50  C   UNL A   1      42.480  26.117  27.857  1.00  0.00     0.064 A 
ATOM     51  C   UNL A   1      43.402  26.620  26.926  1.00  0.00     0.173 A 
ATOM     52  C   UNL A   1      42.031  24.802  27.686  1.00  0.00     0.173 A 
ATOM     53  F   UNL A   1      43.859  27.875  27.044  1.00  0.00    -0.203 F 
ATOM     54  C   UNL A   1      43.838  25.847  25.854  1.00  0.00     0.198 A 
ATOM     55  C   UNL A   1      42.489  24.019  26.630  1.00  0.00     0.198 A 
ATOM     56  F   UNL A   1      41.164  24.271  28.562  1.00  0.00    -0.203 F 
ATOM     57  F   UNL A   1      44.689  26.364  24.958  1.00  0.00    -0.200 F 
ATOM     58  C   UNL A   1      43.384  24.544  25.709  1.00  0.00     0.200 A 
ATOM     59  F   UNL A   1      42.068  22.753  26.505  1.00  0.00    -0.200 F 
ATOM     60  F   UNL A   1      43.814  23.794  24.685  1.00  0.00    -0.200 F 
ENDBRANCH  26  50
BRANCH  38  61
ATOM     61  C   UNL A   1      44.926  27.883  34.145  1.00  0.00     0.064 A 
ATOM     62  C   UNL A   1      44.992  26.774  34.999  1.00  0.00     0.173 A 
ATOM     63  C   UNL A   1      46.049  28.717  34.051  1.00  0.00     0.173 A 
ATOM     64  F   UNL A   1      43.940  25.952  35.125  1.00  0.00    -0.203 F 
ATOM     65  C   UNL A   1      46.137  26.520  35.749  1.00  0.00     0.198 A 
ATOM     66  C   UNL A   1      47.200  28.447  34.784  1.00  0.00     0.198 A 
ATOM     67  F   UNL A   1      46.034  29.781  33.234  1.00  0.00    -0.203 F 
ATOM     68  F   UNL A   1      46.170  25.473  36.584  1.00  0.00    -0.200 F 
ATOM     69  C   UNL A   1      47.239  27.354  35.639  1.00  0.00     0.200 A 
ATOM     70  F   UNL A   1      48.272  29.240  34.662  1.00  0.00    -0.200 F 
ATOM     71  F   UNL A   1      48.343  27.105  36.358  1.00  0.00    -0.200 F 
ENDBRANCH  38  61
ENDBRANCH  12  13
ENDBRANCH   5   7
ENDBRANCH   2   3
ENDBRANCH   1   2
BRANCH   1  72
ATOM     72  C   UNL A   1      33.378  26.807  25.480  1.00  0.00     0.118 C 
BRANCH  72  73
ATOM     73  N   UNL A   1      32.807  25.661  26.178  1.00  0.00    -0.352 N 
ATOM     74  C   UNL A   1      33.173  24.336  26.146  1.00  0.00     0.255 C 
ATOM     75  H   UNL A   1      32.042  25.868  26.763  1.00  0.00     0.163 HD
ATOM     76  O   UNL A   1      32.478  23.488  26.695  1.00  0.00    -0.269 OA
BRANCH  74  77
ATOM     77  C   UNL A   1      34.409  23.937  25.444  1.00  0.00     0.083 A 
ATOM     78  C   UNL A   1      35.628  24.001  26.134  1.00  0.00     0.033 A 
ATOM     79  C   UNL A   1      34.392  23.455  24.131  1.00  0.00     0.144 A 
ATOM     80  C   UNL A   1      36.817  23.699  25.475  1.00  0.00     0.019 A 
ATOM     81  C   UNL A   1      35.585  23.126  23.481  1.00  0.00     0.049 A 
ATOM     82  Br  UNL A   1      38.460  23.877  26.391  1.00  0.00    -0.051 Br
ATOM     83  C   UNL A   1      36.803  23.278  24.146  1.00  0.00     0.019 A 
BRANCH  79  84
ATOM     84  O   UNL A   1      33.213  23.126  23.440  1.00  0.00    -0.422 OA
BRANCH  84  85
ATOM     85  C   UNL A   1      32.920  23.806  22.274  1.00  0.00     0.343 C 
ATOM     86  O   UNL A   1      33.368  23.582  21.159  1.00  0.00    -0.246 OA
BRANCH  85  87
ATOM     87  C   UNL A   1      31.933  24.880  22.578  1.00  0.00     0.060 A 
ATOM     88  C   UNL A   1      32.059  26.179  22.058  1.00  0.00     0.019 A 
ATOM     89  C   UNL A   1      30.861  24.580  23.433  1.00  0.00     0.019 A 
ATOM     90  C   UNL A   1      31.125  27.164  22.393  1.00  0.00     0.040 A 
ATOM     91  C   UNL A   1      29.926  25.567  23.760  1.00  0.00     0.040 A 
ATOM     92  C   UNL A   1      30.068  26.849  23.239  1.00  0.00     0.123 A 
ATOM     93  F   UNL A   1      29.177  27.794  23.561  1.00  0.00    -0.207 F 
ENDBRANCH  85  87
ENDBRANCH  84  85
ENDBRANCH  79  84
ENDBRANCH  74  77
ENDBRANCH  72  73
ENDBRANCH   1  72
TORSDOF 13
ENDMDL
MODEL 2
REMARK VINA RESULT:     -12.1      2.768      4.052
REMARK SMILES O=C(NCCCNC(=O)c1cc(Br)ccc1OC(=O)c1ccc(F)cc1)c1ccc(-c2c3nc(c(-c4c(F)c(F)c(F)c(F)c4F)c4ccc([nH]4)c(-c4c(F)c(F)c(F)c(F)c4F)c4nc(c(-c5c(F)c(F)c(F)c(F)c5F)c5ccc2[nH]5)C=C4)C=C3)cc1
REMARK SMILES IDX 5 1 4 2 3 3 1 4 2 5 27 7 28 8 89 9 29 10 88 11 30 12 31 13
REMARK SMILES IDX 32 14 82 15 33 16 87 17 81 18 83 19 34 20 86 21 80 22 79 23
REMARK SMILES IDX 35 25 67 26 47 27 66 28 48 29 51 30 65 31 84 32 49 33 50 34
REMARK SMILES IDX 64 36 85 37 52 38 36 39 37 40 45 41 38 42 39 43 43 44 46 45
REMARK SMILES IDX 40 46 41 47 44 48 42 49 68 50 69 51 77 52 70 53 71 54 75 55
REMARK SMILES IDX 78 56 72 57 73 58 76 59 74 60 53 61 54 62 62 63 55 64 56 65
REMARK SMILES IDX 60 66 63 67 57 68 58 69 61 70 59 71 6 72 7 73 8 74 9 76
REMARK SMILES IDX 10 77 11 78 16 79 12 80 15 81 13 82 14 83 17 84 18 85 19 86
REMARK SMILES IDX 20 87 21 88 26 89 22 90 25 91 23 92 24 93
REMARK H PARENT 3 6 83 24 51 35 7 75
REMARK Flexibility Score: inf
ROOT
ATOM      1  C   UNL A   1      33.648  28.231  25.631  1.00  0.00     0.042 C 
ENDROOT
BRANCH   1   2
ATOM      2  C   UNL A   1      33.661  28.425  27.141  1.00  0.00     0.118 C 
BRANCH   2   3
ATOM      3  N   UNL A   1      33.638  29.832  27.521  1.00  0.00    -0.352 N 
ATOM      4  O   UNL A   1      34.224  31.714  28.595  1.00  0.00    -0.269 OA
ATOM      5  C   UNL A   1      34.555  30.601  28.191  1.00  0.00     0.251 C 
ATOM      6  H   UNL A   1      32.825  30.314  27.250  1.00  0.00     0.163 HD
BRANCH   5   7
ATOM      7  C   UNL A   1      35.934  30.119  28.434  1.00  0.00     0.039 A 
ATOM      8  C   UNL A   1      36.932  30.265  27.471  1.00  0.00     0.014 A 
ATOM      9  C   UNL A   1      36.258  29.598  29.694  1.00  0.00     0.014 A 
ATOM     10  C   UNL A   1      38.214  29.786  27.717  1.00  0.00     0.010 A 
ATOM     11  C   UNL A   1      37.567  29.198  29.973  1.00  0.00     0.010 A 
ATOM     12  C   UNL A   1      38.555  29.281  28.980  1.00  0.00    -0.014 A 
BRANCH  12  13
ATOM     13  C   UNL A   1      39.975  28.966  29.271  1.00  0.00     0.031 A 
ATOM     14  C   UNL A   1      40.832  29.890  30.085  1.00  0.00     0.074 A 
ATOM     15  C   UNL A   1      40.477  27.806  28.803  1.00  0.00     0.049 A 
ATOM     16  N   UNL A   1      42.085  29.747  30.437  1.00  0.00    -0.248 NA
ATOM     17  C   UNL A   1      40.214  31.137  30.562  1.00  0.00     0.031 C 
ATOM     18  C   UNL A   1      39.736  26.842  27.984  1.00  0.00     0.029 A 
ATOM     19  N   UNL A   1      41.712  27.230  28.954  1.00  0.00    -0.354 N 
ATOM     20  C   UNL A   1      42.408  30.883  31.164  1.00  0.00     0.074 A 
ATOM     21  C   UNL A   1      41.228  31.720  31.190  1.00  0.00     0.031 C 
ATOM     22  C   UNL A   1      40.515  25.780  27.741  1.00  0.00     0.029 A 
ATOM     23  C   UNL A   1      41.828  26.011  28.331  1.00  0.00     0.049 A 
ATOM     24  H   UNL A   1      42.445  27.649  29.461  1.00  0.00     0.167 HD
ATOM     25  C   UNL A   1      43.584  31.188  31.761  1.00  0.00     0.037 A 
ATOM     26  C   UNL A   1      42.881  25.179  28.225  1.00  0.00     0.037 A 
ATOM     27  C   UNL A   1      44.744  30.333  31.754  1.00  0.00     0.049 A 
ATOM     28  C   UNL A   1      44.178  25.560  28.877  1.00  0.00     0.074 A 
ATOM     29  C   UNL A   1      45.958  30.529  32.392  1.00  0.00     0.029 A 
ATOM     30  N   UNL A   1      44.838  29.129  31.075  1.00  0.00    -0.354 N 
ATOM     31  N   UNL A   1      44.454  26.617  29.600  1.00  0.00    -0.248 NA
ATOM     32  C   UNL A   1      45.311  24.644  28.689  1.00  0.00     0.031 C 
ATOM     33  C   UNL A   1      46.801  29.465  32.061  1.00  0.00     0.029 A 
ATOM     34  C   UNL A   1      46.101  28.587  31.250  1.00  0.00     0.049 A 
ATOM     35  H   UNL A   1      44.115  28.719  30.547  1.00  0.00     0.167 HD
ATOM     36  C   UNL A   1      45.790  26.497  29.951  1.00  0.00     0.074 A 
ATOM     37  C   UNL A   1      46.262  25.249  29.388  1.00  0.00     0.031 C 
ATOM     38  C   UNL A   1      46.557  27.351  30.670  1.00  0.00     0.037 A 
BRANCH  25  39
ATOM     39  C   UNL A   1      43.702  32.494  32.485  1.00  0.00     0.064 A 
ATOM     40  C   UNL A   1      43.308  32.593  33.829  1.00  0.00     0.173 A 
ATOM     41  C   UNL A   1      44.071  33.669  31.818  1.00  0.00     0.173 A 
ATOM     42  F   UNL A   1      42.937  31.497  34.507  1.00  0.00    -0.203 F 
ATOM     43  C   UNL A   1      43.257  33.828  34.470  1.00  0.00     0.198 A 
ATOM     44  C   UNL A   1      44.035  34.900  32.468  1.00  0.00     0.198 A 
ATOM     45  F   UNL A   1      44.458  33.623  30.535  1.00  0.00    -0.203 F 
ATOM     46  F   UNL A   1      42.838  33.905  35.741  1.00  0.00    -0.200 F 
ATOM     47  C   UNL A   1      43.617  34.980  33.788  1.00  0.00     0.200 A 
ATOM     48  F   UNL A   1      44.394  36.013  31.812  1.00  0.00    -0.200 F 
ATOM     49  F   UNL A   1      43.555  36.170  34.402  1.00  0.00    -0.200 F 
ENDBRANCH  25  39
BRANCH  26  50
ATOM     50  C   UNL A   1      42.744  23.920  27.450  1.00  0.00     0.064 A 
ATOM     51  C   UNL A   1      42.302  22.738  28.063  1.00  0.00     0.173 A 
ATOM     52  C   UNL A   1      43.085  23.864  26.093  1.00  0.00     0.173 A 
ATOM     53  F   UNL A   1      41.968  22.739  29.362  1.00  0.00    -0.203 F 
ATOM     54  C   UNL A   1      42.226  21.543  27.353  1.00  0.00     0.198 A 
ATOM     55  C   UNL A   1      42.981  22.675  25.376  1.00  0.00     0.198 A 
ATOM     56  F   UNL A   1      43.495  24.973  25.459  1.00  0.00    -0.203 F 
ATOM     57  F   UNL A   1      41.837  20.421  27.972  1.00  0.00    -0.200 F 
ATOM     58  C   UNL A   1      42.562  21.513  26.008  1.00  0.00     0.200 A 
ATOM     59  F   UNL A   1      43.284  22.653  24.070  1.00  0.00    -0.200 F 
ATOM     60  F   UNL A   1      42.477  20.366  25.320  1.00  0.00    -0.200 F 
ENDBRANCH  26  50
BRANCH  38  61
ATOM     61  C   UNL A   1      47.993  26.977  30.877  1.00  0.00     0.064 A 
ATOM     62  C   UNL A   1      48.983  27.424  29.991  1.00  0.00     0.173 A 
ATOM     63  C   UNL A   1      48.371  26.111  31.913  1.00  0.00     0.173 A 
ATOM     64  F   UNL A   1      48.667  28.248  28.981  1.00  0.00    -0.203 F 
ATOM     65  C   UNL A   1      50.303  27.003  30.127  1.00  0.00     0.198 A 
ATOM     66  C   UNL A   1      49.696  25.712  32.060  1.00  0.00     0.198 A 
ATOM     67  F   UNL A   1      47.459  25.672  32.793  1.00  0.00    -0.203 F 
ATOM     68  F   UNL A   1      51.230  27.416  29.251  1.00  0.00    -0.200 F 
ATOM     69  C   UNL A   1      50.658  26.150  31.161  1.00  0.00     0.200 A 
ATOM     70  F   UNL A   1      50.042  24.905  33.071  1.00  0.00    -0.200 F 
ATOM     71  F   UNL A   1      51.931  25.750  31.293  1.00  0.00    -0.200 F 
ENDBRANCH  38  61
ENDBRANCH  12  13
ENDBRANCH   5   7
ENDBRANCH   2   3
ENDBRANCH   1   2
BRANCH   1  72
ATOM     72  C   UNL A   1      33.944  26.805  25.189  1.00  0.00     0.118 C 
BRANCH  72  73
ATOM     73  N   UNL A   1      33.285  25.799  26.014  1.00  0.00    -0.352 N 
ATOM     74  C   UNL A   1      33.476  24.438  26.067  1.00  0.00     0.255 C 
ATOM     75  H   UNL A   1      32.599  26.148  26.628  1.00  0.00     0.163 HD
ATOM     76  O   UNL A   1      32.721  23.733  26.727  1.00  0.00    -0.269 OA
BRANCH  74  77
ATOM     77  C   UNL A   1      34.596  23.829  25.323  1.00  0.00     0.083 A 
ATOM     78  C   UNL A   1      35.834  23.681  25.966  1.00  0.00     0.033 A 
ATOM     79  C   UNL A   1      34.445  23.355  24.015  1.00  0.00     0.144 A 
ATOM     80  C   UNL A   1      36.925  23.176  25.265  1.00  0.00     0.019 A 
ATOM     81  C   UNL A   1      35.537  22.822  23.325  1.00  0.00     0.049 A 
ATOM     82  Br  UNL A   1      38.609  23.067  26.118  1.00  0.00    -0.051 Br
ATOM     83  C   UNL A   1      36.787  22.760  23.942  1.00  0.00     0.019 A 
BRANCH  79  84
ATOM     84  O   UNL A   1      33.201  23.234  23.372  1.00  0.00    -0.422 OA
BRANCH  84  85
ATOM     85  C   UNL A   1      32.943  24.037  22.278  1.00  0.00     0.343 C 
ATOM     86  O   UNL A   1      33.434  23.941  21.163  1.00  0.00    -0.246 OA
BRANCH  85  87
ATOM     87  C   UNL A   1      31.936  25.066  22.663  1.00  0.00     0.060 A 
ATOM     88  C   UNL A   1      30.864  24.776  23.524  1.00  0.00     0.019 A 
ATOM     89  C   UNL A   1      32.055  26.354  22.120  1.00  0.00     0.019 A 
ATOM     90  C   UNL A   1      29.925  25.764  23.835  1.00  0.00     0.040 A 
ATOM     91  C   UNL A   1      31.118  27.340  22.439  1.00  0.00     0.040 A 
ATOM     92  C   UNL A   1      30.061  27.035  23.291  1.00  0.00     0.123 A 
ATOM     93  F   UNL A   1      29.159  27.979  23.588  1.00  0.00    -0.207 F 
ENDBRANCH  85  87
ENDBRANCH  84  85
ENDBRANCH  79  84
ENDBRANCH  74  77
ENDBRANCH  72  73
ENDBRANCH   1  72
TORSDOF 13
ENDMDL
MODEL 3
REMARK VINA RESULT:     -12.1      2.716      8.322
REMARK SMILES O=C(NCCCNC(=O)c1cc(Br)ccc1OC(=O)c1ccc(F)cc1)c1ccc(-c2c3nc(c(-c4c(F)c(F)c(F)c(F)c4F)c4ccc([nH]4)c(-c4c(F)c(F)c(F)c(F)c4F)c4nc(c(-c5c(F)c(F)c(F)c(F)c5F)c5ccc2[nH]5)C=C4)C=C3)cc1
REMARK SMILES IDX 5 1 4 2 3 3 1 4 2 5 27 7 28 8 89 9 29 10 88 11 30 12 31 13
REMARK SMILES IDX 32 14 82 15 33 16 87 17 81 18 83 19 34 20 86 21 80 22 79 23
REMARK SMILES IDX 35 25 67 26 47 27 66 28 48 29 51 30 65 31 84 32 49 33 50 34
REMARK SMILES IDX 64 36 85 37 52 38 36 39 37 40 45 41 38 42 39 43 43 44 46 45
REMARK SMILES IDX 40 46 41 47 44 48 42 49 68 50 69 51 77 52 70 53 71 54 75 55
REMARK SMILES IDX 78 56 72 57 73 58 76 59 74 60 53 61 54 62 62 63 55 64 56 65
REMARK SMILES IDX 60 66 63 67 57 68 58 69 61 70 59 71 6 72 7 73 8 74 9 76
REMARK SMILES IDX 10 77 11 78 16 79 12 80 15 81 13 82 14 83 17 84 18 85 19 86
REMARK SMILES IDX 20 87 21 88 26 89 22 90 25 91 23 92 24 93
REMARK H PARENT 3 6 83 24 51 35 7 75
REMARK Flexibility Score: inf
ROOT
ATOM      1  C   UNL A   1      31.485  32.019  26.591  1.00  0.00     0.042 C 
ENDROOT
BRANCH   1   2
ATOM      2  C   UNL A   1      32.766  32.634  27.136  1.00  0.00     0.118 C 
BRANCH   2   3
ATOM      3  N   UNL A   1      32.575  34.007  27.590  1.00  0.00    -0.352 N 
ATOM      4  O   UNL A   1      32.636  35.778  28.967  1.00  0.00    -0.269 OA
ATOM      5  C   UNL A   1      33.113  34.691  28.649  1.00  0.00     0.251 C 
ATOM      6  H   UNL A   1      31.952  34.534  27.040  1.00  0.00     0.163 HD
BRANCH   5   7
ATOM      7  C   UNL A   1      34.260  34.149  29.413  1.00  0.00     0.039 A 
ATOM      8  C   UNL A   1      34.067  33.301  30.504  1.00  0.00     0.014 A 
ATOM      9  C   UNL A   1      35.560  34.417  28.967  1.00  0.00     0.014 A 
ATOM     10  C   UNL A   1      35.161  32.821  31.217  1.00  0.00     0.010 A 
ATOM     11  C   UNL A   1      36.659  33.864  29.629  1.00  0.00     0.010 A 
ATOM     12  C   UNL A   1      36.466  33.067  30.768  1.00  0.00    -0.014 A 
BRANCH  12  13
ATOM     13  C   UNL A   1      37.599  32.379  31.432  1.00  0.00     0.031 A 
ATOM     14  C   UNL A   1      38.341  31.261  30.759  1.00  0.00     0.074 A 
ATOM     15  C   UNL A   1      37.966  32.798  32.659  1.00  0.00     0.049 A 
ATOM     16  N   UNL A   1      39.361  30.571  31.204  1.00  0.00    -0.248 NA
ATOM     17  C   UNL A   1      37.883  30.859  29.420  1.00  0.00     0.031 C 
ATOM     18  C   UNL A   1      37.300  33.863  33.415  1.00  0.00     0.029 A 
ATOM     19  N   UNL A   1      38.988  32.399  33.483  1.00  0.00    -0.354 N 
ATOM     20  C   UNL A   1      39.659  29.651  30.210  1.00  0.00     0.074 A 
ATOM     21  C   UNL A   1      38.703  29.852  29.144  1.00  0.00     0.031 C 
ATOM     22  C   UNL A   1      37.953  34.061  34.567  1.00  0.00     0.029 A 
ATOM     23  C   UNL A   1      39.045  33.098  34.664  1.00  0.00     0.049 A 
ATOM     24  H   UNL A   1      39.620  31.681  33.249  1.00  0.00     0.167 HD
ATOM     25  C   UNL A   1      40.650  28.729  30.195  1.00  0.00     0.037 A 
ATOM     26  C   UNL A   1      39.868  32.967  35.720  1.00  0.00     0.037 A 
ATOM     27  C   UNL A   1      41.617  28.556  31.250  1.00  0.00     0.049 A 
ATOM     28  C   UNL A   1      40.940  31.918  35.680  1.00  0.00     0.074 A 
ATOM     29  C   UNL A   1      42.700  27.694  31.289  1.00  0.00     0.029 A 
ATOM     30  N   UNL A   1      41.615  29.251  32.449  1.00  0.00    -0.354 N 
ATOM     31  N   UNL A   1      41.239  31.084  34.714  1.00  0.00    -0.248 NA
ATOM     32  C   UNL A   1      41.780  31.779  36.877  1.00  0.00     0.031 C 
ATOM     33  C   UNL A   1      43.325  27.835  32.530  1.00  0.00     0.029 A 
ATOM     34  C   UNL A   1      42.657  28.813  33.249  1.00  0.00     0.049 A 
ATOM     35  H   UNL A   1      40.968  29.952  32.695  1.00  0.00     0.167 HD
ATOM     36  C   UNL A   1      42.296  30.321  35.184  1.00  0.00     0.074 A 
ATOM     37  C   UNL A   1      42.609  30.809  36.512  1.00  0.00     0.031 C 
ATOM     38  C   UNL A   1      42.943  29.301  34.573  1.00  0.00     0.037 A 
BRANCH  25  39
ATOM     39  C   UNL A   1      40.768  27.825  29.006  1.00  0.00     0.064 A 
ATOM     40  C   UNL A   1      41.628  28.159  27.948  1.00  0.00     0.173 A 
ATOM     41  C   UNL A   1      39.936  26.708  28.852  1.00  0.00     0.173 A 
ATOM     42  F   UNL A   1      42.437  29.225  28.045  1.00  0.00    -0.203 F 
ATOM     43  C   UNL A   1      41.631  27.420  26.767  1.00  0.00     0.198 A 
ATOM     44  C   UNL A   1      39.955  25.961  27.677  1.00  0.00     0.198 A 
ATOM     45  F   UNL A   1      39.101  26.348  29.838  1.00  0.00    -0.203 F 
ATOM     46  F   UNL A   1      42.429  27.781  25.754  1.00  0.00    -0.200 F 
ATOM     47  C   UNL A   1      40.792  26.324  26.632  1.00  0.00     0.200 A 
ATOM     48  F   UNL A   1      39.152  24.895  27.550  1.00  0.00    -0.200 F 
ATOM     49  F   UNL A   1      40.786  25.621  25.491  1.00  0.00    -0.200 F 
ENDBRANCH  25  39
BRANCH  26  50
ATOM     50  C   UNL A   1      39.685  33.842  36.905  1.00  0.00     0.064 A 
ATOM     51  C   UNL A   1      38.884  33.440  37.985  1.00  0.00     0.173 A 
ATOM     52  C   UNL A   1      40.278  35.109  36.968  1.00  0.00     0.173 A 
ATOM     53  F   UNL A   1      38.291  32.237  37.969  1.00  0.00    -0.203 F 
ATOM     54  C   UNL A   1      38.665  34.281  39.072  1.00  0.00     0.198 A 
ATOM     55  C   UNL A   1      40.083  35.939  38.070  1.00  0.00     0.198 A 
ATOM     56  F   UNL A   1      41.069  35.529  35.969  1.00  0.00    -0.203 F 
ATOM     57  F   UNL A   1      37.865  33.887  40.072  1.00  0.00    -0.200 F 
ATOM     58  C   UNL A   1      39.269  35.529  39.116  1.00  0.00     0.200 A 
ATOM     59  F   UNL A   1      40.686  37.134  38.121  1.00  0.00    -0.200 F 
ATOM     60  F   UNL A   1      39.070  36.334  40.168  1.00  0.00    -0.200 F 
ENDBRANCH  26  50
BRANCH  38  61
ATOM     61  C   UNL A   1      44.045  28.630  35.335  1.00  0.00     0.064 A 
ATOM     62  C   UNL A   1      43.767  27.572  36.210  1.00  0.00     0.173 A 
ATOM     63  C   UNL A   1      45.366  29.092  35.250  1.00  0.00     0.173 A 
ATOM     64  F   UNL A   1      42.516  27.101  36.329  1.00  0.00    -0.203 F 
ATOM     65  C   UNL A   1      44.773  27.008  36.989  1.00  0.00     0.198 A 
ATOM     66  C   UNL A   1      46.374  28.510  36.013  1.00  0.00     0.198 A 
ATOM     67  F   UNL A   1      45.680  30.092  34.414  1.00  0.00    -0.203 F 
ATOM     68  F   UNL A   1      44.482  26.018  37.844  1.00  0.00    -0.200 F 
ATOM     69  C   UNL A   1      46.075  27.475  36.888  1.00  0.00     0.200 A 
ATOM     70  F   UNL A   1      47.635  28.947  35.899  1.00  0.00    -0.200 F 
ATOM     71  F   UNL A   1      47.044  26.927  37.634  1.00  0.00    -0.200 F 
ENDBRANCH  38  61
ENDBRANCH  12  13
ENDBRANCH   5   7
ENDBRANCH   2   3
ENDBRANCH   1   2
BRANCH   1  72
ATOM     72  C   UNL A   1      31.561  30.512  26.390  1.00  0.00     0.118 C 
BRANCH  72  73
ATOM     73  N   UNL A   1      32.587  30.112  25.434  1.00  0.00    -0.352 N 
ATOM     74  C   UNL A   1      32.511  29.243  24.371  1.00  0.00     0.255 C 
ATOM     75  H   UNL A   1      33.469  30.527  25.571  1.00  0.00     0.163 HD
ATOM     76  O   UNL A   1      33.526  28.920  23.762  1.00  0.00    -0.269 OA
BRANCH  74  77
ATOM     77  C   UNL A   1      31.201  28.699  23.964  1.00  0.00     0.083 A 
ATOM     78  C   UNL A   1      30.312  29.527  23.264  1.00  0.00     0.033 A 
ATOM     79  C   UNL A   1      30.841  27.370  24.218  1.00  0.00     0.144 A 
ATOM     80  C   UNL A   1      29.043  29.062  22.932  1.00  0.00     0.019 A 
ATOM     81  C   UNL A   1      29.576  26.899  23.858  1.00  0.00     0.049 A 
ATOM     82  Br  UNL A   1      27.824  30.219  22.068  1.00  0.00    -0.051 Br
ATOM     83  C   UNL A   1      28.663  27.756  23.240  1.00  0.00     0.019 A 
BRANCH  79  84
ATOM     84  O   UNL A   1      31.739  26.399  24.692  1.00  0.00    -0.422 OA
BRANCH  84  85
ATOM     85  C   UNL A   1      31.749  26.112  26.043  1.00  0.00     0.343 C 
ATOM     86  O   UNL A   1      31.180  26.731  26.931  1.00  0.00    -0.246 OA
BRANCH  85  87
ATOM     87  C   UNL A   1      32.571  24.890  26.270  1.00  0.00     0.060 A 
ATOM     88  C   UNL A   1      32.062  23.760  26.932  1.00  0.00     0.019 A 
ATOM     89  C   UNL A   1      33.903  24.889  25.828  1.00  0.00     0.019 A 
ATOM     90  C   UNL A   1      32.878  22.646  27.149  1.00  0.00     0.040 A 
ATOM     91  C   UNL A   1      34.713  23.770  26.042  1.00  0.00     0.040 A 
ATOM     92  C   UNL A   1      34.194  22.661  26.702  1.00  0.00     0.123 A 
ATOM     93  F   UNL A   1      34.973  21.594  26.914  1.00  0.00    -0.207 F 
ENDBRANCH  85  87
ENDBRANCH  84  85
ENDBRANCH  79  84
ENDBRANCH  74  77
ENDBRANCH  72  73
ENDBRANCH   1  72
TORSDOF 13
ENDMDL
