MODEL 1
REMARK VINA RESULT:     -12.7      0.000      0.000
REMARK SMILES Cc1nc(C[N@H+]2Cc3ccccc3C[C@@H]2C(=O)NCCCNC(=O)c2ccc(-c3c4nc(c(-c5c(F)c(F)c(F)c(F)c5F)c5ccc([nH]5)c(-c5c(F)c(F)c(F)c(F)c5F)c5nc(c(-c6c(F)c(F)c(F)c(F)c6F)c6ccc3[nH]6)C=C5)C=C4)cc2)sc1C
REMARK SMILES IDX 20 1 19 2 18 3 16 4 17 5 15 7 6 8 7 9 8 11 14 12 9 13 13 14
REMARK SMILES IDX 10 15 12 16 11 17 5 18 4 19 1 20 2 21 3 22 89 23 88 24 90 25
REMARK SMILES IDX 21 26 22 27 23 28 24 30 25 31 26 32 87 33 27 34 86 35 28 36
REMARK SMILES IDX 29 37 30 38 80 39 31 40 85 41 79 42 81 43 32 44 84 45 78 46
REMARK SMILES IDX 77 47 33 49 65 50 45 51 64 52 46 53 49 54 63 55 82 56 47 57
REMARK SMILES IDX 48 58 62 60 83 61 50 62 34 63 35 64 43 65 36 66 37 67 41 68
REMARK SMILES IDX 44 69 38 70 39 71 42 72 40 73 66 74 67 75 75 76 68 77 69 78
REMARK SMILES IDX 73 79 76 80 70 81 71 82 74 83 72 84 51 85 52 86 60 87 53 88
REMARK SMILES IDX 54 89 58 90 61 91 55 92 56 93 59 94 57 95
REMARK H PARENT 18 6 6 10 22 29 81 48 49 59
REMARK Flexibility Score: inf
ROOT
ATOM      1  C   UNL A   1      34.211  28.459  25.878  1.00  0.00     0.042 C 
ENDROOT
BRANCH   1   2
ATOM      2  C   UNL A   1      33.290  29.060  24.819  1.00  0.00     0.118 C 
BRANCH   2   3
ATOM      3  N   UNL A   1      33.844  28.917  23.490  1.00  0.00    -0.351 N 
ATOM      4  C   UNL A   1      33.536  28.098  22.449  1.00  0.00     0.278 C 
ATOM      5  O   UNL A   1      34.298  28.203  21.477  1.00  0.00    -0.268 OA
ATOM      6  H   UNL A   1      34.591  29.531  23.304  1.00  0.00     0.163 HD
BRANCH   4   7
ATOM      7  C   UNL A   1      32.245  27.232  22.373  1.00  0.00     0.279 C 
ATOM      8  N   UNL A   1      31.344  27.404  23.550  1.00  0.00    -0.315 N 
ATOM      9  C   UNL A   1      31.410  26.342  24.568  1.00  0.00     0.300 C 
ATOM     10  H   UNL A   1      31.718  28.232  24.016  1.00  0.00     0.349 HD
ATOM     11  C   UNL A   1      32.690  25.545  24.590  1.00  0.00     0.010 A 
ATOM     12  C   UNL A   1      32.661  25.761  22.115  1.00  0.00     0.111 C 
ATOM     13  C   UNL A   1      33.233  25.051  25.780  1.00  0.00     0.010 A 
ATOM     14  C   UNL A   1      33.277  25.191  23.366  1.00  0.00    -0.033 A 
ATOM     15  C   UNL A   1      34.355  24.222  25.745  1.00  0.00     0.001 A 
ATOM     16  C   UNL A   1      34.390  24.348  23.332  1.00  0.00     0.004 A 
ATOM     17  C   UNL A   1      34.929  23.868  24.524  1.00  0.00     0.000 A 
BRANCH   8  18
ATOM     18  C   UNL A   1      29.937  27.672  23.145  1.00  0.00     0.332 C 
BRANCH  18  19
ATOM     19  C   UNL A   1      29.615  29.105  22.779  1.00  0.00     0.148 A 
ATOM     20  C   UNL A   1      28.028  31.344  20.466  1.00  0.00     0.068 C 
ATOM     21  C   UNL A   1      28.771  30.811  21.637  1.00  0.00     0.052 A 
ATOM     22  N   UNL A   1      29.099  29.470  21.624  1.00  0.00    -0.240 NA
ATOM     23  C   UNL A   1      29.154  31.486  22.783  1.00  0.00     0.025 A 
ATOM     24  S   UNL A   1      29.896  30.393  23.880  1.00  0.00    -0.118 S 
ATOM     25  C   UNL A   1      28.968  32.919  23.135  1.00  0.00     0.058 C 
ENDBRANCH  18  19
ENDBRANCH   8  18
ENDBRANCH   4   7
ENDBRANCH   2   3
ENDBRANCH   1   2
BRANCH   1  26
ATOM     26  C   UNL A   1      33.711  28.650  27.311  1.00  0.00     0.118 C 
BRANCH  26  27
ATOM     27  N   UNL A   1      33.669  30.051  27.712  1.00  0.00    -0.352 N 
ATOM     28  C   UNL A   1      34.593  30.816  28.374  1.00  0.00     0.251 C 
ATOM     29  H   UNL A   1      32.841  30.525  27.467  1.00  0.00     0.163 HD
ATOM     30  O   UNL A   1      34.282  31.939  28.771  1.00  0.00    -0.269 OA
BRANCH  28  31
ATOM     31  C   UNL A   1      35.956  30.306  28.632  1.00  0.00     0.039 A 
ATOM     32  C   UNL A   1      36.920  30.431  27.627  1.00  0.00     0.014 A 
ATOM     33  C   UNL A   1      36.278  29.669  29.833  1.00  0.00     0.014 A 
ATOM     34  C   UNL A   1      38.221  29.977  27.849  1.00  0.00     0.010 A 
ATOM     35  C   UNL A   1      37.591  29.274  30.078  1.00  0.00     0.010 A 
ATOM     36  C   UNL A   1      38.577  29.425  29.090  1.00  0.00    -0.014 A 
BRANCH  36  37
ATOM     37  C   UNL A   1      39.972  29.008  29.377  1.00  0.00     0.031 A 
ATOM     38  C   UNL A   1      40.900  29.927  30.121  1.00  0.00     0.074 A 
ATOM     39  C   UNL A   1      40.423  27.831  28.904  1.00  0.00     0.049 A 
ATOM     40  N   UNL A   1      42.174  29.781  30.386  1.00  0.00    -0.248 NA
ATOM     41  C   UNL A   1      40.326  31.189  30.612  1.00  0.00     0.031 C 
ATOM     42  C   UNL A   1      39.631  26.870  28.135  1.00  0.00     0.029 A 
ATOM     43  N   UNL A   1      41.664  27.249  28.987  1.00  0.00    -0.354 N 
ATOM     44  C   UNL A   1      42.556  30.936  31.055  1.00  0.00     0.074 A 
ATOM     45  C   UNL A   1      41.392  31.793  31.117  1.00  0.00     0.031 C 
ATOM     46  C   UNL A   1      40.399  25.812  27.828  1.00  0.00     0.029 A 
ATOM     47  C   UNL A   1      41.746  26.038  28.345  1.00  0.00     0.049 A 
ATOM     48  H   UNL A   1      42.421  27.660  29.463  1.00  0.00     0.167 HD
ATOM     49  C   UNL A   1      43.764  31.245  31.584  1.00  0.00     0.037 A 
ATOM     50  C   UNL A   1      42.794  25.208  28.179  1.00  0.00     0.037 A 
ATOM     51  C   UNL A   1      44.914  30.379  31.542  1.00  0.00     0.049 A 
ATOM     52  C   UNL A   1      44.126  25.578  28.772  1.00  0.00     0.074 A 
ATOM     53  C   UNL A   1      46.164  30.576  32.103  1.00  0.00     0.029 A 
ATOM     54  N   UNL A   1      44.953  29.150  30.901  1.00  0.00    -0.354 N 
ATOM     55  N   UNL A   1      44.460  26.645  29.457  1.00  0.00    -0.248 NA
ATOM     56  C   UNL A   1      45.227  24.624  28.574  1.00  0.00     0.031 C 
ATOM     57  C   UNL A   1      46.973  29.486  31.763  1.00  0.00     0.029 A 
ATOM     58  C   UNL A   1      46.213  28.587  31.033  1.00  0.00     0.049 A 
ATOM     59  H   UNL A   1      44.198  28.738  30.422  1.00  0.00     0.167 HD
ATOM     60  C   UNL A   1      45.796  26.479  29.796  1.00  0.00     0.074 A 
ATOM     61  C   UNL A   1      46.209  25.202  29.251  1.00  0.00     0.031 C 
ATOM     62  C   UNL A   1      46.606  27.310  30.494  1.00  0.00     0.037 A 
BRANCH  49  63
ATOM     63  C   UNL A   1      43.906  32.578  32.260  1.00  0.00     0.064 A 
ATOM     64  C   UNL A   1      43.655  32.738  33.631  1.00  0.00     0.173 A 
ATOM     65  C   UNL A   1      44.336  33.701  31.537  1.00  0.00     0.173 A 
ATOM     66  F   UNL A   1      43.231  31.699  34.366  1.00  0.00    -0.203 F 
ATOM     67  C   UNL A   1      43.801  33.979  34.246  1.00  0.00     0.198 A 
ATOM     68  C   UNL A   1      44.511  34.933  32.161  1.00  0.00     0.198 A 
ATOM     69  F   UNL A   1      44.598  33.601  30.224  1.00  0.00    -0.203 F 
ATOM     70  F   UNL A   1      43.510  34.117  35.547  1.00  0.00    -0.200 F 
ATOM     71  C   UNL A   1      44.235  35.073  33.513  1.00  0.00     0.200 A 
ATOM     72  F   UNL A   1      44.944  35.985  31.455  1.00  0.00    -0.200 F 
ATOM     73  F   UNL A   1      44.384  36.264  34.109  1.00  0.00    -0.200 F 
ENDBRANCH  49  63
BRANCH  50  74
ATOM     74  C   UNL A   1      42.620  23.935  27.434  1.00  0.00     0.064 A 
ATOM     75  C   UNL A   1      42.143  22.785  28.079  1.00  0.00     0.173 A 
ATOM     76  C   UNL A   1      42.926  23.838  26.069  1.00  0.00     0.173 A 
ATOM     77  F   UNL A   1      41.857  22.824  29.388  1.00  0.00    -0.203 F 
ATOM     78  C   UNL A   1      41.997  21.582  27.392  1.00  0.00     0.198 A 
ATOM     79  C   UNL A   1      42.753  22.642  25.376  1.00  0.00     0.198 A 
ATOM     80  F   UNL A   1      43.380  24.910  25.405  1.00  0.00    -0.203 F 
ATOM     81  F   UNL A   1      41.582  20.487  28.043  1.00  0.00    -0.200 F 
ATOM     82  C   UNL A   1      42.296  21.513  26.039  1.00  0.00     0.200 A 
ATOM     83  F   UNL A   1      43.030  22.582  24.067  1.00  0.00    -0.200 F 
ATOM     84  F   UNL A   1      42.152  20.356  25.378  1.00  0.00    -0.200 F 
ENDBRANCH  50  74
BRANCH  62  85
ATOM     85  C   UNL A   1      48.012  26.850  30.746  1.00  0.00     0.064 A 
ATOM     86  C   UNL A   1      48.320  25.953  31.779  1.00  0.00     0.173 A 
ATOM     87  C   UNL A   1      49.058  27.281  29.915  1.00  0.00     0.173 A 
ATOM     88  F   UNL A   1      47.358  25.525  32.610  1.00  0.00    -0.203 F 
ATOM     89  C   UNL A   1      49.627  25.520  31.983  1.00  0.00     0.198 A 
ATOM     90  C   UNL A   1      50.358  26.824  30.105  1.00  0.00     0.198 A 
ATOM     91  F   UNL A   1      48.815  28.134  28.909  1.00  0.00    -0.203 F 
ATOM     92  F   UNL A   1      49.906  24.698  33.004  1.00  0.00    -0.200 F 
ATOM     93  C   UNL A   1      50.643  25.949  31.142  1.00  0.00     0.200 A 
ATOM     94  F   UNL A   1      51.337  27.229  29.284  1.00  0.00    -0.200 F 
ATOM     95  F   UNL A   1      51.900  25.526  31.338  1.00  0.00    -0.200 F 
ENDBRANCH  62  85
ENDBRANCH  36  37
ENDBRANCH  28  31
ENDBRANCH  26  27
ENDBRANCH   1  26
TORSDOF 12
ENDMDL
MODEL 2
REMARK VINA RESULT:     -12.6      3.223      7.985
REMARK SMILES Cc1nc(C[N@H+]2Cc3ccccc3C[C@@H]2C(=O)NCCCNC(=O)c2ccc(-c3c4nc(c(-c5c(F)c(F)c(F)c(F)c5F)c5ccc([nH]5)c(-c5c(F)c(F)c(F)c(F)c5F)c5nc(c(-c6c(F)c(F)c(F)c(F)c6F)c6ccc3[nH]6)C=C5)C=C4)cc2)sc1C
REMARK SMILES IDX 20 1 19 2 18 3 16 4 17 5 15 7 6 8 7 9 8 11 14 12 9 13 13 14
REMARK SMILES IDX 10 15 12 16 11 17 5 18 4 19 1 20 2 21 3 22 89 23 88 24 90 25
REMARK SMILES IDX 21 26 22 27 23 28 24 30 25 31 26 32 87 33 27 34 86 35 28 36
REMARK SMILES IDX 29 37 30 38 80 39 31 40 85 41 79 42 81 43 32 44 84 45 78 46
REMARK SMILES IDX 77 47 33 49 65 50 45 51 64 52 46 53 49 54 63 55 82 56 47 57
REMARK SMILES IDX 48 58 62 60 83 61 50 62 34 63 35 64 43 65 36 66 37 67 41 68
REMARK SMILES IDX 44 69 38 70 39 71 42 72 40 73 66 74 67 75 75 76 68 77 69 78
REMARK SMILES IDX 73 79 76 80 70 81 71 82 74 83 72 84 51 85 52 86 60 87 53 88
REMARK SMILES IDX 54 89 58 90 61 91 55 92 56 93 59 94 57 95
REMARK H PARENT 18 6 6 10 22 29 81 48 49 59
REMARK Flexibility Score: inf
ROOT
ATOM      1  C   UNL A   1      31.731  28.897  26.507  1.00  0.00     0.042 C 
ENDROOT
BRANCH   1   2
ATOM      2  C   UNL A   1      32.180  27.832  27.506  1.00  0.00     0.118 C 
BRANCH   2   3
ATOM      3  N   UNL A   1      31.736  26.513  27.111  1.00  0.00    -0.351 N 
ATOM      4  C   UNL A   1      31.738  25.862  25.918  1.00  0.00     0.278 C 
ATOM      5  O   UNL A   1      31.187  24.752  25.943  1.00  0.00    -0.268 OA
ATOM      6  H   UNL A   1      31.356  25.985  27.850  1.00  0.00     0.163 HD
BRANCH   4   7
ATOM      7  C   UNL A   1      32.515  26.349  24.659  1.00  0.00     0.279 C 
ATOM      8  N   UNL A   1      32.012  25.756  23.386  1.00  0.00    -0.315 N 
ATOM      9  C   UNL A   1      32.805  24.640  22.842  1.00  0.00     0.300 C 
ATOM     10  H   UNL A   1      31.123  25.333  23.655  1.00  0.00     0.349 HD
ATOM     11  C   UNL A   1      33.653  23.899  23.845  1.00  0.00     0.010 A 
ATOM     12  C   UNL A   1      34.028  26.116  24.902  1.00  0.00     0.111 C 
ATOM     13  C   UNL A   1      33.884  22.523  23.744  1.00  0.00     0.010 A 
ATOM     14  C   UNL A   1      34.323  24.641  24.829  1.00  0.00    -0.033 A 
ATOM     15  C   UNL A   1      34.766  21.898  24.626  1.00  0.00     0.001 A 
ATOM     16  C   UNL A   1      35.219  24.015  25.699  1.00  0.00     0.004 A 
ATOM     17  C   UNL A   1      35.436  22.643  25.597  1.00  0.00     0.000 A 
BRANCH   8  18
ATOM     18  C   UNL A   1      31.759  26.791  22.346  1.00  0.00     0.332 C 
BRANCH  18  19
ATOM     19  C   UNL A   1      30.524  27.642  22.546  1.00  0.00     0.148 A 
ATOM     20  C   UNL A   1      28.690  30.571  21.575  1.00  0.00     0.068 C 
ATOM     21  C   UNL A   1      29.083  29.304  22.245  1.00  0.00     0.052 A 
ATOM     22  N   UNL A   1      30.365  28.839  22.020  1.00  0.00    -0.240 NA
ATOM     23  C   UNL A   1      28.309  28.490  23.052  1.00  0.00     0.025 A 
ATOM     24  S   UNL A   1      29.201  27.090  23.492  1.00  0.00    -0.118 S 
ATOM     25  C   UNL A   1      26.903  28.676  23.501  1.00  0.00     0.058 C 
ENDBRANCH  18  19
ENDBRANCH   8  18
ENDBRANCH   4   7
ENDBRANCH   2   3
ENDBRANCH   1   2
BRANCH   1  26
ATOM     26  C   UNL A   1      32.863  29.801  26.018  1.00  0.00     0.118 C 
BRANCH  26  27
ATOM     27  N   UNL A   1      32.649  31.204  26.352  1.00  0.00    -0.352 N 
ATOM     28  C   UNL A   1      33.294  32.014  27.251  1.00  0.00     0.251 C 
ATOM     29  H   UNL A   1      31.923  31.642  25.850  1.00  0.00     0.163 HD
ATOM     30  O   UNL A   1      32.835  33.128  27.504  1.00  0.00    -0.269 OA
BRANCH  28  31
ATOM     31  C   UNL A   1      34.525  31.563  27.932  1.00  0.00     0.039 A 
ATOM     32  C   UNL A   1      35.587  32.463  28.064  1.00  0.00     0.014 A 
ATOM     33  C   UNL A   1      34.656  30.253  28.401  1.00  0.00     0.014 A 
ATOM     34  C   UNL A   1      36.754  32.071  28.721  1.00  0.00     0.010 A 
ATOM     35  C   UNL A   1      35.796  29.883  29.112  1.00  0.00     0.010 A 
ATOM     36  C   UNL A   1      36.856  30.787  29.281  1.00  0.00    -0.014 A 
BRANCH  36  37
ATOM     37  C   UNL A   1      38.055  30.376  30.052  1.00  0.00     0.031 A 
ATOM     38  C   UNL A   1      39.033  29.397  29.468  1.00  0.00     0.074 A 
ATOM     39  C   UNL A   1      38.224  30.830  31.309  1.00  0.00     0.049 A 
ATOM     40  N   UNL A   1      40.086  28.847  30.020  1.00  0.00    -0.248 NA
ATOM     41  C   UNL A   1      38.781  28.956  28.087  1.00  0.00     0.031 C 
ATOM     42  C   UNL A   1      37.323  31.753  32.001  1.00  0.00     0.029 A 
ATOM     43  N   UNL A   1      39.203  30.565  32.233  1.00  0.00    -0.354 N 
ATOM     44  C   UNL A   1      40.609  27.987  29.064  1.00  0.00     0.074 A 
ATOM     45  C   UNL A   1      39.734  28.052  27.913  1.00  0.00     0.031 C 
ATOM     46  C   UNL A   1      37.798  31.989  33.235  1.00  0.00     0.029 A 
ATOM     47  C   UNL A   1      39.013  31.204  33.434  1.00  0.00     0.049 A 
ATOM     48  H   UNL A   1      39.969  29.973  32.052  1.00  0.00     0.167 HD
ATOM     49  C   UNL A   1      41.727  27.225  29.134  1.00  0.00     0.037 A 
ATOM     50  C   UNL A   1      39.731  31.153  34.572  1.00  0.00     0.037 A 
ATOM     51  C   UNL A   1      42.609  27.182  30.272  1.00  0.00     0.049 A 
ATOM     52  C   UNL A   1      40.966  30.295  34.625  1.00  0.00     0.074 A 
ATOM     53  C   UNL A   1      43.799  26.490  30.416  1.00  0.00     0.029 A 
ATOM     54  N   UNL A   1      42.395  27.860  31.463  1.00  0.00    -0.354 N 
ATOM     55  N   UNL A   1      41.485  29.533  33.693  1.00  0.00    -0.248 NA
ATOM     56  C   UNL A   1      41.718  30.294  35.888  1.00  0.00     0.031 C 
ATOM     57  C   UNL A   1      44.282  26.714  31.710  1.00  0.00     0.029 A 
ATOM     58  C   UNL A   1      43.420  27.586  32.354  1.00  0.00     0.049 A 
ATOM     59  H   UNL A   1      41.629  28.450  31.647  1.00  0.00     0.167 HD
ATOM     60  C   UNL A   1      42.636  28.987  34.244  1.00  0.00     0.074 A 
ATOM     61  C   UNL A   1      42.746  29.515  35.589  1.00  0.00     0.031 C 
ATOM     62  C   UNL A   1      43.521  28.126  33.686  1.00  0.00     0.037 A 
BRANCH  49  63
ATOM     63  C   UNL A   1      42.065  26.375  27.944  1.00  0.00     0.064 A 
ATOM     64  C   UNL A   1      43.021  26.778  27.000  1.00  0.00     0.173 A 
ATOM     65  C   UNL A   1      41.454  25.125  27.766  1.00  0.00     0.173 A 
ATOM     66  F   UNL A   1      43.627  27.968  27.118  1.00  0.00    -0.203 F 
ATOM     67  C   UNL A   1      43.332  25.973  25.907  1.00  0.00     0.198 A 
ATOM     68  C   UNL A   1      41.789  24.309  26.688  1.00  0.00     0.198 A 
ATOM     69  F   UNL A   1      40.538  24.687  28.643  1.00  0.00    -0.203 F 
ATOM     70  F   UNL A   1      44.215  26.401  24.992  1.00  0.00    -0.200 F 
ATOM     71  C   UNL A   1      42.721  24.738  25.755  1.00  0.00     0.200 A 
ATOM     72  F   UNL A   1      41.208  23.110  26.550  1.00  0.00    -0.200 F 
ATOM     73  F   UNL A   1      43.028  23.961  24.706  1.00  0.00    -0.200 F 
ENDBRANCH  49  63
BRANCH  50  74
ATOM     74  C   UNL A   1      39.311  31.955  35.750  1.00  0.00     0.064 A 
ATOM     75  C   UNL A   1      39.862  33.222  35.990  1.00  0.00     0.173 A 
ATOM     76  C   UNL A   1      38.355  31.476  36.657  1.00  0.00     0.173 A 
ATOM     77  F   UNL A   1      40.795  33.712  35.161  1.00  0.00    -0.203 F 
ATOM     78  C   UNL A   1      39.488  33.970  37.103  1.00  0.00     0.198 A 
ATOM     79  C   UNL A   1      37.960  32.238  37.755  1.00  0.00     0.198 A 
ATOM     80  F   UNL A   1      37.793  30.273  36.469  1.00  0.00    -0.203 F 
ATOM     81  F   UNL A   1      40.064  35.158  37.333  1.00  0.00    -0.200 F 
ATOM     82  C   UNL A   1      38.533  33.480  37.982  1.00  0.00     0.200 A 
ATOM     83  F   UNL A   1      37.028  31.768  38.594  1.00  0.00    -0.200 F 
ATOM     84  F   UNL A   1      38.171  34.203  39.051  1.00  0.00    -0.200 F 
ENDBRANCH  50  74
BRANCH  62  85
ATOM     85  C   UNL A   1      44.710  27.729  34.512  1.00  0.00     0.064 A 
ATOM     86  C   UNL A   1      45.889  28.488  34.519  1.00  0.00     0.173 A 
ATOM     87  C   UNL A   1      44.651  26.597  35.339  1.00  0.00     0.173 A 
ATOM     88  F   UNL A   1      46.000  29.569  33.732  1.00  0.00    -0.203 F 
ATOM     89  C   UNL A   1      46.974  28.116  35.308  1.00  0.00     0.198 A 
ATOM     90  C   UNL A   1      45.726  26.244  36.148  1.00  0.00     0.198 A 
ATOM     91  F   UNL A   1      43.543  25.841  35.373  1.00  0.00    -0.203 F 
ATOM     92  F   UNL A   1      48.107  28.830  35.265  1.00  0.00    -0.200 F 
ATOM     93  C   UNL A   1      46.889  26.999  36.127  1.00  0.00     0.200 A 
ATOM     94  F   UNL A   1      45.639  25.173  36.948  1.00  0.00    -0.200 F 
ATOM     95  F   UNL A   1      47.932  26.647  36.891  1.00  0.00    -0.200 F 
ENDBRANCH  62  85
ENDBRANCH  36  37
ENDBRANCH  28  31
ENDBRANCH  26  27
ENDBRANCH   1  26
TORSDOF 12
ENDMDL
MODEL 3
REMARK VINA RESULT:     -12.6      2.952      7.776
REMARK SMILES Cc1nc(C[N@H+]2Cc3ccccc3C[C@@H]2C(=O)NCCCNC(=O)c2ccc(-c3c4nc(c(-c5c(F)c(F)c(F)c(F)c5F)c5ccc([nH]5)c(-c5c(F)c(F)c(F)c(F)c5F)c5nc(c(-c6c(F)c(F)c(F)c(F)c6F)c6ccc3[nH]6)C=C5)C=C4)cc2)sc1C
REMARK SMILES IDX 20 1 19 2 18 3 16 4 17 5 15 7 6 8 7 9 8 11 14 12 9 13 13 14
REMARK SMILES IDX 10 15 12 16 11 17 5 18 4 19 1 20 2 21 3 22 89 23 88 24 90 25
REMARK SMILES IDX 21 26 22 27 23 28 24 30 25 31 26 32 87 33 27 34 86 35 28 36
REMARK SMILES IDX 29 37 30 38 80 39 31 40 85 41 79 42 81 43 32 44 84 45 78 46
REMARK SMILES IDX 77 47 33 49 65 50 45 51 64 52 46 53 49 54 63 55 82 56 47 57
REMARK SMILES IDX 48 58 62 60 83 61 50 62 34 63 35 64 43 65 36 66 37 67 41 68
REMARK SMILES IDX 44 69 38 70 39 71 42 72 40 73 66 74 67 75 75 76 68 77 69 78
REMARK SMILES IDX 73 79 76 80 70 81 71 82 74 83 72 84 51 85 52 86 60 87 53 88
REMARK SMILES IDX 54 89 58 90 61 91 55 92 56 93 59 94 57 95
REMARK H PARENT 18 6 6 10 22 29 81 48 49 59
REMARK Flexibility Score: inf
ROOT
ATOM      1  C   UNL A   1      33.789  29.004  24.275  1.00  0.00     0.042 C 
ENDROOT
BRANCH   1   2
ATOM      2  C   UNL A   1      32.851  28.981  23.070  1.00  0.00     0.118 C 
BRANCH   2   3
ATOM      3  N   UNL A   1      33.207  27.930  22.141  1.00  0.00    -0.351 N 
ATOM      4  C   UNL A   1      32.623  26.742  21.832  1.00  0.00     0.278 C 
ATOM      5  O   UNL A   1      33.271  26.050  21.033  1.00  0.00    -0.268 OA
ATOM      6  H   UNL A   1      34.032  28.110  21.636  1.00  0.00     0.163 HD
BRANCH   4   7
ATOM      7  C   UNL A   1      31.187  26.333  22.274  1.00  0.00     0.279 C 
ATOM      8  N   UNL A   1      30.623  27.209  23.342  1.00  0.00    -0.315 N 
ATOM      9  C   UNL A   1      30.671  26.663  24.709  1.00  0.00     0.300 C 
ATOM     10  H   UNL A   1      31.263  28.004  23.359  1.00  0.00     0.349 HD
ATOM     11  C   UNL A   1      31.717  25.603  24.947  1.00  0.00     0.010 A 
ATOM     12  C   UNL A   1      31.202  24.828  22.643  1.00  0.00     0.111 C 
ATOM     13  C   UNL A   1      32.381  25.481  26.171  1.00  0.00     0.010 A 
ATOM     14  C   UNL A   1      31.932  24.642  23.947  1.00  0.00    -0.033 A 
ATOM     15  C   UNL A   1      33.258  24.417  26.387  1.00  0.00     0.001 A 
ATOM     16  C   UNL A   1      32.797  23.569  24.172  1.00  0.00     0.004 A 
ATOM     17  C   UNL A   1      33.461  23.461  25.392  1.00  0.00     0.000 A 
BRANCH   8  18
ATOM     18  C   UNL A   1      29.257  27.694  23.006  1.00  0.00     0.332 C 
BRANCH  18  19
ATOM     19  C   UNL A   1      29.142  29.163  22.661  1.00  0.00     0.148 A 
ATOM     20  C   UNL A   1      27.962  31.633  20.340  1.00  0.00     0.068 C 
ATOM     21  C   UNL A   1      28.579  30.987  21.527  1.00  0.00     0.052 A 
ATOM     22  N   UNL A   1      28.727  29.613  21.495  1.00  0.00    -0.240 NA
ATOM     23  C   UNL A   1      29.001  31.584  22.701  1.00  0.00     0.025 A 
ATOM     24  S   UNL A   1      29.547  30.383  23.800  1.00  0.00    -0.118 S 
ATOM     25  C   UNL A   1      28.993  33.023  23.078  1.00  0.00     0.058 C 
ENDBRANCH  18  19
ENDBRANCH   8  18
ENDBRANCH   4   7
ENDBRANCH   2   3
ENDBRANCH   1   2
BRANCH   1  26
ATOM     26  C   UNL A   1      33.064  29.038  25.621  1.00  0.00     0.118 C 
BRANCH  26  27
ATOM     27  N   UNL A   1      32.664  30.384  26.013  1.00  0.00    -0.352 N 
ATOM     28  C   UNL A   1      33.185  31.228  26.959  1.00  0.00     0.251 C 
ATOM     29  H   UNL A   1      31.894  30.747  25.517  1.00  0.00     0.163 HD
ATOM     30  O   UNL A   1      32.582  32.260  27.253  1.00  0.00    -0.269 OA
BRANCH  28  31
ATOM     31  C   UNL A   1      34.455  30.908  27.644  1.00  0.00     0.039 A 
ATOM     32  C   UNL A   1      35.425  31.909  27.759  1.00  0.00     0.014 A 
ATOM     33  C   UNL A   1      34.713  29.625  28.133  1.00  0.00     0.014 A 
ATOM     34  C   UNL A   1      36.626  31.642  28.419  1.00  0.00     0.010 A 
ATOM     35  C   UNL A   1      35.884  29.378  28.846  1.00  0.00     0.010 A 
ATOM     36  C   UNL A   1      36.852  30.383  28.998  1.00  0.00    -0.014 A 
BRANCH  36  37
ATOM     37  C   UNL A   1      38.086  30.101  29.772  1.00  0.00     0.031 A 
ATOM     38  C   UNL A   1      39.133  29.175  29.220  1.00  0.00     0.074 A 
ATOM     39  C   UNL A   1      38.230  30.624  31.005  1.00  0.00     0.049 A 
ATOM     40  N   UNL A   1      40.230  28.734  29.784  1.00  0.00    -0.248 NA
ATOM     41  C   UNL A   1      38.904  28.653  27.864  1.00  0.00     0.031 C 
ATOM     42  C   UNL A   1      37.267  31.506  31.666  1.00  0.00     0.029 A 
ATOM     43  N   UNL A   1      39.236  30.478  31.928  1.00  0.00    -0.354 N 
ATOM     44  C   UNL A   1      40.810  27.874  28.861  1.00  0.00     0.074 A 
ATOM     45  C   UNL A   1      39.923  27.819  27.719  1.00  0.00     0.031 C 
ATOM     46  C   UNL A   1      37.733  31.834  32.882  1.00  0.00     0.029 A 
ATOM     47  C   UNL A   1      39.007  31.156  33.101  1.00  0.00     0.049 A 
ATOM     48  H   UNL A   1      40.044  29.940  31.765  1.00  0.00     0.167 HD
ATOM     49  C   UNL A   1      41.985  27.206  28.951  1.00  0.00     0.037 A 
ATOM     50  C   UNL A   1      39.737  31.212  34.231  1.00  0.00     0.037 A 
ATOM     51  C   UNL A   1      42.877  27.284  30.079  1.00  0.00     0.049 A 
ATOM     52  C   UNL A   1      41.035  30.456  34.308  1.00  0.00     0.074 A 
ATOM     53  C   UNL A   1      44.119  26.693  30.239  1.00  0.00     0.029 A 
ATOM     54  N   UNL A   1      42.622  27.997  31.241  1.00  0.00    -0.354 N 
ATOM     55  N   UNL A   1      41.604  29.695  33.404  1.00  0.00    -0.248 NA
ATOM     56  C   UNL A   1      41.796  30.571  35.560  1.00  0.00     0.031 C 
ATOM     57  C   UNL A   1      44.594  27.013  31.515  1.00  0.00     0.029 A 
ATOM     58  C   UNL A   1      43.673  27.844  32.131  1.00  0.00     0.049 A 
ATOM     59  H   UNL A   1      41.813  28.533  31.408  1.00  0.00     0.167 HD
ATOM     60  C   UNL A   1      42.799  29.265  33.965  1.00  0.00     0.074 A 
ATOM     61  C   UNL A   1      42.879  29.861  35.283  1.00  0.00     0.031 C 
ATOM     62  C   UNL A   1      43.744  28.451  33.435  1.00  0.00     0.037 A 
BRANCH  49  63
ATOM     63  C   UNL A   1      42.377  26.331  27.797  1.00  0.00     0.064 A 
ATOM     64  C   UNL A   1      43.275  26.771  26.812  1.00  0.00     0.173 A 
ATOM     65  C   UNL A   1      41.880  25.023  27.693  1.00  0.00     0.173 A 
ATOM     66  F   UNL A   1      43.771  28.015  26.859  1.00  0.00    -0.203 F 
ATOM     67  C   UNL A   1      43.638  25.943  25.753  1.00  0.00     0.198 A 
ATOM     68  C   UNL A   1      42.269  24.188  26.649  1.00  0.00     0.198 A 
ATOM     69  F   UNL A   1      41.024  24.549  28.612  1.00  0.00    -0.203 F 
ATOM     70  F   UNL A   1      44.461  26.402  24.799  1.00  0.00    -0.200 F 
ATOM     71  C   UNL A   1      43.141  24.652  25.675  1.00  0.00     0.200 A 
ATOM     72  F   UNL A   1      41.799  22.935  26.583  1.00  0.00    -0.200 F 
ATOM     73  F   UNL A   1      43.499  23.854  24.659  1.00  0.00    -0.200 F 
ENDBRANCH  49  63
BRANCH  50  74
ATOM     74  C   UNL A   1      39.266  32.032  35.377  1.00  0.00     0.064 A 
ATOM     75  C   UNL A   1      39.616  33.386  35.483  1.00  0.00     0.173 A 
ATOM     76  C   UNL A   1      38.460  31.485  36.386  1.00  0.00     0.173 A 
ATOM     77  F   UNL A   1      40.402  33.948  34.553  1.00  0.00    -0.203 F 
ATOM     78  C   UNL A   1      39.195  34.155  36.565  1.00  0.00     0.198 A 
ATOM     79  C   UNL A   1      38.016  32.263  37.453  1.00  0.00     0.198 A 
ATOM     80  F   UNL A   1      38.093  30.197  36.328  1.00  0.00    -0.203 F 
ATOM     81  F   UNL A   1      39.581  35.435  36.665  1.00  0.00    -0.200 F 
ATOM     82  C   UNL A   1      38.390  33.595  37.546  1.00  0.00     0.200 A 
ATOM     83  F   UNL A   1      37.228  31.722  38.392  1.00  0.00    -0.200 F 
ATOM     84  F   UNL A   1      37.982  34.337  38.585  1.00  0.00    -0.200 F 
ENDBRANCH  50  74
BRANCH  62  85
ATOM     85  C   UNL A   1      44.966  28.185  34.263  1.00  0.00     0.064 A 
ATOM     86  C   UNL A   1      46.086  29.029  34.216  1.00  0.00     0.173 A 
ATOM     87  C   UNL A   1      45.001  27.095  35.147  1.00  0.00     0.173 A 
ATOM     88  F   UNL A   1      46.108  30.074  33.376  1.00  0.00    -0.203 F 
ATOM     89  C   UNL A   1      47.203  28.778  35.008  1.00  0.00     0.198 A 
ATOM     90  C   UNL A   1      46.108  26.864  35.957  1.00  0.00     0.198 A 
ATOM     91  F   UNL A   1      43.953  26.262  35.234  1.00  0.00    -0.203 F 
ATOM     92  F   UNL A   1      48.279  29.572  34.914  1.00  0.00    -0.200 F 
ATOM     93  C   UNL A   1      47.210  27.702  35.883  1.00  0.00     0.200 A 
ATOM     94  F   UNL A   1      46.109  25.832  36.811  1.00  0.00    -0.200 F 
ATOM     95  F   UNL A   1      48.285  27.467  36.649  1.00  0.00    -0.200 F 
ENDBRANCH  62  85
ENDBRANCH  36  37
ENDBRANCH  28  31
ENDBRANCH  26  27
ENDBRANCH   1  26
TORSDOF 12
ENDMDL
