MODEL 1
REMARK VINA RESULT:     -10.1      0.000      0.000
REMARK SMILES Cc1ncccc1C(=O)NCCOCC(=O)NCCCNC(=O)c1ccc(-c2c3nc(c(-c4c(F)c(F)c(F)c(F)c4F)c4ccc([nH]4)c(-c4c(F)c(F)c(F)c(F)c4F)c4nc(c(-c5c(F)c(F)c(F)c(F)c5F)c5ccc2[nH]5)C=C4)C=C3)cc1
REMARK SMILES IDX 15 1 16 2 17 3 14 5 13 6 12 7 11 8 10 9 8 10 9 11 7 13 1 14
REMARK SMILES IDX 2 15 3 16 4 17 6 18 5 19 18 20 19 21 20 22 21 23 22 24 23 26
REMARK SMILES IDX 24 27 25 28 86 29 26 30 85 31 27 32 28 33 29 34 79 35 30 36
REMARK SMILES IDX 84 37 78 38 80 39 31 40 83 41 77 42 76 43 32 45 64 46 44 47
REMARK SMILES IDX 63 48 45 49 48 50 62 51 81 52 46 53 47 54 61 56 82 57 49 58
REMARK SMILES IDX 33 59 34 60 42 61 35 62 36 63 40 64 43 65 37 66 38 67 41 68
REMARK SMILES IDX 39 69 65 70 66 71 74 72 67 73 68 74 72 75 75 76 69 77 70 78
REMARK SMILES IDX 73 79 71 80 50 81 51 82 59 83 52 84 53 85 57 86 60 87 54 88
REMARK SMILES IDX 55 89 58 90 56 91
REMARK H PARENT 17 4 10 12 21 25 80 44 48 55
REMARK Flexibility Score: inf
ROOT
ATOM      1  C   UNL A   1      33.345  36.271  30.709  1.00  0.00     0.245 C 
ATOM      2  O   UNL A   1      32.527  37.157  30.953  1.00  0.00    -0.272 OA
ATOM      3  N   UNL A   1      33.666  36.010  29.407  1.00  0.00    -0.354 N 
ATOM      4  H   UNL A   1      33.188  36.545  28.734  1.00  0.00     0.163 HD
ENDROOT
BRANCH   1   5
ATOM      5  C   UNL A   1      33.986  35.431  31.822  1.00  0.00     0.260 C 
BRANCH   5   6
ATOM      6  O   UNL A   1      33.522  34.104  32.029  1.00  0.00    -0.370 OA
BRANCH   6   7
ATOM      7  C   UNL A   1      33.934  33.493  33.252  1.00  0.00     0.182 C 
BRANCH   7   8
ATOM      8  C   UNL A   1      35.423  33.626  33.571  1.00  0.00     0.144 C 
BRANCH   8   9
ATOM      9  N   UNL A   1      36.209  32.421  33.398  1.00  0.00    -0.350 N 
ATOM     10  C   UNL A   1      37.280  32.134  32.594  1.00  0.00     0.253 C 
ATOM     11  O   UNL A   1      37.794  31.019  32.692  1.00  0.00    -0.269 OA
ATOM     12  H   UNL A   1      35.919  31.669  33.962  1.00  0.00     0.163 HD
BRANCH  10  13
ATOM     13  C   UNL A   1      37.814  33.065  31.573  1.00  0.00     0.061 A 
ATOM     14  C   UNL A   1      39.353  34.412  33.113  1.00  0.00     0.067 C 
ATOM     15  C   UNL A   1      38.740  34.088  31.787  1.00  0.00     0.050 A 
ATOM     16  N   UNL A   1      39.202  34.870  30.767  1.00  0.00    -0.261 NA
ATOM     17  C   UNL A   1      38.815  34.575  29.508  1.00  0.00     0.111 A 
ATOM     18  C   UNL A   1      37.453  32.779  30.246  1.00  0.00     0.017 A 
ATOM     19  C   UNL A   1      37.963  33.537  29.197  1.00  0.00     0.021 A 
ENDBRANCH  10  13
ENDBRANCH   8   9
ENDBRANCH   7   8
ENDBRANCH   6   7
ENDBRANCH   5   6
ENDBRANCH   1   5
BRANCH   3  20
ATOM     20  C   UNL A   1      34.618  35.045  28.890  1.00  0.00     0.117 C 
BRANCH  20  21
ATOM     21  C   UNL A   1      33.954  33.769  28.382  1.00  0.00     0.042 C 
BRANCH  21  22
ATOM     22  C   UNL A   1      34.477  32.478  29.008  1.00  0.00     0.118 C 
BRANCH  22  23
ATOM     23  N   UNL A   1      33.933  31.286  28.376  1.00  0.00    -0.352 N 
ATOM     24  C   UNL A   1      34.545  30.147  27.932  1.00  0.00     0.251 C 
ATOM     25  H   UNL A   1      32.958  31.302  28.247  1.00  0.00     0.163 HD
ATOM     26  O   UNL A   1      33.895  29.354  27.240  1.00  0.00    -0.269 OA
BRANCH  24  27
ATOM     27  C   UNL A   1      35.955  29.840  28.248  1.00  0.00     0.039 A 
ATOM     28  C   UNL A   1      36.918  30.028  27.250  1.00  0.00     0.014 A 
ATOM     29  C   UNL A   1      36.332  29.294  29.478  1.00  0.00     0.014 A 
ATOM     30  C   UNL A   1      38.254  29.704  27.496  1.00  0.00     0.010 A 
ATOM     31  C   UNL A   1      37.677  29.042  29.749  1.00  0.00     0.010 A 
ATOM     32  C   UNL A   1      38.649  29.227  28.754  1.00  0.00    -0.014 A 
BRANCH  32  33
ATOM     33  C   UNL A   1      40.069  28.886  29.028  1.00  0.00     0.031 A 
ATOM     34  C   UNL A   1      40.950  29.847  29.779  1.00  0.00     0.074 A 
ATOM     35  C   UNL A   1      40.576  27.725  28.572  1.00  0.00     0.049 A 
ATOM     36  N   UNL A   1      42.218  29.740  30.092  1.00  0.00    -0.248 NA
ATOM     37  C   UNL A   1      40.333  31.111  30.212  1.00  0.00     0.031 C 
ATOM     38  C   UNL A   1      39.840  26.731  27.789  1.00  0.00     0.029 A 
ATOM     39  N   UNL A   1      41.832  27.185  28.697  1.00  0.00    -0.354 N 
ATOM     40  C   UNL A   1      42.550  30.922  30.741  1.00  0.00     0.074 A 
ATOM     41  C   UNL A   1      41.367  31.755  30.730  1.00  0.00     0.031 C 
ATOM     42  C   UNL A   1      40.648  25.692  27.527  1.00  0.00     0.029 A 
ATOM     43  C   UNL A   1      41.965  25.958  28.096  1.00  0.00     0.049 A 
ATOM     44  H   UNL A   1      42.567  27.636  29.172  1.00  0.00     0.167 HD
ATOM     45  C   UNL A   1      43.726  31.272  31.317  1.00  0.00     0.037 A 
ATOM     46  C   UNL A   1      43.031  25.138  28.019  1.00  0.00     0.037 A 
ATOM     47  C   UNL A   1      44.893  30.429  31.354  1.00  0.00     0.049 A 
ATOM     48  C   UNL A   1      44.317  25.539  28.688  1.00  0.00     0.074 A 
ATOM     49  C   UNL A   1      46.113  30.668  31.961  1.00  0.00     0.029 A 
ATOM     50  N   UNL A   1      44.980  29.179  30.760  1.00  0.00    -0.354 N 
ATOM     51  N   UNL A   1      44.598  26.631  29.355  1.00  0.00    -0.248 NA
ATOM     52  C   UNL A   1      45.430  24.583  28.602  1.00  0.00     0.031 C 
ATOM     53  C   UNL A   1      46.952  29.578  31.701  1.00  0.00     0.029 A 
ATOM     54  C   UNL A   1      46.239  28.640  30.973  1.00  0.00     0.049 A 
ATOM     55  H   UNL A   1      44.255  28.738  30.260  1.00  0.00     0.167 HD
ATOM     56  C   UNL A   1      45.907  26.484  29.792  1.00  0.00     0.074 A 
ATOM     57  C   UNL A   1      46.358  25.188  29.330  1.00  0.00     0.031 C 
ATOM     58  C   UNL A   1      46.670  27.346  30.509  1.00  0.00     0.037 A 
BRANCH  45  59
ATOM     59  C   UNL A   1      43.805  32.627  31.958  1.00  0.00     0.064 A 
ATOM     60  C   UNL A   1      44.239  33.755  31.245  1.00  0.00     0.173 A 
ATOM     61  C   UNL A   1      43.416  32.807  33.294  1.00  0.00     0.173 A 
ATOM     62  F   UNL A   1      44.634  33.636  29.969  1.00  0.00    -0.203 F 
ATOM     63  C   UNL A   1      44.313  35.006  31.854  1.00  0.00     0.198 A 
ATOM     64  C   UNL A   1      43.461  34.066  33.891  1.00  0.00     0.198 A 
ATOM     65  F   UNL A   1      42.987  31.765  34.021  1.00  0.00    -0.203 F 
ATOM     66  F   UNL A   1      44.782  36.057  31.167  1.00  0.00    -0.200 F 
ATOM     67  C   UNL A   1      43.918  35.161  33.173  1.00  0.00     0.200 A 
ATOM     68  F   UNL A   1      43.068  34.217  35.164  1.00  0.00    -0.200 F 
ATOM     69  F   UNL A   1      43.985  36.365  33.757  1.00  0.00    -0.200 F 
ENDBRANCH  45  59
BRANCH  46  70
ATOM     70  C   UNL A   1      42.913  23.835  27.315  1.00  0.00     0.064 A 
ATOM     71  C   UNL A   1      42.374  22.714  27.963  1.00  0.00     0.173 A 
ATOM     72  C   UNL A   1      43.337  23.682  25.988  1.00  0.00     0.173 A 
ATOM     73  F   UNL A   1      41.972  22.808  29.238  1.00  0.00    -0.203 F 
ATOM     74  C   UNL A   1      42.285  21.484  27.317  1.00  0.00     0.198 A 
ATOM     75  C   UNL A   1      43.222  22.457  25.333  1.00  0.00     0.198 A 
ATOM     76  F   UNL A   1      43.853  24.725  25.322  1.00  0.00    -0.203 F 
ATOM     77  F   UNL A   1      41.808  20.418  27.973  1.00  0.00    -0.200 F 
ATOM     78  C   UNL A   1      42.704  21.357  26.001  1.00  0.00     0.200 A 
ATOM     79  F   UNL A   1      43.614  22.341  24.057  1.00  0.00    -0.200 F 
ATOM     80  F   UNL A   1      42.615  20.173  25.378  1.00  0.00    -0.200 F 
ENDBRANCH  46  70
BRANCH  58  81
ATOM     81  C   UNL A   1      48.058  26.897  30.864  1.00  0.00     0.064 A 
ATOM     82  C   UNL A   1      48.309  26.098  31.989  1.00  0.00     0.173 A 
ATOM     83  C   UNL A   1      49.148  27.260  30.059  1.00  0.00     0.173 A 
ATOM     84  F   UNL A   1      47.302  25.737  32.799  1.00  0.00    -0.203 F 
ATOM     85  C   UNL A   1      49.606  25.708  32.314  1.00  0.00     0.198 A 
ATOM     86  C   UNL A   1      50.440  26.843  30.370  1.00  0.00     0.198 A 
ATOM     87  F   UNL A   1      48.962  28.017  28.967  1.00  0.00    -0.203 F 
ATOM     88  F   UNL A   1      49.828  24.994  33.426  1.00  0.00    -0.200 F 
ATOM     89  C   UNL A   1      50.668  26.076  31.503  1.00  0.00     0.200 A 
ATOM     90  F   UNL A   1      51.464  27.189  29.578  1.00  0.00    -0.200 F 
ATOM     91  F   UNL A   1      51.915  25.701  31.819  1.00  0.00    -0.200 F 
ENDBRANCH  58  81
ENDBRANCH  32  33
ENDBRANCH  24  27
ENDBRANCH  22  23
ENDBRANCH  21  22
ENDBRANCH  20  21
ENDBRANCH   3  20
TORSDOF 15
ENDMDL
MODEL 2
REMARK VINA RESULT:     -10.1      1.913      3.070
REMARK SMILES Cc1ncccc1C(=O)NCCOCC(=O)NCCCNC(=O)c1ccc(-c2c3nc(c(-c4c(F)c(F)c(F)c(F)c4F)c4ccc([nH]4)c(-c4c(F)c(F)c(F)c(F)c4F)c4nc(c(-c5c(F)c(F)c(F)c(F)c5F)c5ccc2[nH]5)C=C4)C=C3)cc1
REMARK SMILES IDX 15 1 16 2 17 3 14 5 13 6 12 7 11 8 10 9 8 10 9 11 7 13 1 14
REMARK SMILES IDX 2 15 3 16 4 17 6 18 5 19 18 20 19 21 20 22 21 23 22 24 23 26
REMARK SMILES IDX 24 27 25 28 86 29 26 30 85 31 27 32 28 33 29 34 79 35 30 36
REMARK SMILES IDX 84 37 78 38 80 39 31 40 83 41 77 42 76 43 32 45 64 46 44 47
REMARK SMILES IDX 63 48 45 49 48 50 62 51 81 52 46 53 47 54 61 56 82 57 49 58
REMARK SMILES IDX 33 59 34 60 42 61 35 62 36 63 40 64 43 65 37 66 38 67 41 68
REMARK SMILES IDX 39 69 65 70 66 71 74 72 67 73 68 74 72 75 75 76 69 77 70 78
REMARK SMILES IDX 73 79 71 80 50 81 51 82 59 83 52 84 53 85 57 86 60 87 54 88
REMARK SMILES IDX 55 89 58 90 56 91
REMARK H PARENT 17 4 10 12 21 25 80 44 48 55
REMARK Flexibility Score: inf
ROOT
ATOM      1  C   UNL A   1      32.973  36.136  30.897  1.00  0.00     0.245 C 
ATOM      2  O   UNL A   1      32.153  36.829  31.498  1.00  0.00    -0.272 OA
ATOM      3  N   UNL A   1      32.962  36.136  29.532  1.00  0.00    -0.354 N 
ATOM      4  H   UNL A   1      32.263  36.686  29.110  1.00  0.00     0.163 HD
ENDROOT
BRANCH   1   5
ATOM      5  C   UNL A   1      33.982  35.247  31.638  1.00  0.00     0.260 C 
BRANCH   5   6
ATOM      6  O   UNL A   1      33.663  33.878  31.845  1.00  0.00    -0.370 OA
BRANCH   6   7
ATOM      7  C   UNL A   1      34.779  32.990  31.906  1.00  0.00     0.182 C 
BRANCH   7   8
ATOM      8  C   UNL A   1      35.527  32.983  33.239  1.00  0.00     0.144 C 
BRANCH   8   9
ATOM      9  N   UNL A   1      36.836  33.605  33.225  1.00  0.00    -0.350 N 
ATOM     10  C   UNL A   1      37.870  33.583  34.122  1.00  0.00     0.253 C 
ATOM     11  O   UNL A   1      38.908  34.173  33.821  1.00  0.00    -0.269 OA
ATOM     12  H   UNL A   1      37.014  34.144  32.421  1.00  0.00     0.163 HD
BRANCH  10  13
ATOM     13  C   UNL A   1      37.787  32.943  35.454  1.00  0.00     0.061 A 
ATOM     14  C   UNL A   1      38.153  30.525  34.694  1.00  0.00     0.067 C 
ATOM     15  C   UNL A   1      37.911  31.579  35.729  1.00  0.00     0.050 A 
ATOM     16  N   UNL A   1      37.860  31.090  37.003  1.00  0.00    -0.261 NA
ATOM     17  C   UNL A   1      37.779  31.970  38.024  1.00  0.00     0.111 A 
ATOM     18  C   UNL A   1      37.725  33.824  36.547  1.00  0.00     0.017 A 
ATOM     19  C   UNL A   1      37.729  33.336  37.849  1.00  0.00     0.021 A 
ENDBRANCH  10  13
ENDBRANCH   8   9
ENDBRANCH   7   8
ENDBRANCH   6   7
ENDBRANCH   5   6
ENDBRANCH   1   5
BRANCH   3  20
ATOM     20  C   UNL A   1      33.846  35.432  28.623  1.00  0.00     0.117 C 
BRANCH  20  21
ATOM     21  C   UNL A   1      33.280  34.092  28.161  1.00  0.00     0.042 C 
BRANCH  21  22
ATOM     22  C   UNL A   1      34.249  32.917  28.257  1.00  0.00     0.118 C 
BRANCH  22  23
ATOM     23  N   UNL A   1      33.709  31.694  27.683  1.00  0.00    -0.352 N 
ATOM     24  C   UNL A   1      34.278  30.469  27.480  1.00  0.00     0.251 C 
ATOM     25  H   UNL A   1      32.771  31.761  27.391  1.00  0.00     0.163 HD
ATOM     26  O   UNL A   1      33.678  29.641  26.784  1.00  0.00    -0.269 OA
BRANCH  24  27
ATOM     27  C   UNL A   1      35.589  30.108  28.061  1.00  0.00     0.039 A 
ATOM     28  C   UNL A   1      36.724  30.188  27.247  1.00  0.00     0.014 A 
ATOM     29  C   UNL A   1      35.705  29.614  29.363  1.00  0.00     0.014 A 
ATOM     30  C   UNL A   1      37.972  29.810  27.746  1.00  0.00     0.010 A 
ATOM     31  C   UNL A   1      36.963  29.308  29.885  1.00  0.00     0.010 A 
ATOM     32  C   UNL A   1      38.106  29.386  29.076  1.00  0.00    -0.014 A 
BRANCH  32  33
ATOM     33  C   UNL A   1      39.431  28.988  29.619  1.00  0.00     0.031 A 
ATOM     34  C   UNL A   1      40.081  29.800  30.706  1.00  0.00     0.074 A 
ATOM     35  C   UNL A   1      40.065  27.914  29.111  1.00  0.00     0.049 A 
ATOM     36  N   UNL A   1      41.242  29.628  31.288  1.00  0.00    -0.248 NA
ATOM     37  C   UNL A   1      39.344  30.980  31.182  1.00  0.00     0.031 C 
ATOM     38  C   UNL A   1      39.563  27.073  28.023  1.00  0.00     0.029 A 
ATOM     39  N   UNL A   1      41.270  27.347  29.439  1.00  0.00    -0.354 N 
ATOM     40  C   UNL A   1      41.378  30.681  32.184  1.00  0.00     0.074 A 
ATOM     41  C   UNL A   1      40.207  31.518  32.030  1.00  0.00     0.031 C 
ATOM     42  C   UNL A   1      40.439  26.084  27.792  1.00  0.00     0.029 A 
ATOM     43  C   UNL A   1      41.577  26.236  28.694  1.00  0.00     0.049 A 
ATOM     44  H   UNL A   1      41.859  27.704  30.143  1.00  0.00     0.167 HD
ATOM     45  C   UNL A   1      42.375  30.917  33.071  1.00  0.00     0.037 A 
ATOM     46  C   UNL A   1      42.654  25.428  28.737  1.00  0.00     0.037 A 
ATOM     47  C   UNL A   1      43.523  30.067  33.245  1.00  0.00     0.049 A 
ATOM     48  C   UNL A   1      43.734  25.698  29.749  1.00  0.00     0.074 A 
ATOM     49  C   UNL A   1      44.559  30.187  34.155  1.00  0.00     0.029 A 
ATOM     50  N   UNL A   1      43.784  28.932  32.490  1.00  0.00    -0.354 N 
ATOM     51  N   UNL A   1      43.818  26.660  30.634  1.00  0.00    -0.248 NA
ATOM     52  C   UNL A   1      44.863  24.758  29.773  1.00  0.00     0.031 C 
ATOM     53  C   UNL A   1      45.467  29.147  33.925  1.00  0.00     0.029 A 
ATOM     54  C   UNL A   1      44.973  28.351  32.904  1.00  0.00     0.049 A 
ATOM     55  H   UNL A   1      43.210  28.589  31.767  1.00  0.00     0.167 HD
ATOM     56  C   UNL A   1      44.992  26.427  31.339  1.00  0.00     0.074 A 
ATOM     57  C   UNL A   1      45.576  25.221  30.790  1.00  0.00     0.031 C 
ATOM     58  C   UNL A   1      45.538  27.149  32.349  1.00  0.00     0.037 A 
BRANCH  45  59
ATOM     59  C   UNL A   1      42.261  32.145  33.928  1.00  0.00     0.064 A 
ATOM     60  C   UNL A   1      41.685  32.099  35.207  1.00  0.00     0.173 A 
ATOM     61  C   UNL A   1      42.759  33.376  33.479  1.00  0.00     0.173 A 
ATOM     62  F   UNL A   1      41.182  30.949  35.680  1.00  0.00    -0.203 F 
ATOM     63  C   UNL A   1      41.581  33.247  35.990  1.00  0.00     0.198 A 
ATOM     64  C   UNL A   1      42.682  34.516  34.277  1.00  0.00     0.198 A 
ATOM     65  F   UNL A   1      43.326  33.476  32.268  1.00  0.00    -0.203 F 
ATOM     66  F   UNL A   1      40.977  33.187  37.185  1.00  0.00    -0.200 F 
ATOM     67  C   UNL A   1      42.085  34.452  35.527  1.00  0.00     0.200 A 
ATOM     68  F   UNL A   1      43.181  35.679  33.833  1.00  0.00    -0.200 F 
ATOM     69  F   UNL A   1      41.988  35.555  36.282  1.00  0.00    -0.200 F 
ENDBRANCH  45  59
BRANCH  46  70
ATOM     70  C   UNL A   1      42.743  24.263  27.820  1.00  0.00     0.064 A 
ATOM     71  C   UNL A   1      42.363  22.983  28.246  1.00  0.00     0.173 A 
ATOM     72  C   UNL A   1      43.211  24.403  26.506  1.00  0.00     0.173 A 
ATOM     73  F   UNL A   1      41.927  22.797  29.500  1.00  0.00    -0.203 F 
ATOM     74  C   UNL A   1      42.469  21.882  27.400  1.00  0.00     0.198 A 
ATOM     75  C   UNL A   1      43.290  23.305  25.651  1.00  0.00     0.198 A 
ATOM     76  F   UNL A   1      43.580  25.608  26.048  1.00  0.00    -0.203 F 
ATOM     77  F   UNL A   1      42.142  20.662  27.847  1.00  0.00    -0.200 F 
ATOM     78  C   UNL A   1      42.927  22.044  26.101  1.00  0.00     0.200 A 
ATOM     79  F   UNL A   1      43.720  23.468  24.393  1.00  0.00    -0.200 F 
ATOM     80  F   UNL A   1      43.026  20.985  25.285  1.00  0.00    -0.200 F 
ENDBRANCH  46  70
BRANCH  58  81
ATOM     81  C   UNL A   1      46.816  26.631  32.943  1.00  0.00     0.064 A 
ATOM     82  C   UNL A   1      48.070  27.027  32.454  1.00  0.00     0.173 A 
ATOM     83  C   UNL A   1      46.785  25.738  34.025  1.00  0.00     0.173 A 
ATOM     84  F   UNL A   1      48.153  27.866  31.411  1.00  0.00    -0.203 F 
ATOM     85  C   UNL A   1      49.244  26.520  33.004  1.00  0.00     0.198 A 
ATOM     86  C   UNL A   1      47.961  25.257  34.592  1.00  0.00     0.198 A 
ATOM     87  F   UNL A   1      45.612  25.334  34.535  1.00  0.00    -0.203 F 
ATOM     88  F   UNL A   1      50.429  26.867  32.482  1.00  0.00    -0.200 F 
ATOM     89  C   UNL A   1      49.190  25.641  34.075  1.00  0.00     0.200 A 
ATOM     90  F   UNL A   1      47.908  24.417  35.635  1.00  0.00    -0.200 F 
ATOM     91  F   UNL A   1      50.322  25.154  34.601  1.00  0.00    -0.200 F 
ENDBRANCH  58  81
ENDBRANCH  32  33
ENDBRANCH  24  27
ENDBRANCH  22  23
ENDBRANCH  21  22
ENDBRANCH  20  21
ENDBRANCH   3  20
TORSDOF 15
ENDMDL
MODEL 3
REMARK VINA RESULT:      -9.9      1.936      2.883
REMARK SMILES Cc1ncccc1C(=O)NCCOCC(=O)NCCCNC(=O)c1ccc(-c2c3nc(c(-c4c(F)c(F)c(F)c(F)c4F)c4ccc([nH]4)c(-c4c(F)c(F)c(F)c(F)c4F)c4nc(c(-c5c(F)c(F)c(F)c(F)c5F)c5ccc2[nH]5)C=C4)C=C3)cc1
REMARK SMILES IDX 15 1 16 2 17 3 14 5 13 6 12 7 11 8 10 9 8 10 9 11 7 13 1 14
REMARK SMILES IDX 2 15 3 16 4 17 6 18 5 19 18 20 19 21 20 22 21 23 22 24 23 26
REMARK SMILES IDX 24 27 25 28 86 29 26 30 85 31 27 32 28 33 29 34 79 35 30 36
REMARK SMILES IDX 84 37 78 38 80 39 31 40 83 41 77 42 76 43 32 45 64 46 44 47
REMARK SMILES IDX 63 48 45 49 48 50 62 51 81 52 46 53 47 54 61 56 82 57 49 58
REMARK SMILES IDX 33 59 34 60 42 61 35 62 36 63 40 64 43 65 37 66 38 67 41 68
REMARK SMILES IDX 39 69 65 70 66 71 74 72 67 73 68 74 72 75 75 76 69 77 70 78
REMARK SMILES IDX 73 79 71 80 50 81 51 82 59 83 52 84 53 85 57 86 60 87 54 88
REMARK SMILES IDX 55 89 58 90 56 91
REMARK H PARENT 17 4 10 12 21 25 80 44 48 55
REMARK Flexibility Score: inf
ROOT
ATOM      1  C   UNL A   1      32.845  35.915  31.106  1.00  0.00     0.245 C 
ATOM      2  O   UNL A   1      31.923  36.515  31.656  1.00  0.00    -0.272 OA
ATOM      3  N   UNL A   1      32.939  35.954  29.744  1.00  0.00    -0.354 N 
ATOM      4  H   UNL A   1      32.228  36.452  29.281  1.00  0.00     0.163 HD
ENDROOT
BRANCH   1   5
ATOM      5  C   UNL A   1      33.870  35.097  31.905  1.00  0.00     0.260 C 
BRANCH   5   6
ATOM      6  O   UNL A   1      33.754  33.681  31.916  1.00  0.00    -0.370 OA
BRANCH   6   7
ATOM      7  C   UNL A   1      34.954  32.969  32.217  1.00  0.00     0.182 C 
BRANCH   7   8
ATOM      8  C   UNL A   1      35.646  33.389  33.514  1.00  0.00     0.144 C 
BRANCH   8   9
ATOM      9  N   UNL A   1      37.011  33.854  33.372  1.00  0.00    -0.350 N 
ATOM     10  C   UNL A   1      38.098  33.771  34.201  1.00  0.00     0.253 C 
ATOM     11  O   UNL A   1      39.171  34.218  33.793  1.00  0.00    -0.269 OA
ATOM     12  H   UNL A   1      37.190  34.317  32.522  1.00  0.00     0.163 HD
BRANCH  10  13
ATOM     13  C   UNL A   1      38.041  33.232  35.578  1.00  0.00     0.061 A 
ATOM     14  C   UNL A   1      38.166  30.746  34.976  1.00  0.00     0.067 C 
ATOM     15  C   UNL A   1      38.069  31.884  35.944  1.00  0.00     0.050 A 
ATOM     16  N   UNL A   1      38.052  31.488  37.251  1.00  0.00    -0.261 NA
ATOM     17  C   UNL A   1      38.102  32.438  38.208  1.00  0.00     0.111 A 
ATOM     18  C   UNL A   1      38.112  34.187  36.606  1.00  0.00     0.017 A 
ATOM     19  C   UNL A   1      38.151  33.790  37.938  1.00  0.00     0.021 A 
ENDBRANCH  10  13
ENDBRANCH   8   9
ENDBRANCH   7   8
ENDBRANCH   6   7
ENDBRANCH   5   6
ENDBRANCH   1   5
BRANCH   3  20
ATOM     20  C   UNL A   1      33.951  35.356  28.894  1.00  0.00     0.117 C 
BRANCH  20  21
ATOM     21  C   UNL A   1      33.463  34.096  28.185  1.00  0.00     0.042 C 
BRANCH  21  22
ATOM     22  C   UNL A   1      34.379  32.882  28.327  1.00  0.00     0.118 C 
BRANCH  22  23
ATOM     23  N   UNL A   1      33.827  31.687  27.709  1.00  0.00    -0.352 N 
ATOM     24  C   UNL A   1      34.382  30.461  27.473  1.00  0.00     0.251 C 
ATOM     25  H   UNL A   1      32.893  31.775  27.412  1.00  0.00     0.163 HD
ATOM     26  O   UNL A   1      33.778  29.664  26.745  1.00  0.00    -0.269 OA
BRANCH  24  27
ATOM     27  C   UNL A   1      35.682  30.063  28.054  1.00  0.00     0.039 A 
ATOM     28  C   UNL A   1      36.825  30.149  27.251  1.00  0.00     0.014 A 
ATOM     29  C   UNL A   1      35.781  29.532  29.342  1.00  0.00     0.014 A 
ATOM     30  C   UNL A   1      38.063  29.738  27.749  1.00  0.00     0.010 A 
ATOM     31  C   UNL A   1      37.029  29.193  29.866  1.00  0.00     0.010 A 
ATOM     32  C   UNL A   1      38.180  29.274  29.068  1.00  0.00    -0.014 A 
BRANCH  32  33
ATOM     33  C   UNL A   1      39.494  28.842  29.610  1.00  0.00     0.031 A 
ATOM     34  C   UNL A   1      40.154  29.621  30.714  1.00  0.00     0.074 A 
ATOM     35  C   UNL A   1      40.109  27.765  29.085  1.00  0.00     0.049 A 
ATOM     36  N   UNL A   1      41.309  29.416  31.299  1.00  0.00    -0.248 NA
ATOM     37  C   UNL A   1      39.437  30.806  31.208  1.00  0.00     0.031 C 
ATOM     38  C   UNL A   1      39.597  26.954  27.980  1.00  0.00     0.029 A 
ATOM     39  N   UNL A   1      41.302  27.169  29.409  1.00  0.00    -0.354 N 
ATOM     40  C   UNL A   1      41.460  30.450  32.214  1.00  0.00     0.074 A 
ATOM     41  C   UNL A   1      40.307  31.312  32.070  1.00  0.00     0.031 C 
ATOM     42  C   UNL A   1      40.455  25.952  27.735  1.00  0.00     0.029 A 
ATOM     43  C   UNL A   1      41.591  26.065  28.645  1.00  0.00     0.049 A 
ATOM     44  H   UNL A   1      41.894  27.501  30.122  1.00  0.00     0.167 HD
ATOM     45  C   UNL A   1      42.457  30.650  33.111  1.00  0.00     0.037 A 
ATOM     46  C   UNL A   1      42.652  25.236  28.678  1.00  0.00     0.037 A 
ATOM     47  C   UNL A   1      43.588  29.775  33.274  1.00  0.00     0.049 A 
ATOM     48  C   UNL A   1      43.732  25.467  29.700  1.00  0.00     0.074 A 
ATOM     49  C   UNL A   1      44.620  29.859  34.191  1.00  0.00     0.029 A 
ATOM     50  N   UNL A   1      43.831  28.649  32.500  1.00  0.00    -0.354 N 
ATOM     51  N   UNL A   1      43.830  26.410  30.603  1.00  0.00    -0.248 NA
ATOM     52  C   UNL A   1      44.842  24.505  29.712  1.00  0.00     0.031 C 
ATOM     53  C   UNL A   1      45.509  28.805  33.947  1.00  0.00     0.029 A 
ATOM     54  C   UNL A   1      45.006  28.038  32.909  1.00  0.00     0.049 A 
ATOM     55  H   UNL A   1      43.254  28.331  31.768  1.00  0.00     0.167 HD
ATOM     56  C   UNL A   1      44.995  26.142  31.309  1.00  0.00     0.074 A 
ATOM     57  C   UNL A   1      45.559  24.936  30.741  1.00  0.00     0.031 C 
ATOM     58  C   UNL A   1      45.550  26.835  32.334  1.00  0.00     0.037 A 
BRANCH  45  59
ATOM     59  C   UNL A   1      42.362  31.864  33.989  1.00  0.00     0.064 A 
ATOM     60  C   UNL A   1      42.780  33.128  33.545  1.00  0.00     0.173 A 
ATOM     61  C   UNL A   1      41.822  31.770  35.280  1.00  0.00     0.173 A 
ATOM     62  F   UNL A   1      43.316  33.271  32.324  1.00  0.00    -0.203 F 
ATOM     63  C   UNL A   1      42.692  34.245  34.372  1.00  0.00     0.198 A 
ATOM     64  C   UNL A   1      41.705  32.895  36.094  1.00  0.00     0.198 A 
ATOM     65  F   UNL A   1      41.400  30.587  35.753  1.00  0.00    -0.203 F 
ATOM     66  F   UNL A   1      43.148  35.431  33.944  1.00  0.00    -0.200 F 
ATOM     67  C   UNL A   1      42.149  34.129  35.642  1.00  0.00     0.200 A 
ATOM     68  F   UNL A   1      41.170  32.784  37.317  1.00  0.00    -0.200 F 
ATOM     69  F   UNL A   1      42.061  35.205  36.436  1.00  0.00    -0.200 F 
ENDBRANCH  45  59
BRANCH  46  70
ATOM     70  C   UNL A   1      42.723  24.087  27.741  1.00  0.00     0.064 A 
ATOM     71  C   UNL A   1      43.181  24.259  26.427  1.00  0.00     0.173 A 
ATOM     72  C   UNL A   1      42.334  22.799  28.134  1.00  0.00     0.173 A 
ATOM     73  F   UNL A   1      43.546  25.476  25.999  1.00  0.00    -0.203 F 
ATOM     74  C   UNL A   1      43.225  23.190  25.534  1.00  0.00     0.198 A 
ATOM     75  C   UNL A   1      42.405  21.725  27.249  1.00  0.00     0.198 A 
ATOM     76  F   UNL A   1      41.896  22.580  29.382  1.00  0.00    -0.203 F 
ATOM     77  F   UNL A   1      43.623  23.391  24.271  1.00  0.00    -0.200 F 
ATOM     78  C   UNL A   1      42.842  21.923  25.947  1.00  0.00     0.200 A 
ATOM     79  F   UNL A   1      42.048  20.499  27.655  1.00  0.00    -0.200 F 
ATOM     80  F   UNL A   1      42.888  20.894  25.090  1.00  0.00    -0.200 F 
ENDBRANCH  46  70
BRANCH  58  81
ATOM     81  C   UNL A   1      46.815  26.282  32.926  1.00  0.00     0.064 A 
ATOM     82  C   UNL A   1      46.792  25.329  33.955  1.00  0.00     0.173 A 
ATOM     83  C   UNL A   1      48.065  26.702  32.446  1.00  0.00     0.173 A 
ATOM     84  F   UNL A   1      45.622  24.907  34.458  1.00  0.00    -0.203 F 
ATOM     85  C   UNL A   1      47.975  24.843  34.505  1.00  0.00     0.198 A 
ATOM     86  C   UNL A   1      49.246  26.191  32.978  1.00  0.00     0.198 A 
ATOM     87  F   UNL A   1      48.142  27.606  31.458  1.00  0.00    -0.203 F 
ATOM     88  F   UNL A   1      47.928  23.976  35.527  1.00  0.00    -0.200 F 
ATOM     89  C   UNL A   1      49.200  25.269  34.014  1.00  0.00     0.200 A 
ATOM     90  F   UNL A   1      50.428  26.595  32.494  1.00  0.00    -0.200 F 
ATOM     91  F   UNL A   1      50.336  24.801  34.547  1.00  0.00    -0.200 F 
ENDBRANCH  58  81
ENDBRANCH  32  33
ENDBRANCH  24  27
ENDBRANCH  22  23
ENDBRANCH  21  22
ENDBRANCH  20  21
ENDBRANCH   3  20
TORSDOF 15
ENDMDL
