MODEL 1
REMARK VINA RESULT:     -12.9      0.000      0.000
REMARK SMILES Cc1cc(C(=O)N2CC[NH2+]C[C@H]2C(=O)NCCCNC(=O)c2ccc(-c3c4nc(c(-c5c(F)c(F)c(F)c(F)c5F)c5ccc([nH]5)c(-c5c(F)c(F)c(F)c(F)c5F)c5nc(c(-c6c(F)c(F)c(F)c(F)c6F)c6ccc3[nH]6)C=C5)C=C4)cc2)sc1Br
REMARK SMILES IDX 17 1 16 2 15 3 13 4 14 5 12 7 7 8 8 9 9 10 11 11 10 12 5 15
REMARK SMILES IDX 6 16 4 17 1 18 2 19 3 20 86 21 85 22 87 23 18 24 19 25 20 26
REMARK SMILES IDX 21 28 22 29 23 30 84 31 24 32 83 33 25 34 26 35 27 36 77 37
REMARK SMILES IDX 28 38 82 39 76 40 78 41 29 42 81 43 75 44 74 45 30 47 62 48
REMARK SMILES IDX 42 49 61 50 43 51 46 52 60 53 79 54 44 55 45 56 59 58 80 59
REMARK SMILES IDX 47 60 31 61 32 62 40 63 33 64 34 65 38 66 41 67 35 68 36 69
REMARK SMILES IDX 39 70 37 71 63 72 64 73 72 74 65 75 66 76 70 77 73 78 67 79
REMARK SMILES IDX 68 80 71 81 69 82 48 83 49 84 57 85 50 86 51 87 55 88 58 89
REMARK SMILES IDX 52 90 53 91 56 92 54 93
REMARK H PARENT 15 6 10 13 10 14 19 27 78 46 46 57
REMARK Flexibility Score: inf
ROOT
ATOM      1  C   UNL A   1      37.933  21.193  24.744  1.00  0.00     0.042 C 
ENDROOT
BRANCH   1   2
ATOM      2  C   UNL A   1      36.617  20.508  25.032  1.00  0.00     0.117 C 
BRANCH   2   3
ATOM      3  N   UNL A   1      35.981  21.145  26.156  1.00  0.00    -0.354 N 
ATOM      4  C   UNL A   1      34.828  21.861  26.221  1.00  0.00     0.248 C 
ATOM      5  O   UNL A   1      34.608  22.422  27.301  1.00  0.00    -0.272 OA
ATOM      6  H   UNL A   1      36.456  21.047  27.012  1.00  0.00     0.163 HD
BRANCH   4   7
ATOM      7  C   UNL A   1      33.725  21.838  25.131  1.00  0.00     0.230 C 
ATOM      8  N   UNL A   1      33.847  22.477  23.807  1.00  0.00    -0.315 N 
ATOM      9  C   UNL A   1      32.600  22.408  23.047  1.00  0.00     0.182 C 
ATOM     10  C   UNL A   1      32.197  20.950  22.802  1.00  0.00     0.282 C 
ATOM     11  C   UNL A   1      33.377  20.339  24.850  1.00  0.00     0.296 C 
ATOM     12  N   UNL A   1      32.158  20.134  24.031  1.00  0.00    -0.343 N 
ATOM     13  H   UNL A   1      32.091  19.149  23.774  1.00  0.00     0.346 HD
ATOM     14  H   UNL A   1      31.348  20.418  24.581  1.00  0.00     0.346 HD
BRANCH   8  15
ATOM     15  C   UNL A   1      34.659  23.561  23.535  1.00  0.00     0.265 C 
ATOM     16  O   UNL A   1      35.740  23.441  22.968  1.00  0.00    -0.268 OA
BRANCH  15  17
ATOM     17  C   UNL A   1      33.988  24.844  23.802  1.00  0.00     0.093 A 
ATOM     18  C   UNL A   1      33.897  28.394  22.666  1.00  0.00     0.046 C 
ATOM     19  C   UNL A   1      33.687  27.150  23.474  1.00  0.00    -0.025 A 
ATOM     20  C   UNL A   1      33.641  25.834  22.886  1.00  0.00     0.030 A 
ATOM     21  C   UNL A   1      33.721  27.039  24.850  1.00  0.00     0.074 A 
ATOM     22  S   UNL A   1      33.793  25.429  25.401  1.00  0.00    -0.123 S 
ATOM     23  Br  UNL A   1      33.889  28.494  26.028  1.00  0.00    -0.039 Br
ENDBRANCH  15  17
ENDBRANCH   8  15
ENDBRANCH   4   7
ENDBRANCH   2   3
ENDBRANCH   1   2
BRANCH   1  24
ATOM     24  C   UNL A   1      38.946  21.088  25.839  1.00  0.00     0.118 C 
BRANCH  24  25
ATOM     25  N   UNL A   1      39.696  19.816  25.850  1.00  0.00    -0.352 N 
ATOM     26  C   UNL A   1      41.084  19.636  25.936  1.00  0.00     0.251 C 
ATOM     27  H   UNL A   1      39.156  18.995  25.789  1.00  0.00     0.163 HD
ATOM     28  O   UNL A   1      41.615  18.583  25.672  1.00  0.00    -0.269 OA
BRANCH  26  29
ATOM     29  C   UNL A   1      41.863  20.801  26.410  1.00  0.00     0.039 A 
ATOM     30  C   UNL A   1      42.450  21.774  25.596  1.00  0.00     0.014 A 
ATOM     31  C   UNL A   1      41.759  20.999  27.766  1.00  0.00     0.014 A 
ATOM     32  C   UNL A   1      42.814  22.984  26.197  1.00  0.00     0.010 A 
ATOM     33  C   UNL A   1      41.588  22.285  28.135  1.00  0.00     0.010 A 
ATOM     34  C   UNL A   1      42.348  23.232  27.495  1.00  0.00    -0.014 A 
BRANCH  34  35
ATOM     35  C   UNL A   1      42.464  24.467  28.254  1.00  0.00     0.031 A 
ATOM     36  C   UNL A   1      41.329  25.384  28.033  1.00  0.00     0.074 A 
ATOM     37  C   UNL A   1      43.348  24.577  29.285  1.00  0.00     0.049 A 
ATOM     38  N   UNL A   1      41.329  26.453  27.311  1.00  0.00    -0.248 NA
ATOM     39  C   UNL A   1      39.986  24.972  28.476  1.00  0.00     0.031 C 
ATOM     40  C   UNL A   1      44.286  23.553  29.799  1.00  0.00     0.029 A 
ATOM     41  N   UNL A   1      43.520  25.583  30.187  1.00  0.00    -0.354 N 
ATOM     42  C   UNL A   1      40.064  27.005  27.478  1.00  0.00     0.074 A 
ATOM     43  C   UNL A   1      39.227  25.934  27.941  1.00  0.00     0.031 C 
ATOM     44  C   UNL A   1      44.719  23.885  31.033  1.00  0.00     0.029 A 
ATOM     45  C   UNL A   1      44.286  25.237  31.305  1.00  0.00     0.049 A 
ATOM     46  H   UNL A   1      43.135  26.481  30.063  1.00  0.00     0.167 HD
ATOM     47  C   UNL A   1      39.937  28.357  27.601  1.00  0.00     0.037 A 
ATOM     48  C   UNL A   1      44.583  26.025  32.367  1.00  0.00     0.037 A 
ATOM     49  C   UNL A   1      41.197  28.990  27.273  1.00  0.00     0.049 A 
ATOM     50  C   UNL A   1      44.388  27.420  31.916  1.00  0.00     0.074 A 
ATOM     51  C   UNL A   1      41.954  29.179  26.139  1.00  0.00     0.029 A 
ATOM     52  N   UNL A   1      42.036  29.118  28.353  1.00  0.00    -0.354 N 
ATOM     53  N   UNL A   1      45.130  27.983  31.001  1.00  0.00    -0.248 NA
ATOM     54  C   UNL A   1      43.104  28.061  32.160  1.00  0.00     0.031 C 
ATOM     55  C   UNL A   1      43.314  29.224  26.577  1.00  0.00     0.029 A 
ATOM     56  C   UNL A   1      43.347  29.142  27.969  1.00  0.00     0.049 A 
ATOM     57  H   UNL A   1      41.731  29.184  29.287  1.00  0.00     0.167 HD
ATOM     58  C   UNL A   1      44.245  28.747  30.264  1.00  0.00     0.074 A 
ATOM     59  C   UNL A   1      43.070  28.896  31.118  1.00  0.00     0.031 C 
ATOM     60  C   UNL A   1      44.415  28.890  28.915  1.00  0.00     0.037 A 
BRANCH  47  61
ATOM     61  C   UNL A   1      38.945  29.080  28.497  1.00  0.00     0.064 A 
ATOM     62  C   UNL A   1      38.960  28.782  29.878  1.00  0.00     0.173 A 
ATOM     63  C   UNL A   1      37.802  29.775  28.047  1.00  0.00     0.173 A 
ATOM     64  F   UNL A   1      39.994  28.124  30.424  1.00  0.00    -0.203 F 
ATOM     65  C   UNL A   1      37.875  29.066  30.713  1.00  0.00     0.198 A 
ATOM     66  C   UNL A   1      36.741  30.098  28.894  1.00  0.00     0.198 A 
ATOM     67  F   UNL A   1      37.599  30.078  26.764  1.00  0.00    -0.203 F 
ATOM     68  F   UNL A   1      37.885  28.646  31.985  1.00  0.00    -0.200 F 
ATOM     69  C   UNL A   1      36.761  29.715  30.217  1.00  0.00     0.200 A 
ATOM     70  F   UNL A   1      35.660  30.710  28.388  1.00  0.00    -0.200 F 
ATOM     71  F   UNL A   1      35.692  29.929  30.995  1.00  0.00    -0.200 F 
ENDBRANCH  47  61
BRANCH  48  72
ATOM     72  C   UNL A   1      44.807  25.662  33.786  1.00  0.00     0.064 A 
ATOM     73  C   UNL A   1      43.738  25.501  34.682  1.00  0.00     0.173 A 
ATOM     74  C   UNL A   1      46.059  25.176  34.211  1.00  0.00     0.173 A 
ATOM     75  F   UNL A   1      42.507  25.906  34.341  1.00  0.00    -0.203 F 
ATOM     76  C   UNL A   1      43.902  24.858  35.915  1.00  0.00     0.198 A 
ATOM     77  C   UNL A   1      46.222  24.532  35.440  1.00  0.00     0.198 A 
ATOM     78  F   UNL A   1      47.123  25.231  33.397  1.00  0.00    -0.203 F 
ATOM     79  F   UNL A   1      42.845  24.666  36.717  1.00  0.00    -0.200 F 
ATOM     80  C   UNL A   1      45.140  24.359  36.285  1.00  0.00     0.200 A 
ATOM     81  F   UNL A   1      47.416  24.020  35.771  1.00  0.00    -0.200 F 
ATOM     82  F   UNL A   1      45.283  23.681  37.432  1.00  0.00    -0.200 F 
ENDBRANCH  48  72
BRANCH  60  83
ATOM     83  C   UNL A   1      45.785  28.625  28.362  1.00  0.00     0.064 A 
ATOM     84  C   UNL A   1      46.890  29.481  28.503  1.00  0.00     0.173 A 
ATOM     85  C   UNL A   1      46.002  27.393  27.734  1.00  0.00     0.173 A 
ATOM     86  F   UNL A   1      46.787  30.642  29.156  1.00  0.00    -0.203 F 
ATOM     87  C   UNL A   1      48.145  29.130  28.004  1.00  0.00     0.198 A 
ATOM     88  C   UNL A   1      47.262  27.028  27.269  1.00  0.00     0.198 A 
ATOM     89  F   UNL A   1      44.992  26.517  27.610  1.00  0.00    -0.203 F 
ATOM     90  F   UNL A   1      49.182  29.971  28.138  1.00  0.00    -0.200 F 
ATOM     91  C   UNL A   1      48.330  27.900  27.394  1.00  0.00     0.200 A 
ATOM     92  F   UNL A   1      47.442  25.820  26.720  1.00  0.00    -0.200 F 
ATOM     93  F   UNL A   1      49.542  27.547  26.943  1.00  0.00    -0.200 F 
ENDBRANCH  60  83
ENDBRANCH  34  35
ENDBRANCH  26  29
ENDBRANCH  24  25
ENDBRANCH   1  24
TORSDOF 12
ENDMDL
MODEL 2
REMARK VINA RESULT:     -12.9      4.655      9.509
REMARK SMILES Cc1cc(C(=O)N2CC[NH2+]C[C@H]2C(=O)NCCCNC(=O)c2ccc(-c3c4nc(c(-c5c(F)c(F)c(F)c(F)c5F)c5ccc([nH]5)c(-c5c(F)c(F)c(F)c(F)c5F)c5nc(c(-c6c(F)c(F)c(F)c(F)c6F)c6ccc3[nH]6)C=C5)C=C4)cc2)sc1Br
REMARK SMILES IDX 17 1 16 2 15 3 13 4 14 5 12 7 7 8 8 9 9 10 11 11 10 12 5 15
REMARK SMILES IDX 6 16 4 17 1 18 2 19 3 20 86 21 85 22 87 23 18 24 19 25 20 26
REMARK SMILES IDX 21 28 22 29 23 30 84 31 24 32 83 33 25 34 26 35 27 36 77 37
REMARK SMILES IDX 28 38 82 39 76 40 78 41 29 42 81 43 75 44 74 45 30 47 62 48
REMARK SMILES IDX 42 49 61 50 43 51 46 52 60 53 79 54 44 55 45 56 59 58 80 59
REMARK SMILES IDX 47 60 31 61 32 62 40 63 33 64 34 65 38 66 41 67 35 68 36 69
REMARK SMILES IDX 39 70 37 71 63 72 64 73 72 74 65 75 66 76 70 77 73 78 67 79
REMARK SMILES IDX 68 80 71 81 69 82 48 83 49 84 57 85 50 86 51 87 55 88 58 89
REMARK SMILES IDX 52 90 53 91 56 92 54 93
REMARK H PARENT 15 6 10 13 10 14 19 27 78 46 46 57
REMARK Flexibility Score: inf
ROOT
ATOM      1  C   UNL A   1      31.877  31.627  26.578  1.00  0.00     0.042 C 
ENDROOT
BRANCH   1   2
ATOM      2  C   UNL A   1      32.108  30.139  26.464  1.00  0.00     0.117 C 
BRANCH   2   3
ATOM      3  N   UNL A   1      33.052  29.879  25.407  1.00  0.00    -0.354 N 
ATOM      4  C   UNL A   1      33.082  28.882  24.485  1.00  0.00     0.248 C 
ATOM      5  O   UNL A   1      34.105  28.827  23.793  1.00  0.00    -0.272 OA
ATOM      6  H   UNL A   1      33.791  30.526  25.343  1.00  0.00     0.163 HD
BRANCH   4   7
ATOM      7  C   UNL A   1      31.869  27.984  24.131  1.00  0.00     0.230 C 
ATOM      8  N   UNL A   1      31.152  27.132  25.098  1.00  0.00    -0.315 N 
ATOM      9  C   UNL A   1      30.141  26.297  24.450  1.00  0.00     0.182 C 
ATOM     10  C   UNL A   1      29.087  27.165  23.756  1.00  0.00     0.282 C 
ATOM     11  C   UNL A   1      30.780  28.904  23.486  1.00  0.00     0.296 C 
ATOM     12  N   UNL A   1      29.661  28.173  22.844  1.00  0.00    -0.343 N 
ATOM     13  H   UNL A   1      28.933  28.840  22.584  1.00  0.00     0.346 HD
ATOM     14  H   UNL A   1      30.019  27.693  22.018  1.00  0.00     0.346 HD
BRANCH   8  15
ATOM     15  C   UNL A   1      31.713  26.613  26.249  1.00  0.00     0.265 C 
ATOM     16  O   UNL A   1      31.442  27.051  27.362  1.00  0.00    -0.268 OA
BRANCH  15  17
ATOM     17  C   UNL A   1      32.474  25.379  25.994  1.00  0.00     0.093 A 
ATOM     18  C   UNL A   1      33.611  22.242  27.659  1.00  0.00     0.046 C 
ATOM     19  C   UNL A   1      33.464  23.359  26.671  1.00  0.00    -0.025 A 
ATOM     20  C   UNL A   1      32.241  24.108  26.515  1.00  0.00     0.030 A 
ATOM     21  C   UNL A   1      34.471  23.965  25.948  1.00  0.00     0.074 A 
ATOM     22  S   UNL A   1      33.991  25.418  25.198  1.00  0.00    -0.123 S 
ATOM     23  Br  UNL A   1      36.262  23.395  25.938  1.00  0.00    -0.039 Br
ENDBRANCH  15  17
ENDBRANCH   8  15
ENDBRANCH   4   7
ENDBRANCH   2   3
ENDBRANCH   1   2
BRANCH   1  24
ATOM     24  C   UNL A   1      32.844  32.345  27.465  1.00  0.00     0.118 C 
BRANCH  24  25
ATOM     25  N   UNL A   1      32.555  33.784  27.636  1.00  0.00    -0.352 N 
ATOM     26  C   UNL A   1      33.055  34.651  28.617  1.00  0.00     0.251 C 
ATOM     27  H   UNL A   1      31.937  34.181  26.981  1.00  0.00     0.163 HD
ATOM     28  O   UNL A   1      32.561  35.732  28.834  1.00  0.00    -0.269 OA
BRANCH  26  29
ATOM     29  C   UNL A   1      34.253  34.184  29.350  1.00  0.00     0.039 A 
ATOM     30  C   UNL A   1      34.261  33.236  30.377  1.00  0.00     0.014 A 
ATOM     31  C   UNL A   1      35.429  34.584  28.763  1.00  0.00     0.014 A 
ATOM     32  C   UNL A   1      35.486  32.639  30.694  1.00  0.00     0.010 A 
ATOM     33  C   UNL A   1      36.380  33.629  28.702  1.00  0.00     0.010 A 
ATOM     34  C   UNL A   1      36.556  32.841  29.813  1.00  0.00    -0.014 A 
BRANCH  34  35
ATOM     35  C   UNL A   1      37.863  32.204  29.849  1.00  0.00     0.031 A 
ATOM     36  C   UNL A   1      37.851  30.841  29.282  1.00  0.00     0.074 A 
ATOM     37  C   UNL A   1      38.992  32.932  30.071  1.00  0.00     0.049 A 
ATOM     38  N   UNL A   1      37.883  29.732  29.938  1.00  0.00    -0.248 NA
ATOM     39  C   UNL A   1      37.557  30.671  27.848  1.00  0.00     0.031 C 
ATOM     40  C   UNL A   1      39.112  34.391  30.299  1.00  0.00     0.029 A 
ATOM     41  N   UNL A   1      40.301  32.556  30.018  1.00  0.00    -0.354 N 
ATOM     42  C   UNL A   1      37.931  28.737  28.968  1.00  0.00     0.074 A 
ATOM     43  C   UNL A   1      37.443  29.342  27.761  1.00  0.00     0.031 C 
ATOM     44  C   UNL A   1      40.384  34.797  30.109  1.00  0.00     0.029 A 
ATOM     45  C   UNL A   1      41.209  33.618  29.978  1.00  0.00     0.049 A 
ATOM     46  H   UNL A   1      40.584  31.613  30.009  1.00  0.00     0.167 HD
ATOM     47  C   UNL A   1      38.735  27.653  29.164  1.00  0.00     0.037 A 
ATOM     48  C   UNL A   1      42.560  33.535  29.887  1.00  0.00     0.037 A 
ATOM     49  C   UNL A   1      39.217  27.651  30.529  1.00  0.00     0.049 A 
ATOM     50  C   UNL A   1      42.922  32.172  30.333  1.00  0.00     0.074 A 
ATOM     51  C   UNL A   1      38.672  27.455  31.778  1.00  0.00     0.029 A 
ATOM     52  N   UNL A   1      40.380  28.361  30.695  1.00  0.00    -0.354 N 
ATOM     53  N   UNL A   1      42.750  31.754  31.558  1.00  0.00    -0.248 NA
ATOM     54  C   UNL A   1      43.073  31.126  29.332  1.00  0.00     0.031 C 
ATOM     55  C   UNL A   1      39.452  28.248  32.675  1.00  0.00     0.029 A 
ATOM     56  C   UNL A   1      40.496  28.844  31.967  1.00  0.00     0.049 A 
ATOM     57  H   UNL A   1      41.048  28.504  29.985  1.00  0.00     0.167 HD
ATOM     58  C   UNL A   1      42.331  30.444  31.419  1.00  0.00     0.074 A 
ATOM     59  C   UNL A   1      42.717  30.064  30.062  1.00  0.00     0.031 C 
ATOM     60  C   UNL A   1      41.416  29.917  32.286  1.00  0.00     0.037 A 
BRANCH  47  61
ATOM     61  C   UNL A   1      39.527  26.927  28.089  1.00  0.00     0.064 A 
ATOM     62  C   UNL A   1      39.546  25.514  28.120  1.00  0.00     0.173 A 
ATOM     63  C   UNL A   1      40.503  27.519  27.259  1.00  0.00     0.173 A 
ATOM     64  F   UNL A   1      38.667  24.836  28.873  1.00  0.00    -0.203 F 
ATOM     65  C   UNL A   1      40.524  24.767  27.457  1.00  0.00     0.198 A 
ATOM     66  C   UNL A   1      41.449  26.767  26.562  1.00  0.00     0.198 A 
ATOM     67  F   UNL A   1      40.664  28.841  27.163  1.00  0.00    -0.203 F 
ATOM     68  F   UNL A   1      40.576  23.439  27.625  1.00  0.00    -0.200 F 
ATOM     69  C   UNL A   1      41.483  25.396  26.686  1.00  0.00     0.200 A 
ATOM     70  F   UNL A   1      42.383  27.399  25.835  1.00  0.00    -0.200 F 
ATOM     71  F   UNL A   1      42.461  24.692  26.104  1.00  0.00    -0.200 F 
ENDBRANCH  47  61
BRANCH  48  72
ATOM     72  C   UNL A   1      43.527  34.455  29.246  1.00  0.00     0.064 A 
ATOM     73  C   UNL A   1      43.858  34.344  27.886  1.00  0.00     0.173 A 
ATOM     74  C   UNL A   1      43.918  35.645  29.890  1.00  0.00     0.173 A 
ATOM     75  F   UNL A   1      43.493  33.258  27.191  1.00  0.00    -0.203 F 
ATOM     76  C   UNL A   1      44.506  35.379  27.199  1.00  0.00     0.198 A 
ATOM     77  C   UNL A   1      44.563  36.678  29.205  1.00  0.00     0.198 A 
ATOM     78  F   UNL A   1      43.591  35.865  31.172  1.00  0.00    -0.203 F 
ATOM     79  F   UNL A   1      44.748  35.263  25.886  1.00  0.00    -0.200 F 
ATOM     80  C   UNL A   1      44.843  36.551  27.856  1.00  0.00     0.200 A 
ATOM     81  F   UNL A   1      44.849  37.823  29.842  1.00  0.00    -0.200 F 
ATOM     82  F   UNL A   1      45.399  37.569  27.185  1.00  0.00    -0.200 F 
ENDBRANCH  48  72
BRANCH  60  83
ATOM     83  C   UNL A   1      41.259  30.593  33.617  1.00  0.00     0.064 A 
ATOM     84  C   UNL A   1      40.297  31.573  33.914  1.00  0.00     0.173 A 
ATOM     85  C   UNL A   1      42.074  30.153  34.666  1.00  0.00     0.173 A 
ATOM     86  F   UNL A   1      39.430  31.994  32.989  1.00  0.00    -0.203 F 
ATOM     87  C   UNL A   1      40.184  32.109  35.197  1.00  0.00     0.198 A 
ATOM     88  C   UNL A   1      41.936  30.663  35.954  1.00  0.00     0.198 A 
ATOM     89  F   UNL A   1      42.982  29.188  34.450  1.00  0.00    -0.203 F 
ATOM     90  F   UNL A   1      39.268  33.055  35.453  1.00  0.00    -0.200 F 
ATOM     91  C   UNL A   1      41.000  31.648  36.217  1.00  0.00     0.200 A 
ATOM     92  F   UNL A   1      42.699  30.180  36.943  1.00  0.00    -0.200 F 
ATOM     93  F   UNL A   1      40.871  32.139  37.457  1.00  0.00    -0.200 F 
ENDBRANCH  60  83
ENDBRANCH  34  35
ENDBRANCH  26  29
ENDBRANCH  24  25
ENDBRANCH   1  24
TORSDOF 12
ENDMDL
MODEL 3
REMARK VINA RESULT:     -12.7      4.965      9.750
REMARK SMILES Cc1cc(C(=O)N2CC[NH2+]C[C@H]2C(=O)NCCCNC(=O)c2ccc(-c3c4nc(c(-c5c(F)c(F)c(F)c(F)c5F)c5ccc([nH]5)c(-c5c(F)c(F)c(F)c(F)c5F)c5nc(c(-c6c(F)c(F)c(F)c(F)c6F)c6ccc3[nH]6)C=C5)C=C4)cc2)sc1Br
REMARK SMILES IDX 17 1 16 2 15 3 13 4 14 5 12 7 7 8 8 9 9 10 11 11 10 12 5 15
REMARK SMILES IDX 6 16 4 17 1 18 2 19 3 20 86 21 85 22 87 23 18 24 19 25 20 26
REMARK SMILES IDX 21 28 22 29 23 30 84 31 24 32 83 33 25 34 26 35 27 36 77 37
REMARK SMILES IDX 28 38 82 39 76 40 78 41 29 42 81 43 75 44 74 45 30 47 62 48
REMARK SMILES IDX 42 49 61 50 43 51 46 52 60 53 79 54 44 55 45 56 59 58 80 59
REMARK SMILES IDX 47 60 31 61 32 62 40 63 33 64 34 65 38 66 41 67 35 68 36 69
REMARK SMILES IDX 39 70 37 71 63 72 64 73 72 74 65 75 66 76 70 77 73 78 67 79
REMARK SMILES IDX 68 80 71 81 69 82 48 83 49 84 57 85 50 86 51 87 55 88 58 89
REMARK SMILES IDX 52 90 53 91 56 92 54 93
REMARK H PARENT 15 6 10 13 10 14 19 27 78 46 46 57
REMARK Flexibility Score: inf
ROOT
ATOM      1  C   UNL A   1      34.063  30.487  27.256  1.00  0.00     0.042 C 
ENDROOT
BRANCH   1   2
ATOM      2  C   UNL A   1      33.662  31.712  28.043  1.00  0.00     0.117 C 
BRANCH   2   3
ATOM      3  N   UNL A   1      34.466  32.834  27.630  1.00  0.00    -0.354 N 
ATOM      4  C   UNL A   1      34.402  34.140  27.997  1.00  0.00     0.248 C 
ATOM      5  O   UNL A   1      35.129  34.910  27.357  1.00  0.00    -0.272 OA
ATOM      6  H   UNL A   1      35.172  32.620  26.979  1.00  0.00     0.163 HD
BRANCH   4   7
ATOM      7  C   UNL A   1      33.659  34.658  29.255  1.00  0.00     0.230 C 
ATOM      8  N   UNL A   1      34.117  34.446  30.641  1.00  0.00    -0.315 N 
ATOM      9  C   UNL A   1      33.145  34.927  31.621  1.00  0.00     0.182 C 
ATOM     10  C   UNL A   1      32.911  36.432  31.456  1.00  0.00     0.282 C 
ATOM     11  C   UNL A   1      33.491  36.205  29.094  1.00  0.00     0.296 C 
ATOM     12  N   UNL A   1      32.569  36.828  30.075  1.00  0.00    -0.343 N 
ATOM     13  H   UNL A   1      32.634  37.843  29.994  1.00  0.00     0.346 HD
ATOM     14  H   UNL A   1      31.621  36.511  29.874  1.00  0.00     0.346 HD
BRANCH   8  15
ATOM     15  C   UNL A   1      34.911  33.391  31.049  1.00  0.00     0.265 C 
ATOM     16  O   UNL A   1      34.453  32.271  31.250  1.00  0.00    -0.268 OA
BRANCH  15  17
ATOM     17  C   UNL A   1      36.345  33.717  30.999  1.00  0.00     0.093 A 
ATOM     18  C   UNL A   1      39.669  32.199  30.254  1.00  0.00     0.046 C 
ATOM     19  C   UNL A   1      38.608  33.146  30.726  1.00  0.00    -0.025 A 
ATOM     20  C   UNL A   1      37.303  33.224  30.115  1.00  0.00     0.030 A 
ATOM     21  C   UNL A   1      38.619  33.894  31.886  1.00  0.00     0.074 A 
ATOM     22  S   UNL A   1      37.107  34.578  32.270  1.00  0.00    -0.123 S 
ATOM     23  Br  UNL A   1      40.078  34.000  33.066  1.00  0.00    -0.039 Br
ENDBRANCH  15  17
ENDBRANCH   8  15
ENDBRANCH   4   7
ENDBRANCH   2   3
ENDBRANCH   1   2
BRANCH   1  24
ATOM     24  C   UNL A   1      35.248  29.755  27.800  1.00  0.00     0.118 C 
BRANCH  24  25
ATOM     25  N   UNL A   1      35.531  30.033  29.223  1.00  0.00    -0.352 N 
ATOM     26  C   UNL A   1      36.592  29.547  30.001  1.00  0.00     0.251 C 
ATOM     27  H   UNL A   1      34.897  30.631  29.680  1.00  0.00     0.163 HD
ATOM     28  O   UNL A   1      36.590  29.615  31.206  1.00  0.00    -0.269 OA
BRANCH  26  29
ATOM     29  C   UNL A   1      37.739  28.981  29.256  1.00  0.00     0.039 A 
ATOM     30  C   UNL A   1      38.367  29.572  28.156  1.00  0.00     0.014 A 
ATOM     31  C   UNL A   1      38.318  27.912  29.897  1.00  0.00     0.014 A 
ATOM     32  C   UNL A   1      39.643  29.109  27.816  1.00  0.00     0.010 A 
ATOM     33  C   UNL A   1      39.666  27.921  29.899  1.00  0.00     0.010 A 
ATOM     34  C   UNL A   1      40.298  28.275  28.731  1.00  0.00    -0.014 A 
BRANCH  34  35
ATOM     35  C   UNL A   1      41.671  27.801  28.669  1.00  0.00     0.031 A 
ATOM     36  C   UNL A   1      41.809  26.544  27.907  1.00  0.00     0.074 A 
ATOM     37  C   UNL A   1      42.711  28.619  28.991  1.00  0.00     0.049 A 
ATOM     38  N   UNL A   1      41.985  25.363  28.394  1.00  0.00    -0.248 NA
ATOM     39  C   UNL A   1      41.506  26.550  26.466  1.00  0.00     0.031 C 
ATOM     40  C   UNL A   1      42.662  30.033  29.430  1.00  0.00     0.029 A 
ATOM     41  N   UNL A   1      44.054  28.415  28.878  1.00  0.00    -0.354 N 
ATOM     42  C   UNL A   1      42.131  24.533  27.287  1.00  0.00     0.074 A 
ATOM     43  C   UNL A   1      41.548  25.244  26.185  1.00  0.00     0.031 C 
ATOM     44  C   UNL A   1      43.873  30.613  29.297  1.00  0.00     0.029 A 
ATOM     45  C   UNL A   1      44.829  29.573  28.991  1.00  0.00     0.049 A 
ATOM     46  H   UNL A   1      44.446  27.524  28.729  1.00  0.00     0.167 HD
ATOM     47  C   UNL A   1      43.061  23.536  27.319  1.00  0.00     0.037 A 
ATOM     48  C   UNL A   1      46.178  29.667  28.883  1.00  0.00     0.037 A 
ATOM     49  C   UNL A   1      43.569  23.394  28.667  1.00  0.00     0.049 A 
ATOM     50  C   UNL A   1      46.708  28.307  29.123  1.00  0.00     0.074 A 
ATOM     51  C   UNL A   1      43.079  22.954  29.876  1.00  0.00     0.029 A 
ATOM     52  N   UNL A   1      44.643  24.207  28.931  1.00  0.00    -0.354 N 
ATOM     53  N   UNL A   1      46.613  27.698  30.274  1.00  0.00    -0.248 NA
ATOM     54  C   UNL A   1      46.960  27.443  27.978  1.00  0.00     0.031 C 
ATOM     55  C   UNL A   1      43.778  23.696  30.877  1.00  0.00     0.029 A 
ATOM     56  C   UNL A   1      44.729  24.510  30.260  1.00  0.00     0.049 A 
ATOM     57  H   UNL A   1      45.274  24.531  28.247  1.00  0.00     0.167 HD
ATOM     58  C   UNL A   1      46.349  26.381  29.945  1.00  0.00     0.074 A 
ATOM     59  C   UNL A   1      46.748  26.252  28.546  1.00  0.00     0.031 C 
ATOM     60  C   UNL A   1      45.522  25.627  30.729  1.00  0.00     0.037 A 
BRANCH  47  61
ATOM     61  C   UNL A   1      43.910  23.074  26.146  1.00  0.00     0.064 A 
ATOM     62  C   UNL A   1      43.911  21.697  25.829  1.00  0.00     0.173 A 
ATOM     63  C   UNL A   1      44.942  23.826  25.544  1.00  0.00     0.173 A 
ATOM     64  F   UNL A   1      42.979  20.878  26.342  1.00  0.00    -0.203 F 
ATOM     65  C   UNL A   1      44.920  21.110  25.061  1.00  0.00     0.198 A 
ATOM     66  C   UNL A   1      45.921  23.243  24.739  1.00  0.00     0.198 A 
ATOM     67  F   UNL A   1      45.124  25.126  25.786  1.00  0.00    -0.203 F 
ATOM     68  F   UNL A   1      44.946  19.780  24.900  1.00  0.00    -0.200 F 
ATOM     69  C   UNL A   1      45.932  21.882  24.525  1.00  0.00     0.200 A 
ATOM     70  F   UNL A   1      46.906  24.008  24.245  1.00  0.00    -0.200 F 
ATOM     71  F   UNL A   1      46.937  21.316  23.845  1.00  0.00    -0.200 F 
ENDBRANCH  47  61
BRANCH  48  72
ATOM     72  C   UNL A   1      47.015  30.780  28.381  1.00  0.00     0.064 A 
ATOM     73  C   UNL A   1      46.700  31.460  27.194  1.00  0.00     0.173 A 
ATOM     74  C   UNL A   1      47.973  31.389  29.215  1.00  0.00     0.173 A 
ATOM     75  F   UNL A   1      45.774  30.966  26.360  1.00  0.00    -0.203 F 
ATOM     76  C   UNL A   1      47.278  32.696  26.877  1.00  0.00     0.198 A 
ATOM     77  C   UNL A   1      48.549  32.622  28.901  1.00  0.00     0.198 A 
ATOM     78  F   UNL A   1      48.291  30.842  30.398  1.00  0.00    -0.203 F 
ATOM     79  F   UNL A   1      46.905  33.346  25.767  1.00  0.00    -0.200 F 
ATOM     80  C   UNL A   1      48.190  33.283  27.740  1.00  0.00     0.200 A 
ATOM     81  F   UNL A   1      49.400  33.199  29.761  1.00  0.00    -0.200 F 
ATOM     82  F   UNL A   1      48.690  34.497  27.474  1.00  0.00    -0.200 F 
ENDBRANCH  48  72
BRANCH  60  83
ATOM     83  C   UNL A   1      45.315  26.080  32.146  1.00  0.00     0.064 A 
ATOM     84  C   UNL A   1      44.191  26.784  32.611  1.00  0.00     0.173 A 
ATOM     85  C   UNL A   1      46.269  25.694  33.094  1.00  0.00     0.173 A 
ATOM     86  F   UNL A   1      43.197  27.123  31.785  1.00  0.00    -0.203 F 
ATOM     87  C   UNL A   1      44.053  27.116  33.958  1.00  0.00     0.198 A 
ATOM     88  C   UNL A   1      46.113  25.995  34.444  1.00  0.00     0.198 A 
ATOM     89  F   UNL A   1      47.342  24.982  32.714  1.00  0.00    -0.203 F 
ATOM     90  F   UNL A   1      42.979  27.802  34.376  1.00  0.00    -0.200 F 
ATOM     91  C   UNL A   1      45.012  26.715  34.874  1.00  0.00     0.200 A 
ATOM     92  F   UNL A   1      47.022  25.565  35.328  1.00  0.00    -0.200 F 
ATOM     93  F   UNL A   1      44.865  27.004  36.175  1.00  0.00    -0.200 F 
ENDBRANCH  60  83
ENDBRANCH  34  35
ENDBRANCH  26  29
ENDBRANCH  24  25
ENDBRANCH   1  24
TORSDOF 12
ENDMDL
