MODEL 1
REMARK VINA RESULT:     -11.3      0.000      0.000
REMARK SMILES CS(=O)(=O)c1cc(F)ccc1N1CCC[C@@H](C(=O)NCCCNC(=O)c2ccc(-c3c4nc(c(-c5c(F)c(F)c(F)c(F)c5F)c5ccc([nH]5)c(-c5c(F)c(F)c(F)c(F)c5F)c5nc(c(-c6c(F)c(F)c(F)c(F)c6F)c6ccc3[nH]6)C=C5)C=C4)cc2)C1
REMARK SMILES IDX 21 1 20 2 19 3 17 4 18 5 16 7 12 8 13 9 89 10 14 11 15 12
REMARK SMILES IDX 11 13 5 14 6 15 7 16 10 17 8 18 9 19 2 20 1 21 3 22 4 23
REMARK SMILES IDX 22 24 23 25 24 26 25 28 26 29 27 30 88 31 28 32 87 33 29 34
REMARK SMILES IDX 30 35 31 36 81 37 32 38 86 39 80 40 82 41 33 42 85 43 79 44
REMARK SMILES IDX 78 45 34 47 66 48 46 49 65 50 47 51 50 52 64 53 83 54 48 55
REMARK SMILES IDX 49 56 63 58 84 59 51 60 35 61 36 62 44 63 37 64 38 65 42 66
REMARK SMILES IDX 45 67 39 68 40 69 43 70 41 71 67 72 68 73 76 74 69 75 70 76
REMARK SMILES IDX 74 77 77 78 71 79 72 80 75 81 73 82 52 83 53 84 61 85 54 86
REMARK SMILES IDX 55 87 59 88 62 89 56 90 57 91 60 92 58 93
REMARK H PARENT 19 6 23 27 82 46 50 57
REMARK Flexibility Score: inf
ROOT
ATOM      1  C   UNL A   1      34.078  33.846  28.906  1.00  0.00     0.042 C 
ENDROOT
BRANCH   1   2
ATOM      2  C   UNL A   1      34.765  34.299  30.191  1.00  0.00     0.117 C 
BRANCH   2   3
ATOM      3  N   UNL A   1      33.947  34.015  31.356  1.00  0.00    -0.356 N 
ATOM      4  C   UNL A   1      34.265  33.328  32.491  1.00  0.00     0.224 C 
ATOM      5  O   UNL A   1      33.357  33.065  33.278  1.00  0.00    -0.275 OA
ATOM      6  H   UNL A   1      33.029  34.369  31.322  1.00  0.00     0.163 HD
BRANCH   4   7
ATOM      7  C   UNL A   1      35.722  33.011  32.785  1.00  0.00     0.098 C 
ATOM      8  N   UNL A   1      37.234  32.809  34.735  1.00  0.00    -0.370 N 
ATOM      9  C   UNL A   1      37.676  31.459  34.378  1.00  0.00     0.116 C 
ATOM     10  C   UNL A   1      35.912  33.233  34.285  1.00  0.00     0.130 C 
ATOM     11  C   UNL A   1      37.493  31.218  32.877  1.00  0.00     0.022 C 
ATOM     12  C   UNL A   1      36.073  31.562  32.422  1.00  0.00     0.017 C 
BRANCH   8  13
ATOM     13  C   UNL A   1      38.151  33.727  35.202  1.00  0.00     0.056 A 
ATOM     14  C   UNL A   1      38.424  33.952  36.565  1.00  0.00     0.093 A 
ATOM     15  C   UNL A   1      39.360  34.924  36.963  1.00  0.00     0.061 A 
ATOM     16  C   UNL A   1      40.042  35.658  36.006  1.00  0.00     0.124 A 
ATOM     17  C   UNL A   1      38.877  34.490  34.263  1.00  0.00     0.030 A 
ATOM     18  F   UNL A   1      40.942  36.573  36.390  1.00  0.00    -0.207 F 
ATOM     19  C   UNL A   1      39.817  35.444  34.657  1.00  0.00     0.041 A 
BRANCH  14  20
ATOM     20  S   UNL A   1      37.730  32.945  37.865  1.00  0.00     0.177 S 
ATOM     21  C   UNL A   1      38.306  33.626  39.393  1.00  0.00     0.164 C 
ATOM     22  O   UNL A   1      38.355  31.636  37.759  1.00  0.00    -0.224 OA
ATOM     23  O   UNL A   1      36.285  33.056  37.810  1.00  0.00    -0.224 OA
ENDBRANCH  14  20
ENDBRANCH   8  13
ENDBRANCH   4   7
ENDBRANCH   2   3
ENDBRANCH   1   2
BRANCH   1  24
ATOM     24  C   UNL A   1      34.876  32.815  28.108  1.00  0.00     0.118 C 
BRANCH  24  25
ATOM     25  N   UNL A   1      34.124  31.595  27.861  1.00  0.00    -0.352 N 
ATOM     26  C   UNL A   1      34.558  30.295  27.791  1.00  0.00     0.251 C 
ATOM     27  H   UNL A   1      33.157  31.719  27.723  1.00  0.00     0.163 HD
ATOM     28  O   UNL A   1      33.785  29.417  27.419  1.00  0.00    -0.269 OA
BRANCH  26  29
ATOM     29  C   UNL A   1      35.951  29.942  28.142  1.00  0.00     0.039 A 
ATOM     30  C   UNL A   1      36.213  29.460  29.429  1.00  0.00     0.014 A 
ATOM     31  C   UNL A   1      37.002  30.130  27.240  1.00  0.00     0.014 A 
ATOM     32  C   UNL A   1      37.517  29.122  29.796  1.00  0.00     0.010 A 
ATOM     33  C   UNL A   1      38.297  29.747  27.589  1.00  0.00     0.010 A 
ATOM     34  C   UNL A   1      38.566  29.245  28.871  1.00  0.00    -0.014 A 
BRANCH  34  35
ATOM     35  C   UNL A   1      39.955  28.873  29.237  1.00  0.00     0.031 A 
ATOM     36  C   UNL A   1      40.776  29.785  30.102  1.00  0.00     0.074 A 
ATOM     37  C   UNL A   1      40.493  27.739  28.750  1.00  0.00     0.049 A 
ATOM     38  N   UNL A   1      42.032  29.681  30.457  1.00  0.00    -0.248 NA
ATOM     39  C   UNL A   1      40.101  30.984  30.623  1.00  0.00     0.031 C 
ATOM     40  C   UNL A   1      39.806  26.783  27.881  1.00  0.00     0.029 A 
ATOM     41  N   UNL A   1      41.746  27.201  28.914  1.00  0.00    -0.354 N 
ATOM     42  C   UNL A   1      42.303  30.808  31.219  1.00  0.00     0.074 A 
ATOM     43  C   UNL A   1      41.091  31.598  31.255  1.00  0.00     0.031 C 
ATOM     44  C   UNL A   1      40.639  25.765  27.606  1.00  0.00     0.029 A 
ATOM     45  C   UNL A   1      41.924  26.012  28.253  1.00  0.00     0.049 A 
ATOM     46  H   UNL A   1      42.448  27.630  29.455  1.00  0.00     0.167 HD
ATOM     47  C   UNL A   1      43.456  31.147  31.844  1.00  0.00     0.037 A 
ATOM     48  C   UNL A   1      43.004  25.212  28.177  1.00  0.00     0.037 A 
ATOM     49  C   UNL A   1      44.650  30.345  31.838  1.00  0.00     0.049 A 
ATOM     50  C   UNL A   1      44.262  25.594  28.907  1.00  0.00     0.074 A 
ATOM     51  C   UNL A   1      45.862  30.596  32.459  1.00  0.00     0.029 A 
ATOM     52  N   UNL A   1      44.778  29.127  31.188  1.00  0.00    -0.354 N 
ATOM     53  N   UNL A   1      44.503  26.657  29.632  1.00  0.00    -0.248 NA
ATOM     54  C   UNL A   1      45.396  24.663  28.809  1.00  0.00     0.031 C 
ATOM     55  C   UNL A   1      46.729  29.537  32.170  1.00  0.00     0.029 A 
ATOM     56  C   UNL A   1      46.047  28.613  31.396  1.00  0.00     0.049 A 
ATOM     57  H   UNL A   1      44.072  28.693  30.657  1.00  0.00     0.167 HD
ATOM     58  C   UNL A   1      45.802  26.513  30.099  1.00  0.00     0.074 A 
ATOM     59  C   UNL A   1      46.299  25.258  29.577  1.00  0.00     0.031 C 
ATOM     60  C   UNL A   1      46.517  27.351  30.887  1.00  0.00     0.037 A 
BRANCH  47  61
ATOM     61  C   UNL A   1      43.481  32.443  32.595  1.00  0.00     0.064 A 
ATOM     62  C   UNL A   1      43.116  32.488  33.948  1.00  0.00     0.173 A 
ATOM     63  C   UNL A   1      43.820  33.648  31.963  1.00  0.00     0.173 A 
ATOM     64  F   UNL A   1      42.779  31.363  34.596  1.00  0.00    -0.203 F 
ATOM     65  C   UNL A   1      43.085  33.696  34.641  1.00  0.00     0.198 A 
ATOM     66  C   UNL A   1      43.811  34.850  32.664  1.00  0.00     0.198 A 
ATOM     67  F   UNL A   1      44.190  33.652  30.673  1.00  0.00    -0.203 F 
ATOM     68  F   UNL A   1      42.716  33.720  35.928  1.00  0.00    -0.200 F 
ATOM     69  C   UNL A   1      43.438  34.874  33.999  1.00  0.00     0.200 A 
ATOM     70  F   UNL A   1      44.174  35.985  32.049  1.00  0.00    -0.200 F 
ATOM     71  F   UNL A   1      43.421  36.034  34.671  1.00  0.00    -0.200 F 
ENDBRANCH  47  61
BRANCH  48  72
ATOM     72  C   UNL A   1      42.921  23.943  27.413  1.00  0.00     0.064 A 
ATOM     73  C   UNL A   1      42.528  22.745  28.025  1.00  0.00     0.173 A 
ATOM     74  C   UNL A   1      43.268  23.905  26.056  1.00  0.00     0.173 A 
ATOM     75  F   UNL A   1      42.193  22.732  29.323  1.00  0.00    -0.203 F 
ATOM     76  C   UNL A   1      42.495  21.551  27.308  1.00  0.00     0.198 A 
ATOM     77  C   UNL A   1      43.216  22.715  25.336  1.00  0.00     0.198 A 
ATOM     78  F   UNL A   1      43.632  25.031  25.427  1.00  0.00    -0.203 F 
ATOM     79  F   UNL A   1      42.140  20.413  27.919  1.00  0.00    -0.200 F 
ATOM     80  C   UNL A   1      42.837  21.538  25.963  1.00  0.00     0.200 A 
ATOM     81  F   UNL A   1      43.529  22.709  24.032  1.00  0.00    -0.200 F 
ATOM     82  F   UNL A   1      42.798  20.390  25.272  1.00  0.00    -0.200 F 
ENDBRANCH  48  72
BRANCH  60  83
ATOM     83  C   UNL A   1      47.900  26.926  31.273  1.00  0.00     0.064 A 
ATOM     84  C   UNL A   1      49.003  27.328  30.505  1.00  0.00     0.173 A 
ATOM     85  C   UNL A   1      48.126  26.065  32.355  1.00  0.00     0.173 A 
ATOM     86  F   UNL A   1      48.834  28.149  29.458  1.00  0.00    -0.203 F 
ATOM     87  C   UNL A   1      50.285  26.875  30.804  1.00  0.00     0.198 A 
ATOM     88  C   UNL A   1      49.412  25.627  32.661  1.00  0.00     0.198 A 
ATOM     89  F   UNL A   1      47.102  25.664  33.123  1.00  0.00    -0.203 F 
ATOM     90  F   UNL A   1      51.322  27.254  30.044  1.00  0.00    -0.200 F 
ATOM     91  C   UNL A   1      50.488  26.026  31.881  1.00  0.00     0.200 A 
ATOM     92  F   UNL A   1      49.610  24.821  33.714  1.00  0.00    -0.200 F 
ATOM     93  F   UNL A   1      51.723  25.594  32.171  1.00  0.00    -0.200 F 
ENDBRANCH  60  83
ENDBRANCH  34  35
ENDBRANCH  26  29
ENDBRANCH  24  25
ENDBRANCH   1  24
TORSDOF 12
ENDMDL
MODEL 2
REMARK VINA RESULT:     -11.3      4.652      8.330
REMARK SMILES CS(=O)(=O)c1cc(F)ccc1N1CCC[C@@H](C(=O)NCCCNC(=O)c2ccc(-c3c4nc(c(-c5c(F)c(F)c(F)c(F)c5F)c5ccc([nH]5)c(-c5c(F)c(F)c(F)c(F)c5F)c5nc(c(-c6c(F)c(F)c(F)c(F)c6F)c6ccc3[nH]6)C=C5)C=C4)cc2)C1
REMARK SMILES IDX 21 1 20 2 19 3 17 4 18 5 16 7 12 8 13 9 89 10 14 11 15 12
REMARK SMILES IDX 11 13 5 14 6 15 7 16 10 17 8 18 9 19 2 20 1 21 3 22 4 23
REMARK SMILES IDX 22 24 23 25 24 26 25 28 26 29 27 30 88 31 28 32 87 33 29 34
REMARK SMILES IDX 30 35 31 36 81 37 32 38 86 39 80 40 82 41 33 42 85 43 79 44
REMARK SMILES IDX 78 45 34 47 66 48 46 49 65 50 47 51 50 52 64 53 83 54 48 55
REMARK SMILES IDX 49 56 63 58 84 59 51 60 35 61 36 62 44 63 37 64 38 65 42 66
REMARK SMILES IDX 45 67 39 68 40 69 43 70 41 71 67 72 68 73 76 74 69 75 70 76
REMARK SMILES IDX 74 77 77 78 71 79 72 80 75 81 73 82 52 83 53 84 61 85 54 86
REMARK SMILES IDX 55 87 59 88 62 89 56 90 57 91 60 92 58 93
REMARK H PARENT 19 6 23 27 82 46 50 57
REMARK Flexibility Score: inf
ROOT
ATOM      1  C   UNL A   1      32.263  27.661  27.047  1.00  0.00     0.042 C 
ENDROOT
BRANCH   1   2
ATOM      2  C   UNL A   1      32.103  26.415  26.181  1.00  0.00     0.117 C 
BRANCH   2   3
ATOM      3  N   UNL A   1      31.432  25.351  26.905  1.00  0.00    -0.356 N 
ATOM      4  C   UNL A   1      31.230  24.051  26.544  1.00  0.00     0.224 C 
ATOM      5  O   UNL A   1      30.484  23.368  27.244  1.00  0.00    -0.275 OA
ATOM      6  H   UNL A   1      31.070  25.604  27.785  1.00  0.00     0.163 HD
BRANCH   4   7
ATOM      7  C   UNL A   1      32.003  23.477  25.368  1.00  0.00     0.098 C 
ATOM      8  N   UNL A   1      32.861  21.292  24.584  1.00  0.00    -0.370 N 
ATOM      9  C   UNL A   1      32.201  21.388  23.280  1.00  0.00     0.116 C 
ATOM     10  C   UNL A   1      32.262  22.009  25.704  1.00  0.00     0.130 C 
ATOM     11  C   UNL A   1      31.934  22.854  22.926  1.00  0.00     0.022 C 
ATOM     12  C   UNL A   1      31.209  23.582  24.059  1.00  0.00     0.017 C 
BRANCH   8  13
ATOM     13  C   UNL A   1      34.149  20.802  24.663  1.00  0.00     0.056 A 
ATOM     14  C   UNL A   1      34.473  19.434  24.742  1.00  0.00     0.093 A 
ATOM     15  C   UNL A   1      35.812  19.014  24.843  1.00  0.00     0.061 A 
ATOM     16  C   UNL A   1      36.831  19.952  24.843  1.00  0.00     0.124 A 
ATOM     17  C   UNL A   1      35.219  21.720  24.656  1.00  0.00     0.030 A 
ATOM     18  F   UNL A   1      38.105  19.547  24.927  1.00  0.00    -0.207 F 
ATOM     19  C   UNL A   1      36.549  21.303  24.741  1.00  0.00     0.041 A 
BRANCH  14  20
ATOM     20  S   UNL A   1      33.250  18.143  24.576  1.00  0.00     0.177 S 
ATOM     21  C   UNL A   1      34.084  16.615  24.892  1.00  0.00     0.164 C 
ATOM     22  O   UNL A   1      32.874  18.102  23.171  1.00  0.00    -0.224 OA
ATOM     23  O   UNL A   1      32.229  18.345  25.586  1.00  0.00    -0.224 OA
ENDBRANCH  14  20
ENDBRANCH   8  13
ENDBRANCH   4   7
ENDBRANCH   2   3
ENDBRANCH   1   2
BRANCH   1  24
ATOM     24  C   UNL A   1      33.614  28.357  26.888  1.00  0.00     0.118 C 
BRANCH  24  25
ATOM     25  N   UNL A   1      33.526  29.798  27.064  1.00  0.00    -0.352 N 
ATOM     26  C   UNL A   1      34.387  30.660  27.696  1.00  0.00     0.251 C 
ATOM     27  H   UNL A   1      32.728  30.220  26.670  1.00  0.00     0.163 HD
ATOM     28  O   UNL A   1      34.055  31.828  27.870  1.00  0.00    -0.269 OA
BRANCH  26  29
ATOM     29  C   UNL A   1      35.702  30.193  28.186  1.00  0.00     0.039 A 
ATOM     30  C   UNL A   1      36.789  30.217  27.305  1.00  0.00     0.014 A 
ATOM     31  C   UNL A   1      35.862  29.685  29.479  1.00  0.00     0.014 A 
ATOM     32  C   UNL A   1      38.043  29.778  27.733  1.00  0.00     0.010 A 
ATOM     33  C   UNL A   1      37.125  29.293  29.922  1.00  0.00     0.010 A 
ATOM     34  C   UNL A   1      38.224  29.331  29.051  1.00  0.00    -0.014 A 
BRANCH  34  35
ATOM     35  C   UNL A   1      39.554  28.879  29.530  1.00  0.00     0.031 A 
ATOM     36  C   UNL A   1      40.311  29.698  30.534  1.00  0.00     0.074 A 
ATOM     37  C   UNL A   1      40.100  27.757  29.025  1.00  0.00     0.049 A 
ATOM     38  N   UNL A   1      41.520  29.520  31.007  1.00  0.00    -0.248 NA
ATOM     39  C   UNL A   1      39.629  30.888  31.064  1.00  0.00     0.031 C 
ATOM     40  C   UNL A   1      39.474  26.888  28.027  1.00  0.00     0.029 A 
ATOM     41  N   UNL A   1      41.309  27.158  29.278  1.00  0.00    -0.354 N 
ATOM     42  C   UNL A   1      41.749  30.583  31.867  1.00  0.00     0.074 A 
ATOM     43  C   UNL A   1      40.568  31.420  31.833  1.00  0.00     0.031 C 
ATOM     44  C   UNL A   1      40.295  25.856  27.770  1.00  0.00     0.029 A 
ATOM     45  C   UNL A   1      41.514  26.007  28.559  1.00  0.00     0.049 A 
ATOM     46  H   UNL A   1      41.966  27.521  29.915  1.00  0.00     0.167 HD
ATOM     47  C   UNL A   1      42.842  30.833  32.627  1.00  0.00     0.037 A 
ATOM     48  C   UNL A   1      42.568  25.169  28.539  1.00  0.00     0.037 A 
ATOM     49  C   UNL A   1      44.002  29.984  32.688  1.00  0.00     0.049 A 
ATOM     50  C   UNL A   1      43.755  25.451  29.416  1.00  0.00     0.074 A 
ATOM     51  C   UNL A   1      45.150  30.144  33.444  1.00  0.00     0.029 A 
ATOM     52  N   UNL A   1      44.154  28.807  31.973  1.00  0.00    -0.354 N 
ATOM     53  N   UNL A   1      43.956  26.454  30.233  1.00  0.00    -0.248 NA
ATOM     54  C   UNL A   1      44.859  24.482  29.372  1.00  0.00     0.031 C 
ATOM     55  C   UNL A   1      46.005  29.071  33.174  1.00  0.00     0.029 A 
ATOM     56  C   UNL A   1      45.376  28.227  32.273  1.00  0.00     0.049 A 
ATOM     57  H   UNL A   1      43.492  28.437  31.345  1.00  0.00     0.167 HD
ATOM     58  C   UNL A   1      45.194  26.227  30.818  1.00  0.00     0.074 A 
ATOM     59  C   UNL A   1      45.698  24.988  30.266  1.00  0.00     0.031 C 
ATOM     60  C   UNL A   1      45.852  26.983  31.730  1.00  0.00     0.037 A 
BRANCH  47  61
ATOM     61  C   UNL A   1      42.834  32.077  33.463  1.00  0.00     0.064 A 
ATOM     62  C   UNL A   1      42.345  32.047  34.777  1.00  0.00     0.173 A 
ATOM     63  C   UNL A   1      43.266  33.307  32.947  1.00  0.00     0.173 A 
ATOM     64  F   UNL A   1      41.916  30.895  35.314  1.00  0.00    -0.203 F 
ATOM     65  C   UNL A   1      42.284  33.208  35.544  1.00  0.00     0.198 A 
ATOM     66  C   UNL A   1      43.226  34.461  33.724  1.00  0.00     0.198 A 
ATOM     67  F   UNL A   1      43.756  33.381  31.701  1.00  0.00    -0.203 F 
ATOM     68  F   UNL A   1      41.796  33.162  36.790  1.00  0.00    -0.200 F 
ATOM     69  C   UNL A   1      42.730  34.412  35.018  1.00  0.00     0.200 A 
ATOM     70  F   UNL A   1      43.678  35.620  33.224  1.00  0.00    -0.200 F 
ATOM     71  F   UNL A   1      42.684  35.526  35.762  1.00  0.00    -0.200 F 
ENDBRANCH  47  61
BRANCH  48  72
ATOM     72  C   UNL A   1      42.520  23.956  27.686  1.00  0.00     0.064 A 
ATOM     73  C   UNL A   1      42.933  23.988  26.347  1.00  0.00     0.173 A 
ATOM     74  C   UNL A   1      42.027  22.747  28.194  1.00  0.00     0.173 A 
ATOM     75  F   UNL A   1      43.406  25.124  25.816  1.00  0.00    -0.203 F 
ATOM     76  C   UNL A   1      42.843  22.853  25.543  1.00  0.00     0.198 A 
ATOM     77  C   UNL A   1      41.956  21.609  27.395  1.00  0.00     0.198 A 
ATOM     78  F   UNL A   1      41.639  22.669  29.474  1.00  0.00    -0.203 F 
ATOM     79  F   UNL A   1      43.221  22.912  24.259  1.00  0.00    -0.200 F 
ATOM     80  C   UNL A   1      42.357  21.664  26.068  1.00  0.00     0.200 A 
ATOM     81  F   UNL A   1      41.503  20.458  27.911  1.00  0.00    -0.200 F 
ATOM     82  F   UNL A   1      42.278  20.572  25.296  1.00  0.00    -0.200 F 
ENDBRANCH  48  72
BRANCH  60  83
ATOM     83  C   UNL A   1      47.172  26.476  32.224  1.00  0.00     0.064 A 
ATOM     84  C   UNL A   1      48.347  26.756  31.512  1.00  0.00     0.173 A 
ATOM     85  C   UNL A   1      47.263  25.657  33.357  1.00  0.00     0.173 A 
ATOM     86  F   UNL A   1      48.307  27.533  30.420  1.00  0.00    -0.203 F 
ATOM     87  C   UNL A   1      49.569  26.225  31.914  1.00  0.00     0.198 A 
ATOM     88  C   UNL A   1      48.490  25.141  33.767  1.00  0.00     0.198 A 
ATOM     89  F   UNL A   1      46.166  25.372  34.075  1.00  0.00    -0.203 F 
ATOM     90  F   UNL A   1      50.678  26.487  31.208  1.00  0.00    -0.200 F 
ATOM     91  C   UNL A   1      49.640  25.419  33.041  1.00  0.00     0.200 A 
ATOM     92  F   UNL A   1      48.561  24.377  34.866  1.00  0.00    -0.200 F 
ATOM     93  F   UNL A   1      50.818  24.912  33.430  1.00  0.00    -0.200 F 
ENDBRANCH  60  83
ENDBRANCH  34  35
ENDBRANCH  26  29
ENDBRANCH  24  25
ENDBRANCH   1  24
TORSDOF 12
ENDMDL
MODEL 3
REMARK VINA RESULT:     -11.2      4.656      8.341
REMARK SMILES CS(=O)(=O)c1cc(F)ccc1N1CCC[C@@H](C(=O)NCCCNC(=O)c2ccc(-c3c4nc(c(-c5c(F)c(F)c(F)c(F)c5F)c5ccc([nH]5)c(-c5c(F)c(F)c(F)c(F)c5F)c5nc(c(-c6c(F)c(F)c(F)c(F)c6F)c6ccc3[nH]6)C=C5)C=C4)cc2)C1
REMARK SMILES IDX 21 1 20 2 19 3 17 4 18 5 16 7 12 8 13 9 89 10 14 11 15 12
REMARK SMILES IDX 11 13 5 14 6 15 7 16 10 17 8 18 9 19 2 20 1 21 3 22 4 23
REMARK SMILES IDX 22 24 23 25 24 26 25 28 26 29 27 30 88 31 28 32 87 33 29 34
REMARK SMILES IDX 30 35 31 36 81 37 32 38 86 39 80 40 82 41 33 42 85 43 79 44
REMARK SMILES IDX 78 45 34 47 66 48 46 49 65 50 47 51 50 52 64 53 83 54 48 55
REMARK SMILES IDX 49 56 63 58 84 59 51 60 35 61 36 62 44 63 37 64 38 65 42 66
REMARK SMILES IDX 45 67 39 68 40 69 43 70 41 71 67 72 68 73 76 74 69 75 70 76
REMARK SMILES IDX 74 77 77 78 71 79 72 80 75 81 73 82 52 83 53 84 61 85 54 86
REMARK SMILES IDX 55 87 59 88 62 89 56 90 57 91 60 92 58 93
REMARK H PARENT 19 6 23 27 82 46 50 57
REMARK Flexibility Score: inf
ROOT
ATOM      1  C   UNL A   1      32.159  27.685  27.004  1.00  0.00     0.042 C 
ENDROOT
BRANCH   1   2
ATOM      2  C   UNL A   1      32.014  26.436  26.140  1.00  0.00     0.117 C 
BRANCH   2   3
ATOM      3  N   UNL A   1      31.382  25.356  26.875  1.00  0.00    -0.356 N 
ATOM      4  C   UNL A   1      31.223  24.047  26.525  1.00  0.00     0.224 C 
ATOM      5  O   UNL A   1      30.502  23.345  27.233  1.00  0.00    -0.275 OA
ATOM      6  H   UNL A   1      31.013  25.604  27.753  1.00  0.00     0.163 HD
BRANCH   4   7
ATOM      7  C   UNL A   1      32.012  23.490  25.352  1.00  0.00     0.098 C 
ATOM      8  N   UNL A   1      32.853  21.310  24.532  1.00  0.00    -0.370 N 
ATOM      9  C   UNL A   1      32.222  21.449  23.217  1.00  0.00     0.116 C 
ATOM     10  C   UNL A   1      32.241  22.009  25.657  1.00  0.00     0.130 C 
ATOM     11  C   UNL A   1      31.985  22.927  22.894  1.00  0.00     0.022 C 
ATOM     12  C   UNL A   1      31.247  23.639  24.030  1.00  0.00     0.017 C 
BRANCH   8  13
ATOM     13  C   UNL A   1      34.131  20.799  24.626  1.00  0.00     0.056 A 
ATOM     14  C   UNL A   1      34.432  19.424  24.689  1.00  0.00     0.093 A 
ATOM     15  C   UNL A   1      35.762  18.981  24.806  1.00  0.00     0.061 A 
ATOM     16  C   UNL A   1      36.795  19.902  24.840  1.00  0.00     0.124 A 
ATOM     17  C   UNL A   1      35.215  21.699  24.654  1.00  0.00     0.030 A 
ATOM     18  F   UNL A   1      38.061  19.475  24.940  1.00  0.00    -0.207 F 
ATOM     19  C   UNL A   1      36.537  21.259  24.755  1.00  0.00     0.041 A 
BRANCH  14  20
ATOM     20  S   UNL A   1      33.192  18.157  24.479  1.00  0.00     0.177 S 
ATOM     21  C   UNL A   1      33.993  16.611  24.791  1.00  0.00     0.164 C 
ATOM     22  O   UNL A   1      32.844  18.140  23.067  1.00  0.00    -0.224 OA
ATOM     23  O   UNL A   1      32.153  18.362  25.470  1.00  0.00    -0.224 OA
ENDBRANCH  14  20
ENDBRANCH   8  13
ENDBRANCH   4   7
ENDBRANCH   2   3
ENDBRANCH   1   2
BRANCH   1  24
ATOM     24  C   UNL A   1      33.524  28.363  26.890  1.00  0.00     0.118 C 
BRANCH  24  25
ATOM     25  N   UNL A   1      33.451  29.804  27.066  1.00  0.00    -0.352 N 
ATOM     26  C   UNL A   1      34.327  30.659  27.685  1.00  0.00     0.251 C 
ATOM     27  H   UNL A   1      32.652  30.232  26.682  1.00  0.00     0.163 HD
ATOM     28  O   UNL A   1      34.007  31.831  27.862  1.00  0.00    -0.269 OA
BRANCH  26  29
ATOM     29  C   UNL A   1      35.644  30.182  28.159  1.00  0.00     0.039 A 
ATOM     30  C   UNL A   1      36.708  30.152  27.250  1.00  0.00     0.014 A 
ATOM     31  C   UNL A   1      35.827  29.716  29.464  1.00  0.00     0.014 A 
ATOM     32  C   UNL A   1      37.964  29.701  27.662  1.00  0.00     0.010 A 
ATOM     33  C   UNL A   1      37.093  29.313  29.888  1.00  0.00     0.010 A 
ATOM     34  C   UNL A   1      38.170  29.297  28.990  1.00  0.00    -0.014 A 
BRANCH  34  35
ATOM     35  C   UNL A   1      39.503  28.833  29.451  1.00  0.00     0.031 A 
ATOM     36  C   UNL A   1      40.296  29.665  30.416  1.00  0.00     0.074 A 
ATOM     37  C   UNL A   1      40.017  27.689  28.963  1.00  0.00     0.049 A 
ATOM     38  N   UNL A   1      41.511  29.477  30.867  1.00  0.00    -0.248 NA
ATOM     39  C   UNL A   1      39.646  30.880  30.930  1.00  0.00     0.031 C 
ATOM     40  C   UNL A   1      39.354  26.807  28.003  1.00  0.00     0.029 A 
ATOM     41  N   UNL A   1      41.221  27.076  29.205  1.00  0.00    -0.354 N 
ATOM     42  C   UNL A   1      41.779  30.558  31.694  1.00  0.00     0.074 A 
ATOM     43  C   UNL A   1      40.612  31.414  31.664  1.00  0.00     0.031 C 
ATOM     44  C   UNL A   1      40.151  25.754  27.754  1.00  0.00     0.029 A 
ATOM     45  C   UNL A   1      41.390  25.903  28.512  1.00  0.00     0.049 A 
ATOM     46  H   UNL A   1      41.899  27.443  29.818  1.00  0.00     0.167 HD
ATOM     47  C   UNL A   1      42.893  30.807  32.423  1.00  0.00     0.037 A 
ATOM     48  C   UNL A   1      42.428  25.046  28.491  1.00  0.00     0.037 A 
ATOM     49  C   UNL A   1      44.038  29.939  32.481  1.00  0.00     0.049 A 
ATOM     50  C   UNL A   1      43.640  25.329  29.334  1.00  0.00     0.074 A 
ATOM     51  C   UNL A   1      45.206  30.098  33.207  1.00  0.00     0.029 A 
ATOM     52  N   UNL A   1      44.154  28.741  31.794  1.00  0.00    -0.354 N 
ATOM     53  N   UNL A   1      43.876  26.349  30.120  1.00  0.00    -0.248 NA
ATOM     54  C   UNL A   1      44.726  24.340  29.290  1.00  0.00     0.031 C 
ATOM     55  C   UNL A   1      46.036  29.003  32.946  1.00  0.00     0.029 A 
ATOM     56  C   UNL A   1      45.372  28.149  32.081  1.00  0.00     0.049 A 
ATOM     57  H   UNL A   1      43.472  28.368  31.190  1.00  0.00     0.167 HD
ATOM     58  C   UNL A   1      45.123  26.115  30.683  1.00  0.00     0.074 A 
ATOM     59  C   UNL A   1      45.593  24.853  30.152  1.00  0.00     0.031 C 
ATOM     60  C   UNL A   1      45.814  26.882  31.561  1.00  0.00     0.037 A 
BRANCH  47  61
ATOM     61  C   UNL A   1      42.925  32.072  33.226  1.00  0.00     0.064 A 
ATOM     62  C   UNL A   1      42.381  32.108  34.519  1.00  0.00     0.173 A 
ATOM     63  C   UNL A   1      43.451  33.259  32.699  1.00  0.00     0.173 A 
ATOM     64  F   UNL A   1      41.862  30.998  35.066  1.00  0.00    -0.203 F 
ATOM     65  C   UNL A   1      42.359  33.291  35.253  1.00  0.00     0.198 A 
ATOM     66  C   UNL A   1      43.448  34.435  33.444  1.00  0.00     0.198 A 
ATOM     67  F   UNL A   1      43.994  33.271  31.473  1.00  0.00    -0.203 F 
ATOM     68  F   UNL A   1      41.818  33.308  36.478  1.00  0.00    -0.200 F 
ATOM     69  C   UNL A   1      42.897  34.451  34.717  1.00  0.00     0.200 A 
ATOM     70  F   UNL A   1      43.989  35.551  32.935  1.00  0.00    -0.200 F 
ATOM     71  F   UNL A   1      42.888  35.586  35.430  1.00  0.00    -0.200 F 
ENDBRANCH  47  61
BRANCH  48  72
ATOM     72  C   UNL A   1      42.341  23.813  27.671  1.00  0.00     0.064 A 
ATOM     73  C   UNL A   1      41.899  22.601  28.218  1.00  0.00     0.173 A 
ATOM     74  C   UNL A   1      42.730  23.823  26.325  1.00  0.00     0.173 A 
ATOM     75  F   UNL A   1      41.522  22.541  29.503  1.00  0.00    -0.203 F 
ATOM     76  C   UNL A   1      41.862  21.439  27.450  1.00  0.00     0.198 A 
ATOM     77  C   UNL A   1      42.675  22.666  25.553  1.00  0.00     0.198 A 
ATOM     78  F   UNL A   1      43.141  24.966  25.757  1.00  0.00    -0.203 F 
ATOM     79  F   UNL A   1      41.461  20.286  28.000  1.00  0.00    -0.200 F 
ATOM     80  C   UNL A   1      42.248  21.473  26.117  1.00  0.00     0.200 A 
ATOM     81  F   UNL A   1      43.030  22.707  24.261  1.00  0.00    -0.200 F 
ATOM     82  F   UNL A   1      42.205  20.358  25.377  1.00  0.00    -0.200 F 
ENDBRANCH  48  72
BRANCH  60  83
ATOM     83  C   UNL A   1      47.136  26.364  32.038  1.00  0.00     0.064 A 
ATOM     84  C   UNL A   1      47.208  25.565  33.189  1.00  0.00     0.173 A 
ATOM     85  C   UNL A   1      48.333  26.718  31.401  1.00  0.00     0.173 A 
ATOM     86  F   UNL A   1      46.088  25.205  33.833  1.00  0.00    -0.203 F 
ATOM     87  C   UNL A   1      48.436  25.144  33.690  1.00  0.00     0.198 A 
ATOM     88  C   UNL A   1      49.559  26.281  31.896  1.00  0.00     0.198 A 
ATOM     89  F   UNL A   1      48.310  27.471  30.292  1.00  0.00    -0.203 F 
ATOM     90  F   UNL A   1      48.485  24.400  34.803  1.00  0.00    -0.200 F 
ATOM     91  C   UNL A   1      49.610  25.502  33.043  1.00  0.00     0.200 A 
ATOM     92  F   UNL A   1      50.692  26.611  31.261  1.00  0.00    -0.200 F 
ATOM     93  F   UNL A   1      50.792  25.092  33.524  1.00  0.00    -0.200 F 
ENDBRANCH  60  83
ENDBRANCH  34  35
ENDBRANCH  26  29
ENDBRANCH  24  25
ENDBRANCH   1  24
TORSDOF 12
ENDMDL
