MODEL 1
REMARK VINA RESULT:     -12.1      0.000      0.000
REMARK SMILES O=C(/C=C/c1cc(F)cc(CN2CCCCC2=O)c1)NCCCNC(=O)c1ccc(-c2c3nc(c(-c4c(F)c(F)c(F)c(F)c4F)c4ccc([nH]4)c(-c4c(F)c(F)c(F)c(F)c4F)c4nc(c(-c5c(F)c(F)c(F)c(F)c5F)c5ccc2[nH]5)C=C4)C=C3)cc1
REMARK SMILES IDX 21 1 20 2 1 3 2 4 3 6 4 7 5 8 6 9 19 10 7 11 10 12 8 13 9 14
REMARK SMILES IDX 11 15 12 16 13 17 17 18 14 19 16 20 18 21 15 22 22 23 23 24
REMARK SMILES IDX 24 25 25 26 26 28 27 29 28 30 89 31 29 32 88 33 30 34 31 35
REMARK SMILES IDX 32 36 82 37 33 38 87 39 81 40 83 41 34 42 86 43 80 44 79 45
REMARK SMILES IDX 35 47 67 48 47 49 66 50 48 51 51 52 65 53 84 54 49 55 50 56
REMARK SMILES IDX 64 58 85 59 52 60 36 61 37 62 45 63 38 64 39 65 43 66 46 67
REMARK SMILES IDX 40 68 41 69 44 70 42 71 68 72 69 73 77 74 70 75 71 76 75 77
REMARK SMILES IDX 78 78 72 79 73 80 76 81 74 82 53 83 54 84 62 85 55 86 56 87
REMARK SMILES IDX 60 88 63 89 57 90 58 91 61 92 59 93
REMARK H PARENT 20 5 24 27 83 46 51 57
REMARK Flexibility Score: inf
ROOT
ATOM      1  C   UNL A   1      34.355  33.482  28.943  1.00  0.00     0.118 C 
ENDROOT
BRANCH   1   2
ATOM      2  N   UNL A   1      34.028  32.157  28.452  1.00  0.00    -0.352 N 
ATOM      3  O   UNL A   1      36.175  31.605  27.860  1.00  0.00    -0.270 OA
ATOM      4  C   UNL A   1      34.988  31.322  27.943  1.00  0.00     0.244 C 
ATOM      5  H   UNL A   1      33.094  31.850  28.487  1.00  0.00     0.163 HD
BRANCH   4   6
ATOM      6  C   UNL A   1      34.528  29.967  27.549  1.00  0.00     0.072 C 
ATOM      7  C   UNL A   1      33.338  29.662  27.004  1.00  0.00     0.014 C 
BRANCH   7   8
ATOM      8  C   UNL A   1      32.978  28.279  26.649  1.00  0.00    -0.022 A 
ATOM      9  C   UNL A   1      31.654  27.838  26.763  1.00  0.00     0.047 A 
ATOM     10  C   UNL A   1      33.949  27.401  26.129  1.00  0.00     0.014 A 
ATOM     11  C   UNL A   1      31.318  26.547  26.385  1.00  0.00     0.124 A 
ATOM     12  C   UNL A   1      33.610  26.090  25.738  1.00  0.00    -0.025 A 
ATOM     13  F   UNL A   1      30.049  26.137  26.498  1.00  0.00    -0.207 F 
ATOM     14  C   UNL A   1      32.274  25.682  25.872  1.00  0.00     0.044 A 
BRANCH  12  15
ATOM     15  C   UNL A   1      34.635  25.145  25.136  1.00  0.00     0.155 C 
BRANCH  15  16
ATOM     16  N   UNL A   1      34.045  24.002  24.436  1.00  0.00    -0.338 N 
ATOM     17  C   UNL A   1      33.875  22.759  25.177  1.00  0.00     0.120 C 
ATOM     18  C   UNL A   1      33.688  24.133  23.104  1.00  0.00     0.222 C 
ATOM     19  C   UNL A   1      33.700  21.554  24.264  1.00  0.00     0.022 C 
ATOM     20  C   UNL A   1      32.829  23.048  22.475  1.00  0.00     0.100 C 
ATOM     21  O   UNL A   1      34.026  25.100  22.419  1.00  0.00    -0.275 OA
ATOM     22  C   UNL A   1      32.539  21.829  23.332  1.00  0.00     0.012 C 
ENDBRANCH  15  16
ENDBRANCH  12  15
ENDBRANCH   7   8
ENDBRANCH   4   6
ENDBRANCH   1   2
BRANCH   1  23
ATOM     23  C   UNL A   1      33.264  34.504  28.644  1.00  0.00     0.042 C 
BRANCH  23  24
ATOM     24  C   UNL A   1      33.461  35.853  29.329  1.00  0.00     0.118 C 
BRANCH  24  25
ATOM     25  N   UNL A   1      32.531  36.085  30.427  1.00  0.00    -0.352 N 
ATOM     26  C   UNL A   1      32.595  35.703  31.744  1.00  0.00     0.251 C 
ATOM     27  H   UNL A   1      31.727  36.599  30.184  1.00  0.00     0.163 HD
ATOM     28  O   UNL A   1      31.631  35.899  32.478  1.00  0.00    -0.269 OA
BRANCH  26  29
ATOM     29  C   UNL A   1      33.799  35.031  32.281  1.00  0.00     0.039 A 
ATOM     30  C   UNL A   1      33.666  33.741  32.802  1.00  0.00     0.014 A 
ATOM     31  C   UNL A   1      35.044  35.663  32.294  1.00  0.00     0.014 A 
ATOM     32  C   UNL A   1      34.794  33.055  33.261  1.00  0.00     0.010 A 
ATOM     33  C   UNL A   1      36.179  34.953  32.686  1.00  0.00     0.010 A 
ATOM     34  C   UNL A   1      36.067  33.639  33.165  1.00  0.00    -0.014 A 
BRANCH  34  35
ATOM     35  C   UNL A   1      37.292  32.880  33.530  1.00  0.00     0.031 A 
ATOM     36  C   UNL A   1      38.010  33.160  34.820  1.00  0.00     0.074 A 
ATOM     37  C   UNL A   1      37.796  31.978  32.664  1.00  0.00     0.049 A 
ATOM     38  N   UNL A   1      39.133  32.658  35.268  1.00  0.00    -0.248 NA
ATOM     39  C   UNL A   1      37.397  34.151  35.719  1.00  0.00     0.031 C 
ATOM     40  C   UNL A   1      37.214  31.643  31.364  1.00  0.00     0.029 A 
ATOM     41  N   UNL A   1      38.915  31.186  32.740  1.00  0.00    -0.354 N 
ATOM     42  C   UNL A   1      39.365  33.275  36.489  1.00  0.00     0.074 A 
ATOM     43  C   UNL A   1      38.294  34.227  36.692  1.00  0.00     0.031 C 
ATOM     44  C   UNL A   1      37.963  30.696  30.778  1.00  0.00     0.029 A 
ATOM     45  C   UNL A   1      39.103  30.390  31.637  1.00  0.00     0.049 A 
ATOM     46  H   UNL A   1      39.525  31.188  33.513  1.00  0.00     0.167 HD
ATOM     47  C   UNL A   1      40.368  33.050  37.370  1.00  0.00     0.037 A 
ATOM     48  C   UNL A   1      40.088  29.519  31.342  1.00  0.00     0.037 A 
ATOM     49  C   UNL A   1      41.418  32.084  37.178  1.00  0.00     0.049 A 
ATOM     50  C   UNL A   1      41.204  29.306  32.328  1.00  0.00     0.074 A 
ATOM     51  C   UNL A   1      42.445  31.747  38.042  1.00  0.00     0.029 A 
ATOM     52  N   UNL A   1      41.576  31.300  36.044  1.00  0.00    -0.354 N 
ATOM     53  N   UNL A   1      41.385  29.860  33.502  1.00  0.00    -0.248 NA
ATOM     54  C   UNL A   1      42.252  28.347  31.949  1.00  0.00     0.031 C 
ATOM     55  C   UNL A   1      43.254  30.798  37.412  1.00  0.00     0.029 A 
ATOM     56  C   UNL A   1      42.699  30.500  36.177  1.00  0.00     0.049 A 
ATOM     57  H   UNL A   1      40.979  31.310  35.261  1.00  0.00     0.167 HD
ATOM     58  C   UNL A   1      42.549  29.303  34.011  1.00  0.00     0.074 A 
ATOM     59  C   UNL A   1      43.028  28.357  33.025  1.00  0.00     0.031 C 
ATOM     60  C   UNL A   1      43.166  29.558  35.191  1.00  0.00     0.037 A 
BRANCH  47  61
ATOM     61  C   UNL A   1      40.382  33.851  38.640  1.00  0.00     0.064 A 
ATOM     62  C   UNL A   1      41.172  35.007  38.745  1.00  0.00     0.173 A 
ATOM     63  C   UNL A   1      39.681  33.429  39.780  1.00  0.00     0.173 A 
ATOM     64  F   UNL A   1      41.868  35.450  37.686  1.00  0.00    -0.203 F 
ATOM     65  C   UNL A   1      41.270  35.700  39.948  1.00  0.00     0.198 A 
ATOM     66  C   UNL A   1      39.759  34.142  40.973  1.00  0.00     0.198 A 
ATOM     67  F   UNL A   1      38.904  32.337  39.729  1.00  0.00    -0.203 F 
ATOM     68  F   UNL A   1      42.060  36.780  40.035  1.00  0.00    -0.200 F 
ATOM     69  C   UNL A   1      40.562  35.270  41.060  1.00  0.00     0.200 A 
ATOM     70  F   UNL A   1      39.054  33.739  42.039  1.00  0.00    -0.200 F 
ATOM     71  F   UNL A   1      40.652  35.942  42.215  1.00  0.00    -0.200 F 
ENDBRANCH  47  61
BRANCH  48  72
ATOM     72  C   UNL A   1      40.040  28.764  30.063  1.00  0.00     0.064 A 
ATOM     73  C   UNL A   1      39.442  27.497  29.982  1.00  0.00     0.173 A 
ATOM     74  C   UNL A   1      40.620  29.286  28.900  1.00  0.00     0.173 A 
ATOM     75  F   UNL A   1      38.875  26.951  31.068  1.00  0.00    -0.203 F 
ATOM     76  C   UNL A   1      39.449  26.773  28.792  1.00  0.00     0.198 A 
ATOM     77  C   UNL A   1      40.602  28.573  27.703  1.00  0.00     0.198 A 
ATOM     78  F   UNL A   1      41.185  30.503  28.921  1.00  0.00    -0.203 F 
ATOM     79  F   UNL A   1      38.905  25.549  28.752  1.00  0.00    -0.200 F 
ATOM     80  C   UNL A   1      40.025  27.313  27.652  1.00  0.00     0.200 A 
ATOM     81  F   UNL A   1      41.138  29.109  26.598  1.00  0.00    -0.200 F 
ATOM     82  F   UNL A   1      40.023  26.621  26.506  1.00  0.00    -0.200 F 
ENDBRANCH  48  72
BRANCH  60  83
ATOM     83  C   UNL A   1      44.420  28.795  35.505  1.00  0.00     0.064 A 
ATOM     84  C   UNL A   1      45.668  29.271  35.076  1.00  0.00     0.173 A 
ATOM     85  C   UNL A   1      44.378  27.551  36.152  1.00  0.00     0.173 A 
ATOM     86  F   UNL A   1      45.760  30.452  34.444  1.00  0.00    -0.203 F 
ATOM     87  C   UNL A   1      46.825  28.520  35.263  1.00  0.00     0.198 A 
ATOM     88  C   UNL A   1      45.542  26.816  36.364  1.00  0.00     0.198 A 
ATOM     89  F   UNL A   1      43.210  27.058  36.593  1.00  0.00    -0.203 F 
ATOM     90  F   UNL A   1      47.999  28.977  34.807  1.00  0.00    -0.200 F 
ATOM     91  C   UNL A   1      46.762  27.295  35.910  1.00  0.00     0.200 A 
ATOM     92  F   UNL A   1      45.482  25.643  37.009  1.00  0.00    -0.200 F 
ATOM     93  F   UNL A   1      47.876  26.576  36.094  1.00  0.00    -0.200 F 
ENDBRANCH  60  83
ENDBRANCH  34  35
ENDBRANCH  26  29
ENDBRANCH  24  25
ENDBRANCH  23  24
ENDBRANCH   1  23
TORSDOF 13
ENDMDL
MODEL 2
REMARK VINA RESULT:     -12.1      6.799     12.332
REMARK SMILES O=C(/C=C/c1cc(F)cc(CN2CCCCC2=O)c1)NCCCNC(=O)c1ccc(-c2c3nc(c(-c4c(F)c(F)c(F)c(F)c4F)c4ccc([nH]4)c(-c4c(F)c(F)c(F)c(F)c4F)c4nc(c(-c5c(F)c(F)c(F)c(F)c5F)c5ccc2[nH]5)C=C4)C=C3)cc1
REMARK SMILES IDX 21 1 20 2 1 3 2 4 3 6 4 7 5 8 6 9 19 10 7 11 10 12 8 13 9 14
REMARK SMILES IDX 11 15 12 16 13 17 17 18 14 19 16 20 18 21 15 22 22 23 23 24
REMARK SMILES IDX 24 25 25 26 26 28 27 29 28 30 89 31 29 32 88 33 30 34 31 35
REMARK SMILES IDX 32 36 82 37 33 38 87 39 81 40 83 41 34 42 86 43 80 44 79 45
REMARK SMILES IDX 35 47 67 48 47 49 66 50 48 51 51 52 65 53 84 54 49 55 50 56
REMARK SMILES IDX 64 58 85 59 52 60 36 61 37 62 45 63 38 64 39 65 43 66 46 67
REMARK SMILES IDX 40 68 41 69 44 70 42 71 68 72 69 73 77 74 70 75 71 76 75 77
REMARK SMILES IDX 78 78 72 79 73 80 76 81 74 82 53 83 54 84 62 85 55 86 56 87
REMARK SMILES IDX 60 88 63 89 57 90 58 91 61 92 59 93
REMARK H PARENT 20 5 24 27 83 46 51 57
REMARK Flexibility Score: inf
ROOT
ATOM      1  C   UNL A   1      41.268  21.350  26.229  1.00  0.00     0.118 C 
ENDROOT
BRANCH   1   2
ATOM      2  N   UNL A   1      40.005  21.931  25.817  1.00  0.00    -0.352 N 
ATOM      3  O   UNL A   1      39.793  23.314  27.636  1.00  0.00    -0.270 OA
ATOM      4  C   UNL A   1      39.367  22.879  26.574  1.00  0.00     0.244 C 
ATOM      5  H   UNL A   1      39.595  21.638  24.971  1.00  0.00     0.163 HD
BRANCH   4   6
ATOM      6  C   UNL A   1      38.124  23.444  25.996  1.00  0.00     0.072 C 
ATOM      7  C   UNL A   1      37.238  22.789  25.227  1.00  0.00     0.014 C 
BRANCH   7   8
ATOM      8  C   UNL A   1      36.030  23.445  24.700  1.00  0.00    -0.022 A 
ATOM      9  C   UNL A   1      35.435  22.993  23.515  1.00  0.00     0.047 A 
ATOM     10  C   UNL A   1      35.419  24.494  25.415  1.00  0.00     0.014 A 
ATOM     11  C   UNL A   1      34.273  23.591  23.052  1.00  0.00     0.124 A 
ATOM     12  C   UNL A   1      34.235  25.099  24.951  1.00  0.00    -0.025 A 
ATOM     13  F   UNL A   1      33.714  23.151  21.919  1.00  0.00    -0.207 F 
ATOM     14  C   UNL A   1      33.672  24.624  23.757  1.00  0.00     0.044 A 
BRANCH  12  15
ATOM     15  C   UNL A   1      33.541  26.202  25.731  1.00  0.00     0.155 C 
BRANCH  15  16
ATOM     16  N   UNL A   1      32.181  26.487  25.267  1.00  0.00    -0.338 N 
ATOM     17  C   UNL A   1      32.011  27.494  24.228  1.00  0.00     0.120 C 
ATOM     18  C   UNL A   1      31.115  25.812  25.836  1.00  0.00     0.222 C 
ATOM     19  C   UNL A   1      30.587  28.026  24.159  1.00  0.00     0.022 C 
ATOM     20  C   UNL A   1      29.756  25.906  25.163  1.00  0.00     0.100 C 
ATOM     21  O   UNL A   1      31.231  25.128  26.855  1.00  0.00    -0.275 OA
ATOM     22  C   UNL A   1      29.648  26.853  23.980  1.00  0.00     0.012 C 
ENDBRANCH  15  16
ENDBRANCH  12  15
ENDBRANCH   7   8
ENDBRANCH   4   6
ENDBRANCH   1   2
BRANCH   1  23
ATOM     23  C   UNL A   1      41.299  19.835  26.064  1.00  0.00     0.042 C 
BRANCH  23  24
ATOM     24  C   UNL A   1      42.638  19.191  26.411  1.00  0.00     0.118 C 
BRANCH  24  25
ATOM     25  N   UNL A   1      43.418  18.812  25.239  1.00  0.00    -0.352 N 
ATOM     26  C   UNL A   1      44.276  19.552  24.464  1.00  0.00     0.251 C 
ATOM     27  H   UNL A   1      43.311  17.875  24.959  1.00  0.00     0.163 HD
ATOM     28  O   UNL A   1      44.738  19.064  23.437  1.00  0.00    -0.269 OA
BRANCH  26  29
ATOM     29  C   UNL A   1      44.629  20.940  24.835  1.00  0.00     0.039 A 
ATOM     30  C   UNL A   1      44.247  21.977  23.980  1.00  0.00     0.014 A 
ATOM     31  C   UNL A   1      45.343  21.227  26.001  1.00  0.00     0.014 A 
ATOM     32  C   UNL A   1      44.511  23.304  24.331  1.00  0.00     0.010 A 
ATOM     33  C   UNL A   1      45.543  22.553  26.385  1.00  0.00     0.010 A 
ATOM     34  C   UNL A   1      45.121  23.605  25.559  1.00  0.00    -0.014 A 
BRANCH  34  35
ATOM     35  C   UNL A   1      45.297  25.011  26.007  1.00  0.00     0.031 A 
ATOM     36  C   UNL A   1      46.646  25.671  25.947  1.00  0.00     0.074 A 
ATOM     37  C   UNL A   1      44.248  25.676  26.531  1.00  0.00     0.049 A 
ATOM     38  N   UNL A   1      47.005  26.857  26.368  1.00  0.00    -0.248 NA
ATOM     39  C   UNL A   1      47.742  24.887  25.356  1.00  0.00     0.031 C 
ATOM     40  C   UNL A   1      42.896  25.134  26.679  1.00  0.00     0.029 A 
ATOM     41  N   UNL A   1      44.153  26.946  27.045  1.00  0.00    -0.354 N 
ATOM     42  C   UNL A   1      48.364  26.959  26.102  1.00  0.00     0.074 A 
ATOM     43  C   UNL A   1      48.778  25.696  25.530  1.00  0.00     0.031 C 
ATOM     44  C   UNL A   1      42.103  26.072  27.219  1.00  0.00     0.029 A 
ATOM     45  C   UNL A   1      42.897  27.264  27.499  1.00  0.00     0.049 A 
ATOM     46  H   UNL A   1      44.915  27.568  27.085  1.00  0.00     0.167 HD
ATOM     47  C   UNL A   1      49.185  28.018  26.296  1.00  0.00     0.037 A 
ATOM     48  C   UNL A   1      42.435  28.386  28.086  1.00  0.00     0.037 A 
ATOM     49  C   UNL A   1      48.764  29.283  26.842  1.00  0.00     0.049 A 
ATOM     50  C   UNL A   1      43.373  29.539  28.313  1.00  0.00     0.074 A 
ATOM     51  C   UNL A   1      49.513  30.432  27.022  1.00  0.00     0.029 A 
ATOM     52  N   UNL A   1      47.483  29.565  27.293  1.00  0.00    -0.354 N 
ATOM     53  N   UNL A   1      44.645  29.641  28.011  1.00  0.00    -0.248 NA
ATOM     54  C   UNL A   1      42.814  30.735  28.961  1.00  0.00     0.031 C 
ATOM     55  C   UNL A   1      48.700  31.393  27.631  1.00  0.00     0.029 A 
ATOM     56  C   UNL A   1      47.429  30.862  27.777  1.00  0.00     0.049 A 
ATOM     57  H   UNL A   1      46.724  28.937  27.273  1.00  0.00     0.167 HD
ATOM     58  C   UNL A   1      45.032  30.912  28.409  1.00  0.00     0.074 A 
ATOM     59  C   UNL A   1      43.858  31.554  28.964  1.00  0.00     0.031 C 
ATOM     60  C   UNL A   1      46.254  31.493  28.323  1.00  0.00     0.037 A 
BRANCH  47  61
ATOM     61  C   UNL A   1      50.626  27.872  25.906  1.00  0.00     0.064 A 
ATOM     62  C   UNL A   1      51.013  27.969  24.560  1.00  0.00     0.173 A 
ATOM     63  C   UNL A   1      51.613  27.553  26.851  1.00  0.00     0.173 A 
ATOM     64  F   UNL A   1      50.108  28.266  23.615  1.00  0.00    -0.203 F 
ATOM     65  C   UNL A   1      52.331  27.737  24.175  1.00  0.00     0.198 A 
ATOM     66  C   UNL A   1      52.935  27.351  26.466  1.00  0.00     0.198 A 
ATOM     67  F   UNL A   1      51.297  27.459  28.151  1.00  0.00    -0.203 F 
ATOM     68  F   UNL A   1      52.670  27.799  22.880  1.00  0.00    -0.200 F 
ATOM     69  C   UNL A   1      53.291  27.431  25.128  1.00  0.00     0.200 A 
ATOM     70  F   UNL A   1      53.867  27.079  27.391  1.00  0.00    -0.200 F 
ATOM     71  F   UNL A   1      54.560  27.214  24.757  1.00  0.00    -0.200 F 
ENDBRANCH  47  61
BRANCH  48  72
ATOM     72  C   UNL A   1      41.003  28.475  28.472  1.00  0.00     0.064 A 
ATOM     73  C   UNL A   1      40.039  28.995  27.595  1.00  0.00     0.173 A 
ATOM     74  C   UNL A   1      40.576  28.067  29.742  1.00  0.00     0.173 A 
ATOM     75  F   UNL A   1      40.397  29.403  26.369  1.00  0.00    -0.203 F 
ATOM     76  C   UNL A   1      38.708  29.126  27.985  1.00  0.00     0.198 A 
ATOM     77  C   UNL A   1      39.239  28.171  30.121  1.00  0.00     0.198 A 
ATOM     78  F   UNL A   1      41.456  27.543  30.608  1.00  0.00    -0.203 F 
ATOM     79  F   UNL A   1      37.814  29.661  27.142  1.00  0.00    -0.200 F 
ATOM     80  C   UNL A   1      38.308  28.709  29.246  1.00  0.00     0.200 A 
ATOM     81  F   UNL A   1      38.853  27.745  31.331  1.00  0.00    -0.200 F 
ATOM     82  F   UNL A   1      37.026  28.825  29.616  1.00  0.00    -0.200 F 
ENDBRANCH  48  72
BRANCH  60  83
ATOM     83  C   UNL A   1      46.395  32.902  28.820  1.00  0.00     0.064 A 
ATOM     84  C   UNL A   1      46.211  33.986  27.947  1.00  0.00     0.173 A 
ATOM     85  C   UNL A   1      46.800  33.179  30.134  1.00  0.00     0.173 A 
ATOM     86  F   UNL A   1      45.833  33.774  26.677  1.00  0.00    -0.203 F 
ATOM     87  C   UNL A   1      46.447  35.292  28.365  1.00  0.00     0.198 A 
ATOM     88  C   UNL A   1      47.007  34.490  30.558  1.00  0.00     0.198 A 
ATOM     89  F   UNL A   1      46.977  32.179  31.011  1.00  0.00    -0.203 F 
ATOM     90  F   UNL A   1      46.304  36.307  27.502  1.00  0.00    -0.200 F 
ATOM     91  C   UNL A   1      46.842  35.543  29.671  1.00  0.00     0.200 A 
ATOM     92  F   UNL A   1      47.366  34.733  31.826  1.00  0.00    -0.200 F 
ATOM     93  F   UNL A   1      47.063  36.801  30.075  1.00  0.00    -0.200 F 
ENDBRANCH  60  83
ENDBRANCH  34  35
ENDBRANCH  26  29
ENDBRANCH  24  25
ENDBRANCH  23  24
ENDBRANCH   1  23
TORSDOF 13
ENDMDL
MODEL 3
REMARK VINA RESULT:     -12.0      0.276      1.620
REMARK SMILES O=C(/C=C/c1cc(F)cc(CN2CCCCC2=O)c1)NCCCNC(=O)c1ccc(-c2c3nc(c(-c4c(F)c(F)c(F)c(F)c4F)c4ccc([nH]4)c(-c4c(F)c(F)c(F)c(F)c4F)c4nc(c(-c5c(F)c(F)c(F)c(F)c5F)c5ccc2[nH]5)C=C4)C=C3)cc1
REMARK SMILES IDX 21 1 20 2 1 3 2 4 3 6 4 7 5 8 6 9 19 10 7 11 10 12 8 13 9 14
REMARK SMILES IDX 11 15 12 16 13 17 17 18 14 19 16 20 18 21 15 22 22 23 23 24
REMARK SMILES IDX 24 25 25 26 26 28 27 29 28 30 89 31 29 32 88 33 30 34 31 35
REMARK SMILES IDX 32 36 82 37 33 38 87 39 81 40 83 41 34 42 86 43 80 44 79 45
REMARK SMILES IDX 35 47 67 48 47 49 66 50 48 51 51 52 65 53 84 54 49 55 50 56
REMARK SMILES IDX 64 58 85 59 52 60 36 61 37 62 45 63 38 64 39 65 43 66 46 67
REMARK SMILES IDX 40 68 41 69 44 70 42 71 68 72 69 73 77 74 70 75 71 76 75 77
REMARK SMILES IDX 78 78 72 79 73 80 76 81 74 82 53 83 54 84 62 85 55 86 56 87
REMARK SMILES IDX 60 88 63 89 57 90 58 91 61 92 59 93
REMARK H PARENT 20 5 24 27 83 46 51 57
REMARK Flexibility Score: inf
ROOT
ATOM      1  C   UNL A   1      34.258  33.312  29.006  1.00  0.00     0.118 C 
ENDROOT
BRANCH   1   2
ATOM      2  N   UNL A   1      33.930  31.995  28.496  1.00  0.00    -0.352 N 
ATOM      3  O   UNL A   1      36.020  31.554  27.659  1.00  0.00    -0.270 OA
ATOM      4  C   UNL A   1      34.859  31.220  27.854  1.00  0.00     0.244 C 
ATOM      5  H   UNL A   1      33.015  31.649  28.616  1.00  0.00     0.163 HD
BRANCH   4   6
ATOM      6  C   UNL A   1      34.409  29.864  27.454  1.00  0.00     0.072 C 
ATOM      7  C   UNL A   1      33.285  29.569  26.778  1.00  0.00     0.014 C 
BRANCH   7   8
ATOM      8  C   UNL A   1      32.928  28.184  26.430  1.00  0.00    -0.022 A 
ATOM      9  C   UNL A   1      31.605  27.741  26.545  1.00  0.00     0.047 A 
ATOM     10  C   UNL A   1      33.902  27.306  25.914  1.00  0.00     0.014 A 
ATOM     11  C   UNL A   1      31.273  26.447  26.172  1.00  0.00     0.124 A 
ATOM     12  C   UNL A   1      33.566  25.992  25.529  1.00  0.00    -0.025 A 
ATOM     13  F   UNL A   1      30.005  26.035  26.287  1.00  0.00    -0.207 F 
ATOM     14  C   UNL A   1      32.232  25.582  25.664  1.00  0.00     0.044 A 
BRANCH  12  15
ATOM     15  C   UNL A   1      34.594  25.047  24.931  1.00  0.00     0.155 C 
BRANCH  15  16
ATOM     16  N   UNL A   1      34.062  23.719  24.618  1.00  0.00    -0.338 N 
ATOM     17  C   UNL A   1      33.978  22.744  25.699  1.00  0.00     0.120 C 
ATOM     18  C   UNL A   1      33.678  23.431  23.320  1.00  0.00     0.222 C 
ATOM     19  C   UNL A   1      33.862  21.316  25.187  1.00  0.00     0.022 C 
ATOM     20  C   UNL A   1      32.876  22.165  23.066  1.00  0.00     0.100 C 
ATOM     21  O   UNL A   1      33.948  24.168  22.370  1.00  0.00    -0.275 OA
ATOM     22  C   UNL A   1      32.673  21.240  24.253  1.00  0.00     0.012 C 
ENDBRANCH  15  16
ENDBRANCH  12  15
ENDBRANCH   7   8
ENDBRANCH   4   6
ENDBRANCH   1   2
BRANCH   1  23
ATOM     23  C   UNL A   1      33.205  34.357  28.657  1.00  0.00     0.042 C 
BRANCH  23  24
ATOM     24  C   UNL A   1      33.448  35.729  29.279  1.00  0.00     0.118 C 
BRANCH  24  25
ATOM     25  N   UNL A   1      32.551  36.029  30.387  1.00  0.00    -0.352 N 
ATOM     26  C   UNL A   1      32.640  35.704  31.718  1.00  0.00     0.251 C 
ATOM     27  H   UNL A   1      31.750  36.548  30.141  1.00  0.00     0.163 HD
ATOM     28  O   UNL A   1      31.700  35.952  32.466  1.00  0.00    -0.269 OA
BRANCH  26  29
ATOM     29  C   UNL A   1      33.845  35.033  32.255  1.00  0.00     0.039 A 
ATOM     30  C   UNL A   1      33.709  33.750  32.792  1.00  0.00     0.014 A 
ATOM     31  C   UNL A   1      35.093  35.659  32.253  1.00  0.00     0.014 A 
ATOM     32  C   UNL A   1      34.837  33.064  33.252  1.00  0.00     0.010 A 
ATOM     33  C   UNL A   1      36.227  34.948  32.646  1.00  0.00     0.010 A 
ATOM     34  C   UNL A   1      36.112  33.640  33.141  1.00  0.00    -0.014 A 
BRANCH  34  35
ATOM     35  C   UNL A   1      37.335  32.880  33.508  1.00  0.00     0.031 A 
ATOM     36  C   UNL A   1      38.057  33.165  34.794  1.00  0.00     0.074 A 
ATOM     37  C   UNL A   1      37.834  31.971  32.646  1.00  0.00     0.049 A 
ATOM     38  N   UNL A   1      39.180  32.662  35.242  1.00  0.00    -0.248 NA
ATOM     39  C   UNL A   1      37.450  34.163  35.689  1.00  0.00     0.031 C 
ATOM     40  C   UNL A   1      37.248  31.630  31.349  1.00  0.00     0.029 A 
ATOM     41  N   UNL A   1      38.951  31.176  32.724  1.00  0.00    -0.354 N 
ATOM     42  C   UNL A   1      39.417  33.285  36.459  1.00  0.00     0.074 A 
ATOM     43  C   UNL A   1      38.350  34.241  36.659  1.00  0.00     0.031 C 
ATOM     44  C   UNL A   1      37.992  30.678  30.767  1.00  0.00     0.029 A 
ATOM     45  C   UNL A   1      39.134  30.373  31.624  1.00  0.00     0.049 A 
ATOM     46  H   UNL A   1      39.563  31.181  33.495  1.00  0.00     0.167 HD
ATOM     47  C   UNL A   1      40.422  33.063  37.339  1.00  0.00     0.037 A 
ATOM     48  C   UNL A   1      40.115  29.497  31.332  1.00  0.00     0.037 A 
ATOM     49  C   UNL A   1      41.468  32.091  37.149  1.00  0.00     0.049 A 
ATOM     50  C   UNL A   1      41.233  29.287  32.316  1.00  0.00     0.074 A 
ATOM     51  C   UNL A   1      42.496  31.757  38.013  1.00  0.00     0.029 A 
ATOM     52  N   UNL A   1      41.621  31.301  36.020  1.00  0.00    -0.354 N 
ATOM     53  N   UNL A   1      41.419  29.846  33.486  1.00  0.00    -0.248 NA
ATOM     54  C   UNL A   1      42.277  28.322  31.940  1.00  0.00     0.031 C 
ATOM     55  C   UNL A   1      43.301  30.801  37.386  1.00  0.00     0.029 A 
ATOM     56  C   UNL A   1      42.742  30.498  36.154  1.00  0.00     0.049 A 
ATOM     57  H   UNL A   1      41.022  31.308  35.238  1.00  0.00     0.167 HD
ATOM     58  C   UNL A   1      42.583  29.290  33.996  1.00  0.00     0.074 A 
ATOM     59  C   UNL A   1      43.056  28.336  33.014  1.00  0.00     0.031 C 
ATOM     60  C   UNL A   1      43.203  29.549  35.173  1.00  0.00     0.037 A 
BRANCH  47  61
ATOM     61  C   UNL A   1      40.442  33.870  38.604  1.00  0.00     0.064 A 
ATOM     62  C   UNL A   1      39.650  33.496  39.701  1.00  0.00     0.173 A 
ATOM     63  C   UNL A   1      41.177  35.061  38.702  1.00  0.00     0.173 A 
ATOM     64  F   UNL A   1      38.922  32.369  39.657  1.00  0.00    -0.203 F 
ATOM     65  C   UNL A   1      39.583  34.291  40.841  1.00  0.00     0.198 A 
ATOM     66  C   UNL A   1      41.131  35.839  39.855  1.00  0.00     0.198 A 
ATOM     67  F   UNL A   1      41.957  35.458  37.685  1.00  0.00    -0.203 F 
ATOM     68  F   UNL A   1      38.792  33.932  41.862  1.00  0.00    -0.200 F 
ATOM     69  C   UNL A   1      40.326  35.460  40.919  1.00  0.00     0.200 A 
ATOM     70  F   UNL A   1      41.868  36.955  39.939  1.00  0.00    -0.200 F 
ATOM     71  F   UNL A   1      40.266  36.221  42.020  1.00  0.00    -0.200 F 
ENDBRANCH  47  61
BRANCH  48  72
ATOM     72  C   UNL A   1      40.061  28.735  30.057  1.00  0.00     0.064 A 
ATOM     73  C   UNL A   1      39.445  27.477  29.982  1.00  0.00     0.173 A 
ATOM     74  C   UNL A   1      40.654  29.241  28.893  1.00  0.00     0.173 A 
ATOM     75  F   UNL A   1      38.865  26.947  31.068  1.00  0.00    -0.203 F 
ATOM     76  C   UNL A   1      39.446  26.745  28.796  1.00  0.00     0.198 A 
ATOM     77  C   UNL A   1      40.631  28.521  27.701  1.00  0.00     0.198 A 
ATOM     78  F   UNL A   1      41.237  30.449  28.910  1.00  0.00    -0.203 F 
ATOM     79  F   UNL A   1      38.883  25.530  28.761  1.00  0.00    -0.200 F 
ATOM     80  C   UNL A   1      40.035  27.270  27.656  1.00  0.00     0.200 A 
ATOM     81  F   UNL A   1      41.179  29.042  26.595  1.00  0.00    -0.200 F 
ATOM     82  F   UNL A   1      40.027  26.570  26.513  1.00  0.00    -0.200 F 
ENDBRANCH  48  72
BRANCH  60  83
ATOM     83  C   UNL A   1      44.455  28.784  35.488  1.00  0.00     0.064 A 
ATOM     84  C   UNL A   1      44.391  27.581  36.210  1.00  0.00     0.173 A 
ATOM     85  C   UNL A   1      45.722  29.282  35.155  1.00  0.00     0.173 A 
ATOM     86  F   UNL A   1      43.202  27.066  36.560  1.00  0.00    -0.203 F 
ATOM     87  C   UNL A   1      45.549  26.919  36.604  1.00  0.00     0.198 A 
ATOM     88  C   UNL A   1      46.879  28.602  35.526  1.00  0.00     0.198 A 
ATOM     89  F   UNL A   1      45.837  30.422  34.454  1.00  0.00    -0.203 F 
ATOM     90  F   UNL A   1      45.463  25.795  37.328  1.00  0.00    -0.200 F 
ATOM     91  C   UNL A   1      46.793  27.428  36.259  1.00  0.00     0.200 A 
ATOM     92  F   UNL A   1      48.080  29.083  35.172  1.00  0.00    -0.200 F 
ATOM     93  F   UNL A   1      47.907  26.787  36.635  1.00  0.00    -0.200 F 
ENDBRANCH  60  83
ENDBRANCH  34  35
ENDBRANCH  26  29
ENDBRANCH  24  25
ENDBRANCH  23  24
ENDBRANCH   1  23
TORSDOF 13
ENDMDL
