MODEL 1
REMARK VINA RESULT:     -12.2      0.000      0.000
REMARK SMILES C[C@]1(CNC(=O)N2CCOC[C@H]2C(=O)NCCCNC(=O)c2ccc(-c3c4nc(c(-c5c(F)c(F)c(F)c(F)c5F)c5ccc([nH]5)c(-c5c(F)c(F)c(F)c(F)c5F)c5nc(c(-c6c(F)c(F)c(F)c(F)c6F)c6ccc3[nH]6)C=C5)C=C4)cc2)CCCO1
REMARK SMILES IDX 16 1 15 2 13 3 14 4 12 6 7 7 8 8 9 9 11 10 10 11 5 12 4 13
REMARK SMILES IDX 6 15 3 16 2 17 1 18 85 19 88 20 86 21 87 22 17 23 18 24
REMARK SMILES IDX 19 25 20 26 21 28 22 29 23 30 84 31 24 32 83 33 25 34 26 35
REMARK SMILES IDX 27 36 77 37 28 38 82 39 76 40 78 41 29 42 81 43 75 44 74 45
REMARK SMILES IDX 30 47 62 48 42 49 61 50 43 51 46 52 60 53 79 54 44 55 45 56
REMARK SMILES IDX 59 58 80 59 47 60 31 61 32 62 40 63 33 64 34 65 38 66 41 67
REMARK SMILES IDX 35 68 36 69 39 70 37 71 63 72 64 73 72 74 65 75 66 76 70 77
REMARK SMILES IDX 73 78 67 79 68 80 71 81 69 82 48 83 49 84 57 85 50 86 51 87
REMARK SMILES IDX 55 88 58 89 52 90 53 91 56 92 54 93
REMARK H PARENT 15 5 4 14 19 27 78 46 46 57
REMARK Flexibility Score: inf
ROOT
ATOM      1  C   UNL A   1      33.223  29.046  23.146  1.00  0.00     0.117 C 
ENDROOT
BRANCH   1   2
ATOM      2  N   UNL A   1      33.462  27.949  22.228  1.00  0.00    -0.354 N 
ATOM      3  C   UNL A   1      33.283  26.602  22.299  1.00  0.00     0.245 C 
ATOM      4  O   UNL A   1      33.563  26.000  21.252  1.00  0.00    -0.273 OA
ATOM      5  H   UNL A   1      33.834  28.243  21.364  1.00  0.00     0.163 HD
BRANCH   3   6
ATOM      6  C   UNL A   1      32.761  25.807  23.534  1.00  0.00     0.202 C 
ATOM      7  N   UNL A   1      31.298  25.739  23.761  1.00  0.00    -0.308 N 
ATOM      8  C   UNL A   1      30.657  24.605  23.128  1.00  0.00     0.151 C 
ATOM      9  C   UNL A   1      31.351  23.301  23.500  1.00  0.00     0.182 C 
ATOM     10  C   UNL A   1      33.428  24.434  23.738  1.00  0.00     0.195 C 
ATOM     11  O   UNL A   1      32.734  23.336  23.121  1.00  0.00    -0.377 OA
BRANCH   7  12
ATOM     12  C   UNL A   1      30.716  26.728  24.488  1.00  0.00     0.318 C 
ATOM     13  N   UNL A   1      30.172  27.832  23.947  1.00  0.00    -0.335 N 
ATOM     14  H   UNL A   1      30.059  28.539  24.622  1.00  0.00     0.165 HD
ATOM     15  O   UNL A   1      30.625  26.659  25.716  1.00  0.00    -0.249 OA
BRANCH  13  16
ATOM     16  C   UNL A   1      29.701  28.274  22.636  1.00  0.00     0.152 C 
BRANCH  16  17
ATOM     17  C   UNL A   1      28.641  29.403  22.639  1.00  0.00     0.083 C 
ATOM     18  C   UNL A   1      27.276  28.906  23.126  1.00  0.00     0.044 C 
ATOM     19  C   UNL A   1      29.146  30.582  23.481  1.00  0.00     0.039 C 
ATOM     20  O   UNL A   1      28.471  29.950  21.317  1.00  0.00    -0.373 OA
ATOM     21  C   UNL A   1      28.455  31.769  22.859  1.00  0.00     0.031 C 
ATOM     22  C   UNL A   1      28.406  31.385  21.396  1.00  0.00     0.161 C 
ENDBRANCH  16  17
ENDBRANCH  13  16
ENDBRANCH   7  12
ENDBRANCH   3   6
ENDBRANCH   1   2
BRANCH   1  23
ATOM     23  C   UNL A   1      34.073  28.930  24.408  1.00  0.00     0.042 C 
BRANCH  23  24
ATOM     24  C   UNL A   1      33.281  29.026  25.703  1.00  0.00     0.118 C 
BRANCH  24  25
ATOM     25  N   UNL A   1      32.974  30.405  26.058  1.00  0.00    -0.352 N 
ATOM     26  C   UNL A   1      33.520  31.242  27.001  1.00  0.00     0.251 C 
ATOM     27  H   UNL A   1      32.249  30.808  25.529  1.00  0.00     0.163 HD
ATOM     28  O   UNL A   1      32.953  32.304  27.245  1.00  0.00    -0.269 OA
BRANCH  26  29
ATOM     29  C   UNL A   1      34.759  30.896  27.742  1.00  0.00     0.039 A 
ATOM     30  C   UNL A   1      34.797  29.684  28.443  1.00  0.00     0.014 A 
ATOM     31  C   UNL A   1      35.852  31.761  27.821  1.00  0.00     0.014 A 
ATOM     32  C   UNL A   1      35.934  29.327  29.175  1.00  0.00     0.010 A 
ATOM     33  C   UNL A   1      37.023  31.363  28.468  1.00  0.00     0.010 A 
ATOM     34  C   UNL A   1      37.070  30.152  29.170  1.00  0.00    -0.014 A 
BRANCH  34  35
ATOM     35  C   UNL A   1      38.294  29.776  29.926  1.00  0.00     0.031 A 
ATOM     36  C   UNL A   1      38.534  30.322  31.308  1.00  0.00     0.074 A 
ATOM     37  C   UNL A   1      39.214  28.976  29.351  1.00  0.00     0.049 A 
ATOM     38  N   UNL A   1      39.551  30.131  32.112  1.00  0.00    -0.248 NA
ATOM     39  C   UNL A   1      37.511  31.230  31.850  1.00  0.00     0.031 C 
ATOM     40  C   UNL A   1      39.133  28.433  27.994  1.00  0.00     0.029 A 
ATOM     41  N   UNL A   1      40.399  28.481  29.836  1.00  0.00    -0.354 N 
ATOM     42  C   UNL A   1      39.299  30.908  33.235  1.00  0.00     0.074 A 
ATOM     43  C   UNL A   1      38.062  31.617  32.990  1.00  0.00     0.031 C 
ATOM     44  C   UNL A   1      40.202  27.654  27.767  1.00  0.00     0.029 A 
ATOM     45  C   UNL A   1      41.058  27.665  28.950  1.00  0.00     0.049 A 
ATOM     46  H   UNL A   1      40.743  28.690  30.735  1.00  0.00     0.167 HD
ATOM     47  C   UNL A   1      40.019  31.003  34.379  1.00  0.00     0.037 A 
ATOM     48  C   UNL A   1      42.218  26.994  29.080  1.00  0.00     0.037 A 
ATOM     49  C   UNL A   1      41.225  30.265  34.641  1.00  0.00     0.049 A 
ATOM     50  C   UNL A   1      42.974  27.079  30.377  1.00  0.00     0.074 A 
ATOM     51  C   UNL A   1      41.989  30.234  35.795  1.00  0.00     0.029 A 
ATOM     52  N   UNL A   1      41.843  29.419  33.730  1.00  0.00    -0.354 N 
ATOM     53  N   UNL A   1      42.686  27.760  31.459  1.00  0.00    -0.248 NA
ATOM     54  C   UNL A   1      44.210  26.290  30.476  1.00  0.00     0.031 C 
ATOM     55  C   UNL A   1      43.086  29.395  35.572  1.00  0.00     0.029 A 
ATOM     56  C   UNL A   1      42.986  28.873  34.292  1.00  0.00     0.049 A 
ATOM     57  H   UNL A   1      41.517  29.234  32.820  1.00  0.00     0.167 HD
ATOM     58  C   UNL A   1      43.690  27.470  32.371  1.00  0.00     0.074 A 
ATOM     59  C   UNL A   1      44.583  26.531  31.724  1.00  0.00     0.031 C 
ATOM     60  C   UNL A   1      43.862  27.942  33.631  1.00  0.00     0.037 A 
BRANCH  47  61
ATOM     61  C   UNL A   1      39.509  31.933  35.444  1.00  0.00     0.064 A 
ATOM     62  C   UNL A   1      38.613  31.497  36.432  1.00  0.00     0.173 A 
ATOM     63  C   UNL A   1      39.943  33.265  35.494  1.00  0.00     0.173 A 
ATOM     64  F   UNL A   1      38.157  30.236  36.421  1.00  0.00    -0.203 F 
ATOM     65  C   UNL A   1      38.146  32.370  37.412  1.00  0.00     0.198 A 
ATOM     66  C   UNL A   1      39.497  34.128  36.493  1.00  0.00     0.198 A 
ATOM     67  F   UNL A   1      40.804  33.732  34.578  1.00  0.00    -0.203 F 
ATOM     68  F   UNL A   1      37.251  31.945  38.315  1.00  0.00    -0.200 F 
ATOM     69  C   UNL A   1      38.593  33.682  37.445  1.00  0.00     0.200 A 
ATOM     70  F   UNL A   1      39.939  35.393  36.532  1.00  0.00    -0.200 F 
ATOM     71  F   UNL A   1      38.146  34.520  38.392  1.00  0.00    -0.200 F 
ENDBRANCH  47  61
BRANCH  48  72
ATOM     72  C   UNL A   1      42.712  26.147  27.964  1.00  0.00     0.064 A 
ATOM     73  C   UNL A   1      43.578  26.671  26.995  1.00  0.00     0.173 A 
ATOM     74  C   UNL A   1      42.334  24.802  27.844  1.00  0.00     0.173 A 
ATOM     75  F   UNL A   1      43.952  27.957  27.057  1.00  0.00    -0.203 F 
ATOM     76  C   UNL A   1      44.034  25.887  25.937  1.00  0.00     0.198 A 
ATOM     77  C   UNL A   1      42.811  24.012  26.800  1.00  0.00     0.198 A 
ATOM     78  F   UNL A   1      41.512  24.252  28.749  1.00  0.00    -0.203 F 
ATOM     79  F   UNL A   1      44.830  26.424  25.003  1.00  0.00    -0.200 F 
ATOM     80  C   UNL A   1      43.655  24.557  25.844  1.00  0.00     0.200 A 
ATOM     81  F   UNL A   1      42.456  22.722  26.722  1.00  0.00    -0.200 F 
ATOM     82  F   UNL A   1      44.099  23.801  24.830  1.00  0.00    -0.200 F 
ENDBRANCH  48  72
BRANCH  60  83
ATOM     83  C   UNL A   1      45.050  27.433  34.392  1.00  0.00     0.064 A 
ATOM     84  C   UNL A   1      44.979  26.265  35.165  1.00  0.00     0.173 A 
ATOM     85  C   UNL A   1      46.278  28.111  34.333  1.00  0.00     0.173 A 
ATOM     86  F   UNL A   1      43.823  25.593  35.267  1.00  0.00    -0.203 F 
ATOM     87  C   UNL A   1      46.087  25.811  35.876  1.00  0.00     0.198 A 
ATOM     88  C   UNL A   1      47.390  27.637  35.022  1.00  0.00     0.198 A 
ATOM     89  F   UNL A   1      46.399  29.229  33.602  1.00  0.00    -0.203 F 
ATOM     90  F   UNL A   1      45.982  24.721  36.651  1.00  0.00    -0.200 F 
ATOM     91  C   UNL A   1      47.291  26.493  35.800  1.00  0.00     0.200 A 
ATOM     92  F   UNL A   1      48.556  28.292  34.939  1.00  0.00    -0.200 F 
ATOM     93  F   UNL A   1      48.356  26.054  36.486  1.00  0.00    -0.200 F 
ENDBRANCH  60  83
ENDBRANCH  34  35
ENDBRANCH  26  29
ENDBRANCH  24  25
ENDBRANCH  23  24
ENDBRANCH   1  23
TORSDOF 13
ENDMDL
MODEL 2
REMARK VINA RESULT:     -12.2      1.702      2.698
REMARK SMILES C[C@]1(CNC(=O)N2CCOC[C@H]2C(=O)NCCCNC(=O)c2ccc(-c3c4nc(c(-c5c(F)c(F)c(F)c(F)c5F)c5ccc([nH]5)c(-c5c(F)c(F)c(F)c(F)c5F)c5nc(c(-c6c(F)c(F)c(F)c(F)c6F)c6ccc3[nH]6)C=C5)C=C4)cc2)CCCO1
REMARK SMILES IDX 16 1 15 2 13 3 14 4 12 6 7 7 8 8 9 9 11 10 10 11 5 12 4 13
REMARK SMILES IDX 6 15 3 16 2 17 1 18 85 19 88 20 86 21 87 22 17 23 18 24
REMARK SMILES IDX 19 25 20 26 21 28 22 29 23 30 84 31 24 32 83 33 25 34 26 35
REMARK SMILES IDX 27 36 77 37 28 38 82 39 76 40 78 41 29 42 81 43 75 44 74 45
REMARK SMILES IDX 30 47 62 48 42 49 61 50 43 51 46 52 60 53 79 54 44 55 45 56
REMARK SMILES IDX 59 58 80 59 47 60 31 61 32 62 40 63 33 64 34 65 38 66 41 67
REMARK SMILES IDX 35 68 36 69 39 70 37 71 63 72 64 73 72 74 65 75 66 76 70 77
REMARK SMILES IDX 73 78 67 79 68 80 71 81 69 82 48 83 49 84 57 85 50 86 51 87
REMARK SMILES IDX 55 88 58 89 52 90 53 91 56 92 54 93
REMARK H PARENT 15 5 4 14 19 27 78 46 46 57
REMARK Flexibility Score: inf
ROOT
ATOM      1  C   UNL A   1      31.387  30.421  26.233  1.00  0.00     0.117 C 
ENDROOT
BRANCH   1   2
ATOM      2  N   UNL A   1      32.282  30.102  25.137  1.00  0.00    -0.354 N 
ATOM      3  C   UNL A   1      32.752  28.939  24.610  1.00  0.00     0.245 C 
ATOM      4  O   UNL A   1      33.473  29.092  23.613  1.00  0.00    -0.273 OA
ATOM      5  H   UNL A   1      32.624  30.901  24.673  1.00  0.00     0.163 HD
BRANCH   3   6
ATOM      6  C   UNL A   1      32.448  27.502  25.133  1.00  0.00     0.202 C 
ATOM      7  N   UNL A   1      31.647  26.596  24.276  1.00  0.00    -0.308 N 
ATOM      8  C   UNL A   1      32.441  25.784  23.377  1.00  0.00     0.151 C 
ATOM      9  C   UNL A   1      33.535  25.037  24.128  1.00  0.00     0.182 C 
ATOM     10  C   UNL A   1      33.661  26.776  25.744  1.00  0.00     0.195 C 
ATOM     11  O   UNL A   1      34.393  25.955  24.818  1.00  0.00    -0.377 OA
BRANCH   7  12
ATOM     12  C   UNL A   1      30.295  26.635  24.393  1.00  0.00     0.318 C 
ATOM     13  N   UNL A   1      29.519  27.550  23.786  1.00  0.00    -0.335 N 
ATOM     14  H   UNL A   1      28.627  27.589  24.200  1.00  0.00     0.165 HD
ATOM     15  O   UNL A   1      29.678  25.797  25.056  1.00  0.00    -0.249 OA
BRANCH  13  16
ATOM     16  C   UNL A   1      29.630  28.500  22.681  1.00  0.00     0.152 C 
BRANCH  16  17
ATOM     17  C   UNL A   1      28.481  29.530  22.552  1.00  0.00     0.083 C 
ATOM     18  C   UNL A   1      27.143  28.962  23.037  1.00  0.00     0.044 C 
ATOM     19  C   UNL A   1      28.854  30.815  23.303  1.00  0.00     0.039 C 
ATOM     20  O   UNL A   1      28.318  29.948  21.183  1.00  0.00    -0.373 OA
ATOM     21  C   UNL A   1      28.093  31.882  22.558  1.00  0.00     0.031 C 
ATOM     22  C   UNL A   1      28.132  31.373  21.133  1.00  0.00     0.161 C 
ENDBRANCH  16  17
ENDBRANCH  13  16
ENDBRANCH   7  12
ENDBRANCH   3   6
ENDBRANCH   1   2
BRANCH   1  23
ATOM     23  C   UNL A   1      31.339  31.920  26.514  1.00  0.00     0.042 C 
BRANCH  23  24
ATOM     24  C   UNL A   1      32.686  32.531  26.866  1.00  0.00     0.118 C 
BRANCH  24  25
ATOM     25  N   UNL A   1      32.548  33.833  27.507  1.00  0.00    -0.352 N 
ATOM     26  C   UNL A   1      33.207  34.394  28.574  1.00  0.00     0.251 C 
ATOM     27  H   UNL A   1      31.861  34.412  27.104  1.00  0.00     0.163 HD
ATOM     28  O   UNL A   1      32.772  35.437  29.054  1.00  0.00    -0.269 OA
BRANCH  26  29
ATOM     29  C   UNL A   1      34.415  33.770  29.172  1.00  0.00     0.039 A 
ATOM     30  C   UNL A   1      34.242  32.683  30.038  1.00  0.00     0.014 A 
ATOM     31  C   UNL A   1      35.701  34.270  28.958  1.00  0.00     0.014 A 
ATOM     32  C   UNL A   1      35.349  32.080  30.643  1.00  0.00     0.010 A 
ATOM     33  C   UNL A   1      36.812  33.608  29.481  1.00  0.00     0.010 A 
ATOM     34  C   UNL A   1      36.648  32.520  30.347  1.00  0.00    -0.014 A 
BRANCH  34  35
ATOM     35  C   UNL A   1      37.835  31.874  30.967  1.00  0.00     0.031 A 
ATOM     36  C   UNL A   1      38.273  32.255  32.356  1.00  0.00     0.074 A 
ATOM     37  C   UNL A   1      38.550  30.974  30.262  1.00  0.00     0.049 A 
ATOM     38  N   UNL A   1      39.294  31.823  33.054  1.00  0.00    -0.248 NA
ATOM     39  C   UNL A   1      37.474  33.281  33.045  1.00  0.00     0.031 C 
ATOM     40  C   UNL A   1      38.272  30.567  28.884  1.00  0.00     0.029 A 
ATOM     41  N   UNL A   1      39.658  30.240  30.607  1.00  0.00    -0.354 N 
ATOM     42  C   UNL A   1      39.271  32.538  34.244  1.00  0.00     0.074 A 
ATOM     43  C   UNL A   1      38.169  33.471  34.156  1.00  0.00     0.031 C 
ATOM     44  C   UNL A   1      39.162  29.633  28.513  1.00  0.00     0.029 A 
ATOM     45  C   UNL A   1      40.090  29.396  29.614  1.00  0.00     0.049 A 
ATOM     46  H   UNL A   1      40.099  30.313  31.484  1.00  0.00     0.167 HD
ATOM     47  C   UNL A   1      40.079  32.412  35.325  1.00  0.00     0.037 A 
ATOM     48  C   UNL A   1      41.116  28.524  29.598  1.00  0.00     0.037 A 
ATOM     49  C   UNL A   1      41.147  31.454  35.430  1.00  0.00     0.049 A 
ATOM     50  C   UNL A   1      41.968  28.369  30.827  1.00  0.00     0.074 A 
ATOM     51  C   UNL A   1      41.975  31.196  36.509  1.00  0.00     0.029 A 
ATOM     52  N   UNL A   1      41.531  30.590  34.415  1.00  0.00    -0.354 N 
ATOM     53  N   UNL A   1      41.889  28.999  31.973  1.00  0.00    -0.248 NA
ATOM     54  C   UNL A   1      43.044  27.369  30.764  1.00  0.00     0.031 C 
ATOM     55  C   UNL A   1      42.882  30.199  36.135  1.00  0.00     0.029 A 
ATOM     56  C   UNL A   1      42.595  29.808  34.837  1.00  0.00     0.049 A 
ATOM     57  H   UNL A   1      41.111  30.541  33.526  1.00  0.00     0.167 HD
ATOM     58  C   UNL A   1      42.888  28.464  32.773  1.00  0.00     0.074 A 
ATOM     59  C   UNL A   1      43.545  27.439  31.989  1.00  0.00     0.031 C 
ATOM     60  C   UNL A   1      43.236  28.794  34.042  1.00  0.00     0.037 A 
BRANCH  47  61
ATOM     61  C   UNL A   1      39.827  33.328  36.489  1.00  0.00     0.064 A 
ATOM     62  C   UNL A   1      40.496  34.555  36.617  1.00  0.00     0.173 A 
ATOM     63  C   UNL A   1      38.886  32.988  37.472  1.00  0.00     0.173 A 
ATOM     64  F   UNL A   1      41.414  34.921  35.711  1.00  0.00    -0.203 F 
ATOM     65  C   UNL A   1      40.255  35.393  37.703  1.00  0.00     0.198 A 
ATOM     66  C   UNL A   1      38.626  33.842  38.541  1.00  0.00     0.198 A 
ATOM     67  F   UNL A   1      38.214  31.830  37.395  1.00  0.00    -0.203 F 
ATOM     68  F   UNL A   1      40.942  36.537  37.831  1.00  0.00    -0.200 F 
ATOM     69  C   UNL A   1      39.315  35.039  38.660  1.00  0.00     0.200 A 
ATOM     70  F   UNL A   1      37.709  33.505  39.460  1.00  0.00    -0.200 F 
ATOM     71  F   UNL A   1      39.081  35.849  39.702  1.00  0.00    -0.200 F 
ENDBRANCH  47  61
BRANCH  48  72
ATOM     72  C   UNL A   1      41.364  27.697  28.389  1.00  0.00     0.064 A 
ATOM     73  C   UNL A   1      42.269  28.118  27.405  1.00  0.00     0.173 A 
ATOM     74  C   UNL A   1      40.708  26.474  28.193  1.00  0.00     0.173 A 
ATOM     75  F   UNL A   1      42.905  29.291  27.539  1.00  0.00    -0.203 F 
ATOM     76  C   UNL A   1      42.496  27.355  26.261  1.00  0.00     0.198 A 
ATOM     77  C   UNL A   1      40.955  25.699  27.061  1.00  0.00     0.198 A 
ATOM     78  F   UNL A   1      39.837  26.024  29.108  1.00  0.00    -0.203 F 
ATOM     79  F   UNL A   1      43.337  27.800  25.318  1.00  0.00    -0.200 F 
ATOM     80  C   UNL A   1      41.844  26.144  26.093  1.00  0.00     0.200 A 
ATOM     81  F   UNL A   1      40.335  24.521  26.909  1.00  0.00    -0.200 F 
ATOM     82  F   UNL A   1      42.067  25.406  24.997  1.00  0.00    -0.200 F 
ENDBRANCH  48  72
BRANCH  60  83
ATOM     83  C   UNL A   1      44.365  28.025  34.660  1.00  0.00     0.064 A 
ATOM     84  C   UNL A   1      45.690  28.478  34.579  1.00  0.00     0.173 A 
ATOM     85  C   UNL A   1      44.117  26.832  35.356  1.00  0.00     0.173 A 
ATOM     86  F   UNL A   1      45.979  29.603  33.910  1.00  0.00    -0.203 F 
ATOM     87  C   UNL A   1      46.730  27.747  35.148  1.00  0.00     0.198 A 
ATOM     88  C   UNL A   1      45.157  26.120  35.947  1.00  0.00     0.198 A 
ATOM     89  F   UNL A   1      42.866  26.360  35.467  1.00  0.00    -0.203 F 
ATOM     90  F   UNL A   1      47.995  28.171  35.014  1.00  0.00    -0.200 F 
ATOM     91  C   UNL A   1      46.462  26.573  35.835  1.00  0.00     0.200 A 
ATOM     92  F   UNL A   1      44.895  24.991  36.619  1.00  0.00    -0.200 F 
ATOM     93  F   UNL A   1      47.465  25.871  36.381  1.00  0.00    -0.200 F 
ENDBRANCH  60  83
ENDBRANCH  34  35
ENDBRANCH  26  29
ENDBRANCH  24  25
ENDBRANCH  23  24
ENDBRANCH   1  23
TORSDOF 13
ENDMDL
MODEL 3
REMARK VINA RESULT:     -12.0      4.971     10.433
REMARK SMILES C[C@]1(CNC(=O)N2CCOC[C@H]2C(=O)NCCCNC(=O)c2ccc(-c3c4nc(c(-c5c(F)c(F)c(F)c(F)c5F)c5ccc([nH]5)c(-c5c(F)c(F)c(F)c(F)c5F)c5nc(c(-c6c(F)c(F)c(F)c(F)c6F)c6ccc3[nH]6)C=C5)C=C4)cc2)CCCO1
REMARK SMILES IDX 16 1 15 2 13 3 14 4 12 6 7 7 8 8 9 9 11 10 10 11 5 12 4 13
REMARK SMILES IDX 6 15 3 16 2 17 1 18 85 19 88 20 86 21 87 22 17 23 18 24
REMARK SMILES IDX 19 25 20 26 21 28 22 29 23 30 84 31 24 32 83 33 25 34 26 35
REMARK SMILES IDX 27 36 77 37 28 38 82 39 76 40 78 41 29 42 81 43 75 44 74 45
REMARK SMILES IDX 30 47 62 48 42 49 61 50 43 51 46 52 60 53 79 54 44 55 45 56
REMARK SMILES IDX 59 58 80 59 47 60 31 61 32 62 40 63 33 64 34 65 38 66 41 67
REMARK SMILES IDX 35 68 36 69 39 70 37 71 63 72 64 73 72 74 65 75 66 76 70 77
REMARK SMILES IDX 73 78 67 79 68 80 71 81 69 82 48 83 49 84 57 85 50 86 51 87
REMARK SMILES IDX 55 88 58 89 52 90 53 91 56 92 54 93
REMARK H PARENT 15 5 4 14 19 27 78 46 46 57
REMARK Flexibility Score: inf
ROOT
ATOM      1  C   UNL A   1      36.169  22.161  25.294  1.00  0.00     0.117 C 
ENDROOT
BRANCH   1   2
ATOM      2  N   UNL A   1      35.393  22.155  26.519  1.00  0.00    -0.354 N 
ATOM      3  C   UNL A   1      34.147  22.589  26.849  1.00  0.00     0.245 C 
ATOM      4  O   UNL A   1      33.820  22.342  28.019  1.00  0.00    -0.273 OA
ATOM      5  H   UNL A   1      35.872  21.747  27.277  1.00  0.00     0.163 HD
BRANCH   3   6
ATOM      6  C   UNL A   1      33.147  23.321  25.904  1.00  0.00     0.202 C 
ATOM      7  N   UNL A   1      32.063  22.529  25.276  1.00  0.00    -0.308 N 
ATOM      8  C   UNL A   1      30.842  22.484  26.053  1.00  0.00     0.151 C 
ATOM      9  C   UNL A   1      30.376  23.885  26.429  1.00  0.00     0.182 C 
ATOM     10  C   UNL A   1      32.622  24.664  26.446  1.00  0.00     0.195 C 
ATOM     11  O   UNL A   1      31.389  24.571  27.179  1.00  0.00    -0.377 OA
BRANCH   7  12
ATOM     12  C   UNL A   1      32.321  21.918  24.091  1.00  0.00     0.318 C 
ATOM     13  N   UNL A   1      33.013  20.771  23.976  1.00  0.00    -0.335 N 
ATOM     14  H   UNL A   1      33.330  20.639  23.054  1.00  0.00     0.165 HD
ATOM     15  O   UNL A   1      31.902  22.374  23.023  1.00  0.00    -0.249 OA
BRANCH  13  16
ATOM     16  C   UNL A   1      33.425  19.666  24.839  1.00  0.00     0.152 C 
BRANCH  16  17
ATOM     17  C   UNL A   1      33.068  18.244  24.341  1.00  0.00     0.083 C 
ATOM     18  C   UNL A   1      32.470  18.263  22.930  1.00  0.00     0.044 C 
ATOM     19  C   UNL A   1      34.308  17.345  24.417  1.00  0.00     0.039 C 
ATOM     20  O   UNL A   1      32.114  17.617  25.220  1.00  0.00    -0.373 OA
ATOM     21  C   UNL A   1      33.724  15.969  24.609  1.00  0.00     0.031 C 
ATOM     22  C   UNL A   1      32.500  16.252  25.453  1.00  0.00     0.161 C 
ENDBRANCH  16  17
ENDBRANCH  13  16
ENDBRANCH   7  12
ENDBRANCH   3   6
ENDBRANCH   1   2
BRANCH   1  23
ATOM     23  C   UNL A   1      37.012  20.898  25.144  1.00  0.00     0.042 C 
BRANCH  23  24
ATOM     24  C   UNL A   1      38.513  21.148  25.140  1.00  0.00     0.118 C 
BRANCH  24  25
ATOM     25  N   UNL A   1      39.202  20.360  26.154  1.00  0.00    -0.352 N 
ATOM     26  C   UNL A   1      40.221  20.683  27.017  1.00  0.00     0.251 C 
ATOM     27  H   UNL A   1      38.881  19.433  26.235  1.00  0.00     0.163 HD
ATOM     28  O   UNL A   1      40.770  19.782  27.646  1.00  0.00    -0.269 OA
BRANCH  26  29
ATOM     29  C   UNL A   1      40.688  22.081  27.199  1.00  0.00     0.039 A 
ATOM     30  C   UNL A   1      41.667  22.333  28.168  1.00  0.00     0.014 A 
ATOM     31  C   UNL A   1      40.141  23.153  26.491  1.00  0.00     0.014 A 
ATOM     32  C   UNL A   1      42.121  23.637  28.390  1.00  0.00     0.010 A 
ATOM     33  C   UNL A   1      40.661  24.439  26.642  1.00  0.00     0.010 A 
ATOM     34  C   UNL A   1      41.641  24.700  27.608  1.00  0.00    -0.014 A 
BRANCH  34  35
ATOM     35  C   UNL A   1      42.129  26.088  27.819  1.00  0.00     0.031 A 
ATOM     36  C   UNL A   1      43.458  26.522  27.259  1.00  0.00     0.074 A 
ATOM     37  C   UNL A   1      41.398  26.949  28.554  1.00  0.00     0.049 A 
ATOM     38  N   UNL A   1      44.064  27.680  27.360  1.00  0.00    -0.248 NA
ATOM     39  C   UNL A   1      44.224  25.513  26.511  1.00  0.00     0.031 C 
ATOM     40  C   UNL A   1      40.126  26.634  29.207  1.00  0.00     0.029 A 
ATOM     41  N   UNL A   1      41.619  28.265  28.877  1.00  0.00    -0.354 N 
ATOM     42  C   UNL A   1      45.283  27.528  26.711  1.00  0.00     0.074 A 
ATOM     43  C   UNL A   1      45.358  26.153  26.268  1.00  0.00     0.031 C 
ATOM     44  C   UNL A   1      39.664  27.734  29.823  1.00  0.00     0.029 A 
ATOM     45  C   UNL A   1      40.618  28.822  29.633  1.00  0.00     0.049 A 
ATOM     46  H   UNL A   1      42.420  28.762  28.592  1.00  0.00     0.167 HD
ATOM     47  C   UNL A   1      46.243  28.456  26.483  1.00  0.00     0.037 A 
ATOM     48  C   UNL A   1      40.481  30.073  30.113  1.00  0.00     0.037 A 
ATOM     49  C   UNL A   1      46.149  29.834  26.885  1.00  0.00     0.049 A 
ATOM     50  C   UNL A   1      41.538  31.097  29.804  1.00  0.00     0.074 A 
ATOM     51  C   UNL A   1      47.032  30.870  26.637  1.00  0.00     0.029 A 
ATOM     52  N   UNL A   1      45.100  30.369  27.619  1.00  0.00    -0.354 N 
ATOM     53  N   UNL A   1      42.651  30.959  29.127  1.00  0.00    -0.248 NA
ATOM     54  C   UNL A   1      41.311  32.456  30.317  1.00  0.00     0.031 C 
ATOM     55  C   UNL A   1      46.535  32.026  27.250  1.00  0.00     0.029 A 
ATOM     56  C   UNL A   1      45.322  31.719  27.846  1.00  0.00     0.049 A 
ATOM     57  H   UNL A   1      44.315  29.865  27.933  1.00  0.00     0.167 HD
ATOM     58  C   UNL A   1      43.248  32.211  29.115  1.00  0.00     0.074 A 
ATOM     59  C   UNL A   1      42.362  33.103  29.833  1.00  0.00     0.031 C 
ATOM     60  C   UNL A   1      44.429  32.589  28.564  1.00  0.00     0.037 A 
BRANCH  47  61
ATOM     61  C   UNL A   1      47.476  28.012  25.749  1.00  0.00     0.064 A 
ATOM     62  C   UNL A   1      48.656  27.676  26.431  1.00  0.00     0.173 A 
ATOM     63  C   UNL A   1      47.471  27.893  24.352  1.00  0.00     0.173 A 
ATOM     64  F   UNL A   1      48.718  27.784  27.767  1.00  0.00    -0.203 F 
ATOM     65  C   UNL A   1      49.794  27.267  25.739  1.00  0.00     0.198 A 
ATOM     66  C   UNL A   1      48.601  27.456  23.665  1.00  0.00     0.198 A 
ATOM     67  F   UNL A   1      46.368  28.196  23.651  1.00  0.00    -0.203 F 
ATOM     68  F   UNL A   1      50.924  27.000  26.408  1.00  0.00    -0.200 F 
ATOM     69  C   UNL A   1      49.763  27.151  24.357  1.00  0.00     0.200 A 
ATOM     70  F   UNL A   1      48.567  27.333  22.330  1.00  0.00    -0.200 F 
ATOM     71  F   UNL A   1      50.857  26.754  23.692  1.00  0.00    -0.200 F 
ENDBRANCH  47  61
BRANCH  48  72
ATOM     72  C   UNL A   1      39.273  30.436  30.897  1.00  0.00     0.064 A 
ATOM     73  C   UNL A   1      38.112  30.890  30.257  1.00  0.00     0.173 A 
ATOM     74  C   UNL A   1      39.251  30.334  32.295  1.00  0.00     0.173 A 
ATOM     75  F   UNL A   1      38.092  31.024  28.923  1.00  0.00    -0.203 F 
ATOM     76  C   UNL A   1      36.979  31.246  30.987  1.00  0.00     0.198 A 
ATOM     77  C   UNL A   1      38.109  30.665  33.022  1.00  0.00     0.198 A 
ATOM     78  F   UNL A   1      40.334  29.897  32.954  1.00  0.00    -0.203 F 
ATOM     79  F   UNL A   1      35.897  31.715  30.353  1.00  0.00    -0.200 F 
ATOM     80  C   UNL A   1      36.977  31.128  32.368  1.00  0.00     0.200 A 
ATOM     81  F   UNL A   1      38.104  30.533  34.356  1.00  0.00    -0.200 F 
ATOM     82  F   UNL A   1      35.885  31.463  33.070  1.00  0.00    -0.200 F 
ENDBRANCH  48  72
BRANCH  60  83
ATOM     83  C   UNL A   1      44.814  34.032  28.703  1.00  0.00     0.064 A 
ATOM     84  C   UNL A   1      45.578  34.483  29.789  1.00  0.00     0.173 A 
ATOM     85  C   UNL A   1      44.430  34.969  27.733  1.00  0.00     0.173 A 
ATOM     86  F   UNL A   1      45.954  33.628  30.752  1.00  0.00    -0.203 F 
ATOM     87  C   UNL A   1      45.919  35.827  29.913  1.00  0.00     0.198 A 
ATOM     88  C   UNL A   1      44.797  36.307  27.845  1.00  0.00     0.198 A 
ATOM     89  F   UNL A   1      43.704  34.585  26.672  1.00  0.00    -0.203 F 
ATOM     90  F   UNL A   1      46.605  36.247  30.986  1.00  0.00    -0.200 F 
ATOM     91  C   UNL A   1      45.533  36.736  28.940  1.00  0.00     0.200 A 
ATOM     92  F   UNL A   1      44.432  37.181  26.899  1.00  0.00    -0.200 F 
ATOM     93  F   UNL A   1      45.861  38.030  29.061  1.00  0.00    -0.200 F 
ENDBRANCH  60  83
ENDBRANCH  34  35
ENDBRANCH  26  29
ENDBRANCH  24  25
ENDBRANCH  23  24
ENDBRANCH   1  23
TORSDOF 13
ENDMDL
