MODEL 1
REMARK VINA RESULT:     -12.3      0.000      0.000
REMARK SMILES COc1ccc([C@@H](CC(=O)NCCCNC(=O)c2ccc(-c3c4nc(c(-c5c(F)c(F)c(F)c(F)c5F)c5ccc([nH]5)c(-c5c(F)c(F)c(F)c(F)c5F)c5nc(c(-c6c(F)c(F)c(F)c(F)c6F)c6ccc3[nH]6)C=C5)C=C4)cc2)N2C(=O)[C@H]3CC=CC[C@H]3C2=O)cc1OC
REMARK SMILES IDX 12 1 11 2 9 3 10 4 8 6 7 7 6 8 3 9 4 10 93 11 5 12 92 13
REMARK SMILES IDX 2 14 1 15 94 16 95 17 81 18 82 19 90 20 83 21 84 22 89 23
REMARK SMILES IDX 91 24 85 25 88 26 86 27 87 28 13 29 14 30 15 31 16 32 17 34
REMARK SMILES IDX 18 35 19 36 80 37 20 38 79 39 21 40 22 41 23 42 73 43 24 44
REMARK SMILES IDX 78 45 72 46 74 47 25 48 77 49 71 50 70 51 26 53 58 54 38 55
REMARK SMILES IDX 57 56 39 57 42 58 56 59 75 60 40 61 41 62 55 64 76 65 43 66
REMARK SMILES IDX 27 67 28 68 36 69 29 70 30 71 34 72 37 73 31 74 32 75 35 76
REMARK SMILES IDX 33 77 59 78 60 79 68 80 61 81 62 82 66 83 69 84 63 85 64 86
REMARK SMILES IDX 67 87 65 88 44 89 45 90 53 91 46 92 47 93 51 94 54 95 48 96
REMARK SMILES IDX 49 97 52 98 50 99
REMARK H PARENT 11 5 15 33 74 52 42 63
REMARK Flexibility Score: inf
ROOT
ATOM      1  C   UNL A   1      37.416  21.260  24.638  1.00  0.00     0.117 C 
ENDROOT
BRANCH   1   2
ATOM      2  N   UNL A   1      37.618  22.201  25.727  1.00  0.00    -0.356 N 
ATOM      3  C   UNL A   1      37.227  23.501  25.833  1.00  0.00     0.222 C 
ATOM      4  O   UNL A   1      37.897  24.203  26.593  1.00  0.00    -0.275 OA
ATOM      5  H   UNL A   1      38.109  21.845  26.502  1.00  0.00     0.163 HD
BRANCH   3   6
ATOM      6  C   UNL A   1      35.980  24.020  25.128  1.00  0.00     0.130 C 
BRANCH   6   7
ATOM      7  C   UNL A   1      34.630  23.932  25.891  1.00  0.00     0.133 C 
BRANCH   7   8
ATOM      8  C   UNL A   1      34.041  22.520  25.717  1.00  0.00    -0.020 A 
ATOM      9  C   UNL A   1      32.778  19.990  25.381  1.00  0.00     0.160 A 
ATOM     10  C   UNL A   1      33.403  20.324  26.584  1.00  0.00     0.051 A 
ATOM     11  C   UNL A   1      32.841  20.903  24.315  1.00  0.00     0.161 A 
ATOM     12  C   UNL A   1      34.028  21.568  26.744  1.00  0.00     0.010 A 
ATOM     13  C   UNL A   1      33.456  22.154  24.495  1.00  0.00     0.056 A 
BRANCH   9  14
ATOM     14  O   UNL A   1      32.045  18.849  25.208  1.00  0.00    -0.493 OA
ATOM     15  C   UNL A   1      32.614  17.617  25.625  1.00  0.00     0.278 C 
ENDBRANCH   9  14
BRANCH  11  16
ATOM     16  O   UNL A   1      32.310  20.736  23.060  1.00  0.00    -0.493 OA
ATOM     17  C   UNL A   1      32.288  21.887  22.222  1.00  0.00     0.278 C 
ENDBRANCH  11  16
ENDBRANCH   7   8
BRANCH   7  18
ATOM     18  N   UNL A   1      33.664  25.006  25.616  1.00  0.00    -0.274 N 
ATOM     19  C   UNL A   1      32.473  25.170  26.255  1.00  0.00     0.234 C 
ATOM     20  C   UNL A   1      33.525  25.590  24.390  1.00  0.00     0.234 C 
ATOM     21  O   UNL A   1      31.900  24.356  26.966  1.00  0.00    -0.274 OA
ATOM     22  C   UNL A   1      31.866  26.486  25.824  1.00  0.00     0.095 C 
ATOM     23  C   UNL A   1      32.611  26.783  24.520  1.00  0.00     0.095 C 
ATOM     24  O   UNL A   1      34.018  25.231  23.335  1.00  0.00    -0.274 OA
ATOM     25  C   UNL A   1      32.021  27.520  26.942  1.00  0.00     0.041 C 
ATOM     26  C   UNL A   1      33.474  28.051  24.478  1.00  0.00     0.041 C 
ATOM     27  C   UNL A   1      33.347  28.221  26.946  1.00  0.00    -0.030 C 
ATOM     28  C   UNL A   1      34.014  28.469  25.812  1.00  0.00    -0.030 C 
ENDBRANCH   7  18
ENDBRANCH   6   7
ENDBRANCH   3   6
ENDBRANCH   1   2
BRANCH   1  29
ATOM     29  C   UNL A   1      38.267  20.015  24.873  1.00  0.00     0.042 C 
BRANCH  29  30
ATOM     30  C   UNL A   1      39.118  20.028  26.135  1.00  0.00     0.118 C 
BRANCH  30  31
ATOM     31  N   UNL A   1      40.279  19.173  26.012  1.00  0.00    -0.352 N 
ATOM     32  C   UNL A   1      41.630  19.407  25.979  1.00  0.00     0.251 C 
ATOM     33  H   UNL A   1      40.051  18.218  25.937  1.00  0.00     0.163 HD
ATOM     34  O   UNL A   1      42.343  18.461  25.633  1.00  0.00    -0.269 OA
BRANCH  32  35
ATOM     35  C   UNL A   1      42.297  20.698  26.334  1.00  0.00     0.039 A 
ATOM     36  C   UNL A   1      42.290  21.056  27.694  1.00  0.00     0.014 A 
ATOM     37  C   UNL A   1      42.778  21.636  25.418  1.00  0.00     0.014 A 
ATOM     38  C   UNL A   1      42.710  22.324  28.120  1.00  0.00     0.010 A 
ATOM     39  C   UNL A   1      43.275  22.879  25.851  1.00  0.00     0.010 A 
ATOM     40  C   UNL A   1      43.197  23.259  27.199  1.00  0.00    -0.014 A 
BRANCH  40  41
ATOM     41  C   UNL A   1      43.501  24.658  27.620  1.00  0.00     0.031 A 
ATOM     42  C   UNL A   1      44.925  25.165  27.594  1.00  0.00     0.074 A 
ATOM     43  C   UNL A   1      42.518  25.492  28.014  1.00  0.00     0.049 A 
ATOM     44  N   UNL A   1      45.399  26.341  27.934  1.00  0.00    -0.248 NA
ATOM     45  C   UNL A   1      45.956  24.217  27.143  1.00  0.00     0.031 C 
ATOM     46  C   UNL A   1      41.101  25.144  28.104  1.00  0.00     0.029 A 
ATOM     47  N   UNL A   1      42.564  26.807  28.412  1.00  0.00    -0.354 N 
ATOM     48  C   UNL A   1      46.776  26.263  27.756  1.00  0.00     0.074 A 
ATOM     49  C   UNL A   1      47.069  24.913  27.327  1.00  0.00     0.031 C 
ATOM     50  C   UNL A   1      40.409  26.223  28.507  1.00  0.00     0.029 A 
ATOM     51  C   UNL A   1      41.335  27.332  28.728  1.00  0.00     0.049 A 
ATOM     52  H   UNL A   1      43.400  27.325  28.463  1.00  0.00     0.167 HD
ATOM     53  C   UNL A   1      47.713  27.231  27.908  1.00  0.00     0.037 A 
ATOM     54  C   UNL A   1      40.990  28.567  29.144  1.00  0.00     0.037 A 
ATOM     55  C   UNL A   1      47.433  28.590  28.290  1.00  0.00     0.049 A 
ATOM     56  C   UNL A   1      42.047  29.629  29.296  1.00  0.00     0.074 A 
ATOM     57  C   UNL A   1      48.315  29.646  28.435  1.00  0.00     0.029 A 
ATOM     58  N   UNL A   1      46.170  29.082  28.579  1.00  0.00    -0.354 N 
ATOM     59  N   UNL A   1      43.338  29.549  29.085  1.00  0.00    -0.248 NA
ATOM     60  C   UNL A   1      41.594  30.959  29.732  1.00  0.00     0.031 C 
ATOM     61  C   UNL A   1      47.590  30.773  28.840  1.00  0.00     0.029 A 
ATOM     62  C   UNL A   1      46.251  30.426  28.906  1.00  0.00     0.049 A 
ATOM     63  H   UNL A   1      45.339  28.555  28.555  1.00  0.00     0.167 HD
ATOM     64  C   UNL A   1      43.844  30.822  29.322  1.00  0.00     0.074 A 
ATOM     65  C   UNL A   1      42.720  31.658  29.688  1.00  0.00     0.031 C 
ATOM     66  C   UNL A   1      45.124  31.257  29.242  1.00  0.00     0.037 A 
BRANCH  53  67
ATOM     67  C   UNL A   1      49.144  26.855  27.650  1.00  0.00     0.064 A 
ATOM     68  C   UNL A   1      49.981  26.401  28.682  1.00  0.00     0.173 A 
ATOM     69  C   UNL A   1      49.676  26.916  26.354  1.00  0.00     0.173 A 
ATOM     70  F   UNL A   1      49.524  26.334  29.941  1.00  0.00    -0.203 F 
ATOM     71  C   UNL A   1      51.305  26.051  28.429  1.00  0.00     0.198 A 
ATOM     72  C   UNL A   1      50.992  26.538  26.099  1.00  0.00     0.198 A 
ATOM     73  F   UNL A   1      48.917  27.335  25.330  1.00  0.00    -0.203 F 
ATOM     74  F   UNL A   1      52.099  25.667  29.438  1.00  0.00    -0.200 F 
ATOM     75  C   UNL A   1      51.807  26.113  27.138  1.00  0.00     0.200 A 
ATOM     76  F   UNL A   1      51.473  26.587  24.849  1.00  0.00    -0.200 F 
ATOM     77  F   UNL A   1      53.081  25.773  26.895  1.00  0.00    -0.200 F 
ENDBRANCH  53  67
BRANCH  54  78
ATOM     78  C   UNL A   1      39.563  28.888  29.415  1.00  0.00     0.064 A 
ATOM     79  C   UNL A   1      39.002  28.656  30.678  1.00  0.00     0.173 A 
ATOM     80  C   UNL A   1      38.731  29.408  28.415  1.00  0.00     0.173 A 
ATOM     81  F   UNL A   1      39.754  28.136  31.660  1.00  0.00    -0.203 F 
ATOM     82  C   UNL A   1      37.655  28.915  30.926  1.00  0.00     0.198 A 
ATOM     83  C   UNL A   1      37.390  29.691  28.671  1.00  0.00     0.198 A 
ATOM     84  F   UNL A   1      39.221  29.648  27.190  1.00  0.00    -0.203 F 
ATOM     85  F   UNL A   1      37.133  28.641  32.129  1.00  0.00    -0.200 F 
ATOM     86  C   UNL A   1      36.852  29.436  29.923  1.00  0.00     0.200 A 
ATOM     87  F   UNL A   1      36.619  30.204  27.702  1.00  0.00    -0.200 F 
ATOM     88  F   UNL A   1      35.557  29.684  30.161  1.00  0.00    -0.200 F 
ENDBRANCH  54  78
BRANCH  66  89
ATOM     89  C   UNL A   1      45.378  32.714  29.498  1.00  0.00     0.064 A 
ATOM     90  C   UNL A   1      45.304  33.668  28.474  1.00  0.00     0.173 A 
ATOM     91  C   UNL A   1      45.664  33.164  30.797  1.00  0.00     0.173 A 
ATOM     92  F   UNL A   1      45.047  33.287  27.213  1.00  0.00    -0.203 F 
ATOM     93  C   UNL A   1      45.532  35.017  28.736  1.00  0.00     0.198 A 
ATOM     94  C   UNL A   1      45.865  34.515  31.059  1.00  0.00     0.198 A 
ATOM     95  F   UNL A   1      45.739  32.291  31.813  1.00  0.00    -0.203 F 
ATOM     96  F   UNL A   1      45.500  35.907  27.734  1.00  0.00    -0.200 F 
ATOM     97  C   UNL A   1      45.806  35.440  30.028  1.00  0.00     0.200 A 
ATOM     98  F   UNL A   1      46.118  34.924  32.311  1.00  0.00    -0.200 F 
ATOM     99  F   UNL A   1      46.020  36.739  30.278  1.00  0.00    -0.200 F 
ENDBRANCH  66  89
ENDBRANCH  40  41
ENDBRANCH  32  35
ENDBRANCH  30  31
ENDBRANCH  29  30
ENDBRANCH   1  29
TORSDOF 15
ENDMDL
MODEL 2
REMARK VINA RESULT:     -12.3      4.413      9.534
REMARK SMILES COc1ccc([C@@H](CC(=O)NCCCNC(=O)c2ccc(-c3c4nc(c(-c5c(F)c(F)c(F)c(F)c5F)c5ccc([nH]5)c(-c5c(F)c(F)c(F)c(F)c5F)c5nc(c(-c6c(F)c(F)c(F)c(F)c6F)c6ccc3[nH]6)C=C5)C=C4)cc2)N2C(=O)[C@H]3CC=CC[C@H]3C2=O)cc1OC
REMARK SMILES IDX 12 1 11 2 9 3 10 4 8 6 7 7 6 8 3 9 4 10 93 11 5 12 92 13
REMARK SMILES IDX 2 14 1 15 94 16 95 17 81 18 82 19 90 20 83 21 84 22 89 23
REMARK SMILES IDX 91 24 85 25 88 26 86 27 87 28 13 29 14 30 15 31 16 32 17 34
REMARK SMILES IDX 18 35 19 36 80 37 20 38 79 39 21 40 22 41 23 42 73 43 24 44
REMARK SMILES IDX 78 45 72 46 74 47 25 48 77 49 71 50 70 51 26 53 58 54 38 55
REMARK SMILES IDX 57 56 39 57 42 58 56 59 75 60 40 61 41 62 55 64 76 65 43 66
REMARK SMILES IDX 27 67 28 68 36 69 29 70 30 71 34 72 37 73 31 74 32 75 35 76
REMARK SMILES IDX 33 77 59 78 60 79 68 80 61 81 62 82 66 83 69 84 63 85 64 86
REMARK SMILES IDX 67 87 65 88 44 89 45 90 53 91 46 92 47 93 51 94 54 95 48 96
REMARK SMILES IDX 49 97 52 98 50 99
REMARK H PARENT 11 5 15 33 74 52 42 63
REMARK Flexibility Score: inf
ROOT
ATOM      1  C   UNL A   1      32.011  28.351  26.928  1.00  0.00     0.117 C 
ENDROOT
BRANCH   1   2
ATOM      2  N   UNL A   1      32.502  28.227  25.566  1.00  0.00    -0.356 N 
ATOM      3  C   UNL A   1      33.619  27.602  25.101  1.00  0.00     0.222 C 
ATOM      4  O   UNL A   1      34.063  28.022  24.031  1.00  0.00    -0.275 OA
ATOM      5  H   UNL A   1      31.945  28.658  24.878  1.00  0.00     0.163 HD
BRANCH   3   6
ATOM      6  C   UNL A   1      34.216  26.396  25.816  1.00  0.00     0.130 C 
BRANCH   6   7
ATOM      7  C   UNL A   1      33.555  25.012  25.574  1.00  0.00     0.133 C 
BRANCH   7   8
ATOM      8  C   UNL A   1      34.653  23.942  25.446  1.00  0.00    -0.020 A 
ATOM      9  C   UNL A   1      36.633  21.895  25.385  1.00  0.00     0.160 A 
ATOM     10  C   UNL A   1      36.997  23.241  25.443  1.00  0.00     0.051 A 
ATOM     11  C   UNL A   1      35.268  21.572  25.292  1.00  0.00     0.161 A 
ATOM     12  C   UNL A   1      36.021  24.246  25.468  1.00  0.00     0.010 A 
ATOM     13  C   UNL A   1      34.299  22.589  25.336  1.00  0.00     0.056 A 
BRANCH   9  14
ATOM     14  O   UNL A   1      37.531  20.869  25.485  1.00  0.00    -0.493 OA
ATOM     15  C   UNL A   1      38.907  21.193  25.617  1.00  0.00     0.278 C 
ENDBRANCH   9  14
BRANCH  11  16
ATOM     16  O   UNL A   1      34.729  20.312  25.202  1.00  0.00    -0.493 OA
ATOM     17  C   UNL A   1      33.309  20.225  25.263  1.00  0.00     0.278 C 
ENDBRANCH  11  16
ENDBRANCH   7   8
BRANCH   7  18
ATOM     18  N   UNL A   1      32.557  24.957  24.497  1.00  0.00    -0.274 N 
ATOM     19  C   UNL A   1      31.335  24.362  24.591  1.00  0.00     0.234 C 
ATOM     20  C   UNL A   1      32.886  24.946  23.171  1.00  0.00     0.234 C 
ATOM     21  O   UNL A   1      30.958  23.588  25.460  1.00  0.00    -0.274 OA
ATOM     22  C   UNL A   1      30.538  24.684  23.346  1.00  0.00     0.095 C 
ATOM     23  C   UNL A   1      31.627  25.100  22.355  1.00  0.00     0.095 C 
ATOM     24  O   UNL A   1      33.994  24.812  22.682  1.00  0.00    -0.274 OA
ATOM     25  C   UNL A   1      29.477  25.739  23.669  1.00  0.00     0.041 C 
ATOM     26  C   UNL A   1      31.578  26.539  21.824  1.00  0.00     0.041 C 
ATOM     27  C   UNL A   1      29.983  27.150  23.617  1.00  0.00    -0.030 C 
ATOM     28  C   UNL A   1      30.947  27.519  22.765  1.00  0.00    -0.030 C 
ENDBRANCH   7  18
ENDBRANCH   6   7
ENDBRANCH   3   6
ENDBRANCH   1   2
BRANCH   1  29
ATOM     29  C   UNL A   1      31.766  29.823  27.251  1.00  0.00     0.042 C 
BRANCH  29  30
ATOM     30  C   UNL A   1      32.352  30.821  26.262  1.00  0.00     0.118 C 
BRANCH  30  31
ATOM     31  N   UNL A   1      32.451  32.149  26.829  1.00  0.00    -0.352 N 
ATOM     32  C   UNL A   1      33.354  32.759  27.662  1.00  0.00     0.251 C 
ATOM     33  H   UNL A   1      31.713  32.741  26.559  1.00  0.00     0.163 HD
ATOM     34  O   UNL A   1      33.014  33.846  28.137  1.00  0.00    -0.269 OA
BRANCH  32  35
ATOM     35  C   UNL A   1      34.702  32.222  28.026  1.00  0.00     0.039 A 
ATOM     36  C   UNL A   1      34.764  30.861  28.373  1.00  0.00     0.014 A 
ATOM     37  C   UNL A   1      35.855  32.990  28.200  1.00  0.00     0.014 A 
ATOM     38  C   UNL A   1      35.927  30.295  28.913  1.00  0.00     0.010 A 
ATOM     39  C   UNL A   1      37.047  32.407  28.667  1.00  0.00     0.010 A 
ATOM     40  C   UNL A   1      37.083  31.067  29.080  1.00  0.00    -0.014 A 
BRANCH  40  41
ATOM     41  C   UNL A   1      38.273  30.515  29.794  1.00  0.00     0.031 A 
ATOM     42  C   UNL A   1      38.543  30.905  31.228  1.00  0.00     0.074 A 
ATOM     43  C   UNL A   1      39.110  29.656  29.181  1.00  0.00     0.049 A 
ATOM     44  N   UNL A   1      39.527  30.549  32.020  1.00  0.00    -0.248 NA
ATOM     45  C   UNL A   1      37.589  31.836  31.853  1.00  0.00     0.031 C 
ATOM     46  C   UNL A   1      38.988  29.197  27.799  1.00  0.00     0.029 A 
ATOM     47  N   UNL A   1      40.233  29.013  29.647  1.00  0.00    -0.354 N 
ATOM     48  C   UNL A   1      39.319  31.224  33.217  1.00  0.00     0.074 A 
ATOM     49  C   UNL A   1      38.146  32.049  33.036  1.00  0.00     0.031 C 
ATOM     50  C   UNL A   1      39.980  28.330  27.534  1.00  0.00     0.029 A 
ATOM     51  C   UNL A   1      40.824  28.190  28.719  1.00  0.00     0.049 A 
ATOM     52  H   UNL A   1      40.580  29.131  30.560  1.00  0.00     0.167 HD
ATOM     53  C   UNL A   1      40.021  31.147  34.375  1.00  0.00     0.037 A 
ATOM     54  C   UNL A   1      41.917  27.407  28.812  1.00  0.00     0.037 A 
ATOM     55  C   UNL A   1      41.164  30.297  34.585  1.00  0.00     0.049 A 
ATOM     56  C   UNL A   1      42.675  27.330  30.111  1.00  0.00     0.074 A 
ATOM     57  C   UNL A   1      41.915  30.129  35.735  1.00  0.00     0.029 A 
ATOM     58  N   UNL A   1      41.713  29.463  33.623  1.00  0.00    -0.354 N 
ATOM     59  N   UNL A   1      42.441  27.944  31.246  1.00  0.00    -0.248 NA
ATOM     60  C   UNL A   1      43.844  26.438  30.146  1.00  0.00     0.031 C 
ATOM     61  C   UNL A   1      42.939  29.214  35.461  1.00  0.00     0.029 A 
ATOM     62  C   UNL A   1      42.797  28.783  34.153  1.00  0.00     0.049 A 
ATOM     63  H   UNL A   1      41.382  29.369  32.701  1.00  0.00     0.167 HD
ATOM     64  C   UNL A   1      43.404  27.485  32.135  1.00  0.00     0.074 A 
ATOM     65  C   UNL A   1      44.223  26.535  31.413  1.00  0.00     0.031 C 
ATOM     66  C   UNL A   1      43.590  27.819  33.435  1.00  0.00     0.037 A 
BRANCH  53  67
ATOM     67  C   UNL A   1      39.566  32.007  35.518  1.00  0.00     0.064 A 
ATOM     68  C   UNL A   1      40.077  33.300  35.714  1.00  0.00     0.173 A 
ATOM     69  C   UNL A   1      38.584  31.549  36.409  1.00  0.00     0.173 A 
ATOM     70  F   UNL A   1      41.026  33.781  34.896  1.00  0.00    -0.203 F 
ATOM     71  C   UNL A   1      39.643  34.089  36.776  1.00  0.00     0.198 A 
ATOM     72  C   UNL A   1      38.131  32.352  37.453  1.00  0.00     0.198 A 
ATOM     73  F   UNL A   1      38.056  30.324  36.263  1.00  0.00    -0.203 F 
ATOM     74  F   UNL A   1      40.181  35.301  36.971  1.00  0.00    -0.200 F 
ATOM     75  C   UNL A   1      38.666  33.617  37.640  1.00  0.00     0.200 A 
ATOM     76  F   UNL A   1      37.179  31.900  38.280  1.00  0.00    -0.200 F 
ATOM     77  F   UNL A   1      38.247  34.379  38.660  1.00  0.00    -0.200 F 
ENDBRANCH  53  67
BRANCH  54  78
ATOM     78  C   UNL A   1      42.349  26.593  27.645  1.00  0.00     0.064 A 
ATOM     79  C   UNL A   1      41.801  25.325  27.411  1.00  0.00     0.173 A 
ATOM     80  C   UNL A   1      43.330  27.056  26.757  1.00  0.00     0.173 A 
ATOM     81  F   UNL A   1      40.876  24.830  28.248  1.00  0.00    -0.203 F 
ATOM     82  C   UNL A   1      42.232  24.540  26.344  1.00  0.00     0.198 A 
ATOM     83  C   UNL A   1      43.742  26.281  25.675  1.00  0.00     0.198 A 
ATOM     84  F   UNL A   1      43.884  28.263  26.938  1.00  0.00    -0.203 F 
ATOM     85  F   UNL A   1      41.725  23.312  26.170  1.00  0.00    -0.200 F 
ATOM     86  C   UNL A   1      43.200  25.021  25.474  1.00  0.00     0.200 A 
ATOM     87  F   UNL A   1      44.670  26.753  24.830  1.00  0.00    -0.200 F 
ATOM     88  F   UNL A   1      43.615  24.266  24.448  1.00  0.00    -0.200 F 
ENDBRANCH  54  78
BRANCH  66  89
ATOM     89  C   UNL A   1      44.685  27.115  34.182  1.00  0.00     0.064 A 
ATOM     90  C   UNL A   1      44.468  25.893  34.834  1.00  0.00     0.173 A 
ATOM     91  C   UNL A   1      45.980  27.656  34.212  1.00  0.00     0.173 A 
ATOM     92  F   UNL A   1      43.245  25.342  34.844  1.00  0.00    -0.203 F 
ATOM     93  C   UNL A   1      45.502  25.251  35.511  1.00  0.00     0.198 A 
ATOM     94  C   UNL A   1      47.017  26.998  34.868  1.00  0.00     0.198 A 
ATOM     95  F   UNL A   1      46.241  28.819  33.598  1.00  0.00    -0.203 F 
ATOM     96  F   UNL A   1      45.262  24.106  36.165  1.00  0.00    -0.200 F 
ATOM     97  C   UNL A   1      46.775  25.800  35.523  1.00  0.00     0.200 A 
ATOM     98  F   UNL A   1      48.250  27.525  34.868  1.00  0.00    -0.200 F 
ATOM     99  F   UNL A   1      47.769  25.178  36.171  1.00  0.00    -0.200 F 
ENDBRANCH  66  89
ENDBRANCH  40  41
ENDBRANCH  32  35
ENDBRANCH  30  31
ENDBRANCH  29  30
ENDBRANCH   1  29
TORSDOF 15
ENDMDL
MODEL 3
REMARK VINA RESULT:     -12.2      1.175      3.580
REMARK SMILES COc1ccc([C@@H](CC(=O)NCCCNC(=O)c2ccc(-c3c4nc(c(-c5c(F)c(F)c(F)c(F)c5F)c5ccc([nH]5)c(-c5c(F)c(F)c(F)c(F)c5F)c5nc(c(-c6c(F)c(F)c(F)c(F)c6F)c6ccc3[nH]6)C=C5)C=C4)cc2)N2C(=O)[C@H]3CC=CC[C@H]3C2=O)cc1OC
REMARK SMILES IDX 12 1 11 2 9 3 10 4 8 6 7 7 6 8 3 9 4 10 93 11 5 12 92 13
REMARK SMILES IDX 2 14 1 15 94 16 95 17 81 18 82 19 90 20 83 21 84 22 89 23
REMARK SMILES IDX 91 24 85 25 88 26 86 27 87 28 13 29 14 30 15 31 16 32 17 34
REMARK SMILES IDX 18 35 19 36 80 37 20 38 79 39 21 40 22 41 23 42 73 43 24 44
REMARK SMILES IDX 78 45 72 46 74 47 25 48 77 49 71 50 70 51 26 53 58 54 38 55
REMARK SMILES IDX 57 56 39 57 42 58 56 59 75 60 40 61 41 62 55 64 76 65 43 66
REMARK SMILES IDX 27 67 28 68 36 69 29 70 30 71 34 72 37 73 31 74 32 75 35 76
REMARK SMILES IDX 33 77 59 78 60 79 68 80 61 81 62 82 66 83 69 84 63 85 64 86
REMARK SMILES IDX 67 87 65 88 44 89 45 90 53 91 46 92 47 93 51 94 54 95 48 96
REMARK SMILES IDX 49 97 52 98 50 99
REMARK H PARENT 11 5 15 33 74 52 42 63
REMARK Flexibility Score: inf
ROOT
ATOM      1  C   UNL A   1      38.456  22.516  26.074  1.00  0.00     0.117 C 
ENDROOT
BRANCH   1   2
ATOM      2  N   UNL A   1      37.856  23.067  24.871  1.00  0.00    -0.356 N 
ATOM      3  C   UNL A   1      36.830  22.586  24.115  1.00  0.00     0.222 C 
ATOM      4  O   UNL A   1      36.819  22.944  22.936  1.00  0.00    -0.275 OA
ATOM      5  H   UNL A   1      38.249  23.913  24.556  1.00  0.00     0.163 HD
BRANCH   3   6
ATOM      6  C   UNL A   1      35.718  21.741  24.724  1.00  0.00     0.130 C 
BRANCH   6   7
ATOM      7  C   UNL A   1      34.336  21.749  24.016  1.00  0.00     0.133 C 
BRANCH   7   8
ATOM      8  C   UNL A   1      33.581  23.035  24.394  1.00  0.00    -0.020 A 
ATOM      9  C   UNL A   1      32.315  25.516  24.990  1.00  0.00     0.160 A 
ATOM     10  C   UNL A   1      32.925  24.763  25.996  1.00  0.00     0.051 A 
ATOM     11  C   UNL A   1      32.281  24.992  23.687  1.00  0.00     0.161 A 
ATOM     12  C   UNL A   1      33.543  23.541  25.700  1.00  0.00     0.010 A 
ATOM     13  C   UNL A   1      32.921  23.774  23.400  1.00  0.00     0.056 A 
BRANCH   9  14
ATOM     14  O   UNL A   1      31.809  26.770  25.193  1.00  0.00    -0.493 OA
ATOM     15  C   UNL A   1      31.507  27.165  26.523  1.00  0.00     0.278 C 
ENDBRANCH   9  14
BRANCH  11  16
ATOM     16  O   UNL A   1      31.708  25.576  22.584  1.00  0.00    -0.493 OA
ATOM     17  C   UNL A   1      32.517  25.655  21.415  1.00  0.00     0.278 C 
ENDBRANCH  11  16
ENDBRANCH   7   8
BRANCH   7  18
ATOM     18  N   UNL A   1      33.528  20.530  24.170  1.00  0.00    -0.274 N 
ATOM     19  C   UNL A   1      32.542  20.132  23.319  1.00  0.00     0.234 C 
ATOM     20  C   UNL A   1      33.234  19.976  25.383  1.00  0.00     0.234 C 
ATOM     21  O   UNL A   1      32.003  20.804  22.451  1.00  0.00    -0.274 OA
ATOM     22  C   UNL A   1      32.086  18.745  23.716  1.00  0.00     0.095 C 
ATOM     23  C   UNL A   1      32.580  18.635  25.160  1.00  0.00     0.095 C 
ATOM     24  O   UNL A   1      33.428  20.456  26.486  1.00  0.00    -0.274 OA
ATOM     25  C   UNL A   1      32.643  17.716  22.730  1.00  0.00     0.041 C 
ATOM     26  C   UNL A   1      33.615  17.544  25.466  1.00  0.00     0.041 C 
ATOM     27  C   UNL A   1      34.038  17.263  23.042  1.00  0.00    -0.030 C 
ATOM     28  C   UNL A   1      34.484  17.180  24.301  1.00  0.00    -0.030 C 
ENDBRANCH   7  18
ENDBRANCH   6   7
ENDBRANCH   3   6
ENDBRANCH   1   2
BRANCH   1  29
ATOM     29  C   UNL A   1      39.509  21.479  25.693  1.00  0.00     0.042 C 
BRANCH  29  30
ATOM     30  C   UNL A   1      39.180  20.040  26.062  1.00  0.00     0.118 C 
BRANCH  30  31
ATOM     31  N   UNL A   1      40.343  19.183  25.985  1.00  0.00    -0.352 N 
ATOM     32  C   UNL A   1      41.695  19.416  25.997  1.00  0.00     0.251 C 
ATOM     33  H   UNL A   1      40.116  18.228  25.907  1.00  0.00     0.163 HD
ATOM     34  O   UNL A   1      42.417  18.467  25.682  1.00  0.00    -0.269 OA
BRANCH  32  35
ATOM     35  C   UNL A   1      42.351  20.707  26.367  1.00  0.00     0.039 A 
ATOM     36  C   UNL A   1      42.307  21.068  27.726  1.00  0.00     0.014 A 
ATOM     37  C   UNL A   1      42.855  21.644  25.463  1.00  0.00     0.014 A 
ATOM     38  C   UNL A   1      42.714  22.337  28.160  1.00  0.00     0.010 A 
ATOM     39  C   UNL A   1      43.339  22.889  25.906  1.00  0.00     0.010 A 
ATOM     40  C   UNL A   1      43.225  23.271  27.251  1.00  0.00    -0.014 A 
BRANCH  40  41
ATOM     41  C   UNL A   1      43.516  24.671  27.678  1.00  0.00     0.031 A 
ATOM     42  C   UNL A   1      44.945  25.159  27.751  1.00  0.00     0.074 A 
ATOM     43  C   UNL A   1      42.518  25.522  27.989  1.00  0.00     0.049 A 
ATOM     44  N   UNL A   1      45.409  26.333  28.112  1.00  0.00    -0.248 NA
ATOM     45  C   UNL A   1      45.994  24.193  27.388  1.00  0.00     0.031 C 
ATOM     46  C   UNL A   1      41.094  25.194  27.978  1.00  0.00     0.029 A 
ATOM     47  N   UNL A   1      42.553  26.842  28.374  1.00  0.00    -0.354 N 
ATOM     48  C   UNL A   1      46.794  26.235  28.037  1.00  0.00     0.074 A 
ATOM     49  C   UNL A   1      47.099  24.877  27.646  1.00  0.00     0.031 C 
ATOM     50  C   UNL A   1      40.389  26.286  28.317  1.00  0.00     0.029 A 
ATOM     51  C   UNL A   1      41.311  27.386  28.593  1.00  0.00     0.049 A 
ATOM     52  H   UNL A   1      43.390  27.349  28.481  1.00  0.00     0.167 HD
ATOM     53  C   UNL A   1      47.731  27.193  28.246  1.00  0.00     0.037 A 
ATOM     54  C   UNL A   1      40.953  28.630  28.969  1.00  0.00     0.037 A 
ATOM     55  C   UNL A   1      47.442  28.560  28.592  1.00  0.00     0.049 A 
ATOM     56  C   UNL A   1      42.011  29.680  29.186  1.00  0.00     0.074 A 
ATOM     57  C   UNL A   1      48.325  29.607  28.789  1.00  0.00     0.029 A 
ATOM     58  N   UNL A   1      46.168  29.072  28.781  1.00  0.00    -0.354 N 
ATOM     59  N   UNL A   1      43.313  29.582  29.071  1.00  0.00    -0.248 NA
ATOM     60  C   UNL A   1      41.546  31.021  29.573  1.00  0.00     0.031 C 
ATOM     61  C   UNL A   1      47.587  30.747  29.127  1.00  0.00     0.029 A 
ATOM     62  C   UNL A   1      46.243  30.418  29.098  1.00  0.00     0.049 A 
ATOM     63  H   UNL A   1      45.333  28.556  28.702  1.00  0.00     0.167 HD
ATOM     64  C   UNL A   1      43.817  30.850  29.331  1.00  0.00     0.074 A 
ATOM     65  C   UNL A   1      42.681  31.705  29.603  1.00  0.00     0.031 C 
ATOM     66  C   UNL A   1      45.106  31.268  29.341  1.00  0.00     0.037 A 
BRANCH  53  67
ATOM     67  C   UNL A   1      49.172  26.795  28.099  1.00  0.00     0.064 A 
ATOM     68  C   UNL A   1      49.965  26.485  29.214  1.00  0.00     0.173 A 
ATOM     69  C   UNL A   1      49.757  26.691  26.829  1.00  0.00     0.173 A 
ATOM     70  F   UNL A   1      49.456  26.580  30.452  1.00  0.00    -0.203 F 
ATOM     71  C   UNL A   1      51.299  26.113  29.064  1.00  0.00     0.198 A 
ATOM     72  C   UNL A   1      51.083  26.291  26.680  1.00  0.00     0.198 A 
ATOM     73  F   UNL A   1      49.041  26.968  25.729  1.00  0.00    -0.203 F 
ATOM     74  F   UNL A   1      52.050  25.869  30.146  1.00  0.00    -0.200 F 
ATOM     75  C   UNL A   1      51.854  26.010  27.798  1.00  0.00     0.200 A 
ATOM     76  F   UNL A   1      51.615  26.180  25.455  1.00  0.00    -0.200 F 
ATOM     77  F   UNL A   1      53.137  25.649  27.654  1.00  0.00    -0.200 F 
ENDBRANCH  53  67
BRANCH  54  78
ATOM     78  C   UNL A   1      39.516  28.972  29.130  1.00  0.00     0.064 A 
ATOM     79  C   UNL A   1      38.888  28.872  30.380  1.00  0.00     0.173 A 
ATOM     80  C   UNL A   1      38.737  29.383  28.039  1.00  0.00     0.173 A 
ATOM     81  F   UNL A   1      39.587  28.459  31.448  1.00  0.00    -0.203 F 
ATOM     82  C   UNL A   1      37.531  29.150  30.529  1.00  0.00     0.198 A 
ATOM     83  C   UNL A   1      37.386  29.686  28.195  1.00  0.00     0.198 A 
ATOM     84  F   UNL A   1      39.291  29.496  26.823  1.00  0.00    -0.203 F 
ATOM     85  F   UNL A   1      36.947  29.001  31.725  1.00  0.00    -0.200 F 
ATOM     86  C   UNL A   1      36.783  29.561  29.437  1.00  0.00     0.200 A 
ATOM     87  F   UNL A   1      36.667  30.094  27.139  1.00  0.00    -0.200 F 
ATOM     88  F   UNL A   1      35.477  29.829  29.579  1.00  0.00    -0.200 F 
ENDBRANCH  54  78
BRANCH  66  89
ATOM     89  C   UNL A   1      45.361  32.725  29.598  1.00  0.00     0.064 A 
ATOM     90  C   UNL A   1      45.563  33.222  30.892  1.00  0.00     0.173 A 
ATOM     91  C   UNL A   1      45.441  33.628  28.525  1.00  0.00     0.173 A 
ATOM     92  F   UNL A   1      45.484  32.402  31.951  1.00  0.00    -0.203 F 
ATOM     93  C   UNL A   1      45.811  34.577  31.107  1.00  0.00     0.198 A 
ATOM     94  C   UNL A   1      45.715  34.975  28.742  1.00  0.00     0.198 A 
ATOM     95  F   UNL A   1      45.262  33.200  27.267  1.00  0.00    -0.203 F 
ATOM     96  F   UNL A   1      45.957  35.038  32.357  1.00  0.00    -0.200 F 
ATOM     97  C   UNL A   1      45.892  35.450  30.033  1.00  0.00     0.200 A 
ATOM     98  F   UNL A   1      45.804  35.816  27.701  1.00  0.00    -0.200 F 
ATOM     99  F   UNL A   1      46.135  36.751  30.242  1.00  0.00    -0.200 F 
ENDBRANCH  66  89
ENDBRANCH  40  41
ENDBRANCH  32  35
ENDBRANCH  30  31
ENDBRANCH  29  30
ENDBRANCH   1  29
TORSDOF 15
ENDMDL
