MODEL 1
REMARK VINA RESULT:     -11.8      0.000      0.000
REMARK SMILES CC[C@@H](C(=O)NCCCNC(=O)c1ccc(-c2c3nc(c(-c4c(F)c(F)c(F)c(F)c4F)c4ccc([nH]4)c(-c4c(F)c(F)c(F)c(F)c4F)c4nc(c(-c5c(F)c(F)c(F)c(F)c5F)c5ccc2[nH]5)C=C4)C=C3)cc1)c1cc(Br)ccc1F
REMARK SMILES IDX 8 1 7 2 6 3 4 4 5 5 3 7 2 8 1 9 76 10 77 11 82 12 78 13
REMARK SMILES IDX 81 14 83 15 79 16 80 17 9 18 10 19 11 20 12 22 13 23 14 24
REMARK SMILES IDX 75 25 15 26 74 27 16 28 17 29 18 30 68 31 19 32 73 33 67 34
REMARK SMILES IDX 69 35 20 36 72 37 66 38 65 39 21 41 53 42 33 43 52 44 34 45
REMARK SMILES IDX 37 46 51 47 70 48 35 49 36 50 50 52 71 53 38 54 22 55 23 56
REMARK SMILES IDX 31 57 24 58 25 59 29 60 32 61 26 62 27 63 30 64 28 65 54 66
REMARK SMILES IDX 55 67 63 68 56 69 57 70 61 71 64 72 58 73 59 74 62 75 60 76
REMARK SMILES IDX 39 77 40 78 48 79 41 80 42 81 46 82 49 83 43 84 44 85 47 86
REMARK SMILES IDX 45 87
REMARK H PARENT 6 6 10 21 69 40 37 51
REMARK Flexibility Score: inf
ROOT
ATOM      1  C   UNL A   1      31.402  32.626  26.440  1.00  0.00     0.042 C 
ENDROOT
BRANCH   1   2
ATOM      2  C   UNL A   1      31.093  31.128  26.481  1.00  0.00     0.117 C 
BRANCH   2   3
ATOM      3  N   UNL A   1      31.680  30.439  25.346  1.00  0.00    -0.356 N 
ATOM      4  C   UNL A   1      32.600  29.443  25.242  1.00  0.00     0.227 C 
ATOM      5  O   UNL A   1      33.020  29.245  24.097  1.00  0.00    -0.274 OA
ATOM      6  H   UNL A   1      31.344  30.757  24.477  1.00  0.00     0.163 HD
BRANCH   4   7
ATOM      7  C   UNL A   1      33.053  28.603  26.455  1.00  0.00     0.111 C 
BRANCH   7   8
ATOM      8  C   UNL A   1      34.516  28.843  26.886  1.00  0.00     0.015 C 
ATOM      9  C   UNL A   1      34.795  30.151  27.599  1.00  0.00     0.005 C 
ENDBRANCH   7   8
BRANCH   7  10
ATOM     10  C   UNL A   1      32.936  27.097  26.162  1.00  0.00     0.001 A 
ATOM     11  C   UNL A   1      34.054  26.344  25.751  1.00  0.00     0.023 A 
ATOM     12  C   UNL A   1      31.735  26.415  26.382  1.00  0.00     0.127 A 
ATOM     13  C   UNL A   1      33.959  24.965  25.560  1.00  0.00     0.018 A 
ATOM     14  C   UNL A   1      31.641  25.034  26.202  1.00  0.00     0.041 A 
ATOM     15  F   UNL A   1      30.652  27.082  26.807  1.00  0.00    -0.207 F 
ATOM     16  Br  UNL A   1      35.482  23.991  25.005  1.00  0.00    -0.051 Br
ATOM     17  C   UNL A   1      32.756  24.304  25.789  1.00  0.00     0.019 A 
ENDBRANCH   7  10
ENDBRANCH   4   7
ENDBRANCH   2   3
ENDBRANCH   1   2
BRANCH   1  18
ATOM     18  C   UNL A   1      32.525  33.081  27.370  1.00  0.00     0.118 C 
BRANCH  18  19
ATOM     19  N   UNL A   1      32.392  34.471  27.778  1.00  0.00    -0.352 N 
ATOM     20  C   UNL A   1      33.061  35.169  28.751  1.00  0.00     0.251 C 
ATOM     21  H   UNL A   1      31.719  34.989  27.280  1.00  0.00     0.163 HD
ATOM     22  O   UNL A   1      32.670  36.297  29.060  1.00  0.00    -0.269 OA
BRANCH  20  23
ATOM     23  C   UNL A   1      34.226  34.587  29.458  1.00  0.00     0.039 A 
ATOM     24  C   UNL A   1      34.036  34.066  30.743  1.00  0.00     0.014 A 
ATOM     25  C   UNL A   1      35.506  34.581  28.894  1.00  0.00     0.014 A 
ATOM     26  C   UNL A   1      35.105  33.480  31.426  1.00  0.00     0.010 A 
ATOM     27  C   UNL A   1      36.555  33.930  29.546  1.00  0.00     0.010 A 
ATOM     28  C   UNL A   1      36.366  33.371  30.818  1.00  0.00    -0.014 A 
BRANCH  28  29
ATOM     29  C   UNL A   1      37.486  32.662  31.494  1.00  0.00     0.031 A 
ATOM     30  C   UNL A   1      38.170  31.500  30.828  1.00  0.00     0.074 A 
ATOM     31  C   UNL A   1      37.851  33.028  32.738  1.00  0.00     0.049 A 
ATOM     32  N   UNL A   1      39.125  30.727  31.286  1.00  0.00    -0.248 NA
ATOM     33  C   UNL A   1      37.705  31.144  29.480  1.00  0.00     0.031 C 
ATOM     34  C   UNL A   1      37.241  34.110  33.511  1.00  0.00     0.029 A 
ATOM     35  N   UNL A   1      38.816  32.525  33.575  1.00  0.00    -0.354 N 
ATOM     36  C   UNL A   1      39.364  29.790  30.289  1.00  0.00     0.074 A 
ATOM     37  C   UNL A   1      38.421  30.058  29.224  1.00  0.00     0.031 C 
ATOM     38  C   UNL A   1      37.860  34.206  34.698  1.00  0.00     0.029 A 
ATOM     39  C   UNL A   1      38.884  33.168  34.786  1.00  0.00     0.049 A 
ATOM     40  H   UNL A   1      39.403  31.774  33.330  1.00  0.00     0.167 HD
ATOM     41  C   UNL A   1      40.298  28.808  30.256  1.00  0.00     0.037 A 
ATOM     42  C   UNL A   1      39.675  32.944  35.853  1.00  0.00     0.037 A 
ATOM     43  C   UNL A   1      41.250  28.555  31.307  1.00  0.00     0.049 A 
ATOM     44  C   UNL A   1      40.686  31.833  35.802  1.00  0.00     0.074 A 
ATOM     45  C   UNL A   1      42.284  27.635  31.332  1.00  0.00     0.029 A 
ATOM     46  N   UNL A   1      41.278  29.220  32.525  1.00  0.00    -0.354 N 
ATOM     47  N   UNL A   1      40.951  31.000  34.825  1.00  0.00    -0.248 NA
ATOM     48  C   UNL A   1      41.506  31.628  37.005  1.00  0.00     0.031 C 
ATOM     49  C   UNL A   1      42.907  27.709  32.584  1.00  0.00     0.029 A 
ATOM     50  C   UNL A   1      42.290  28.707  33.322  1.00  0.00     0.049 A 
ATOM     51  H   UNL A   1      40.669  29.948  32.785  1.00  0.00     0.167 HD
ATOM     52  C   UNL A   1      41.977  30.185  35.287  1.00  0.00     0.074 A 
ATOM     53  C   UNL A   1      42.299  30.636  36.625  1.00  0.00     0.031 C 
ATOM     54  C   UNL A   1      42.593  29.156  34.657  1.00  0.00     0.037 A 
BRANCH  41  55
ATOM     55  C   UNL A   1      40.334  27.929  29.039  1.00  0.00     0.064 A 
ATOM     56  C   UNL A   1      41.085  28.273  27.905  1.00  0.00     0.173 A 
ATOM     57  C   UNL A   1      39.632  26.715  29.017  1.00  0.00     0.173 A 
ATOM     58  F   UNL A   1      41.769  29.427  27.873  1.00  0.00    -0.203 F 
ATOM     59  C   UNL A   1      41.102  27.453  26.780  1.00  0.00     0.198 A 
ATOM     60  C   UNL A   1      39.674  25.882  27.901  1.00  0.00     0.198 A 
ATOM     61  F   UNL A   1      38.904  26.333  30.077  1.00  0.00    -0.203 F 
ATOM     62  F   UNL A   1      41.783  27.828  25.688  1.00  0.00    -0.200 F 
ATOM     63  C   UNL A   1      40.402  26.256  26.781  1.00  0.00     0.200 A 
ATOM     64  F   UNL A   1      39.008  24.719  27.908  1.00  0.00    -0.200 F 
ATOM     65  F   UNL A   1      40.421  25.466  25.699  1.00  0.00    -0.200 F 
ENDBRANCH  41  55
BRANCH  42  66
ATOM     66  C   UNL A   1      39.552  33.808  37.055  1.00  0.00     0.064 A 
ATOM     67  C   UNL A   1      38.744  33.423  38.134  1.00  0.00     0.173 A 
ATOM     68  C   UNL A   1      40.249  35.020  37.160  1.00  0.00     0.173 A 
ATOM     69  F   UNL A   1      38.041  32.283  38.070  1.00  0.00    -0.203 F 
ATOM     70  C   UNL A   1      38.630  34.223  39.268  1.00  0.00     0.198 A 
ATOM     71  C   UNL A   1      40.154  35.807  38.305  1.00  0.00     0.198 A 
ATOM     72  F   UNL A   1      41.038  35.430  36.156  1.00  0.00    -0.203 F 
ATOM     73  F   UNL A   1      37.825  33.848  40.271  1.00  0.00    -0.200 F 
ATOM     74  C   UNL A   1      39.342  35.410  39.357  1.00  0.00     0.200 A 
ATOM     75  F   UNL A   1      40.854  36.946  38.393  1.00  0.00    -0.200 F 
ATOM     76  F   UNL A   1      39.240  36.174  40.453  1.00  0.00    -0.200 F 
ENDBRANCH  42  66
BRANCH  54  77
ATOM     77  C   UNL A   1      43.684  28.448  35.406  1.00  0.00     0.064 A 
ATOM     78  C   UNL A   1      45.014  28.887  35.349  1.00  0.00     0.173 A 
ATOM     79  C   UNL A   1      43.391  27.343  36.219  1.00  0.00     0.173 A 
ATOM     80  F   UNL A   1      45.348  29.928  34.571  1.00  0.00    -0.203 F 
ATOM     81  C   UNL A   1      46.016  28.233  36.063  1.00  0.00     0.198 A 
ATOM     82  C   UNL A   1      44.390  26.708  36.953  1.00  0.00     0.198 A 
ATOM     83  F   UNL A   1      42.133  26.884  36.311  1.00  0.00    -0.203 F 
ATOM     84  F   UNL A   1      47.287  28.644  35.959  1.00  0.00    -0.200 F 
ATOM     85  C   UNL A   1      45.702  27.150  36.869  1.00  0.00     0.200 A 
ATOM     86  F   UNL A   1      44.082  25.667  37.739  1.00  0.00    -0.200 F 
ATOM     87  F   UNL A   1      46.665  26.525  37.561  1.00  0.00    -0.200 F 
ENDBRANCH  54  77
ENDBRANCH  28  29
ENDBRANCH  20  23
ENDBRANCH  18  19
ENDBRANCH   1  18
TORSDOF 12
ENDMDL
MODEL 2
REMARK VINA RESULT:     -11.7      0.239      2.032
REMARK SMILES CC[C@@H](C(=O)NCCCNC(=O)c1ccc(-c2c3nc(c(-c4c(F)c(F)c(F)c(F)c4F)c4ccc([nH]4)c(-c4c(F)c(F)c(F)c(F)c4F)c4nc(c(-c5c(F)c(F)c(F)c(F)c5F)c5ccc2[nH]5)C=C4)C=C3)cc1)c1cc(Br)ccc1F
REMARK SMILES IDX 8 1 7 2 6 3 4 4 5 5 3 7 2 8 1 9 76 10 77 11 82 12 78 13
REMARK SMILES IDX 81 14 83 15 79 16 80 17 9 18 10 19 11 20 12 22 13 23 14 24
REMARK SMILES IDX 75 25 15 26 74 27 16 28 17 29 18 30 68 31 19 32 73 33 67 34
REMARK SMILES IDX 69 35 20 36 72 37 66 38 65 39 21 41 53 42 33 43 52 44 34 45
REMARK SMILES IDX 37 46 51 47 70 48 35 49 36 50 50 52 71 53 38 54 22 55 23 56
REMARK SMILES IDX 31 57 24 58 25 59 29 60 32 61 26 62 27 63 30 64 28 65 54 66
REMARK SMILES IDX 55 67 63 68 56 69 57 70 61 71 64 72 58 73 59 74 62 75 60 76
REMARK SMILES IDX 39 77 40 78 48 79 41 80 42 81 46 82 49 83 43 84 44 85 47 86
REMARK SMILES IDX 45 87
REMARK H PARENT 6 6 10 21 69 40 37 51
REMARK Flexibility Score: inf
ROOT
ATOM      1  C   UNL A   1      31.386  32.463  26.499  1.00  0.00     0.042 C 
ENDROOT
BRANCH   1   2
ATOM      2  C   UNL A   1      31.246  30.940  26.555  1.00  0.00     0.117 C 
BRANCH   2   3
ATOM      3  N   UNL A   1      31.874  30.312  25.406  1.00  0.00    -0.356 N 
ATOM      4  C   UNL A   1      32.781  29.306  25.280  1.00  0.00     0.227 C 
ATOM      5  O   UNL A   1      33.251  29.173  24.145  1.00  0.00    -0.274 OA
ATOM      6  H   UNL A   1      31.586  30.692  24.544  1.00  0.00     0.163 HD
BRANCH   4   7
ATOM      7  C   UNL A   1      33.160  28.382  26.456  1.00  0.00     0.111 C 
BRANCH   7   8
ATOM      8  C   UNL A   1      34.582  28.609  27.013  1.00  0.00     0.015 C 
ATOM      9  C   UNL A   1      34.929  30.034  27.393  1.00  0.00     0.005 C 
ENDBRANCH   7   8
BRANCH   7  10
ATOM     10  C   UNL A   1      33.095  26.902  26.041  1.00  0.00     0.001 A 
ATOM     11  C   UNL A   1      34.269  26.151  25.827  1.00  0.00     0.023 A 
ATOM     12  C   UNL A   1      31.870  26.234  25.953  1.00  0.00     0.127 A 
ATOM     13  C   UNL A   1      34.206  24.790  25.525  1.00  0.00     0.018 A 
ATOM     14  C   UNL A   1      31.805  24.871  25.662  1.00  0.00     0.041 A 
ATOM     15  F   UNL A   1      30.727  26.897  26.183  1.00  0.00    -0.207 F 
ATOM     16  Br  UNL A   1      35.803  23.821  25.241  1.00  0.00    -0.051 Br
ATOM     17  C   UNL A   1      32.976  24.144  25.446  1.00  0.00     0.019 A 
ENDBRANCH   7  10
ENDBRANCH   4   7
ENDBRANCH   2   3
ENDBRANCH   1   2
BRANCH   1  18
ATOM     18  C   UNL A   1      32.599  33.028  27.236  1.00  0.00     0.118 C 
BRANCH  18  19
ATOM     19  N   UNL A   1      32.391  34.391  27.700  1.00  0.00    -0.352 N 
ATOM     20  C   UNL A   1      33.005  35.076  28.718  1.00  0.00     0.251 C 
ATOM     21  H   UNL A   1      31.706  34.900  27.210  1.00  0.00     0.163 HD
ATOM     22  O   UNL A   1      32.556  36.169  29.067  1.00  0.00    -0.269 OA
BRANCH  20  23
ATOM     23  C   UNL A   1      34.181  34.516  29.427  1.00  0.00     0.039 A 
ATOM     24  C   UNL A   1      33.979  33.872  30.652  1.00  0.00     0.014 A 
ATOM     25  C   UNL A   1      35.479  34.651  28.924  1.00  0.00     0.014 A 
ATOM     26  C   UNL A   1      35.060  33.304  31.332  1.00  0.00     0.010 A 
ATOM     27  C   UNL A   1      36.547  34.021  29.567  1.00  0.00     0.010 A 
ATOM     28  C   UNL A   1      36.349  33.339  30.777  1.00  0.00    -0.014 A 
BRANCH  28  29
ATOM     29  C   UNL A   1      37.490  32.654  31.441  1.00  0.00     0.031 A 
ATOM     30  C   UNL A   1      38.175  31.489  30.780  1.00  0.00     0.074 A 
ATOM     31  C   UNL A   1      37.876  33.045  32.671  1.00  0.00     0.049 A 
ATOM     32  N   UNL A   1      39.147  30.735  31.231  1.00  0.00    -0.248 NA
ATOM     33  C   UNL A   1      37.687  31.106  29.448  1.00  0.00     0.031 C 
ATOM     34  C   UNL A   1      37.269  34.132  33.439  1.00  0.00     0.029 A 
ATOM     35  N   UNL A   1      38.863  32.566  33.497  1.00  0.00    -0.354 N 
ATOM     36  C   UNL A   1      39.377  29.784  30.245  1.00  0.00     0.074 A 
ATOM     37  C   UNL A   1      38.410  30.025  29.195  1.00  0.00     0.031 C 
ATOM     38  C   UNL A   1      37.911  34.254  34.612  1.00  0.00     0.029 A 
ATOM     39  C   UNL A   1      38.948  33.230  34.696  1.00  0.00     0.049 A 
ATOM     40  H   UNL A   1      39.454  31.818  33.252  1.00  0.00     0.167 HD
ATOM     41  C   UNL A   1      40.321  28.813  30.209  1.00  0.00     0.037 A 
ATOM     42  C   UNL A   1      39.763  33.032  35.750  1.00  0.00     0.037 A 
ATOM     43  C   UNL A   1      41.298  28.587  31.244  1.00  0.00     0.049 A 
ATOM     44  C   UNL A   1      40.786  31.931  35.696  1.00  0.00     0.074 A 
ATOM     45  C   UNL A   1      42.343  27.680  31.263  1.00  0.00     0.029 A 
ATOM     46  N   UNL A   1      41.342  29.273  32.450  1.00  0.00    -0.354 N 
ATOM     47  N   UNL A   1      41.041  31.086  34.728  1.00  0.00    -0.248 NA
ATOM     48  C   UNL A   1      41.632  31.756  36.886  1.00  0.00     0.031 C 
ATOM     49  C   UNL A   1      42.990  27.782  32.501  1.00  0.00     0.029 A 
ATOM     50  C   UNL A   1      42.376  28.784  33.235  1.00  0.00     0.049 A 
ATOM     51  H   UNL A   1      40.730  29.998  32.711  1.00  0.00     0.167 HD
ATOM     52  C   UNL A   1      42.085  30.291  35.182  1.00  0.00     0.074 A 
ATOM     53  C   UNL A   1      42.428  30.766  36.506  1.00  0.00     0.031 C 
ATOM     54  C   UNL A   1      42.700  29.258  34.556  1.00  0.00     0.037 A 
BRANCH  41  55
ATOM     55  C   UNL A   1      40.343  27.915  29.006  1.00  0.00     0.064 A 
ATOM     56  C   UNL A   1      39.592  26.730  28.957  1.00  0.00     0.173 A 
ATOM     57  C   UNL A   1      41.102  28.256  27.876  1.00  0.00     0.173 A 
ATOM     58  F   UNL A   1      38.856  26.354  30.014  1.00  0.00    -0.203 F 
ATOM     59  C   UNL A   1      39.630  25.903  27.838  1.00  0.00     0.198 A 
ATOM     60  C   UNL A   1      41.114  27.441  26.747  1.00  0.00     0.198 A 
ATOM     61  F   UNL A   1      41.832  29.382  27.864  1.00  0.00    -0.203 F 
ATOM     62  F   UNL A   1      38.947  24.749  27.836  1.00  0.00    -0.200 F 
ATOM     63  C   UNL A   1      40.386  26.261  26.732  1.00  0.00     0.200 A 
ATOM     64  F   UNL A   1      41.834  27.795  25.673  1.00  0.00    -0.200 F 
ATOM     65  F   UNL A   1      40.419  25.465  25.655  1.00  0.00    -0.200 F 
ENDBRANCH  41  55
BRANCH  42  66
ATOM     66  C   UNL A   1      39.654  33.914  36.940  1.00  0.00     0.064 A 
ATOM     67  C   UNL A   1      40.320  35.145  36.982  1.00  0.00     0.173 A 
ATOM     68  C   UNL A   1      38.871  33.555  38.047  1.00  0.00     0.173 A 
ATOM     69  F   UNL A   1      41.098  35.521  35.956  1.00  0.00    -0.203 F 
ATOM     70  C   UNL A   1      40.215  35.982  38.091  1.00  0.00     0.198 A 
ATOM     71  C   UNL A   1      38.747  34.403  39.145  1.00  0.00     0.198 A 
ATOM     72  F   UNL A   1      38.211  32.387  38.054  1.00  0.00    -0.203 F 
ATOM     73  F   UNL A   1      40.889  37.140  38.119  1.00  0.00    -0.200 F 
ATOM     74  C   UNL A   1      39.423  35.614  39.168  1.00  0.00     0.200 A 
ATOM     75  F   UNL A   1      37.970  34.051  40.177  1.00  0.00    -0.200 F 
ATOM     76  F   UNL A   1      39.314  36.424  40.230  1.00  0.00    -0.200 F 
ENDBRANCH  42  66
BRANCH  54  77
ATOM     77  C   UNL A   1      43.814  28.575  35.294  1.00  0.00     0.064 A 
ATOM     78  C   UNL A   1      43.565  27.509  36.171  1.00  0.00     0.173 A 
ATOM     79  C   UNL A   1      45.147  28.963  35.094  1.00  0.00     0.173 A 
ATOM     80  F   UNL A   1      42.305  27.113  36.410  1.00  0.00    -0.203 F 
ATOM     81  C   UNL A   1      44.608  26.871  36.838  1.00  0.00     0.198 A 
ATOM     82  C   UNL A   1      46.190  28.304  35.740  1.00  0.00     0.198 A 
ATOM     83  F   UNL A   1      45.440  29.974  34.262  1.00  0.00    -0.203 F 
ATOM     84  F   UNL A   1      44.342  25.884  37.704  1.00  0.00    -0.200 F 
ATOM     85  C   UNL A   1      45.919  27.263  36.616  1.00  0.00     0.200 A 
ATOM     86  F   UNL A   1      47.457  28.678  35.517  1.00  0.00    -0.200 F 
ATOM     87  F   UNL A   1      46.923  26.643  37.252  1.00  0.00    -0.200 F 
ENDBRANCH  54  77
ENDBRANCH  28  29
ENDBRANCH  20  23
ENDBRANCH  18  19
ENDBRANCH   1  18
TORSDOF 12
ENDMDL
MODEL 3
REMARK VINA RESULT:     -11.6      0.736      7.593
REMARK SMILES CC[C@@H](C(=O)NCCCNC(=O)c1ccc(-c2c3nc(c(-c4c(F)c(F)c(F)c(F)c4F)c4ccc([nH]4)c(-c4c(F)c(F)c(F)c(F)c4F)c4nc(c(-c5c(F)c(F)c(F)c(F)c5F)c5ccc2[nH]5)C=C4)C=C3)cc1)c1cc(Br)ccc1F
REMARK SMILES IDX 8 1 7 2 6 3 4 4 5 5 3 7 2 8 1 9 76 10 77 11 82 12 78 13
REMARK SMILES IDX 81 14 83 15 79 16 80 17 9 18 10 19 11 20 12 22 13 23 14 24
REMARK SMILES IDX 75 25 15 26 74 27 16 28 17 29 18 30 68 31 19 32 73 33 67 34
REMARK SMILES IDX 69 35 20 36 72 37 66 38 65 39 21 41 53 42 33 43 52 44 34 45
REMARK SMILES IDX 37 46 51 47 70 48 35 49 36 50 50 52 71 53 38 54 22 55 23 56
REMARK SMILES IDX 31 57 24 58 25 59 29 60 32 61 26 62 27 63 30 64 28 65 54 66
REMARK SMILES IDX 55 67 63 68 56 69 57 70 61 71 64 72 58 73 59 74 62 75 60 76
REMARK SMILES IDX 39 77 40 78 48 79 41 80 42 81 46 82 49 83 43 84 44 85 47 86
REMARK SMILES IDX 45 87
REMARK H PARENT 6 6 10 21 69 40 37 51
REMARK Flexibility Score: inf
ROOT
ATOM      1  C   UNL A   1      31.378  32.613  26.493  1.00  0.00     0.042 C 
ENDROOT
BRANCH   1   2
ATOM      2  C   UNL A   1      31.048  31.119  26.485  1.00  0.00     0.117 C 
BRANCH   2   3
ATOM      3  N   UNL A   1      31.662  30.452  25.351  1.00  0.00    -0.356 N 
ATOM      4  C   UNL A   1      32.610  29.481  25.249  1.00  0.00     0.227 C 
ATOM      5  O   UNL A   1      33.043  29.301  24.106  1.00  0.00    -0.274 OA
ATOM      6  H   UNL A   1      31.324  30.765  24.480  1.00  0.00     0.163 HD
BRANCH   4   7
ATOM      7  C   UNL A   1      33.076  28.648  26.461  1.00  0.00     0.111 C 
BRANCH   7   8
ATOM      8  C   UNL A   1      34.550  28.873  26.860  1.00  0.00     0.015 C 
ATOM      9  C   UNL A   1      34.848  30.148  27.622  1.00  0.00     0.005 C 
ENDBRANCH   7   8
BRANCH   7  10
ATOM     10  C   UNL A   1      32.932  27.141  26.187  1.00  0.00     0.001 A 
ATOM     11  C   UNL A   1      34.032  26.368  25.764  1.00  0.00     0.023 A 
ATOM     12  C   UNL A   1      31.726  26.479  26.436  1.00  0.00     0.127 A 
ATOM     13  C   UNL A   1      33.914  24.988  25.590  1.00  0.00     0.018 A 
ATOM     14  C   UNL A   1      31.609  25.097  26.273  1.00  0.00     0.041 A 
ATOM     15  F   UNL A   1      30.661  27.166  26.873  1.00  0.00    -0.207 F 
ATOM     16  Br  UNL A   1      35.412  23.987  25.018  1.00  0.00    -0.051 Br
ATOM     17  C   UNL A   1      32.706  24.348  25.847  1.00  0.00     0.019 A 
ENDBRANCH   7  10
ENDBRANCH   4   7
ENDBRANCH   2   3
ENDBRANCH   1   2
BRANCH   1  18
ATOM     18  C   UNL A   1      32.588  33.003  27.341  1.00  0.00     0.118 C 
BRANCH  18  19
ATOM     19  N   UNL A   1      32.541  34.388  27.786  1.00  0.00    -0.352 N 
ATOM     20  C   UNL A   1      33.272  35.023  28.757  1.00  0.00     0.251 C 
ATOM     21  H   UNL A   1      31.885  34.954  27.320  1.00  0.00     0.163 HD
ATOM     22  O   UNL A   1      32.952  36.161  29.106  1.00  0.00    -0.269 OA
BRANCH  20  23
ATOM     23  C   UNL A   1      34.422  34.359  29.418  1.00  0.00     0.039 A 
ATOM     24  C   UNL A   1      34.172  33.520  30.510  1.00  0.00     0.014 A 
ATOM     25  C   UNL A   1      35.740  34.581  29.005  1.00  0.00     0.014 A 
ATOM     26  C   UNL A   1      35.229  32.854  31.136  1.00  0.00     0.010 A 
ATOM     27  C   UNL A   1      36.785  33.858  29.584  1.00  0.00     0.010 A 
ATOM     28  C   UNL A   1      36.541  32.985  30.655  1.00  0.00    -0.014 A 
BRANCH  28  29
ATOM     29  C   UNL A   1      37.660  32.205  31.248  1.00  0.00     0.031 A 
ATOM     30  C   UNL A   1      38.164  32.518  32.630  1.00  0.00     0.074 A 
ATOM     31  C   UNL A   1      38.264  31.248  30.518  1.00  0.00     0.049 A 
ATOM     32  N   UNL A   1      39.164  31.983  33.288  1.00  0.00    -0.248 NA
ATOM     33  C   UNL A   1      37.471  33.589  33.359  1.00  0.00     0.031 C 
ATOM     34  C   UNL A   1      37.899  30.874  29.151  1.00  0.00     0.029 A 
ATOM     35  N   UNL A   1      39.318  30.420  30.818  1.00  0.00    -0.354 N 
ATOM     36  C   UNL A   1      39.225  32.660  34.499  1.00  0.00     0.074 A 
ATOM     37  C   UNL A   1      38.195  33.677  34.465  1.00  0.00     0.031 C 
ATOM     38  C   UNL A   1      38.698  29.877  28.739  1.00  0.00     0.029 A 
ATOM     39  C   UNL A   1      39.656  29.567  29.797  1.00  0.00     0.049 A 
ATOM     40  H   UNL A   1      39.786  30.437  31.684  1.00  0.00     0.167 HD
ATOM     41  C   UNL A   1      40.050  32.440  35.552  1.00  0.00     0.037 A 
ATOM     42  C   UNL A   1      40.634  28.644  29.715  1.00  0.00     0.037 A 
ATOM     43  C   UNL A   1      41.059  31.413  35.594  1.00  0.00     0.049 A 
ATOM     44  C   UNL A   1      41.552  28.436  30.887  1.00  0.00     0.074 A 
ATOM     45  C   UNL A   1      41.890  31.061  36.644  1.00  0.00     0.029 A 
ATOM     46  N   UNL A   1      41.381  30.578  34.534  1.00  0.00    -0.354 N 
ATOM     47  N   UNL A   1      41.553  29.032  32.054  1.00  0.00    -0.248 NA
ATOM     48  C   UNL A   1      42.610  27.426  30.728  1.00  0.00     0.031 C 
ATOM     49  C   UNL A   1      42.748  30.047  36.203  1.00  0.00     0.029 A 
ATOM     50  C   UNL A   1      42.422  29.735  34.894  1.00  0.00     0.049 A 
ATOM     51  H   UNL A   1      40.936  30.583  33.655  1.00  0.00     0.167 HD
ATOM     52  C   UNL A   1      42.595  28.462  32.773  1.00  0.00     0.074 A 
ATOM     53  C   UNL A   1      43.194  27.458  31.917  1.00  0.00     0.031 C 
ATOM     54  C   UNL A   1      43.017  28.748  34.029  1.00  0.00     0.037 A 
BRANCH  41  55
ATOM     55  C   UNL A   1      39.894  33.332  36.750  1.00  0.00     0.064 A 
ATOM     56  C   UNL A   1      38.968  33.047  37.765  1.00  0.00     0.173 A 
ATOM     57  C   UNL A   1      40.701  34.470  36.900  1.00  0.00     0.173 A 
ATOM     58  F   UNL A   1      38.168  31.974  37.666  1.00  0.00    -0.203 F 
ATOM     59  C   UNL A   1      38.829  33.888  38.866  1.00  0.00     0.198 A 
ATOM     60  C   UNL A   1      40.580  35.293  38.017  1.00  0.00     0.198 A 
ATOM     61  F   UNL A   1      41.609  34.785  35.964  1.00  0.00    -0.203 F 
ATOM     62  F   UNL A   1      37.900  33.624  39.795  1.00  0.00    -0.200 F 
ATOM     63  C   UNL A   1      39.638  35.006  38.994  1.00  0.00     0.200 A 
ATOM     64  F   UNL A   1      41.371  36.367  38.147  1.00  0.00    -0.200 F 
ATOM     65  F   UNL A   1      39.504  35.814  40.055  1.00  0.00    -0.200 F 
ENDBRANCH  41  55
BRANCH  42  66
ATOM     66  C   UNL A   1      40.779  27.833  28.479  1.00  0.00     0.064 A 
ATOM     67  C   UNL A   1      40.115  26.606  28.346  1.00  0.00     0.173 A 
ATOM     68  C   UNL A   1      41.564  28.272  27.403  1.00  0.00     0.173 A 
ATOM     69  F   UNL A   1      39.371  26.135  29.357  1.00  0.00    -0.203 F 
ATOM     70  C   UNL A   1      40.239  25.844  27.187  1.00  0.00     0.198 A 
ATOM     71  C   UNL A   1      41.667  27.521  26.235  1.00  0.00     0.198 A 
ATOM     72  F   UNL A   1      42.217  29.441  27.481  1.00  0.00    -0.203 F 
ATOM     73  F   UNL A   1      39.620  24.658  27.098  1.00  0.00    -0.200 F 
ATOM     74  C   UNL A   1      41.008  26.305  26.129  1.00  0.00     0.200 A 
ATOM     75  F   UNL A   1      42.400  27.976  25.211  1.00  0.00    -0.200 F 
ATOM     76  F   UNL A   1      41.118  25.577  25.010  1.00  0.00    -0.200 F 
ENDBRANCH  42  66
BRANCH  54  77
ATOM     77  C   UNL A   1      44.180  27.960  34.557  1.00  0.00     0.064 A 
ATOM     78  C   UNL A   1      45.495  28.433  34.446  1.00  0.00     0.173 A 
ATOM     79  C   UNL A   1      43.974  26.739  35.216  1.00  0.00     0.173 A 
ATOM     80  F   UNL A   1      45.745  29.587  33.808  1.00  0.00    -0.203 F 
ATOM     81  C   UNL A   1      46.565  27.702  34.956  1.00  0.00     0.198 A 
ATOM     82  C   UNL A   1      45.043  26.024  35.749  1.00  0.00     0.198 A 
ATOM     83  F   UNL A   1      42.734  26.243  35.353  1.00  0.00    -0.203 F 
ATOM     84  F   UNL A   1      47.817  28.153  34.799  1.00  0.00    -0.200 F 
ATOM     85  C   UNL A   1      46.338  26.503  35.613  1.00  0.00     0.200 A 
ATOM     86  F   UNL A   1      44.821  24.869  36.393  1.00  0.00    -0.200 F 
ATOM     87  F   UNL A   1      47.368  25.803  36.110  1.00  0.00    -0.200 F 
ENDBRANCH  54  77
ENDBRANCH  28  29
ENDBRANCH  20  23
ENDBRANCH  18  19
ENDBRANCH   1  18
TORSDOF 12
ENDMDL
