MODEL 1
REMARK VINA RESULT:     -12.3      0.000      0.000
REMARK SMILES O=C(C[C@H]([NH2+]Cc1ccco1)C(=O)Nc1cccc(O)c1)NCCCNC(=O)c1ccc(-c2c3nc(c(-c4c(F)c(F)c(F)c(F)c4F)c4ccc([nH]4)c(-c4c(F)c(F)c(F)c(F)c4F)c4nc(c(-c5c(F)c(F)c(F)c(F)c5F)c5ccc2[nH]5)C=C4)C=C3)cc1
REMARK SMILES IDX 23 1 22 2 1 3 2 4 3 6 4 7 12 8 13 9 14 10 15 12 16 13 21 14
REMARK SMILES IDX 17 15 19 16 18 17 20 18 5 20 6 23 7 24 8 25 11 26 9 27 10 28
REMARK SMILES IDX 24 29 25 30 26 31 27 32 28 34 29 35 30 36 91 37 31 38 90 39
REMARK SMILES IDX 32 40 33 41 34 42 84 43 35 44 89 45 83 46 85 47 36 48 88 49
REMARK SMILES IDX 82 50 81 51 37 53 69 54 49 55 68 56 50 57 53 58 67 59 86 60
REMARK SMILES IDX 51 61 52 62 66 64 87 65 54 66 38 67 39 68 47 69 40 70 41 71
REMARK SMILES IDX 45 72 48 73 42 74 43 75 46 76 44 77 70 78 71 79 79 80 72 81
REMARK SMILES IDX 73 82 77 83 80 84 74 85 75 86 78 87 76 88 55 89 56 90 64 91
REMARK SMILES IDX 57 92 58 93 62 94 65 95 59 96 60 97 63 98 61 99
REMARK H PARENT 22 5 14 11 20 19 5 21 5 22 26 33 85 52 53 63
REMARK Flexibility Score: inf
ROOT
ATOM      1  C   UNL A   1      31.924  30.365  26.517  1.00  0.00     0.117 C 
ENDROOT
BRANCH   1   2
ATOM      2  N   UNL A   1      32.527  29.922  25.264  1.00  0.00    -0.356 N 
ATOM      3  O   UNL A   1      34.339  29.001  26.336  1.00  0.00    -0.275 OA
ATOM      4  C   UNL A   1      33.685  29.134  25.316  1.00  0.00     0.226 C 
ATOM      5  H   UNL A   1      32.129  30.172  24.400  1.00  0.00     0.163 HD
BRANCH   4   6
ATOM      6  C   UNL A   1      34.024  28.411  24.020  1.00  0.00     0.175 C 
BRANCH   6   7
ATOM      7  C   UNL A   1      33.332  27.036  23.790  1.00  0.00     0.282 C 
BRANCH   7   8
ATOM      8  C   UNL A   1      32.902  26.655  22.321  1.00  0.00     0.283 C 
ATOM      9  O   UNL A   1      33.673  25.986  21.620  1.00  0.00    -0.268 OA
ATOM     10  N   UNL A   1      31.749  27.139  21.728  1.00  0.00    -0.321 N 
ATOM     11  H   UNL A   1      31.610  26.908  20.781  1.00  0.00     0.170 HD
BRANCH  10  12
ATOM     12  C   UNL A   1      30.760  27.925  22.334  1.00  0.00     0.045 A 
ATOM     13  C   UNL A   1      29.691  27.352  23.002  1.00  0.00     0.026 A 
ATOM     14  C   UNL A   1      30.774  29.295  22.156  1.00  0.00     0.072 A 
ATOM     15  C   UNL A   1      28.564  28.140  23.278  1.00  0.00     0.006 A 
ATOM     16  C   UNL A   1      29.631  30.050  22.317  1.00  0.00     0.117 A 
ATOM     17  C   UNL A   1      28.508  29.476  22.871  1.00  0.00     0.046 A 
BRANCH  16  18
ATOM     18  O   UNL A   1      29.590  31.347  21.900  1.00  0.00    -0.508 OA
ATOM     19  H   UNL A   1      30.166  31.638  21.220  1.00  0.00     0.293 HD
ENDBRANCH  16  18
ENDBRANCH  10  12
ENDBRANCH   7   8
BRANCH   7  20
ATOM     20  N   UNL A   1      34.106  25.933  24.417  1.00  0.00    -0.329 N 
ATOM     21  H   UNL A   1      35.091  26.196  24.394  1.00  0.00     0.347 HD
ATOM     22  H   UNL A   1      33.877  25.101  23.874  1.00  0.00     0.347 HD
BRANCH  20  23
ATOM     23  C   UNL A   1      33.766  25.602  25.797  1.00  0.00     0.337 C 
BRANCH  23  24
ATOM     24  C   UNL A   1      32.292  25.387  25.924  1.00  0.00     0.157 A 
ATOM     25  C   UNL A   1      31.208  26.231  26.086  1.00  0.00     0.052 A 
ATOM     26  O   UNL A   1      31.861  24.089  25.923  1.00  0.00    -0.463 OA
ATOM     27  C   UNL A   1      30.066  25.403  26.222  1.00  0.00     0.042 A 
ATOM     28  C   UNL A   1      30.517  24.109  26.114  1.00  0.00     0.195 A 
ENDBRANCH  23  24
ENDBRANCH  20  23
ENDBRANCH   7  20
ENDBRANCH   6   7
ENDBRANCH   4   6
ENDBRANCH   1   2
BRANCH   1  29
ATOM     29  C   UNL A   1      31.669  31.870  26.700  1.00  0.00     0.042 C 
BRANCH  29  30
ATOM     30  C   UNL A   1      32.709  32.795  27.355  1.00  0.00     0.118 C 
BRANCH  30  31
ATOM     31  N   UNL A   1      32.322  34.162  27.646  1.00  0.00    -0.352 N 
ATOM     32  C   UNL A   1      32.938  35.033  28.533  1.00  0.00     0.251 C 
ATOM     33  H   UNL A   1      31.537  34.510  27.164  1.00  0.00     0.163 HD
ATOM     34  O   UNL A   1      32.499  36.164  28.713  1.00  0.00    -0.269 OA
BRANCH  32  35
ATOM     35  C   UNL A   1      34.116  34.580  29.319  1.00  0.00     0.039 A 
ATOM     36  C   UNL A   1      33.933  34.131  30.630  1.00  0.00     0.014 A 
ATOM     37  C   UNL A   1      35.399  34.595  28.771  1.00  0.00     0.014 A 
ATOM     38  C   UNL A   1      35.017  33.599  31.346  1.00  0.00     0.010 A 
ATOM     39  C   UNL A   1      36.478  34.044  29.475  1.00  0.00     0.010 A 
ATOM     40  C   UNL A   1      36.291  33.503  30.754  1.00  0.00    -0.014 A 
BRANCH  40  41
ATOM     41  C   UNL A   1      37.386  32.721  31.401  1.00  0.00     0.031 A 
ATOM     42  C   UNL A   1      37.942  33.089  32.749  1.00  0.00     0.074 A 
ATOM     43  C   UNL A   1      37.950  31.707  30.714  1.00  0.00     0.049 A 
ATOM     44  N   UNL A   1      38.924  32.532  33.416  1.00  0.00    -0.248 NA
ATOM     45  C   UNL A   1      37.326  34.234  33.430  1.00  0.00     0.031 C 
ATOM     46  C   UNL A   1      37.551  31.272  29.375  1.00  0.00     0.029 A 
ATOM     47  N   UNL A   1      38.988  30.866  31.039  1.00  0.00    -0.354 N 
ATOM     48  C   UNL A   1      39.046  33.256  34.595  1.00  0.00     0.074 A 
ATOM     49  C   UNL A   1      38.062  34.318  34.532  1.00  0.00     0.031 C 
ATOM     50  C   UNL A   1      38.320  30.240  28.999  1.00  0.00     0.029 A 
ATOM     51  C   UNL A   1      39.292  29.959  30.053  1.00  0.00     0.049 A 
ATOM     52  H   UNL A   1      39.469  30.909  31.897  1.00  0.00     0.167 HD
ATOM     53  C   UNL A   1      39.889  33.047  35.638  1.00  0.00     0.037 A 
ATOM     54  C   UNL A   1      40.249  29.012  29.991  1.00  0.00     0.037 A 
ATOM     55  C   UNL A   1      40.866  31.988  35.711  1.00  0.00     0.049 A 
ATOM     56  C   UNL A   1      41.186  28.816  31.151  1.00  0.00     0.074 A 
ATOM     57  C   UNL A   1      41.714  31.668  36.760  1.00  0.00     0.029 A 
ATOM     58  N   UNL A   1      41.139  31.086  34.694  1.00  0.00    -0.354 N 
ATOM     59  N   UNL A   1      41.231  29.455  32.293  1.00  0.00    -0.248 NA
ATOM     60  C   UNL A   1      42.203  27.762  31.014  1.00  0.00     0.031 C 
ATOM     61  C   UNL A   1      42.532  30.606  36.360  1.00  0.00     0.029 A 
ATOM     62  C   UNL A   1      42.160  30.230  35.080  1.00  0.00     0.049 A 
ATOM     63  H   UNL A   1      40.676  31.057  33.825  1.00  0.00     0.167 HD
ATOM     64  C   UNL A   1      42.255  28.863  33.021  1.00  0.00     0.074 A 
ATOM     65  C   UNL A   1      42.801  27.807  32.197  1.00  0.00     0.031 C 
ATOM     66  C   UNL A   1      42.698  29.171  34.264  1.00  0.00     0.037 A 
BRANCH  53  67
ATOM     67  C   UNL A   1      39.795  33.984  36.808  1.00  0.00     0.064 A 
ATOM     68  C   UNL A   1      38.974  33.700  37.910  1.00  0.00     0.173 A 
ATOM     69  C   UNL A   1      40.587  35.141  36.861  1.00  0.00     0.173 A 
ATOM     70  F   UNL A   1      38.199  32.605  37.909  1.00  0.00    -0.203 F 
ATOM     71  C   UNL A   1      38.928  34.553  39.009  1.00  0.00     0.198 A 
ATOM     72  C   UNL A   1      40.559  35.979  37.974  1.00  0.00     0.198 A 
ATOM     73  F   UNL A   1      41.402  35.452  35.843  1.00  0.00    -0.203 F 
ATOM     74  F   UNL A   1      38.108  34.281  40.033  1.00  0.00    -0.200 F 
ATOM     75  C   UNL A   1      39.725  35.689  39.043  1.00  0.00     0.200 A 
ATOM     76  F   UNL A   1      41.342  37.066  38.013  1.00  0.00    -0.200 F 
ATOM     77  F   UNL A   1      39.686  36.504  40.106  1.00  0.00    -0.200 F 
ENDBRANCH  53  67
BRANCH  54  78
ATOM     78  C   UNL A   1      40.360  28.153  28.783  1.00  0.00     0.064 A 
ATOM     79  C   UNL A   1      39.708  26.913  28.721  1.00  0.00     0.173 A 
ATOM     80  C   UNL A   1      41.123  28.547  27.675  1.00  0.00     0.173 A 
ATOM     81  F   UNL A   1      38.986  26.484  29.767  1.00  0.00    -0.203 F 
ATOM     82  C   UNL A   1      39.832  26.091  27.604  1.00  0.00     0.198 A 
ATOM     83  C   UNL A   1      41.223  27.736  26.546  1.00  0.00     0.198 A 
ATOM     84  F   UNL A   1      41.763  29.726  27.684  1.00  0.00    -0.203 F 
ATOM     85  F   UNL A   1      39.237  24.891  27.588  1.00  0.00    -0.200 F 
ATOM     86  C   UNL A   1      40.584  26.506  26.515  1.00  0.00     0.200 A 
ATOM     87  F   UNL A   1      41.940  28.147  25.491  1.00  0.00    -0.200 F 
ATOM     88  F   UNL A   1      40.701  25.716  25.438  1.00  0.00    -0.200 F 
ENDBRANCH  54  78
BRANCH  66  89
ATOM     89  C   UNL A   1      43.808  28.335  34.834  1.00  0.00     0.064 A 
ATOM     90  C   UNL A   1      43.552  27.146  35.533  1.00  0.00     0.173 A 
ATOM     91  C   UNL A   1      45.148  28.704  34.637  1.00  0.00     0.173 A 
ATOM     92  F   UNL A   1      42.289  26.758  35.764  1.00  0.00    -0.203 F 
ATOM     93  C   UNL A   1      44.596  26.367  36.028  1.00  0.00     0.198 A 
ATOM     94  C   UNL A   1      46.189  27.909  35.109  1.00  0.00     0.198 A 
ATOM     95  F   UNL A   1      45.448  29.831  33.972  1.00  0.00    -0.203 F 
ATOM     96  F   UNL A   1      44.327  25.256  36.727  1.00  0.00    -0.200 F 
ATOM     97  C   UNL A   1      45.912  26.744  35.809  1.00  0.00     0.200 A 
ATOM     98  F   UNL A   1      47.460  28.269  34.886  1.00  0.00    -0.200 F 
ATOM     99  F   UNL A   1      46.915  25.988  36.276  1.00  0.00    -0.200 F 
ENDBRANCH  66  89
ENDBRANCH  40  41
ENDBRANCH  32  35
ENDBRANCH  30  31
ENDBRANCH  29  30
ENDBRANCH   1  29
TORSDOF 17
ENDMDL
MODEL 2
REMARK VINA RESULT:     -12.2      1.147      7.754
REMARK SMILES O=C(C[C@H]([NH2+]Cc1ccco1)C(=O)Nc1cccc(O)c1)NCCCNC(=O)c1ccc(-c2c3nc(c(-c4c(F)c(F)c(F)c(F)c4F)c4ccc([nH]4)c(-c4c(F)c(F)c(F)c(F)c4F)c4nc(c(-c5c(F)c(F)c(F)c(F)c5F)c5ccc2[nH]5)C=C4)C=C3)cc1
REMARK SMILES IDX 23 1 22 2 1 3 2 4 3 6 4 7 12 8 13 9 14 10 15 12 16 13 21 14
REMARK SMILES IDX 17 15 19 16 18 17 20 18 5 20 6 23 7 24 8 25 11 26 9 27 10 28
REMARK SMILES IDX 24 29 25 30 26 31 27 32 28 34 29 35 30 36 91 37 31 38 90 39
REMARK SMILES IDX 32 40 33 41 34 42 84 43 35 44 89 45 83 46 85 47 36 48 88 49
REMARK SMILES IDX 82 50 81 51 37 53 69 54 49 55 68 56 50 57 53 58 67 59 86 60
REMARK SMILES IDX 51 61 52 62 66 64 87 65 54 66 38 67 39 68 47 69 40 70 41 71
REMARK SMILES IDX 45 72 48 73 42 74 43 75 46 76 44 77 70 78 71 79 79 80 72 81
REMARK SMILES IDX 73 82 77 83 80 84 74 85 75 86 78 87 76 88 55 89 56 90 64 91
REMARK SMILES IDX 57 92 58 93 62 94 65 95 59 96 60 97 63 98 61 99
REMARK H PARENT 22 5 14 11 20 19 5 21 5 22 26 33 85 52 53 63
REMARK Flexibility Score: inf
ROOT
ATOM      1  C   UNL A   1      31.969  30.278  26.791  1.00  0.00     0.117 C 
ENDROOT
BRANCH   1   2
ATOM      2  N   UNL A   1      31.788  29.589  25.518  1.00  0.00    -0.356 N 
ATOM      3  O   UNL A   1      33.914  28.720  25.560  1.00  0.00    -0.275 OA
ATOM      4  C   UNL A   1      32.801  28.733  25.065  1.00  0.00     0.226 C 
ATOM      5  H   UNL A   1      30.970  29.722  24.987  1.00  0.00     0.163 HD
BRANCH   4   6
ATOM      6  C   UNL A   1      32.384  27.781  23.952  1.00  0.00     0.175 C 
BRANCH   6   7
ATOM      7  C   UNL A   1      31.277  26.743  24.304  1.00  0.00     0.282 C 
BRANCH   7   8
ATOM      8  C   UNL A   1      31.320  26.064  25.727  1.00  0.00     0.283 C 
ATOM      9  O   UNL A   1      30.740  26.608  26.675  1.00  0.00    -0.268 OA
ATOM     10  N   UNL A   1      32.085  24.942  25.998  1.00  0.00    -0.321 N 
ATOM     11  H   UNL A   1      32.107  24.640  26.936  1.00  0.00     0.170 HD
BRANCH  10  12
ATOM     12  C   UNL A   1      32.830  24.191  25.080  1.00  0.00     0.045 A 
ATOM     13  C   UNL A   1      34.156  24.488  24.813  1.00  0.00     0.026 A 
ATOM     14  C   UNL A   1      32.204  23.217  24.328  1.00  0.00     0.072 A 
ATOM     15  C   UNL A   1      34.749  23.958  23.658  1.00  0.00     0.006 A 
ATOM     16  C   UNL A   1      32.736  22.782  23.132  1.00  0.00     0.117 A 
ATOM     17  C   UNL A   1      34.013  23.158  22.778  1.00  0.00     0.046 A 
BRANCH  16  18
ATOM     18  O   UNL A   1      31.998  22.015  22.281  1.00  0.00    -0.508 OA
ATOM     19  H   UNL A   1      31.907  22.267  21.383  1.00  0.00     0.293 HD
ENDBRANCH  16  18
ENDBRANCH  10  12
ENDBRANCH   7   8
BRANCH   7  20
ATOM     20  N   UNL A   1      29.924  27.284  24.018  1.00  0.00    -0.329 N 
ATOM     21  H   UNL A   1      29.650  27.868  24.808  1.00  0.00     0.347 HD
ATOM     22  H   UNL A   1      29.332  26.467  23.871  1.00  0.00     0.347 HD
BRANCH  20  23
ATOM     23  C   UNL A   1      29.786  28.085  22.805  1.00  0.00     0.337 C 
BRANCH  23  24
ATOM     24  C   UNL A   1      29.020  29.335  23.101  1.00  0.00     0.157 A 
ATOM     25  C   UNL A   1      27.708  29.727  22.908  1.00  0.00     0.052 A 
ATOM     26  O   UNL A   1      29.726  30.368  23.654  1.00  0.00    -0.463 OA
ATOM     27  C   UNL A   1      27.620  31.076  23.334  1.00  0.00     0.042 A 
ATOM     28  C   UNL A   1      28.874  31.418  23.780  1.00  0.00     0.195 A 
ENDBRANCH  23  24
ENDBRANCH  20  23
ENDBRANCH   7  20
ENDBRANCH   6   7
ENDBRANCH   4   6
ENDBRANCH   1   2
BRANCH   1  29
ATOM     29  C   UNL A   1      31.704  31.792  26.833  1.00  0.00     0.042 C 
BRANCH  29  30
ATOM     30  C   UNL A   1      32.751  32.783  27.370  1.00  0.00     0.118 C 
BRANCH  30  31
ATOM     31  N   UNL A   1      32.324  34.137  27.666  1.00  0.00    -0.352 N 
ATOM     32  C   UNL A   1      32.929  35.032  28.535  1.00  0.00     0.251 C 
ATOM     33  H   UNL A   1      31.516  34.455  27.201  1.00  0.00     0.163 HD
ATOM     34  O   UNL A   1      32.455  36.148  28.722  1.00  0.00    -0.269 OA
BRANCH  32  35
ATOM     35  C   UNL A   1      34.140  34.624  29.295  1.00  0.00     0.039 A 
ATOM     36  C   UNL A   1      34.009  34.214  30.625  1.00  0.00     0.014 A 
ATOM     37  C   UNL A   1      35.404  34.642  28.705  1.00  0.00     0.014 A 
ATOM     38  C   UNL A   1      35.125  33.722  31.320  1.00  0.00     0.010 A 
ATOM     39  C   UNL A   1      36.515  34.132  29.388  1.00  0.00     0.010 A 
ATOM     40  C   UNL A   1      36.381  33.629  30.690  1.00  0.00    -0.014 A 
BRANCH  40  41
ATOM     41  C   UNL A   1      37.509  32.886  31.323  1.00  0.00     0.031 A 
ATOM     42  C   UNL A   1      38.148  31.693  30.668  1.00  0.00     0.074 A 
ATOM     43  C   UNL A   1      37.909  33.247  32.560  1.00  0.00     0.049 A 
ATOM     44  N   UNL A   1      39.107  30.919  31.119  1.00  0.00    -0.248 NA
ATOM     45  C   UNL A   1      37.639  31.311  29.345  1.00  0.00     0.031 C 
ATOM     46  C   UNL A   1      37.345  34.350  33.338  1.00  0.00     0.029 A 
ATOM     47  N   UNL A   1      38.872  32.718  33.386  1.00  0.00    -0.354 N 
ATOM     48  C   UNL A   1      39.317  29.959  30.138  1.00  0.00     0.074 A 
ATOM     49  C   UNL A   1      38.358  30.225  29.084  1.00  0.00     0.031 C 
ATOM     50  C   UNL A   1      37.978  34.426  34.518  1.00  0.00     0.029 A 
ATOM     51  C   UNL A   1      38.971  33.357  34.598  1.00  0.00     0.049 A 
ATOM     52  H   UNL A   1      39.439  31.953  33.133  1.00  0.00     0.167 HD
ATOM     53  C   UNL A   1      40.234  28.958  30.110  1.00  0.00     0.037 A 
ATOM     54  C   UNL A   1      39.759  33.111  35.662  1.00  0.00     0.037 A 
ATOM     55  C   UNL A   1      41.197  28.691  31.151  1.00  0.00     0.049 A 
ATOM     56  C   UNL A   1      40.751  31.981  35.615  1.00  0.00     0.074 A 
ATOM     57  C   UNL A   1      42.202  27.737  31.171  1.00  0.00     0.029 A 
ATOM     58  N   UNL A   1      41.268  29.365  32.360  1.00  0.00    -0.354 N 
ATOM     59  N   UNL A   1      40.995  31.136  34.645  1.00  0.00    -0.248 NA
ATOM     60  C   UNL A   1      41.580  31.774  36.812  1.00  0.00     0.031 C 
ATOM     61  C   UNL A   1      42.849  27.801  32.410  1.00  0.00     0.029 A 
ATOM     62  C   UNL A   1      42.280  28.829  33.143  1.00  0.00     0.049 A 
ATOM     63  H   UNL A   1      40.686  30.114  32.625  1.00  0.00     0.167 HD
ATOM     64  C   UNL A   1      42.023  30.321  35.099  1.00  0.00     0.074 A 
ATOM     65  C   UNL A   1      42.365  30.776  36.430  1.00  0.00     0.031 C 
ATOM     66  C   UNL A   1      42.629  29.288  34.464  1.00  0.00     0.037 A 
BRANCH  53  67
ATOM     67  C   UNL A   1      40.254  28.064  28.903  1.00  0.00     0.064 A 
ATOM     68  C   UNL A   1      41.012  28.384  27.767  1.00  0.00     0.173 A 
ATOM     69  C   UNL A   1      39.564  26.841  28.910  1.00  0.00     0.173 A 
ATOM     70  F   UNL A   1      41.690  29.540  27.712  1.00  0.00    -0.203 F 
ATOM     71  C   UNL A   1      41.058  27.526  26.671  1.00  0.00     0.198 A 
ATOM     72  C   UNL A   1      39.634  25.973  27.823  1.00  0.00     0.198 A 
ATOM     73  F   UNL A   1      38.837  26.479  29.977  1.00  0.00    -0.203 F 
ATOM     74  F   UNL A   1      41.758  27.870  25.582  1.00  0.00    -0.200 F 
ATOM     75  C   UNL A   1      40.374  26.319  26.702  1.00  0.00     0.200 A 
ATOM     76  F   UNL A   1      38.988  24.800  27.861  1.00  0.00    -0.200 F 
ATOM     77  F   UNL A   1      40.427  25.491  25.650  1.00  0.00    -0.200 F 
ENDBRANCH  53  67
BRANCH  54  78
ATOM     78  C   UNL A   1      39.659  33.972  36.869  1.00  0.00     0.064 A 
ATOM     79  C   UNL A   1      38.839  33.606  37.947  1.00  0.00     0.173 A 
ATOM     80  C   UNL A   1      40.367  35.177  36.967  1.00  0.00     0.173 A 
ATOM     81  F   UNL A   1      38.124  32.472  37.888  1.00  0.00    -0.203 F 
ATOM     82  C   UNL A   1      38.719  34.423  39.068  1.00  0.00     0.198 A 
ATOM     83  C   UNL A   1      40.268  35.980  38.102  1.00  0.00     0.198 A 
ATOM     84  F   UNL A   1      41.168  35.571  35.965  1.00  0.00    -0.203 F 
ATOM     85  F   UNL A   1      37.894  34.072  40.064  1.00  0.00    -0.200 F 
ATOM     86  C   UNL A   1      39.438  35.606  39.148  1.00  0.00     0.200 A 
ATOM     87  F   UNL A   1      40.975  37.116  38.180  1.00  0.00    -0.200 F 
ATOM     88  F   UNL A   1      39.324  36.391  40.228  1.00  0.00    -0.200 F 
ENDBRANCH  54  78
BRANCH  66  89
ATOM     89  C   UNL A   1      43.752  28.594  35.180  1.00  0.00     0.064 A 
ATOM     90  C   UNL A   1      43.528  27.475  35.995  1.00  0.00     0.173 A 
ATOM     91  C   UNL A   1      45.076  29.026  35.009  1.00  0.00     0.173 A 
ATOM     92  F   UNL A   1      42.279  27.033  36.205  1.00  0.00    -0.203 F 
ATOM     93  C   UNL A   1      44.586  26.825  36.626  1.00  0.00     0.198 A 
ATOM     94  C   UNL A   1      46.134  28.358  35.620  1.00  0.00     0.198 A 
ATOM     95  F   UNL A   1      45.347  30.090  34.237  1.00  0.00    -0.203 F 
ATOM     96  F   UNL A   1      44.344  25.782  37.432  1.00  0.00    -0.200 F 
ATOM     97  C   UNL A   1      45.888  27.261  36.432  1.00  0.00     0.200 A 
ATOM     98  F   UNL A   1      47.393  28.773  35.421  1.00  0.00    -0.200 F 
ATOM     99  F   UNL A   1      46.905  26.627  37.032  1.00  0.00    -0.200 F 
ENDBRANCH  66  89
ENDBRANCH  40  41
ENDBRANCH  32  35
ENDBRANCH  30  31
ENDBRANCH  29  30
ENDBRANCH   1  29
TORSDOF 17
ENDMDL
MODEL 3
REMARK VINA RESULT:     -12.1      5.841     11.013
REMARK SMILES O=C(C[C@H]([NH2+]Cc1ccco1)C(=O)Nc1cccc(O)c1)NCCCNC(=O)c1ccc(-c2c3nc(c(-c4c(F)c(F)c(F)c(F)c4F)c4ccc([nH]4)c(-c4c(F)c(F)c(F)c(F)c4F)c4nc(c(-c5c(F)c(F)c(F)c(F)c5F)c5ccc2[nH]5)C=C4)C=C3)cc1
REMARK SMILES IDX 23 1 22 2 1 3 2 4 3 6 4 7 12 8 13 9 14 10 15 12 16 13 21 14
REMARK SMILES IDX 17 15 19 16 18 17 20 18 5 20 6 23 7 24 8 25 11 26 9 27 10 28
REMARK SMILES IDX 24 29 25 30 26 31 27 32 28 34 29 35 30 36 91 37 31 38 90 39
REMARK SMILES IDX 32 40 33 41 34 42 84 43 35 44 89 45 83 46 85 47 36 48 88 49
REMARK SMILES IDX 82 50 81 51 37 53 69 54 49 55 68 56 50 57 53 58 67 59 86 60
REMARK SMILES IDX 51 61 52 62 66 64 87 65 54 66 38 67 39 68 47 69 40 70 41 71
REMARK SMILES IDX 45 72 48 73 42 74 43 75 46 76 44 77 70 78 71 79 79 80 72 81
REMARK SMILES IDX 73 82 77 83 80 84 74 85 75 86 78 87 76 88 55 89 56 90 64 91
REMARK SMILES IDX 57 92 58 93 62 94 65 95 59 96 60 97 63 98 61 99
REMARK H PARENT 22 5 14 11 20 19 5 21 5 22 26 33 85 52 53 63
REMARK Flexibility Score: inf
ROOT
ATOM      1  C   UNL A   1      37.213  21.334  24.636  1.00  0.00     0.117 C 
ENDROOT
BRANCH   1   2
ATOM      2  N   UNL A   1      35.790  21.277  24.955  1.00  0.00    -0.356 N 
ATOM      3  O   UNL A   1      35.888  23.184  26.233  1.00  0.00    -0.275 OA
ATOM      4  C   UNL A   1      35.217  22.338  25.668  1.00  0.00     0.226 C 
ATOM      5  H   UNL A   1      35.244  20.507  24.676  1.00  0.00     0.163 HD
BRANCH   4   6
ATOM      6  C   UNL A   1      33.695  22.387  25.629  1.00  0.00     0.175 C 
BRANCH   6   7
ATOM      7  C   UNL A   1      33.045  22.658  24.240  1.00  0.00     0.282 C 
BRANCH   7   8
ATOM      8  C   UNL A   1      33.764  23.671  23.267  1.00  0.00     0.283 C 
ATOM      9  O   UNL A   1      34.602  23.245  22.462  1.00  0.00    -0.268 OA
ATOM     10  N   UNL A   1      33.591  25.042  23.353  1.00  0.00    -0.321 N 
ATOM     11  H   UNL A   1      34.145  25.593  22.753  1.00  0.00     0.170 HD
BRANCH  10  12
ATOM     12  C   UNL A   1      32.714  25.727  24.203  1.00  0.00     0.045 A 
ATOM     13  C   UNL A   1      33.127  26.196  25.439  1.00  0.00     0.026 A 
ATOM     14  C   UNL A   1      31.378  25.828  23.867  1.00  0.00     0.072 A 
ATOM     15  C   UNL A   1      32.156  26.550  26.387  1.00  0.00     0.006 A 
ATOM     16  C   UNL A   1      30.414  26.062  24.825  1.00  0.00     0.117 A 
ATOM     17  C   UNL A   1      30.794  26.416  26.102  1.00  0.00     0.046 A 
BRANCH  16  18
ATOM     18  O   UNL A   1      29.092  25.911  24.532  1.00  0.00    -0.508 OA
ATOM     19  H   UNL A   1      28.503  26.632  24.639  1.00  0.00     0.293 HD
ENDBRANCH  16  18
ENDBRANCH  10  12
ENDBRANCH   7   8
BRANCH   7  20
ATOM     20  N   UNL A   1      32.727  21.387  23.539  1.00  0.00    -0.329 N 
ATOM     21  H   UNL A   1      33.569  21.086  23.048  1.00  0.00     0.347 HD
ATOM     22  H   UNL A   1      31.938  21.605  22.931  1.00  0.00     0.347 HD
BRANCH  20  23
ATOM     23  C   UNL A   1      32.278  20.278  24.374  1.00  0.00     0.337 C 
BRANCH  23  24
ATOM     24  C   UNL A   1      33.029  19.034  24.021  1.00  0.00     0.157 A 
ATOM     25  C   UNL A   1      32.770  17.957  23.193  1.00  0.00     0.052 A 
ATOM     26  O   UNL A   1      34.230  18.846  24.649  1.00  0.00    -0.463 OA
ATOM     27  C   UNL A   1      33.851  17.054  23.351  1.00  0.00     0.042 A 
ATOM     28  C   UNL A   1      34.712  17.642  24.247  1.00  0.00     0.195 A 
ENDBRANCH  23  24
ENDBRANCH  20  23
ENDBRANCH   7  20
ENDBRANCH   6   7
ENDBRANCH   4   6
ENDBRANCH   1   2
BRANCH   1  29
ATOM     29  C   UNL A   1      38.077  20.109  24.977  1.00  0.00     0.042 C 
BRANCH  29  30
ATOM     30  C   UNL A   1      39.372  20.234  25.797  1.00  0.00     0.118 C 
BRANCH  30  31
ATOM     31  N   UNL A   1      40.280  19.103  25.820  1.00  0.00    -0.352 N 
ATOM     32  C   UNL A   1      41.635  19.126  26.114  1.00  0.00     0.251 C 
ATOM     33  H   UNL A   1      39.893  18.224  25.603  1.00  0.00     0.163 HD
ATOM     34  O   UNL A   1      42.306  18.100  26.075  1.00  0.00    -0.269 OA
BRANCH  32  35
ATOM     35  C   UNL A   1      42.303  20.416  26.431  1.00  0.00     0.039 A 
ATOM     36  C   UNL A   1      42.994  21.095  25.423  1.00  0.00     0.014 A 
ATOM     37  C   UNL A   1      42.251  20.960  27.715  1.00  0.00     0.014 A 
ATOM     38  C   UNL A   1      43.535  22.366  25.679  1.00  0.00     0.010 A 
ATOM     39  C   UNL A   1      42.772  22.236  27.966  1.00  0.00     0.010 A 
ATOM     40  C   UNL A   1      43.384  22.971  26.941  1.00  0.00    -0.014 A 
BRANCH  40  41
ATOM     41  C   UNL A   1      43.731  24.406  27.156  1.00  0.00     0.031 A 
ATOM     42  C   UNL A   1      45.130  24.926  26.974  1.00  0.00     0.074 A 
ATOM     43  C   UNL A   1      42.775  25.242  27.611  1.00  0.00     0.049 A 
ATOM     44  N   UNL A   1      45.592  26.138  27.169  1.00  0.00    -0.248 NA
ATOM     45  C   UNL A   1      46.143  23.961  26.528  1.00  0.00     0.031 C 
ATOM     46  C   UNL A   1      41.388  24.866  27.884  1.00  0.00     0.029 A 
ATOM     47  N   UNL A   1      42.826  26.577  27.937  1.00  0.00    -0.354 N 
ATOM     48  C   UNL A   1      46.947  26.085  26.871  1.00  0.00     0.074 A 
ATOM     49  C   UNL A   1      47.240  24.709  26.519  1.00  0.00     0.031 C 
ATOM     50  C   UNL A   1      40.717  25.942  28.320  1.00  0.00     0.029 A 
ATOM     51  C   UNL A   1      41.631  27.079  28.393  1.00  0.00     0.049 A 
ATOM     52  H   UNL A   1      43.642  27.122  27.852  1.00  0.00     0.167 HD
ATOM     53  C   UNL A   1      47.859  27.090  26.875  1.00  0.00     0.037 A 
ATOM     54  C   UNL A   1      41.303  28.310  28.831  1.00  0.00     0.037 A 
ATOM     55  C   UNL A   1      47.574  28.463  27.216  1.00  0.00     0.049 A 
ATOM     56  C   UNL A   1      42.338  29.401  28.848  1.00  0.00     0.074 A 
ATOM     57  C   UNL A   1      48.427  29.554  27.183  1.00  0.00     0.029 A 
ATOM     58  N   UNL A   1      46.350  28.932  27.667  1.00  0.00    -0.354 N 
ATOM     59  N   UNL A   1      43.594  29.353  28.481  1.00  0.00    -0.248 NA
ATOM     60  C   UNL A   1      41.907  30.720  29.336  1.00  0.00     0.031 C 
ATOM     61  C   UNL A   1      47.734  30.672  27.659  1.00  0.00     0.029 A 
ATOM     62  C   UNL A   1      46.434  30.289  27.941  1.00  0.00     0.049 A 
ATOM     63  H   UNL A   1      45.539  28.383  27.776  1.00  0.00     0.167 HD
ATOM     64  C   UNL A   1      44.094  30.636  28.663  1.00  0.00     0.074 A 
ATOM     65  C   UNL A   1      43.003  31.445  29.164  1.00  0.00     0.031 C 
ATOM     66  C   UNL A   1      45.346  31.098  28.431  1.00  0.00     0.037 A 
BRANCH  53  67
ATOM     67  C   UNL A   1      49.271  26.752  26.490  1.00  0.00     0.064 A 
ATOM     68  C   UNL A   1      49.724  26.894  25.170  1.00  0.00     0.173 A 
ATOM     69  C   UNL A   1      50.199  26.348  27.462  1.00  0.00     0.173 A 
ATOM     70  F   UNL A   1      48.876  27.279  24.203  1.00  0.00    -0.203 F 
ATOM     71  C   UNL A   1      51.047  26.621  24.832  1.00  0.00     0.198 A 
ATOM     72  C   UNL A   1      51.528  26.101  27.126  1.00  0.00     0.198 A 
ATOM     73  F   UNL A   1      49.823  26.212  28.742  1.00  0.00    -0.203 F 
ATOM     74  F   UNL A   1      51.447  26.727  23.558  1.00  0.00    -0.200 F 
ATOM     75  C   UNL A   1      51.949  26.230  25.811  1.00  0.00     0.200 A 
ATOM     76  F   UNL A   1      52.403  25.741  28.076  1.00  0.00    -0.200 F 
ATOM     77  F   UNL A   1      53.224  25.975  25.485  1.00  0.00    -0.200 F 
ENDBRANCH  53  67
BRANCH  54  78
ATOM     78  C   UNL A   1      39.912  28.588  29.276  1.00  0.00     0.064 A 
ATOM     79  C   UNL A   1      39.522  28.355  30.603  1.00  0.00     0.173 A 
ATOM     80  C   UNL A   1      38.946  29.079  28.387  1.00  0.00     0.173 A 
ATOM     81  F   UNL A   1      40.407  27.862  31.483  1.00  0.00    -0.203 F 
ATOM     82  C   UNL A   1      38.213  28.586  31.018  1.00  0.00     0.198 A 
ATOM     83  C   UNL A   1      37.644  29.337  28.811  1.00  0.00     0.198 A 
ATOM     84  F   UNL A   1      39.270  29.322  27.108  1.00  0.00    -0.203 F 
ATOM     85  F   UNL A   1      37.855  28.312  32.280  1.00  0.00    -0.200 F 
ATOM     86  C   UNL A   1      37.277  29.083  30.124  1.00  0.00     0.200 A 
ATOM     87  F   UNL A   1      36.746  29.829  27.947  1.00  0.00    -0.200 F 
ATOM     88  F   UNL A   1      36.018  29.308  30.525  1.00  0.00    -0.200 F 
ENDBRANCH  54  78
BRANCH  66  89
ATOM     89  C   UNL A   1      45.607  32.556  28.681  1.00  0.00     0.064 A 
ATOM     90  C   UNL A   1      45.406  33.523  27.685  1.00  0.00     0.173 A 
ATOM     91  C   UNL A   1      46.019  32.996  29.948  1.00  0.00     0.173 A 
ATOM     92  F   UNL A   1      45.029  33.152  26.452  1.00  0.00    -0.203 F 
ATOM     93  C   UNL A   1      45.624  34.874  27.944  1.00  0.00     0.198 A 
ATOM     94  C   UNL A   1      46.210  34.351  30.211  1.00  0.00     0.198 A 
ATOM     95  F   UNL A   1      46.224  32.113  30.938  1.00  0.00    -0.203 F 
ATOM     96  F   UNL A   1      45.463  35.776  26.966  1.00  0.00    -0.200 F 
ATOM     97  C   UNL A   1      46.017  35.288  29.207  1.00  0.00     0.200 A 
ATOM     98  F   UNL A   1      46.579  34.749  31.436  1.00  0.00    -0.200 F 
ATOM     99  F   UNL A   1      46.215  36.589  29.457  1.00  0.00    -0.200 F 
ENDBRANCH  66  89
ENDBRANCH  40  41
ENDBRANCH  32  35
ENDBRANCH  30  31
ENDBRANCH  29  30
ENDBRANCH   1  29
TORSDOF 17
ENDMDL
