MODEL 1
REMARK VINA RESULT:     -13.2      0.000      0.000
REMARK SMILES COc1ccc([C@H]2CC(c3ccccc3)=NN2C(=O)CCCC(=O)NCCCNC(=O)c2ccc(-c3c4nc(c(-c5c(F)c(F)c(F)c(F)c5F)c5ccc([nH]5)c(-c5c(F)c(F)c(F)c(F)c5F)c5nc(c(-c6c(F)c(F)c(F)c(F)c6F)c6ccc3[nH]6)C=C5)C=C4)cc2)cc1
REMARK SMILES IDX 23 1 24 2 25 3 22 5 21 6 20 7 18 8 19 9 17 10 7 11 8 12 9 13
REMARK SMILES IDX 16 14 6 15 3 16 4 17 96 18 5 19 95 20 2 21 1 22 10 23 11 24
REMARK SMILES IDX 15 25 12 26 14 27 13 28 26 29 27 30 28 31 29 32 30 33 31 35
REMARK SMILES IDX 32 36 33 37 94 38 34 39 93 40 35 41 36 42 37 43 87 44 38 45
REMARK SMILES IDX 92 46 86 47 88 48 39 49 91 50 85 51 84 52 40 54 72 55 52 56
REMARK SMILES IDX 71 57 53 58 56 59 70 60 89 61 54 62 55 63 69 65 90 66 57 67
REMARK SMILES IDX 41 68 42 69 50 70 43 71 44 72 48 73 51 74 45 75 46 76 49 77
REMARK SMILES IDX 47 78 73 79 74 80 82 81 75 82 76 83 80 84 83 85 77 86 78 87
REMARK SMILES IDX 81 88 79 89 58 90 59 91 67 92 60 93 61 94 65 95 68 96 62 97
REMARK SMILES IDX 63 98 66 99 64 100
REMARK H PARENT 25 4 29 34 88 53 56 64
REMARK Flexibility Score: inf
ROOT
ATOM      1  C   UNL A   1      33.773  28.918  26.737  1.00  0.00     0.220 C 
ATOM      2  O   UNL A   1      34.988  28.913  26.959  1.00  0.00    -0.275 OA
ATOM      3  N   UNL A   1      33.184  30.138  26.717  1.00  0.00    -0.356 N 
ATOM      4  H   UNL A   1      33.804  30.885  26.553  1.00  0.00     0.163 HD
ENDROOT
BRANCH   1   5
ATOM      5  C   UNL A   1      33.082  27.649  26.282  1.00  0.00     0.100 C 
BRANCH   5   6
ATOM      6  C   UNL A   1      33.654  26.504  25.492  1.00  0.00     0.020 C 
BRANCH   6   7
ATOM      7  C   UNL A   1      34.064  26.681  24.039  1.00  0.00     0.103 C 
BRANCH   7   8
ATOM      8  C   UNL A   1      33.183  26.901  22.790  1.00  0.00     0.243 C 
ATOM      9  O   UNL A   1      33.740  26.579  21.721  1.00  0.00    -0.273 OA
BRANCH   8  10
ATOM     10  N   UNL A   1      31.820  27.179  22.778  1.00  0.00    -0.225 N 
ATOM     11  C   UNL A   1      30.551  26.386  22.836  1.00  0.00     0.147 C 
ATOM     12  C   UNL A   1      29.425  27.417  22.790  1.00  0.00     0.091 C 
ATOM     13  C   UNL A   1      30.231  28.669  22.728  1.00  0.00     0.071 C 
ATOM     14  N   UNL A   1      31.516  28.533  22.710  1.00  0.00    -0.174 NA
BRANCH  11  15
ATOM     15  C   UNL A   1      30.394  25.485  24.049  1.00  0.00    -0.023 A 
ATOM     16  C   UNL A   1      30.853  24.078  26.412  1.00  0.00     0.118 A 
ATOM     17  C   UNL A   1      31.243  23.521  25.197  1.00  0.00     0.047 A 
ATOM     18  C   UNL A   1      30.124  25.267  26.441  1.00  0.00     0.047 A 
ATOM     19  C   UNL A   1      30.963  24.192  24.009  1.00  0.00     0.010 A 
ATOM     20  C   UNL A   1      29.883  25.966  25.258  1.00  0.00     0.010 A 
BRANCH  16  21
ATOM     21  O   UNL A   1      31.372  23.499  27.537  1.00  0.00    -0.497 OA
ATOM     22  C   UNL A   1      32.570  22.776  27.297  1.00  0.00     0.278 C 
ENDBRANCH  16  21
ENDBRANCH  11  15
BRANCH  13  23
ATOM     23  C   UNL A   1      29.584  29.980  22.698  1.00  0.00    -0.002 A 
ATOM     24  C   UNL A   1      29.074  30.473  21.495  1.00  0.00     0.010 A 
ATOM     25  C   UNL A   1      29.572  30.755  23.858  1.00  0.00     0.010 A 
ATOM     26  C   UNL A   1      28.540  31.761  21.458  1.00  0.00     0.001 A 
ATOM     27  C   UNL A   1      29.054  32.048  23.808  1.00  0.00     0.001 A 
ATOM     28  C   UNL A   1      28.539  32.548  22.611  1.00  0.00     0.000 A 
ENDBRANCH  13  23
ENDBRANCH   8  10
ENDBRANCH   7   8
ENDBRANCH   6   7
ENDBRANCH   5   6
ENDBRANCH   1   5
BRANCH   3  29
ATOM     29  C   UNL A   1      31.806  30.539  26.892  1.00  0.00     0.117 C 
BRANCH  29  30
ATOM     30  C   UNL A   1      31.677  32.042  26.750  1.00  0.00     0.042 C 
BRANCH  30  31
ATOM     31  C   UNL A   1      32.789  32.744  27.502  1.00  0.00     0.118 C 
BRANCH  31  32
ATOM     32  N   UNL A   1      32.510  34.167  27.656  1.00  0.00    -0.352 N 
ATOM     33  C   UNL A   1      32.995  35.032  28.609  1.00  0.00     0.251 C 
ATOM     34  H   UNL A   1      31.898  34.560  26.993  1.00  0.00     0.163 HD
ATOM     35  O   UNL A   1      32.483  36.124  28.787  1.00  0.00    -0.269 OA
BRANCH  33  36
ATOM     36  C   UNL A   1      34.141  34.586  29.425  1.00  0.00     0.039 A 
ATOM     37  C   UNL A   1      33.917  34.064  30.696  1.00  0.00     0.014 A 
ATOM     38  C   UNL A   1      35.424  34.612  28.874  1.00  0.00     0.014 A 
ATOM     39  C   UNL A   1      34.984  33.498  31.392  1.00  0.00     0.010 A 
ATOM     40  C   UNL A   1      36.451  33.935  29.510  1.00  0.00     0.010 A 
ATOM     41  C   UNL A   1      36.247  33.389  30.784  1.00  0.00    -0.014 A 
BRANCH  41  42
ATOM     42  C   UNL A   1      37.381  32.725  31.467  1.00  0.00     0.031 A 
ATOM     43  C   UNL A   1      38.069  31.565  30.802  1.00  0.00     0.074 A 
ATOM     44  C   UNL A   1      37.735  33.117  32.705  1.00  0.00     0.049 A 
ATOM     45  N   UNL A   1      39.026  30.799  31.257  1.00  0.00    -0.248 NA
ATOM     46  C   UNL A   1      37.588  31.187  29.462  1.00  0.00     0.031 C 
ATOM     47  C   UNL A   1      37.092  34.186  33.471  1.00  0.00     0.029 A 
ATOM     48  N   UNL A   1      38.718  32.656  33.542  1.00  0.00    -0.354 N 
ATOM     49  C   UNL A   1      39.247  29.848  30.270  1.00  0.00     0.074 A 
ATOM     50  C   UNL A   1      38.275  30.081  29.226  1.00  0.00     0.031 C 
ATOM     51  C   UNL A   1      37.722  34.325  34.649  1.00  0.00     0.029 A 
ATOM     52  C   UNL A   1      38.780  33.324  34.741  1.00  0.00     0.049 A 
ATOM     53  H   UNL A   1      39.324  31.917  33.306  1.00  0.00     0.167 HD
ATOM     54  C   UNL A   1      40.199  28.888  30.223  1.00  0.00     0.037 A 
ATOM     55  C   UNL A   1      39.595  33.141  35.796  1.00  0.00     0.037 A 
ATOM     56  C   UNL A   1      41.179  28.686  31.255  1.00  0.00     0.049 A 
ATOM     57  C   UNL A   1      40.639  32.058  35.723  1.00  0.00     0.074 A 
ATOM     58  C   UNL A   1      42.235  27.796  31.279  1.00  0.00     0.029 A 
ATOM     59  N   UNL A   1      41.216  29.388  32.452  1.00  0.00    -0.354 N 
ATOM     60  N   UNL A   1      40.899  31.223  34.746  1.00  0.00    -0.248 NA
ATOM     61  C   UNL A   1      41.503  31.893  36.899  1.00  0.00     0.031 C 
ATOM     62  C   UNL A   1      42.877  27.917  32.515  1.00  0.00     0.029 A 
ATOM     63  C   UNL A   1      42.257  28.923  33.238  1.00  0.00     0.049 A 
ATOM     64  H   UNL A   1      40.596  30.109  32.705  1.00  0.00     0.167 HD
ATOM     65  C   UNL A   1      41.962  30.446  35.180  1.00  0.00     0.074 A 
ATOM     66  C   UNL A   1      42.319  30.929  36.498  1.00  0.00     0.031 C 
ATOM     67  C   UNL A   1      42.586  29.419  34.551  1.00  0.00     0.037 A 
BRANCH  54  68
ATOM     68  C   UNL A   1      40.226  27.992  29.018  1.00  0.00     0.064 A 
ATOM     69  C   UNL A   1      40.947  28.333  27.861  1.00  0.00     0.173 A 
ATOM     70  C   UNL A   1      39.547  26.765  29.027  1.00  0.00     0.173 A 
ATOM     71  F   UNL A   1      41.602  29.502  27.792  1.00  0.00    -0.203 F 
ATOM     72  C   UNL A   1      40.957  27.494  26.749  1.00  0.00     0.198 A 
ATOM     73  C   UNL A   1      39.590  25.913  27.926  1.00  0.00     0.198 A 
ATOM     74  F   UNL A   1      38.845  26.388  30.106  1.00  0.00    -0.203 F 
ATOM     75  F   UNL A   1      41.605  27.869  25.637  1.00  0.00    -0.200 F 
ATOM     76  C   UNL A   1      40.287  26.282  26.785  1.00  0.00     0.200 A 
ATOM     77  F   UNL A   1      38.952  24.735  27.967  1.00  0.00    -0.200 F 
ATOM     78  F   UNL A   1      40.306  25.472  25.719  1.00  0.00    -0.200 F 
ENDBRANCH  54  68
BRANCH  55  79
ATOM     79  C   UNL A   1      39.468  34.006  36.998  1.00  0.00     0.064 A 
ATOM     80  C   UNL A   1      38.745  33.579  38.121  1.00  0.00     0.173 A 
ATOM     81  C   UNL A   1      40.061  35.277  37.051  1.00  0.00     0.173 A 
ATOM     82  F   UNL A   1      38.144  32.380  38.113  1.00  0.00    -0.203 F 
ATOM     83  C   UNL A   1      38.603  34.397  39.240  1.00  0.00     0.198 A 
ATOM     84  C   UNL A   1      39.944  36.081  38.183  1.00  0.00     0.198 A 
ATOM     85  F   UNL A   1      40.768  35.733  36.007  1.00  0.00    -0.203 F 
ATOM     86  F   UNL A   1      37.865  33.983  40.280  1.00  0.00    -0.200 F 
ATOM     87  C   UNL A   1      39.206  35.645  39.273  1.00  0.00     0.200 A 
ATOM     88  F   UNL A   1      40.544  37.279  38.217  1.00  0.00    -0.200 F 
ATOM     89  F   UNL A   1      39.072  36.429  40.351  1.00  0.00    -0.200 F 
ENDBRANCH  55  79
BRANCH  67  90
ATOM     90  C   UNL A   1      43.720  28.757  35.278  1.00  0.00     0.064 A 
ATOM     91  C   UNL A   1      43.508  27.649  36.111  1.00  0.00     0.173 A 
ATOM     92  C   UNL A   1      45.038  29.207  35.105  1.00  0.00     0.173 A 
ATOM     93  F   UNL A   1      42.264  27.190  36.321  1.00  0.00    -0.203 F 
ATOM     94  C   UNL A   1      44.570  27.031  36.764  1.00  0.00     0.198 A 
ATOM     95  C   UNL A   1      46.101  28.564  35.731  1.00  0.00     0.198 A 
ATOM     96  F   UNL A   1      45.295  30.257  34.312  1.00  0.00    -0.203 F 
ATOM     97  F   UNL A   1      44.338  26.005  37.594  1.00  0.00    -0.200 F 
ATOM     98  C   UNL A   1      45.866  27.483  36.566  1.00  0.00     0.200 A 
ATOM     99  F   UNL A   1      47.354  28.992  35.524  1.00  0.00    -0.200 F 
ATOM    100  F   UNL A   1      46.889  26.880  37.186  1.00  0.00    -0.200 F 
ENDBRANCH  67  90
ENDBRANCH  41  42
ENDBRANCH  33  36
ENDBRANCH  31  32
ENDBRANCH  30  31
ENDBRANCH  29  30
ENDBRANCH   3  29
TORSDOF 17
ENDMDL
MODEL 2
REMARK VINA RESULT:     -13.2      1.943      4.180
REMARK SMILES COc1ccc([C@H]2CC(c3ccccc3)=NN2C(=O)CCCC(=O)NCCCNC(=O)c2ccc(-c3c4nc(c(-c5c(F)c(F)c(F)c(F)c5F)c5ccc([nH]5)c(-c5c(F)c(F)c(F)c(F)c5F)c5nc(c(-c6c(F)c(F)c(F)c(F)c6F)c6ccc3[nH]6)C=C5)C=C4)cc2)cc1
REMARK SMILES IDX 23 1 24 2 25 3 22 5 21 6 20 7 18 8 19 9 17 10 7 11 8 12 9 13
REMARK SMILES IDX 16 14 6 15 3 16 4 17 96 18 5 19 95 20 2 21 1 22 10 23 11 24
REMARK SMILES IDX 15 25 12 26 14 27 13 28 26 29 27 30 28 31 29 32 30 33 31 35
REMARK SMILES IDX 32 36 33 37 94 38 34 39 93 40 35 41 36 42 37 43 87 44 38 45
REMARK SMILES IDX 92 46 86 47 88 48 39 49 91 50 85 51 84 52 40 54 72 55 52 56
REMARK SMILES IDX 71 57 53 58 56 59 70 60 89 61 54 62 55 63 69 65 90 66 57 67
REMARK SMILES IDX 41 68 42 69 50 70 43 71 44 72 48 73 51 74 45 75 46 76 49 77
REMARK SMILES IDX 47 78 73 79 74 80 82 81 75 82 76 83 80 84 83 85 77 86 78 87
REMARK SMILES IDX 81 88 79 89 58 90 59 91 67 92 60 93 61 94 65 95 68 96 62 97
REMARK SMILES IDX 63 98 66 99 64 100
REMARK H PARENT 25 4 29 34 88 53 56 64
REMARK Flexibility Score: inf
ROOT
ATOM      1  C   UNL A   1      32.167  28.311  27.099  1.00  0.00     0.220 C 
ATOM      2  O   UNL A   1      31.514  27.559  27.829  1.00  0.00    -0.275 OA
ATOM      3  N   UNL A   1      31.842  29.625  27.168  1.00  0.00    -0.356 N 
ATOM      4  H   UNL A   1      31.376  29.883  27.996  1.00  0.00     0.163 HD
ENDROOT
BRANCH   1   5
ATOM      5  C   UNL A   1      33.395  27.791  26.381  1.00  0.00     0.100 C 
BRANCH   5   6
ATOM      6  C   UNL A   1      33.508  26.613  25.453  1.00  0.00     0.020 C 
BRANCH   6   7
ATOM      7  C   UNL A   1      34.413  25.439  25.782  1.00  0.00     0.103 C 
BRANCH   7   8
ATOM      8  C   UNL A   1      34.553  24.075  25.069  1.00  0.00     0.243 C 
ATOM      9  O   UNL A   1      35.683  23.879  24.579  1.00  0.00    -0.273 OA
BRANCH   8  10
ATOM     10  N   UNL A   1      33.657  23.013  25.137  1.00  0.00    -0.225 N 
ATOM     11  C   UNL A   1      32.281  22.788  25.683  1.00  0.00     0.147 C 
ATOM     12  C   UNL A   1      31.948  21.333  25.357  1.00  0.00     0.091 C 
ATOM     13  C   UNL A   1      33.198  20.940  24.647  1.00  0.00     0.071 C 
ATOM     14  N   UNL A   1      34.116  21.844  24.543  1.00  0.00    -0.174 NA
BRANCH  11  15
ATOM     15  C   UNL A   1      31.202  23.711  25.145  1.00  0.00    -0.023 A 
ATOM     16  C   UNL A   1      29.807  25.942  24.221  1.00  0.00     0.118 A 
ATOM     17  C   UNL A   1      29.867  25.690  25.588  1.00  0.00     0.047 A 
ATOM     18  C   UNL A   1      30.326  25.020  23.311  1.00  0.00     0.047 A 
ATOM     19  C   UNL A   1      30.512  24.545  26.052  1.00  0.00     0.010 A 
ATOM     20  C   UNL A   1      31.014  23.897  23.772  1.00  0.00     0.010 A 
BRANCH  16  21
ATOM     21  O   UNL A   1      29.386  27.189  23.853  1.00  0.00    -0.497 OA
ATOM     22  C   UNL A   1      30.451  28.102  23.633  1.00  0.00     0.278 C 
ENDBRANCH  16  21
ENDBRANCH  11  15
BRANCH  13  23
ATOM     23  C   UNL A   1      33.359  19.597  24.093  1.00  0.00    -0.002 A 
ATOM     24  C   UNL A   1      32.438  19.119  23.158  1.00  0.00     0.010 A 
ATOM     25  C   UNL A   1      34.380  18.781  24.582  1.00  0.00     0.010 A 
ATOM     26  C   UNL A   1      32.548  17.805  22.703  1.00  0.00     0.001 A 
ATOM     27  C   UNL A   1      34.472  17.464  24.136  1.00  0.00     0.001 A 
ATOM     28  C   UNL A   1      33.558  16.978  23.199  1.00  0.00     0.000 A 
ENDBRANCH  13  23
ENDBRANCH   8  10
ENDBRANCH   7   8
ENDBRANCH   6   7
ENDBRANCH   5   6
ENDBRANCH   1   5
BRANCH   3  29
ATOM     29  C   UNL A   1      32.058  30.715  26.245  1.00  0.00     0.117 C 
BRANCH  29  30
ATOM     30  C   UNL A   1      31.612  32.023  26.866  1.00  0.00     0.042 C 
BRANCH  30  31
ATOM     31  C   UNL A   1      32.795  32.759  27.462  1.00  0.00     0.118 C 
BRANCH  31  32
ATOM     32  N   UNL A   1      32.512  34.180  27.621  1.00  0.00    -0.352 N 
ATOM     33  C   UNL A   1      32.988  35.041  28.580  1.00  0.00     0.251 C 
ATOM     34  H   UNL A   1      31.903  34.574  26.955  1.00  0.00     0.163 HD
ATOM     35  O   UNL A   1      32.473  36.132  28.759  1.00  0.00    -0.269 OA
BRANCH  33  36
ATOM     36  C   UNL A   1      34.130  34.595  29.401  1.00  0.00     0.039 A 
ATOM     37  C   UNL A   1      33.898  34.058  30.666  1.00  0.00     0.014 A 
ATOM     38  C   UNL A   1      35.418  34.635  28.863  1.00  0.00     0.014 A 
ATOM     39  C   UNL A   1      34.963  33.492  31.365  1.00  0.00     0.010 A 
ATOM     40  C   UNL A   1      36.443  33.958  29.501  1.00  0.00     0.010 A 
ATOM     41  C   UNL A   1      36.231  33.398  30.767  1.00  0.00    -0.014 A 
BRANCH  41  42
ATOM     42  C   UNL A   1      37.364  32.734  31.453  1.00  0.00     0.031 A 
ATOM     43  C   UNL A   1      38.050  31.570  30.793  1.00  0.00     0.074 A 
ATOM     44  C   UNL A   1      37.717  33.130  32.690  1.00  0.00     0.049 A 
ATOM     45  N   UNL A   1      39.006  30.805  31.252  1.00  0.00    -0.248 NA
ATOM     46  C   UNL A   1      37.570  31.189  29.454  1.00  0.00     0.031 C 
ATOM     47  C   UNL A   1      37.076  34.203  33.453  1.00  0.00     0.029 A 
ATOM     48  N   UNL A   1      38.699  32.670  33.530  1.00  0.00    -0.354 N 
ATOM     49  C   UNL A   1      39.226  29.850  30.267  1.00  0.00     0.074 A 
ATOM     50  C   UNL A   1      38.256  30.081  29.221  1.00  0.00     0.031 C 
ATOM     51  C   UNL A   1      37.705  34.344  34.630  1.00  0.00     0.029 A 
ATOM     52  C   UNL A   1      38.761  33.342  34.726  1.00  0.00     0.049 A 
ATOM     53  H   UNL A   1      39.304  31.929  33.297  1.00  0.00     0.167 HD
ATOM     54  C   UNL A   1      40.177  28.888  30.225  1.00  0.00     0.037 A 
ATOM     55  C   UNL A   1      39.575  33.161  35.783  1.00  0.00     0.037 A 
ATOM     56  C   UNL A   1      41.156  28.688  31.258  1.00  0.00     0.049 A 
ATOM     57  C   UNL A   1      40.617  32.076  35.714  1.00  0.00     0.074 A 
ATOM     58  C   UNL A   1      42.210  27.796  31.286  1.00  0.00     0.029 A 
ATOM     59  N   UNL A   1      41.193  29.394  32.453  1.00  0.00    -0.354 N 
ATOM     60  N   UNL A   1      40.876  31.238  34.740  1.00  0.00    -0.248 NA
ATOM     61  C   UNL A   1      41.479  31.913  36.892  1.00  0.00     0.031 C 
ATOM     62  C   UNL A   1      42.851  27.920  32.523  1.00  0.00     0.029 A 
ATOM     63  C   UNL A   1      42.232  28.930  33.242  1.00  0.00     0.049 A 
ATOM     64  H   UNL A   1      40.573  30.117  32.702  1.00  0.00     0.167 HD
ATOM     65  C   UNL A   1      41.938  30.460  35.178  1.00  0.00     0.074 A 
ATOM     66  C   UNL A   1      42.294  30.947  36.495  1.00  0.00     0.031 C 
ATOM     67  C   UNL A   1      42.561  29.430  34.553  1.00  0.00     0.037 A 
BRANCH  54  68
ATOM     68  C   UNL A   1      40.204  27.989  29.022  1.00  0.00     0.064 A 
ATOM     69  C   UNL A   1      40.933  28.320  27.868  1.00  0.00     0.173 A 
ATOM     70  C   UNL A   1      39.515  26.767  29.032  1.00  0.00     0.173 A 
ATOM     71  F   UNL A   1      41.596  29.484  27.799  1.00  0.00    -0.203 F 
ATOM     72  C   UNL A   1      40.943  27.478  26.759  1.00  0.00     0.198 A 
ATOM     73  C   UNL A   1      39.558  25.910  27.934  1.00  0.00     0.198 A 
ATOM     74  F   UNL A   1      38.805  26.398  30.108  1.00  0.00    -0.203 F 
ATOM     75  F   UNL A   1      41.599  27.844  25.649  1.00  0.00    -0.200 F 
ATOM     76  C   UNL A   1      40.263  26.271  26.796  1.00  0.00     0.200 A 
ATOM     77  F   UNL A   1      38.910  24.737  27.976  1.00  0.00    -0.200 F 
ATOM     78  F   UNL A   1      40.282  25.457  25.732  1.00  0.00    -0.200 F 
ENDBRANCH  54  68
BRANCH  55  79
ATOM     79  C   UNL A   1      39.448  34.031  36.982  1.00  0.00     0.064 A 
ATOM     80  C   UNL A   1      40.056  35.294  37.024  1.00  0.00     0.173 A 
ATOM     81  C   UNL A   1      38.721  33.621  38.110  1.00  0.00     0.173 A 
ATOM     82  F   UNL A   1      40.776  35.724  35.977  1.00  0.00    -0.203 F 
ATOM     83  C   UNL A   1      39.961  36.102  38.154  1.00  0.00     0.198 A 
ATOM     84  C   UNL A   1      38.601  34.444  39.228  1.00  0.00     0.198 A 
ATOM     85  F   UNL A   1      38.115  32.425  38.122  1.00  0.00    -0.203 F 
ATOM     86  F   UNL A   1      40.594  37.283  38.185  1.00  0.00    -0.200 F 
ATOM     87  C   UNL A   1      39.229  35.680  39.254  1.00  0.00     0.200 A 
ATOM     88  F   UNL A   1      37.878  34.039  40.281  1.00  0.00    -0.200 F 
ATOM     89  F   UNL A   1      39.135  36.460  40.339  1.00  0.00    -0.200 F 
ENDBRANCH  55  79
BRANCH  67  90
ATOM     90  C   UNL A   1      43.693  28.769  35.284  1.00  0.00     0.064 A 
ATOM     91  C   UNL A   1      43.468  27.716  36.183  1.00  0.00     0.173 A 
ATOM     92  C   UNL A   1      45.019  29.160  35.048  1.00  0.00     0.173 A 
ATOM     93  F   UNL A   1      42.216  27.314  36.453  1.00  0.00    -0.203 F 
ATOM     94  C   UNL A   1      44.528  27.097  36.838  1.00  0.00     0.198 A 
ATOM     95  C   UNL A   1      46.079  28.515  35.678  1.00  0.00     0.198 A 
ATOM     96  F   UNL A   1      45.288  30.156  34.190  1.00  0.00    -0.203 F 
ATOM     97  F   UNL A   1      44.287  26.127  37.731  1.00  0.00    -0.200 F 
ATOM     98  C   UNL A   1      45.832  27.490  36.578  1.00  0.00     0.200 A 
ATOM     99  F   UNL A   1      47.339  28.885  35.412  1.00  0.00    -0.200 F 
ATOM    100  F   UNL A   1      46.852  26.886  37.202  1.00  0.00    -0.200 F 
ENDBRANCH  67  90
ENDBRANCH  41  42
ENDBRANCH  33  36
ENDBRANCH  31  32
ENDBRANCH  30  31
ENDBRANCH  29  30
ENDBRANCH   3  29
TORSDOF 17
ENDMDL
MODEL 3
REMARK VINA RESULT:     -13.0      5.994     11.522
REMARK SMILES COc1ccc([C@H]2CC(c3ccccc3)=NN2C(=O)CCCC(=O)NCCCNC(=O)c2ccc(-c3c4nc(c(-c5c(F)c(F)c(F)c(F)c5F)c5ccc([nH]5)c(-c5c(F)c(F)c(F)c(F)c5F)c5nc(c(-c6c(F)c(F)c(F)c(F)c6F)c6ccc3[nH]6)C=C5)C=C4)cc2)cc1
REMARK SMILES IDX 23 1 24 2 25 3 22 5 21 6 20 7 18 8 19 9 17 10 7 11 8 12 9 13
REMARK SMILES IDX 16 14 6 15 3 16 4 17 96 18 5 19 95 20 2 21 1 22 10 23 11 24
REMARK SMILES IDX 15 25 12 26 14 27 13 28 26 29 27 30 28 31 29 32 30 33 31 35
REMARK SMILES IDX 32 36 33 37 94 38 34 39 93 40 35 41 36 42 37 43 87 44 38 45
REMARK SMILES IDX 92 46 86 47 88 48 39 49 91 50 85 51 84 52 40 54 72 55 52 56
REMARK SMILES IDX 71 57 53 58 56 59 70 60 89 61 54 62 55 63 69 65 90 66 57 67
REMARK SMILES IDX 41 68 42 69 50 70 43 71 44 72 48 73 51 74 45 75 46 76 49 77
REMARK SMILES IDX 47 78 73 79 74 80 82 81 75 82 76 83 80 84 83 85 77 86 78 87
REMARK SMILES IDX 81 88 79 89 58 90 59 91 67 92 60 93 61 94 65 95 68 96 62 97
REMARK SMILES IDX 63 98 66 99 64 100
REMARK H PARENT 25 4 29 34 88 53 56 64
REMARK Flexibility Score: inf
ROOT
ATOM      1  C   UNL A   1      36.884  23.438  25.683  1.00  0.00     0.220 C 
ATOM      2  O   UNL A   1      37.391  24.231  26.483  1.00  0.00    -0.275 OA
ATOM      3  N   UNL A   1      37.464  22.216  25.617  1.00  0.00    -0.356 N 
ATOM      4  H   UNL A   1      37.993  21.976  26.412  1.00  0.00     0.163 HD
ENDROOT
BRANCH   1   5
ATOM      5  C   UNL A   1      35.559  23.770  25.027  1.00  0.00     0.100 C 
BRANCH   5   6
ATOM      6  C   UNL A   1      34.560  24.825  25.416  1.00  0.00     0.020 C 
BRANCH   6   7
ATOM      7  C   UNL A   1      33.370  24.489  26.299  1.00  0.00     0.103 C 
BRANCH   7   8
ATOM      8  C   UNL A   1      32.735  23.116  26.613  1.00  0.00     0.243 C 
ATOM      9  O   UNL A   1      32.246  23.040  27.758  1.00  0.00    -0.273 OA
BRANCH   8  10
ATOM     10  N   UNL A   1      32.461  22.105  25.697  1.00  0.00    -0.225 N 
ATOM     11  C   UNL A   1      31.636  21.960  24.456  1.00  0.00     0.147 C 
ATOM     12  C   UNL A   1      31.856  20.523  23.988  1.00  0.00     0.091 C 
ATOM     13  C   UNL A   1      32.802  20.056  25.041  1.00  0.00     0.071 C 
ATOM     14  N   UNL A   1      33.113  20.908  25.962  1.00  0.00    -0.174 NA
BRANCH  11  15
ATOM     15  C   UNL A   1      31.957  22.935  23.337  1.00  0.00    -0.023 A 
ATOM     16  C   UNL A   1      32.963  25.078  21.863  1.00  0.00     0.118 A 
ATOM     17  C   UNL A   1      31.788  25.239  22.590  1.00  0.00     0.047 A 
ATOM     18  C   UNL A   1      33.565  23.823  21.765  1.00  0.00     0.047 A 
ATOM     19  C   UNL A   1      31.248  24.156  23.280  1.00  0.00     0.010 A 
ATOM     20  C   UNL A   1      33.055  22.747  22.493  1.00  0.00     0.010 A 
BRANCH  16  21
ATOM     21  O   UNL A   1      33.564  26.224  21.422  1.00  0.00    -0.497 OA
ATOM     22  C   UNL A   1      33.561  27.269  22.385  1.00  0.00     0.278 C 
ENDBRANCH  16  21
ENDBRANCH  11  15
BRANCH  13  23
ATOM     23  C   UNL A   1      33.350  18.700  25.013  1.00  0.00    -0.002 A 
ATOM     24  C   UNL A   1      32.638  17.654  25.602  1.00  0.00     0.010 A 
ATOM     25  C   UNL A   1      34.622  18.496  24.478  1.00  0.00     0.010 A 
ATOM     26  C   UNL A   1      33.208  16.382  25.650  1.00  0.00     0.001 A 
ATOM     27  C   UNL A   1      35.194  17.226  24.546  1.00  0.00     0.001 A 
ATOM     28  C   UNL A   1      34.488  16.173  25.130  1.00  0.00     0.000 A 
ENDBRANCH  13  23
ENDBRANCH   8  10
ENDBRANCH   7   8
ENDBRANCH   6   7
ENDBRANCH   5   6
ENDBRANCH   1   5
BRANCH   3  29
ATOM     29  C   UNL A   1      37.447  21.201  24.589  1.00  0.00     0.117 C 
BRANCH  29  30
ATOM     30  C   UNL A   1      38.189  19.966  25.059  1.00  0.00     0.042 C 
BRANCH  30  31
ATOM     31  C   UNL A   1      39.442  20.356  25.816  1.00  0.00     0.118 C 
BRANCH  31  32
ATOM     32  N   UNL A   1      40.315  19.207  26.026  1.00  0.00    -0.352 N 
ATOM     33  C   UNL A   1      41.682  19.191  26.167  1.00  0.00     0.251 C 
ATOM     34  H   UNL A   1      39.869  18.331  26.074  1.00  0.00     0.163 HD
ATOM     35  O   UNL A   1      42.313  18.152  26.072  1.00  0.00    -0.269 OA
BRANCH  33  36
ATOM     36  C   UNL A   1      42.364  20.475  26.416  1.00  0.00     0.039 A 
ATOM     37  C   UNL A   1      42.831  21.225  25.339  1.00  0.00     0.014 A 
ATOM     38  C   UNL A   1      42.453  20.962  27.723  1.00  0.00     0.014 A 
ATOM     39  C   UNL A   1      43.327  22.507  25.572  1.00  0.00     0.010 A 
ATOM     40  C   UNL A   1      42.823  22.279  27.934  1.00  0.00     0.010 A 
ATOM     41  C   UNL A   1      43.282  23.058  26.864  1.00  0.00    -0.014 A 
BRANCH  41  42
ATOM     42  C   UNL A   1      43.731  24.444  27.131  1.00  0.00     0.031 A 
ATOM     43  C   UNL A   1      42.745  25.455  27.648  1.00  0.00     0.074 A 
ATOM     44  C   UNL A   1      44.994  24.804  26.838  1.00  0.00     0.049 A 
ATOM     45  N   UNL A   1      42.910  26.733  27.874  1.00  0.00    -0.248 NA
ATOM     46  C   UNL A   1      41.376  24.975  27.906  1.00  0.00     0.031 C 
ATOM     47  C   UNL A   1      46.016  23.923  26.269  1.00  0.00     0.029 A 
ATOM     48  N   UNL A   1      45.635  26.010  26.970  1.00  0.00    -0.354 N 
ATOM     49  C   UNL A   1      41.670  27.204  28.283  1.00  0.00     0.074 A 
ATOM     50  C   UNL A   1      40.742  26.099  28.201  1.00  0.00     0.031 C 
ATOM     51  C   UNL A   1      47.164  24.606  26.137  1.00  0.00     0.029 A 
ATOM     52  C   UNL A   1      46.947  25.984  26.565  1.00  0.00     0.049 A 
ATOM     53  H   UNL A   1      45.195  26.817  27.322  1.00  0.00     0.167 HD
ATOM     54  C   UNL A   1      41.343  28.442  28.721  1.00  0.00     0.037 A 
ATOM     55  C   UNL A   1      47.867  26.966  26.538  1.00  0.00     0.037 A 
ATOM     56  C   UNL A   1      42.282  29.525  28.827  1.00  0.00     0.049 A 
ATOM     57  C   UNL A   1      47.474  28.337  27.021  1.00  0.00     0.074 A 
ATOM     58  C   UNL A   1      42.080  30.796  29.329  1.00  0.00     0.029 A 
ATOM     59  N   UNL A   1      43.606  29.459  28.416  1.00  0.00    -0.354 N 
ATOM     60  N   UNL A   1      46.322  28.750  27.493  1.00  0.00    -0.248 NA
ATOM     61  C   UNL A   1      48.509  29.378  26.969  1.00  0.00     0.031 C 
ATOM     62  C   UNL A   1      43.265  31.520  29.167  1.00  0.00     0.029 A 
ATOM     63  C   UNL A   1      44.223  30.682  28.619  1.00  0.00     0.049 A 
ATOM     64  H   UNL A   1      44.042  28.663  28.037  1.00  0.00     0.167 HD
ATOM     65  C   UNL A   1      46.496  30.090  27.807  1.00  0.00     0.074 A 
ATOM     66  C   UNL A   1      47.874  30.412  27.501  1.00  0.00     0.031 C 
ATOM     67  C   UNL A   1      45.597  30.978  28.299  1.00  0.00     0.037 A 
BRANCH  54  68
ATOM     68  C   UNL A   1      39.916  28.684  29.123  1.00  0.00     0.064 A 
ATOM     69  C   UNL A   1      38.962  29.163  28.210  1.00  0.00     0.173 A 
ATOM     70  C   UNL A   1      39.488  28.408  30.430  1.00  0.00     0.173 A 
ATOM     71  F   UNL A   1      39.321  29.459  26.951  1.00  0.00    -0.203 F 
ATOM     72  C   UNL A   1      37.644  29.388  28.600  1.00  0.00     0.198 A 
ATOM     73  C   UNL A   1      38.161  28.599  30.806  1.00  0.00     0.198 A 
ATOM     74  F   UNL A   1      40.355  27.946  31.344  1.00  0.00    -0.203 F 
ATOM     75  F   UNL A   1      36.768  29.900  27.725  1.00  0.00    -0.200 F 
ATOM     76  C   UNL A   1      37.242  29.098  29.895  1.00  0.00     0.200 A 
ATOM     77  F   UNL A   1      37.771  28.307  32.055  1.00  0.00    -0.200 F 
ATOM     78  F   UNL A   1      35.972  29.305  30.265  1.00  0.00    -0.200 F 
ENDBRANCH  54  68
BRANCH  55  79
ATOM     79  C   UNL A   1      49.244  26.687  26.053  1.00  0.00     0.064 A 
ATOM     80  C   UNL A   1      49.614  26.972  24.730  1.00  0.00     0.173 A 
ATOM     81  C   UNL A   1      50.218  26.131  26.895  1.00  0.00     0.173 A 
ATOM     82  F   UNL A   1      48.714  27.488  23.880  1.00  0.00    -0.203 F 
ATOM     83  C   UNL A   1      50.896  26.690  24.264  1.00  0.00     0.198 A 
ATOM     84  C   UNL A   1      51.510  25.878  26.436  1.00  0.00     0.198 A 
ATOM     85  F   UNL A   1      49.920  25.844  28.171  1.00  0.00    -0.203 F 
ATOM     86  F   UNL A   1      51.207  26.925  22.982  1.00  0.00    -0.200 F 
ATOM     87  C   UNL A   1      51.845  26.148  25.118  1.00  0.00     0.200 A 
ATOM     88  F   UNL A   1      52.428  25.371  27.270  1.00  0.00    -0.200 F 
ATOM     89  F   UNL A   1      53.079  25.881  24.670  1.00  0.00    -0.200 F 
ENDBRANCH  55  79
BRANCH  67  90
ATOM     90  C   UNL A   1      46.080  32.378  28.541  1.00  0.00     0.064 A 
ATOM     91  C   UNL A   1      46.671  32.749  29.758  1.00  0.00     0.173 A 
ATOM     92  C   UNL A   1      45.993  33.348  27.531  1.00  0.00     0.173 A 
ATOM     93  F   UNL A   1      46.764  31.862  30.761  1.00  0.00    -0.203 F 
ATOM     94  C   UNL A   1      47.134  34.045  29.963  1.00  0.00     0.198 A 
ATOM     95  C   UNL A   1      46.489  34.633  27.727  1.00  0.00     0.198 A 
ATOM     96  F   UNL A   1      45.444  33.042  26.345  1.00  0.00    -0.203 F 
ATOM     97  F   UNL A   1      47.649  34.390  31.151  1.00  0.00    -0.200 F 
ATOM     98  C   UNL A   1      47.051  34.982  28.945  1.00  0.00     0.200 A 
ATOM     99  F   UNL A   1      46.424  35.532  26.735  1.00  0.00    -0.200 F 
ATOM    100  F   UNL A   1      47.507  36.227  29.139  1.00  0.00    -0.200 F 
ENDBRANCH  67  90
ENDBRANCH  41  42
ENDBRANCH  33  36
ENDBRANCH  31  32
ENDBRANCH  30  31
ENDBRANCH  29  30
ENDBRANCH   3  29
TORSDOF 17
ENDMDL
