MODEL 1
REMARK VINA RESULT:     -12.0      0.000      0.000
REMARK SMILES O=C(NCCCNC(=O)[C@H]1C[C@H](O)CN1C(=O)[C@@H]1CC(=O)N(C2CC2)C1)c1ccc(-c2c3nc(c(-c4c(F)c(F)c(F)c(F)c4F)c4ccc([nH]4)c(-c4c(F)c(F)c(F)c(F)c4F)c4nc(c(-c5c(F)c(F)c(F)c(F)c5F)c5ccc2[nH]5)C=C4)C=C3)cc1
REMARK SMILES IDX 5 1 4 2 3 3 1 4 2 5 27 7 28 8 89 9 29 10 88 11 30 12 31 13
REMARK SMILES IDX 32 14 82 15 33 16 87 17 81 18 83 19 34 20 86 21 80 22 79 23
REMARK SMILES IDX 35 25 67 26 47 27 66 28 48 29 51 30 65 31 84 32 49 33 50 34
REMARK SMILES IDX 64 36 85 37 52 38 36 39 37 40 45 41 38 42 39 43 43 44 46 45
REMARK SMILES IDX 40 46 41 47 44 48 42 49 68 50 69 51 77 52 70 53 71 54 75 55
REMARK SMILES IDX 78 56 72 57 73 58 76 59 74 60 53 61 54 62 62 63 55 64 56 65
REMARK SMILES IDX 60 66 63 67 57 68 58 69 61 70 59 71 6 72 7 73 8 74 9 76
REMARK SMILES IDX 10 77 11 78 15 79 12 80 14 81 16 82 17 83 18 84 19 85 26 86
REMARK SMILES IDX 20 87 22 88 21 89 23 90 24 91 25 92 13 93
REMARK H PARENT 3 6 83 24 51 35 7 75 13 94
REMARK Flexibility Score: inf
ROOT
ATOM      1  C   UNL A   1      31.105  31.857  26.507  1.00  0.00     0.042 C 
ENDROOT
BRANCH   1   2
ATOM      2  C   UNL A   1      32.462  32.467  26.855  1.00  0.00     0.118 C 
BRANCH   2   3
ATOM      3  N   UNL A   1      32.354  33.836  27.339  1.00  0.00    -0.352 N 
ATOM      4  O   UNL A   1      32.642  35.580  28.731  1.00  0.00    -0.269 OA
ATOM      5  C   UNL A   1      33.025  34.477  28.353  1.00  0.00     0.251 C 
ATOM      6  H   UNL A   1      31.695  34.392  26.863  1.00  0.00     0.163 HD
BRANCH   5   7
ATOM      7  C   UNL A   1      34.197  33.847  29.002  1.00  0.00     0.039 A 
ATOM      8  C   UNL A   1      34.039  32.814  29.927  1.00  0.00     0.014 A 
ATOM      9  C   UNL A   1      35.484  34.263  28.638  1.00  0.00     0.014 A 
ATOM     10  C   UNL A   1      35.147  32.305  30.595  1.00  0.00     0.010 A 
ATOM     11  C   UNL A   1      36.604  33.678  29.239  1.00  0.00     0.010 A 
ATOM     12  C   UNL A   1      36.445  32.712  30.244  1.00  0.00    -0.014 A 
BRANCH  12  13
ATOM     13  C   UNL A   1      37.612  32.059  30.893  1.00  0.00     0.031 A 
ATOM     14  C   UNL A   1      38.044  32.431  32.284  1.00  0.00     0.074 A 
ATOM     15  C   UNL A   1      38.270  31.096  30.218  1.00  0.00     0.049 A 
ATOM     16  N   UNL A   1      39.024  31.940  33.003  1.00  0.00    -0.248 NA
ATOM     17  C   UNL A   1      37.286  33.497  32.955  1.00  0.00     0.031 C 
ATOM     18  C   UNL A   1      37.952  30.659  28.856  1.00  0.00     0.029 A 
ATOM     19  N   UNL A   1      39.326  30.299  30.583  1.00  0.00    -0.354 N 
ATOM     20  C   UNL A   1      39.008  32.643  34.201  1.00  0.00     0.074 A 
ATOM     21  C   UNL A   1      37.943  33.620  34.100  1.00  0.00     0.031 C 
ATOM     22  C   UNL A   1      38.759  29.644  28.519  1.00  0.00     0.029 A 
ATOM     23  C   UNL A   1      39.697  29.404  29.610  1.00  0.00     0.049 A 
ATOM     24  H   UNL A   1      39.773  30.363  31.457  1.00  0.00     0.167 HD
ATOM     25  C   UNL A   1      39.803  32.479  35.287  1.00  0.00     0.037 A 
ATOM     26  C   UNL A   1      40.696  28.502  29.586  1.00  0.00     0.037 A 
ATOM     27  C   UNL A   1      40.860  31.501  35.380  1.00  0.00     0.049 A 
ATOM     28  C   UNL A   1      41.587  28.374  30.788  1.00  0.00     0.074 A 
ATOM     29  C   UNL A   1      41.698  31.235  36.449  1.00  0.00     0.029 A 
ATOM     30  N   UNL A   1      41.230  30.636  34.359  1.00  0.00    -0.354 N 
ATOM     31  N   UNL A   1      41.533  29.013  31.931  1.00  0.00    -0.248 NA
ATOM     32  C   UNL A   1      42.681  27.399  30.696  1.00  0.00     0.031 C 
ATOM     33  C   UNL A   1      42.616  30.255  36.054  1.00  0.00     0.029 A 
ATOM     34  C   UNL A   1      42.305  29.858  34.764  1.00  0.00     0.049 A 
ATOM     35  H   UNL A   1      40.794  30.583  33.478  1.00  0.00     0.167 HD
ATOM     36  C   UNL A   1      42.566  28.501  32.703  1.00  0.00     0.074 A 
ATOM     37  C   UNL A   1      43.216  27.482  31.905  1.00  0.00     0.031 C 
ATOM     38  C   UNL A   1      42.942  28.845  33.960  1.00  0.00     0.037 A 
BRANCH  25  39
ATOM     39  C   UNL A   1      39.580  33.392  36.462  1.00  0.00     0.064 A 
ATOM     40  C   UNL A   1      40.161  34.667  36.530  1.00  0.00     0.173 A 
ATOM     41  C   UNL A   1      38.733  33.004  37.513  1.00  0.00     0.173 A 
ATOM     42  F   UNL A   1      40.984  35.087  35.558  1.00  0.00    -0.203 F 
ATOM     43  C   UNL A   1      39.928  35.506  37.618  1.00  0.00     0.198 A 
ATOM     44  C   UNL A   1      38.475  33.858  38.582  1.00  0.00     0.198 A 
ATOM     45  F   UNL A   1      38.141  31.800  37.496  1.00  0.00    -0.203 F 
ATOM     46  F   UNL A   1      40.534  36.700  37.684  1.00  0.00    -0.200 F 
ATOM     47  C   UNL A   1      39.079  35.104  38.639  1.00  0.00     0.200 A 
ATOM     48  F   UNL A   1      37.642  33.474  39.559  1.00  0.00    -0.200 F 
ATOM     49  F   UNL A   1      38.848  35.916  39.679  1.00  0.00    -0.200 F 
ENDBRANCH  25  39
BRANCH  26  50
ATOM     50  C   UNL A   1      40.905  27.659  28.379  1.00  0.00     0.064 A 
ATOM     51  C   UNL A   1      41.783  28.057  27.363  1.00  0.00     0.173 A 
ATOM     52  C   UNL A   1      40.230  26.440  28.217  1.00  0.00     0.173 A 
ATOM     53  F   UNL A   1      42.440  29.223  27.462  1.00  0.00    -0.203 F 
ATOM     54  C   UNL A   1      41.962  27.280  26.220  1.00  0.00     0.198 A 
ATOM     55  C   UNL A   1      40.436  25.646  27.092  1.00  0.00     0.198 A 
ATOM     56  F   UNL A   1      39.382  26.010  29.163  1.00  0.00    -0.203 F 
ATOM     57  F   UNL A   1      42.769  27.708  25.241  1.00  0.00    -0.200 F 
ATOM     58  C   UNL A   1      41.293  26.071  26.090  1.00  0.00     0.200 A 
ATOM     59  F   UNL A   1      39.804  24.470  26.981  1.00  0.00    -0.200 F 
ATOM     60  F   UNL A   1      41.471  25.320  24.994  1.00  0.00    -0.200 F 
ENDBRANCH  26  50
BRANCH  38  61
ATOM     61  C   UNL A   1      44.086  28.080  34.564  1.00  0.00     0.064 A 
ATOM     62  C   UNL A   1      45.411  28.531  34.471  1.00  0.00     0.173 A 
ATOM     63  C   UNL A   1      43.848  26.886  35.264  1.00  0.00     0.173 A 
ATOM     64  F   UNL A   1      45.695  29.658  33.799  1.00  0.00    -0.203 F 
ATOM     65  C   UNL A   1      46.458  27.798  35.024  1.00  0.00     0.198 A 
ATOM     66  C   UNL A   1      44.893  26.176  35.847  1.00  0.00     0.198 A 
ATOM     67  F   UNL A   1      42.600  26.412  35.388  1.00  0.00    -0.203 F 
ATOM     68  F   UNL A   1      47.721  28.217  34.868  1.00  0.00    -0.200 F 
ATOM     69  C   UNL A   1      46.198  26.626  35.718  1.00  0.00     0.200 A 
ATOM     70  F   UNL A   1      44.637  25.052  36.530  1.00  0.00    -0.200 F 
ATOM     71  F   UNL A   1      47.206  25.925  36.254  1.00  0.00    -0.200 F 
ENDBRANCH  38  61
ENDBRANCH  12  13
ENDBRANCH   5   7
ENDBRANCH   2   3
ENDBRANCH   1   2
BRANCH   1  72
ATOM     72  C   UNL A   1      31.167  30.753  25.452  1.00  0.00     0.117 C 
BRANCH  72  73
ATOM     73  N   UNL A   1      32.426  30.041  25.489  1.00  0.00    -0.354 N 
ATOM     74  C   UNL A   1      32.779  28.772  25.163  1.00  0.00     0.242 C 
ATOM     75  H   UNL A   1      33.177  30.587  25.816  1.00  0.00     0.163 HD
ATOM     76  O   UNL A   1      33.906  28.422  25.540  1.00  0.00    -0.273 OA
BRANCH  74  77
ATOM     77  C   UNL A   1      31.845  27.741  24.488  1.00  0.00     0.177 C 
ATOM     78  C   UNL A   1      31.512  28.059  23.026  1.00  0.00     0.069 C 
ATOM     79  N   UNL A   1      32.222  26.319  24.511  1.00  0.00    -0.328 N 
ATOM     80  C   UNL A   1      32.132  26.926  22.216  1.00  0.00     0.136 C 
ATOM     81  C   UNL A   1      32.108  25.746  23.181  1.00  0.00     0.152 C 
BRANCH  79  82
ATOM     82  C   UNL A   1      32.245  25.663  25.723  1.00  0.00     0.228 C 
ATOM     83  O   UNL A   1      31.319  25.827  26.526  1.00  0.00    -0.274 OA
BRANCH  82  84
ATOM     84  C   UNL A   1      33.357  24.694  26.128  1.00  0.00     0.107 C 
ATOM     85  C   UNL A   1      34.668  24.818  25.371  1.00  0.00     0.115 C 
ATOM     86  C   UNL A   1      32.966  23.235  26.042  1.00  0.00     0.133 C 
ATOM     87  C   UNL A   1      34.723  23.578  24.511  1.00  0.00     0.223 C 
ATOM     88  N   UNL A   1      33.687  22.728  24.901  1.00  0.00    -0.339 N 
ATOM     89  O   UNL A   1      35.525  23.419  23.610  1.00  0.00    -0.275 OA
BRANCH  88  90
ATOM     90  C   UNL A   1      33.274  21.514  24.262  1.00  0.00     0.085 C 
ATOM     91  C   UNL A   1      33.893  20.191  24.637  1.00  0.00     0.027 C 
ATOM     92  C   UNL A   1      32.441  20.454  24.923  1.00  0.00     0.027 C 
ENDBRANCH  88  90
ENDBRANCH  82  84
ENDBRANCH  79  82
BRANCH  80  93
ATOM     93  O   UNL A   1      31.413  26.685  21.019  1.00  0.00    -0.391 OA
ATOM     94  H   UNL A   1      31.853  27.134  20.281  1.00  0.00     0.211 HD
ENDBRANCH  80  93
ENDBRANCH  74  77
ENDBRANCH  72  73
ENDBRANCH   1  72
TORSDOF 14
ENDMDL
MODEL 2
REMARK VINA RESULT:     -11.9      0.423      1.994
REMARK SMILES O=C(NCCCNC(=O)[C@H]1C[C@H](O)CN1C(=O)[C@@H]1CC(=O)N(C2CC2)C1)c1ccc(-c2c3nc(c(-c4c(F)c(F)c(F)c(F)c4F)c4ccc([nH]4)c(-c4c(F)c(F)c(F)c(F)c4F)c4nc(c(-c5c(F)c(F)c(F)c(F)c5F)c5ccc2[nH]5)C=C4)C=C3)cc1
REMARK SMILES IDX 5 1 4 2 3 3 1 4 2 5 27 7 28 8 89 9 29 10 88 11 30 12 31 13
REMARK SMILES IDX 32 14 82 15 33 16 87 17 81 18 83 19 34 20 86 21 80 22 79 23
REMARK SMILES IDX 35 25 67 26 47 27 66 28 48 29 51 30 65 31 84 32 49 33 50 34
REMARK SMILES IDX 64 36 85 37 52 38 36 39 37 40 45 41 38 42 39 43 43 44 46 45
REMARK SMILES IDX 40 46 41 47 44 48 42 49 68 50 69 51 77 52 70 53 71 54 75 55
REMARK SMILES IDX 78 56 72 57 73 58 76 59 74 60 53 61 54 62 62 63 55 64 56 65
REMARK SMILES IDX 60 66 63 67 57 68 58 69 61 70 59 71 6 72 7 73 8 74 9 76
REMARK SMILES IDX 10 77 11 78 15 79 12 80 14 81 16 82 17 83 18 84 19 85 26 86
REMARK SMILES IDX 20 87 22 88 21 89 23 90 24 91 25 92 13 93
REMARK H PARENT 3 6 83 24 51 35 7 75 13 94
REMARK Flexibility Score: inf
ROOT
ATOM      1  C   UNL A   1      31.396  32.198  26.592  1.00  0.00     0.042 C 
ENDROOT
BRANCH   1   2
ATOM      2  C   UNL A   1      32.703  32.928  26.901  1.00  0.00     0.118 C 
BRANCH   2   3
ATOM      3  N   UNL A   1      32.488  34.198  27.578  1.00  0.00    -0.352 N 
ATOM      4  O   UNL A   1      32.606  35.723  29.229  1.00  0.00    -0.269 OA
ATOM      5  C   UNL A   1      33.074  34.714  28.710  1.00  0.00     0.251 C 
ATOM      6  H   UNL A   1      31.814  34.782  27.159  1.00  0.00     0.163 HD
BRANCH   5   7
ATOM      7  C   UNL A   1      34.256  34.060  29.315  1.00  0.00     0.039 A 
ATOM      8  C   UNL A   1      34.115  32.983  30.190  1.00  0.00     0.014 A 
ATOM      9  C   UNL A   1      35.537  34.501  28.958  1.00  0.00     0.014 A 
ATOM     10  C   UNL A   1      35.233  32.448  30.820  1.00  0.00     0.010 A 
ATOM     11  C   UNL A   1      36.667  33.895  29.517  1.00  0.00     0.010 A 
ATOM     12  C   UNL A   1      36.524  32.880  30.476  1.00  0.00    -0.014 A 
BRANCH  12  13
ATOM     13  C   UNL A   1      37.702  32.203  31.080  1.00  0.00     0.031 A 
ATOM     14  C   UNL A   1      38.173  32.541  32.466  1.00  0.00     0.074 A 
ATOM     15  C   UNL A   1      38.333  31.249  30.367  1.00  0.00     0.049 A 
ATOM     16  N   UNL A   1      39.167  32.027  33.148  1.00  0.00    -0.248 NA
ATOM     17  C   UNL A   1      37.443  33.599  33.180  1.00  0.00     0.031 C 
ATOM     18  C   UNL A   1      37.975  30.844  29.005  1.00  0.00     0.029 A 
ATOM     19  N   UNL A   1      39.390  30.435  30.686  1.00  0.00    -0.354 N 
ATOM     20  C   UNL A   1      39.189  32.704  34.361  1.00  0.00     0.074 A 
ATOM     21  C   UNL A   1      38.131  33.691  34.309  1.00  0.00     0.031 C 
ATOM     22  C   UNL A   1      38.764  29.829  28.625  1.00  0.00     0.029 A 
ATOM     23  C   UNL A   1      39.728  29.558  29.685  1.00  0.00     0.049 A 
ATOM     24  H   UNL A   1      39.861  30.477  31.549  1.00  0.00     0.167 HD
ATOM     25  C   UNL A   1      40.011  32.509  35.422  1.00  0.00     0.037 A 
ATOM     26  C   UNL A   1      40.717  28.648  29.616  1.00  0.00     0.037 A 
ATOM     27  C   UNL A   1      41.061  31.521  35.466  1.00  0.00     0.049 A 
ATOM     28  C   UNL A   1      41.639  28.487  30.791  1.00  0.00     0.074 A 
ATOM     29  C   UNL A   1      41.924  31.225  36.506  1.00  0.00     0.029 A 
ATOM     30  N   UNL A   1      41.396  30.675  34.417  1.00  0.00    -0.354 N 
ATOM     31  N   UNL A   1      41.620  29.101  31.949  1.00  0.00    -0.248 NA
ATOM     32  C   UNL A   1      42.721  27.505  30.649  1.00  0.00     0.031 C 
ATOM     33  C   UNL A   1      42.822  30.246  36.066  1.00  0.00     0.029 A 
ATOM     34  C   UNL A   1      42.474  29.879  34.777  1.00  0.00     0.049 A 
ATOM     35  H   UNL A   1      40.936  30.644  33.547  1.00  0.00     0.167 HD
ATOM     36  C   UNL A   1      42.668  28.564  32.682  1.00  0.00     0.074 A 
ATOM     37  C   UNL A   1      43.288  27.557  31.845  1.00  0.00     0.031 C 
ATOM     38  C   UNL A   1      43.080  28.878  33.935  1.00  0.00     0.037 A 
BRANCH  25  39
ATOM     39  C   UNL A   1      39.827  33.399  36.622  1.00  0.00     0.064 A 
ATOM     40  C   UNL A   1      38.941  33.071  37.658  1.00  0.00     0.173 A 
ATOM     41  C   UNL A   1      40.587  34.572  36.759  1.00  0.00     0.173 A 
ATOM     42  F   UNL A   1      38.184  31.966  37.577  1.00  0.00    -0.203 F 
ATOM     43  C   UNL A   1      38.798  33.899  38.770  1.00  0.00     0.198 A 
ATOM     44  C   UNL A   1      40.467  35.379  37.888  1.00  0.00     0.198 A 
ATOM     45  F   UNL A   1      41.459  34.930  35.805  1.00  0.00    -0.203 F 
ATOM     46  F   UNL A   1      37.908  33.590  39.724  1.00  0.00    -0.200 F 
ATOM     47  C   UNL A   1      39.567  35.047  38.887  1.00  0.00     0.200 A 
ATOM     48  F   UNL A   1      41.223  36.479  38.007  1.00  0.00    -0.200 F 
ATOM     49  F   UNL A   1      39.436  35.836  39.963  1.00  0.00    -0.200 F 
ENDBRANCH  25  39
BRANCH  26  50
ATOM     50  C   UNL A   1      40.886  27.830  28.386  1.00  0.00     0.064 A 
ATOM     51  C   UNL A   1      40.263  26.581  28.257  1.00  0.00     0.173 A 
ATOM     52  C   UNL A   1      41.675  28.278  27.316  1.00  0.00     0.173 A 
ATOM     53  F   UNL A   1      39.513  26.100  29.260  1.00  0.00    -0.203 F 
ATOM     54  C   UNL A   1      40.440  25.804  27.115  1.00  0.00     0.198 A 
ATOM     55  C   UNL A   1      41.822  27.517  26.160  1.00  0.00     0.198 A 
ATOM     56  F   UNL A   1      42.289  29.469  27.387  1.00  0.00    -0.203 F 
ATOM     57  F   UNL A   1      39.875  24.592  27.038  1.00  0.00    -0.200 F 
ATOM     58  C   UNL A   1      41.214  26.275  26.064  1.00  0.00     0.200 A 
ATOM     59  F   UNL A   1      42.553  27.987  25.140  1.00  0.00    -0.200 F 
ATOM     60  F   UNL A   1      41.378  25.530  24.963  1.00  0.00    -0.200 F 
ENDBRANCH  26  50
BRANCH  38  61
ATOM     61  C   UNL A   1      44.233  28.090  34.492  1.00  0.00     0.064 A 
ATOM     62  C   UNL A   1      44.044  26.878  35.171  1.00  0.00     0.173 A 
ATOM     63  C   UNL A   1      45.549  28.548  34.324  1.00  0.00     0.173 A 
ATOM     64  F   UNL A   1      42.805  26.403  35.374  1.00  0.00    -0.203 F 
ATOM     65  C   UNL A   1      45.125  26.173  35.694  1.00  0.00     0.198 A 
ATOM     66  C   UNL A   1      46.630  27.822  34.815  1.00  0.00     0.198 A 
ATOM     67  F   UNL A   1      45.788  29.698  33.677  1.00  0.00    -0.203 F 
ATOM     68  F   UNL A   1      44.915  25.050  36.394  1.00  0.00    -0.200 F 
ATOM     69  C   UNL A   1      46.417  26.641  35.509  1.00  0.00     0.200 A 
ATOM     70  F   UNL A   1      47.879  28.269  34.621  1.00  0.00    -0.200 F 
ATOM     71  F   UNL A   1      47.457  25.958  36.007  1.00  0.00    -0.200 F 
ENDBRANCH  38  61
ENDBRANCH  12  13
ENDBRANCH   5   7
ENDBRANCH   2   3
ENDBRANCH   1   2
BRANCH   1  72
ATOM     72  C   UNL A   1      31.432  30.699  26.893  1.00  0.00     0.117 C 
BRANCH  72  73
ATOM     73  N   UNL A   1      32.643  30.078  26.402  1.00  0.00    -0.354 N 
ATOM     74  C   UNL A   1      32.876  28.963  25.666  1.00  0.00     0.242 C 
ATOM     75  H   UNL A   1      33.462  30.561  26.655  1.00  0.00     0.163 HD
ATOM     76  O   UNL A   1      34.057  28.593  25.622  1.00  0.00    -0.273 OA
BRANCH  74  77
ATOM     77  C   UNL A   1      31.778  28.093  25.009  1.00  0.00     0.177 C 
ATOM     78  C   UNL A   1      31.244  28.651  23.684  1.00  0.00     0.069 C 
ATOM     79  N   UNL A   1      32.054  26.670  24.760  1.00  0.00    -0.328 N 
ATOM     80  C   UNL A   1      31.650  27.632  22.626  1.00  0.00     0.136 C 
ATOM     81  C   UNL A   1      31.695  26.318  23.397  1.00  0.00     0.152 C 
BRANCH  79  82
ATOM     82  C   UNL A   1      32.220  25.831  25.841  1.00  0.00     0.228 C 
ATOM     83  O   UNL A   1      31.351  25.785  26.719  1.00  0.00    -0.274 OA
BRANCH  82  84
ATOM     84  C   UNL A   1      33.428  24.908  26.006  1.00  0.00     0.107 C 
ATOM     85  C   UNL A   1      34.547  25.075  24.992  1.00  0.00     0.115 C 
ATOM     86  C   UNL A   1      33.084  23.435  26.003  1.00  0.00     0.133 C 
ATOM     87  C   UNL A   1      34.469  23.831  24.140  1.00  0.00     0.223 C 
ATOM     88  N   UNL A   1      33.570  22.946  24.738  1.00  0.00    -0.339 N 
ATOM     89  O   UNL A   1      35.072  23.694  23.091  1.00  0.00    -0.275 OA
BRANCH  88  90
ATOM     90  C   UNL A   1      33.081  21.712  24.199  1.00  0.00     0.085 C 
ATOM     91  C   UNL A   1      33.755  20.403  24.521  1.00  0.00     0.027 C 
ATOM     92  C   UNL A   1      32.356  20.670  25.001  1.00  0.00     0.027 C 
ENDBRANCH  88  90
ENDBRANCH  82  84
ENDBRANCH  79  82
BRANCH  80  93
ATOM     93  O   UNL A   1      30.738  27.614  21.542  1.00  0.00    -0.391 OA
ATOM     94  H   UNL A   1      30.142  28.376  21.607  1.00  0.00     0.211 HD
ENDBRANCH  80  93
ENDBRANCH  74  77
ENDBRANCH  72  73
ENDBRANCH   1  72
TORSDOF 14
ENDMDL
MODEL 3
REMARK VINA RESULT:     -11.9      1.273      3.305
REMARK SMILES O=C(NCCCNC(=O)[C@H]1C[C@H](O)CN1C(=O)[C@@H]1CC(=O)N(C2CC2)C1)c1ccc(-c2c3nc(c(-c4c(F)c(F)c(F)c(F)c4F)c4ccc([nH]4)c(-c4c(F)c(F)c(F)c(F)c4F)c4nc(c(-c5c(F)c(F)c(F)c(F)c5F)c5ccc2[nH]5)C=C4)C=C3)cc1
REMARK SMILES IDX 5 1 4 2 3 3 1 4 2 5 27 7 28 8 89 9 29 10 88 11 30 12 31 13
REMARK SMILES IDX 32 14 82 15 33 16 87 17 81 18 83 19 34 20 86 21 80 22 79 23
REMARK SMILES IDX 35 25 67 26 47 27 66 28 48 29 51 30 65 31 84 32 49 33 50 34
REMARK SMILES IDX 64 36 85 37 52 38 36 39 37 40 45 41 38 42 39 43 43 44 46 45
REMARK SMILES IDX 40 46 41 47 44 48 42 49 68 50 69 51 77 52 70 53 71 54 75 55
REMARK SMILES IDX 78 56 72 57 73 58 76 59 74 60 53 61 54 62 62 63 55 64 56 65
REMARK SMILES IDX 60 66 63 67 57 68 58 69 61 70 59 71 6 72 7 73 8 74 9 76
REMARK SMILES IDX 10 77 11 78 15 79 12 80 14 81 16 82 17 83 18 84 19 85 26 86
REMARK SMILES IDX 20 87 22 88 21 89 23 90 24 91 25 92 13 93
REMARK H PARENT 3 6 83 24 51 35 7 75 13 94
REMARK Flexibility Score: inf
ROOT
ATOM      1  C   UNL A   1      31.374  31.964  26.387  1.00  0.00     0.042 C 
ENDROOT
BRANCH   1   2
ATOM      2  C   UNL A   1      32.684  32.521  26.942  1.00  0.00     0.118 C 
BRANCH   2   3
ATOM      3  N   UNL A   1      32.534  33.856  27.502  1.00  0.00    -0.352 N 
ATOM      4  O   UNL A   1      32.754  35.522  28.999  1.00  0.00    -0.269 OA
ATOM      5  C   UNL A   1      33.171  34.452  28.564  1.00  0.00     0.251 C 
ATOM      6  H   UNL A   1      31.870  34.423  27.047  1.00  0.00     0.163 HD
BRANCH   5   7
ATOM      7  C   UNL A   1      34.347  33.814  29.197  1.00  0.00     0.039 A 
ATOM      8  C   UNL A   1      34.194  32.781  30.123  1.00  0.00     0.014 A 
ATOM      9  C   UNL A   1      35.631  34.222  28.818  1.00  0.00     0.014 A 
ATOM     10  C   UNL A   1      35.307  32.263  30.775  1.00  0.00     0.010 A 
ATOM     11  C   UNL A   1      36.756  33.629  29.404  1.00  0.00     0.010 A 
ATOM     12  C   UNL A   1      36.603  32.662  30.409  1.00  0.00    -0.014 A 
BRANCH  12  13
ATOM     13  C   UNL A   1      37.774  32.000  31.042  1.00  0.00     0.031 A 
ATOM     14  C   UNL A   1      38.203  32.341  32.441  1.00  0.00     0.074 A 
ATOM     15  C   UNL A   1      38.438  31.059  30.343  1.00  0.00     0.049 A 
ATOM     16  N   UNL A   1      39.186  31.839  33.148  1.00  0.00    -0.248 NA
ATOM     17  C   UNL A   1      37.439  33.386  33.139  1.00  0.00     0.031 C 
ATOM     18  C   UNL A   1      38.123  30.654  28.971  1.00  0.00     0.029 A 
ATOM     19  N   UNL A   1      39.498  30.259  30.688  1.00  0.00    -0.354 N 
ATOM     20  C   UNL A   1      39.166  32.512  34.364  1.00  0.00     0.074 A 
ATOM     21  C   UNL A   1      38.095  33.484  34.287  1.00  0.00     0.031 C 
ATOM     22  C   UNL A   1      38.936  29.651  28.609  1.00  0.00     0.029 A 
ATOM     23  C   UNL A   1      39.875  29.391  29.694  1.00  0.00     0.049 A 
ATOM     24  H   UNL A   1      39.946  30.305  31.564  1.00  0.00     0.167 HD
ATOM     25  C   UNL A   1      39.962  32.326  35.445  1.00  0.00     0.037 A 
ATOM     26  C   UNL A   1      40.880  28.496  29.648  1.00  0.00     0.037 A 
ATOM     27  C   UNL A   1      41.025  31.353  35.514  1.00  0.00     0.049 A 
ATOM     28  C   UNL A   1      41.772  28.344  30.847  1.00  0.00     0.074 A 
ATOM     29  C   UNL A   1      41.865  31.066  36.576  1.00  0.00     0.029 A 
ATOM     30  N   UNL A   1      41.400  30.515  34.472  1.00  0.00    -0.354 N 
ATOM     31  N   UNL A   1      41.713  28.954  32.006  1.00  0.00    -0.248 NA
ATOM     32  C   UNL A   1      42.871  27.378  30.731  1.00  0.00     0.031 C 
ATOM     33  C   UNL A   1      42.788  30.101  36.157  1.00  0.00     0.029 A 
ATOM     34  C   UNL A   1      42.480  29.734  34.858  1.00  0.00     0.049 A 
ATOM     35  H   UNL A   1      40.965  30.481  33.590  1.00  0.00     0.167 HD
ATOM     36  C   UNL A   1      42.749  28.429  32.765  1.00  0.00     0.074 A 
ATOM     37  C   UNL A   1      43.406  27.434  31.942  1.00  0.00     0.031 C 
ATOM     38  C   UNL A   1      43.123  28.745  34.030  1.00  0.00     0.037 A 
BRANCH  25  39
ATOM     39  C   UNL A   1      39.734  33.208  36.642  1.00  0.00     0.064 A 
ATOM     40  C   UNL A   1      40.404  34.431  36.801  1.00  0.00     0.173 A 
ATOM     41  C   UNL A   1      38.794  32.848  37.621  1.00  0.00     0.173 A 
ATOM     42  F   UNL A   1      41.318  34.821  35.900  1.00  0.00    -0.203 F 
ATOM     43  C   UNL A   1      40.165  35.243  37.907  1.00  0.00     0.198 A 
ATOM     44  C   UNL A   1      38.532  33.679  38.708  1.00  0.00     0.198 A 
ATOM     45  F   UNL A   1      38.114  31.696  37.517  1.00  0.00    -0.203 F 
ATOM     46  F   UNL A   1      40.855  36.383  38.061  1.00  0.00    -0.200 F 
ATOM     47  C   UNL A   1      39.225  34.870  38.855  1.00  0.00     0.200 A 
ATOM     48  F   UNL A   1      37.611  33.325  39.614  1.00  0.00    -0.200 F 
ATOM     49  F   UNL A   1      38.988  35.659  39.913  1.00  0.00    -0.200 F 
ENDBRANCH  25  39
BRANCH  26  50
ATOM     50  C   UNL A   1      41.094  27.684  28.421  1.00  0.00     0.064 A 
ATOM     51  C   UNL A   1      40.432  26.463  28.237  1.00  0.00     0.173 A 
ATOM     52  C   UNL A   1      41.964  28.112  27.408  1.00  0.00     0.173 A 
ATOM     53  F   UNL A   1      39.602  26.001  29.185  1.00  0.00    -0.203 F 
ATOM     54  C   UNL A   1      40.650  25.690  27.098  1.00  0.00     0.198 A 
ATOM     55  C   UNL A   1      42.154  27.358  26.253  1.00  0.00     0.198 A 
ATOM     56  F   UNL A   1      42.618  29.277  27.532  1.00  0.00    -0.203 F 
ATOM     57  F   UNL A   1      40.043  24.503  26.971  1.00  0.00    -0.200 F 
ATOM     58  C   UNL A   1      41.506  26.142  26.104  1.00  0.00     0.200 A 
ATOM     59  F   UNL A   1      42.965  27.809  25.287  1.00  0.00    -0.200 F 
ATOM     60  F   UNL A   1      41.709  25.402  25.006  1.00  0.00    -0.200 F 
ENDBRANCH  26  50
BRANCH  38  61
ATOM     61  C   UNL A   1      44.272  27.972  34.615  1.00  0.00     0.064 A 
ATOM     62  C   UNL A   1      44.087  26.738  35.256  1.00  0.00     0.173 A 
ATOM     63  C   UNL A   1      45.582  28.467  34.513  1.00  0.00     0.173 A 
ATOM     64  F   UNL A   1      42.853  26.228  35.395  1.00  0.00    -0.203 F 
ATOM     65  C   UNL A   1      45.164  26.048  35.805  1.00  0.00     0.198 A 
ATOM     66  C   UNL A   1      46.660  27.755  35.031  1.00  0.00     0.198 A 
ATOM     67  F   UNL A   1      45.817  29.639  33.905  1.00  0.00    -0.203 F 
ATOM     68  F   UNL A   1      44.954  24.902  36.468  1.00  0.00    -0.200 F 
ATOM     69  C   UNL A   1      46.450  26.552  35.686  1.00  0.00     0.200 A 
ATOM     70  F   UNL A   1      47.904  28.238  34.900  1.00  0.00    -0.200 F 
ATOM     71  F   UNL A   1      47.485  25.884  36.210  1.00  0.00    -0.200 F 
ENDBRANCH  38  61
ENDBRANCH  12  13
ENDBRANCH   5   7
ENDBRANCH   2   3
ENDBRANCH   1   2
BRANCH   1  72
ATOM     72  C   UNL A   1      31.485  30.547  25.824  1.00  0.00     0.117 C 
BRANCH  72  73
ATOM     73  N   UNL A   1      31.492  29.549  26.872  1.00  0.00    -0.354 N 
ATOM     74  C   UNL A   1      31.708  28.210  26.869  1.00  0.00     0.242 C 
ATOM     75  H   UNL A   1      31.302  29.915  27.765  1.00  0.00     0.163 HD
ATOM     76  O   UNL A   1      31.407  27.622  27.916  1.00  0.00    -0.273 OA
BRANCH  74  77
ATOM     77  C   UNL A   1      32.170  27.392  25.640  1.00  0.00     0.177 C 
ATOM     78  C   UNL A   1      33.657  27.017  25.659  1.00  0.00     0.069 C 
ATOM     79  N   UNL A   1      31.451  26.155  25.297  1.00  0.00    -0.328 N 
ATOM     80  C   UNL A   1      33.686  25.496  25.757  1.00  0.00     0.136 C 
ATOM     81  C   UNL A   1      32.391  25.070  25.074  1.00  0.00     0.152 C 
BRANCH  79  82
ATOM     82  C   UNL A   1      30.142  26.249  24.875  1.00  0.00     0.228 C 
ATOM     83  O   UNL A   1      29.226  25.952  25.650  1.00  0.00    -0.274 OA
BRANCH  82  84
ATOM     84  C   UNL A   1      29.747  26.743  23.483  1.00  0.00     0.107 C 
ATOM     85  C   UNL A   1      30.883  27.165  22.569  1.00  0.00     0.115 C 
ATOM     86  C   UNL A   1      28.773  27.901  23.493  1.00  0.00     0.133 C 
ATOM     87  C   UNL A   1      30.757  28.666  22.481  1.00  0.00     0.223 C 
ATOM     88  N   UNL A   1      29.553  29.041  23.079  1.00  0.00    -0.339 N 
ATOM     89  O   UNL A   1      31.614  29.388  22.004  1.00  0.00    -0.275 OA
BRANCH  88  90
ATOM     90  C   UNL A   1      29.096  30.372  23.351  1.00  0.00     0.085 C 
ATOM     91  C   UNL A   1      28.563  31.250  22.248  1.00  0.00     0.027 C 
ATOM     92  C   UNL A   1      27.653  30.785  23.350  1.00  0.00     0.027 C 
ENDBRANCH  88  90
ENDBRANCH  82  84
ENDBRANCH  79  82
BRANCH  80  93
ATOM     93  O   UNL A   1      34.845  24.956  25.146  1.00  0.00    -0.391 OA
ATOM     94  H   UNL A   1      35.244  25.621  24.565  1.00  0.00     0.211 HD
ENDBRANCH  80  93
ENDBRANCH  74  77
ENDBRANCH  72  73
ENDBRANCH   1  72
TORSDOF 14
ENDMDL
