MODEL 1
REMARK VINA RESULT:     -16.3      0.000      0.000
REMARK SMILES O=C(NCCCNC(=O)[C@]1(NC(=O)C2CCN(C(=O)C3CC3)CC2)CCCc2ccccc21)c1ccc(-c2c3nc(c(-c4c(F)c(F)c(F)c(F)c4F)c4ccc([nH]4)c(-c4c(F)c(F)c(F)c(F)c4F)c4nc(c(-c5c(F)c(F)c(F)c(F)c5F)c5ccc2[nH]5)C=C4)C=C3)cc1
REMARK SMILES IDX 5 1 4 2 3 3 1 4 2 5 34 7 35 8 96 9 36 10 95 11 37 12 38 13
REMARK SMILES IDX 39 14 89 15 40 16 94 17 88 18 90 19 41 20 93 21 87 22 86 23
REMARK SMILES IDX 42 25 74 26 54 27 73 28 55 29 58 30 72 31 91 32 56 33 57 34
REMARK SMILES IDX 71 36 92 37 59 38 43 39 44 40 52 41 45 42 46 43 50 44 53 45
REMARK SMILES IDX 47 46 48 47 51 48 49 49 75 50 76 51 84 52 77 53 78 54 82 55
REMARK SMILES IDX 85 56 79 57 80 58 83 59 81 60 60 61 61 62 69 63 62 64 63 65
REMARK SMILES IDX 67 66 70 67 64 68 65 69 68 70 66 71 6 72 7 73 8 74 9 76
REMARK SMILES IDX 10 77 25 78 33 79 26 80 28 81 32 82 27 83 29 84 31 85 30 86
REMARK SMILES IDX 11 87 12 88 13 90 14 91 15 92 24 93 16 94 23 95 17 96 18 97
REMARK SMILES IDX 19 98 20 99 21 100 22 101
REMARK H PARENT 3 6 90 24 58 35 7 75 11 89
REMARK Flexibility Score: inf
ROOT
ATOM      1  C   UNL A   1      37.586  19.954  24.635  1.00  0.00     0.042 C 
ENDROOT
BRANCH   1   2
ATOM      2  C   UNL A   1      39.253  19.479  25.868  1.00  0.00     0.118 C 
BRANCH   2   3
ATOM      3  N   UNL A   1      40.641  18.846  25.751  1.00  0.00    -0.352 N 
ATOM      4  O   UNL A   1      42.654  18.344  26.658  1.00  0.00    -0.269 OA
ATOM      5  C   UNL A   1      41.836  19.222  26.384  1.00  0.00     0.251 C 
ATOM      6  H   UNL A   1      40.707  18.068  25.149  1.00  0.00     0.163 HD
BRANCH   5   7
ATOM      7  C   UNL A   1      42.253  20.647  26.566  1.00  0.00     0.039 A 
ATOM      8  C   UNL A   1      42.474  21.562  25.536  1.00  0.00     0.014 A 
ATOM      9  C   UNL A   1      42.425  21.083  27.887  1.00  0.00     0.014 A 
ATOM     10  C   UNL A   1      43.076  22.807  25.814  1.00  0.00     0.010 A 
ATOM     11  C   UNL A   1      42.998  22.328  28.174  1.00  0.00     0.010 A 
ATOM     12  C   UNL A   1      43.358  23.196  27.138  1.00  0.00    -0.014 A 
BRANCH  12  13
ATOM     13  C   UNL A   1      43.679  24.611  27.469  1.00  0.00     0.031 A 
ATOM     14  C   UNL A   1      42.657  25.639  27.879  1.00  0.00     0.074 A 
ATOM     15  C   UNL A   1      44.956  24.975  27.243  1.00  0.00     0.049 A 
ATOM     16  N   UNL A   1      42.836  26.920  28.108  1.00  0.00    -0.248 NA
ATOM     17  C   UNL A   1      41.268  25.194  28.054  1.00  0.00     0.031 C 
ATOM     18  C   UNL A   1      46.004  24.064  26.771  1.00  0.00     0.029 A 
ATOM     19  N   UNL A   1      45.586  26.187  27.329  1.00  0.00    -0.354 N 
ATOM     20  C   UNL A   1      41.590  27.436  28.451  1.00  0.00     0.074 A 
ATOM     21  C   UNL A   1      40.656  26.328  28.390  1.00  0.00     0.031 C 
ATOM     22  C   UNL A   1      47.138  24.748  26.594  1.00  0.00     0.029 A 
ATOM     23  C   UNL A   1      46.887  26.150  26.891  1.00  0.00     0.049 A 
ATOM     24  H   UNL A   1      45.150  27.002  27.670  1.00  0.00     0.167 HD
ATOM     25  C   UNL A   1      41.271  28.716  28.777  1.00  0.00     0.037 A 
ATOM     26  C   UNL A   1      47.777  27.138  26.705  1.00  0.00     0.037 A 
ATOM     27  C   UNL A   1      42.219  29.810  28.810  1.00  0.00     0.049 A 
ATOM     28  C   UNL A   1      47.381  28.539  27.052  1.00  0.00     0.074 A 
ATOM     29  C   UNL A   1      42.017  31.117  29.222  1.00  0.00     0.029 A 
ATOM     30  N   UNL A   1      43.538  29.732  28.383  1.00  0.00    -0.354 N 
ATOM     31  N   UNL A   1      46.236  28.985  27.503  1.00  0.00    -0.248 NA
ATOM     32  C   UNL A   1      48.407  29.574  26.876  1.00  0.00     0.031 C 
ATOM     33  C   UNL A   1      43.185  31.845  28.975  1.00  0.00     0.029 A 
ATOM     34  C   UNL A   1      44.142  30.979  28.474  1.00  0.00     0.049 A 
ATOM     35  H   UNL A   1      43.980  28.912  28.063  1.00  0.00     0.167 HD
ATOM     36  C   UNL A   1      46.404  30.349  27.681  1.00  0.00     0.074 A 
ATOM     37  C   UNL A   1      47.775  30.649  27.322  1.00  0.00     0.031 C 
ATOM     38  C   UNL A   1      45.502  31.269  28.098  1.00  0.00     0.037 A 
BRANCH  25  39
ATOM     39  C   UNL A   1      39.844  29.052  29.130  1.00  0.00     0.064 A 
ATOM     40  C   UNL A   1      38.909  29.408  28.148  1.00  0.00     0.173 A 
ATOM     41  C   UNL A   1      39.369  28.850  30.437  1.00  0.00     0.173 A 
ATOM     42  F   UNL A   1      39.300  29.597  26.878  1.00  0.00    -0.203 F 
ATOM     43  C   UNL A   1      37.556  29.555  28.460  1.00  0.00     0.198 A 
ATOM     44  C   UNL A   1      38.013  28.975  30.741  1.00  0.00     0.198 A 
ATOM     45  F   UNL A   1      40.212  28.482  31.414  1.00  0.00    -0.203 F 
ATOM     46  F   UNL A   1      36.682  29.899  27.505  1.00  0.00    -0.200 F 
ATOM     47  C   UNL A   1      37.109  29.327  29.753  1.00  0.00     0.200 A 
ATOM     48  F   UNL A   1      37.580  28.726  31.986  1.00  0.00    -0.200 F 
ATOM     49  F   UNL A   1      35.804  29.436  30.043  1.00  0.00    -0.200 F 
ENDBRANCH  25  39
BRANCH  26  50
ATOM     50  C   UNL A   1      49.118  26.822  26.154  1.00  0.00     0.064 A 
ATOM     51  C   UNL A   1      49.399  27.007  24.795  1.00  0.00     0.173 A 
ATOM     52  C   UNL A   1      50.150  26.346  26.978  1.00  0.00     0.173 A 
ATOM     53  F   UNL A   1      48.443  27.456  23.969  1.00  0.00    -0.203 F 
ATOM     54  C   UNL A   1      50.650  26.692  24.272  1.00  0.00     0.198 A 
ATOM     55  C   UNL A   1      51.412  26.068  26.461  1.00  0.00     0.198 A 
ATOM     56  F   UNL A   1      49.938  26.172  28.291  1.00  0.00    -0.203 F 
ATOM     57  F   UNL A   1      50.874  26.822  22.957  1.00  0.00    -0.200 F 
ATOM     58  C   UNL A   1      51.657  26.227  25.106  1.00  0.00     0.200 A 
ATOM     59  F   UNL A   1      52.390  25.647  27.275  1.00  0.00    -0.200 F 
ATOM     60  F   UNL A   1      52.861  25.928  24.602  1.00  0.00    -0.200 F 
ENDBRANCH  26  50
BRANCH  38  61
ATOM     61  C   UNL A   1      45.984  32.688  28.193  1.00  0.00     0.064 A 
ATOM     62  C   UNL A   1      46.583  33.181  29.362  1.00  0.00     0.173 A 
ATOM     63  C   UNL A   1      45.846  33.564  27.107  1.00  0.00     0.173 A 
ATOM     64  F   UNL A   1      46.716  32.390  30.438  1.00  0.00    -0.203 F 
ATOM     65  C   UNL A   1      46.993  34.508  29.452  1.00  0.00     0.198 A 
ATOM     66  C   UNL A   1      46.291  34.880  27.187  1.00  0.00     0.198 A 
ATOM     67  F   UNL A   1      45.280  33.143  25.965  1.00  0.00    -0.203 F 
ATOM     68  F   UNL A   1      47.502  34.974  30.601  1.00  0.00    -0.200 F 
ATOM     69  C   UNL A   1      46.853  35.354  28.362  1.00  0.00     0.200 A 
ATOM     70  F   UNL A   1      46.167  35.693  26.129  1.00  0.00    -0.200 F 
ATOM     71  F   UNL A   1      47.251  36.631  28.449  1.00  0.00    -0.200 F 
ENDBRANCH  38  61
ENDBRANCH  12  13
ENDBRANCH   5   7
ENDBRANCH   2   3
ENDBRANCH   1   2
BRANCH   1  72
ATOM     72  C   UNL A   1      37.028  21.640  23.993  1.00  0.00     0.117 C 
BRANCH  72  73
ATOM     73  N   UNL A   1      37.184  22.988  24.820  1.00  0.00    -0.354 N 
ATOM     74  C   UNL A   1      36.381  23.727  25.700  1.00  0.00     0.250 C 
ATOM     75  H   UNL A   1      38.063  23.408  24.680  1.00  0.00     0.163 HD
ATOM     76  O   UNL A   1      36.924  24.465  26.520  1.00  0.00    -0.272 OA
BRANCH  74  77
ATOM     77  C   UNL A   1      34.900  23.752  25.364  1.00  0.00     0.145 C 
ATOM     78  C   UNL A   1      34.252  23.330  26.719  1.00  0.00     0.044 C 
ATOM     79  C   UNL A   1      34.214  22.935  24.233  1.00  0.00    -0.010 A 
ATOM     80  C   UNL A   1      34.403  21.813  26.894  1.00  0.00     0.008 C 
ATOM     81  C   UNL A   1      33.496  21.751  24.531  1.00  0.00    -0.042 A 
ATOM     82  C   UNL A   1      34.003  23.472  22.939  1.00  0.00     0.007 A 
ATOM     83  C   UNL A   1      33.536  21.086  25.884  1.00  0.00     0.036 C 
ATOM     84  C   UNL A   1      32.591  21.199  23.595  1.00  0.00     0.004 A 
ATOM     85  C   UNL A   1      33.057  22.954  22.045  1.00  0.00     0.000 A 
ATOM     86  C   UNL A   1      32.345  21.817  22.376  1.00  0.00     0.000 A 
BRANCH  77  87
ATOM     87  N   UNL A   1      34.725  25.157  25.101  1.00  0.00    -0.338 N 
ATOM     88  C   UNL A   1      33.661  25.871  25.540  1.00  0.00     0.224 C 
ATOM     89  H   UNL A   1      35.413  25.623  24.573  1.00  0.00     0.164 HD
ATOM     90  O   UNL A   1      34.076  26.885  26.126  1.00  0.00    -0.275 OA
BRANCH  88  91
ATOM     91  C   UNL A   1      31.960  25.622  25.248  1.00  0.00     0.082 C 
ATOM     92  C   UNL A   1      30.941  25.259  23.529  1.00  0.00     0.035 C 
ATOM     93  C   UNL A   1      31.617  27.374  25.964  1.00  0.00     0.035 C 
ATOM     94  C   UNL A   1      30.498  26.848  22.376  1.00  0.00     0.120 C 
ATOM     95  C   UNL A   1      31.376  28.773  24.776  1.00  0.00     0.120 C 
ATOM     96  N   UNL A   1      30.523  28.505  23.251  1.00  0.00    -0.342 N 
ATOM     97  C   UNL A   1      29.822  29.597  22.720  1.00  0.00     0.225 C 
ATOM     98  O   UNL A   1      29.610  29.650  21.509  1.00  0.00    -0.275 OA
BRANCH  97  99
ATOM     99  C   UNL A   1      29.153  30.670  23.584  1.00  0.00     0.079 C 
ATOM    100  C   UNL A   1      28.840  32.134  23.318  1.00  0.00     0.014 C 
ATOM    101  C   UNL A   1      27.725  31.143  23.501  1.00  0.00     0.014 C 
ENDBRANCH  97  99
ENDBRANCH  88  91
ENDBRANCH  77  87
ENDBRANCH  74  77
ENDBRANCH  72  73
ENDBRANCH   1  72
TORSDOF 13
ENDMDL
MODEL 2
REMARK VINA RESULT:     -16.2      5.187     11.013
REMARK SMILES O=C(NCCCNC(=O)[C@]1(NC(=O)C2CCN(C(=O)C3CC3)CC2)CCCc2ccccc21)c1ccc(-c2c3nc(c(-c4c(F)c(F)c(F)c(F)c4F)c4ccc([nH]4)c(-c4c(F)c(F)c(F)c(F)c4F)c4nc(c(-c5c(F)c(F)c(F)c(F)c5F)c5ccc2[nH]5)C=C4)C=C3)cc1
REMARK SMILES IDX 5 1 4 2 3 3 1 4 2 5 34 7 35 8 96 9 36 10 95 11 37 12 38 13
REMARK SMILES IDX 39 14 89 15 40 16 94 17 88 18 90 19 41 20 93 21 87 22 86 23
REMARK SMILES IDX 42 25 74 26 54 27 73 28 55 29 58 30 72 31 91 32 56 33 57 34
REMARK SMILES IDX 71 36 92 37 59 38 43 39 44 40 52 41 45 42 46 43 50 44 53 45
REMARK SMILES IDX 47 46 48 47 51 48 49 49 75 50 76 51 84 52 77 53 78 54 82 55
REMARK SMILES IDX 85 56 79 57 80 58 83 59 81 60 60 61 61 62 69 63 62 64 63 65
REMARK SMILES IDX 67 66 70 67 64 68 65 69 68 70 66 71 6 72 7 73 8 74 9 76
REMARK SMILES IDX 10 77 25 78 33 79 26 80 28 81 32 82 27 83 29 84 31 85 30 86
REMARK SMILES IDX 11 87 12 88 13 90 14 91 15 92 24 93 16 94 23 95 17 96 18 97
REMARK SMILES IDX 19 98 20 99 21 100 22 101
REMARK H PARENT 3 6 90 24 58 35 7 75 11 89
REMARK Flexibility Score: inf
ROOT
ATOM      1  C   UNL A   1      31.416  31.147  26.377  1.00  0.00     0.042 C 
ENDROOT
BRANCH   1   2
ATOM      2  C   UNL A   1      32.250  33.068  26.750  1.00  0.00     0.118 C 
BRANCH   2   3
ATOM      3  N   UNL A   1      32.141  34.204  27.770  1.00  0.00    -0.352 N 
ATOM      4  O   UNL A   1      33.035  36.011  28.799  1.00  0.00    -0.269 OA
ATOM      5  C   UNL A   1      33.161  34.821  28.511  1.00  0.00     0.251 C 
ATOM      6  H   UNL A   1      31.233  34.548  27.929  1.00  0.00     0.163 HD
BRANCH   5   7
ATOM      7  C   UNL A   1      34.293  34.067  29.134  1.00  0.00     0.039 A 
ATOM      8  C   UNL A   1      34.161  32.999  30.022  1.00  0.00     0.014 A 
ATOM      9  C   UNL A   1      35.586  34.477  28.778  1.00  0.00     0.014 A 
ATOM     10  C   UNL A   1      35.289  32.512  30.713  1.00  0.00     0.010 A 
ATOM     11  C   UNL A   1      36.715  33.981  29.440  1.00  0.00     0.010 A 
ATOM     12  C   UNL A   1      36.578  33.010  30.439  1.00  0.00    -0.014 A 
BRANCH  12  13
ATOM     13  C   UNL A   1      37.794  32.290  30.908  1.00  0.00     0.031 A 
ATOM     14  C   UNL A   1      38.477  31.190  30.140  1.00  0.00     0.074 A 
ATOM     15  C   UNL A   1      38.186  32.590  32.161  1.00  0.00     0.049 A 
ATOM     16  N   UNL A   1      39.497  30.448  30.511  1.00  0.00    -0.248 NA
ATOM     17  C   UNL A   1      37.967  30.869  28.800  1.00  0.00     0.031 C 
ATOM     18  C   UNL A   1      37.537  33.591  33.014  1.00  0.00     0.029 A 
ATOM     19  N   UNL A   1      39.174  32.071  32.954  1.00  0.00    -0.354 N 
ATOM     20  C   UNL A   1      39.751  29.575  29.458  1.00  0.00     0.074 A 
ATOM     21  C   UNL A   1      38.769  29.871  28.433  1.00  0.00     0.031 C 
ATOM     22  C   UNL A   1      38.130  33.604  34.212  1.00  0.00     0.029 A 
ATOM     23  C   UNL A   1      39.165  32.582  34.229  1.00  0.00     0.049 A 
ATOM     24  H   UNL A   1      39.824  31.400  32.642  1.00  0.00     0.167 HD
ATOM     25  C   UNL A   1      40.713  28.619  29.373  1.00  0.00     0.037 A 
ATOM     26  C   UNL A   1      39.879  32.242  35.314  1.00  0.00     0.037 A 
ATOM     27  C   UNL A   1      41.669  28.329  30.421  1.00  0.00     0.049 A 
ATOM     28  C   UNL A   1      40.913  31.166  35.188  1.00  0.00     0.074 A 
ATOM     29  C   UNL A   1      42.742  27.451  30.393  1.00  0.00     0.029 A 
ATOM     30  N   UNL A   1      41.648  28.883  31.693  1.00  0.00    -0.354 N 
ATOM     31  N   UNL A   1      41.229  30.444  34.142  1.00  0.00    -0.248 NA
ATOM     32  C   UNL A   1      41.700  30.867  36.390  1.00  0.00     0.031 C 
ATOM     33  C   UNL A   1      43.320  27.418  31.667  1.00  0.00     0.029 A 
ATOM     34  C   UNL A   1      42.654  28.328  32.472  1.00  0.00     0.049 A 
ATOM     35  H   UNL A   1      41.012  29.570  31.998  1.00  0.00     0.167 HD
ATOM     36  C   UNL A   1      42.260  29.615  34.553  1.00  0.00     0.074 A 
ATOM     37  C   UNL A   1      42.540  29.950  35.934  1.00  0.00     0.031 C 
ATOM     38  C   UNL A   1      42.912  28.657  33.850  1.00  0.00     0.037 A 
BRANCH  25  39
ATOM     39  C   UNL A   1      40.814  27.787  28.120  1.00  0.00     0.064 A 
ATOM     40  C   UNL A   1      41.587  28.199  27.024  1.00  0.00     0.173 A 
ATOM     41  C   UNL A   1      40.271  26.490  28.082  1.00  0.00     0.173 A 
ATOM     42  F   UNL A   1      42.145  29.419  27.011  1.00  0.00    -0.203 F 
ATOM     43  C   UNL A   1      41.808  27.350  25.938  1.00  0.00     0.198 A 
ATOM     44  C   UNL A   1      40.514  25.636  27.006  1.00  0.00     0.198 A 
ATOM     45  F   UNL A   1      39.546  26.030  29.112  1.00  0.00    -0.203 F 
ATOM     46  F   UNL A   1      42.548  27.767  24.902  1.00  0.00    -0.200 F 
ATOM     47  C   UNL A   1      41.281  26.067  25.936  1.00  0.00     0.200 A 
ATOM     48  F   UNL A   1      40.028  24.387  27.020  1.00  0.00    -0.200 F 
ATOM     49  F   UNL A   1      41.524  25.241  24.907  1.00  0.00    -0.200 F 
ENDBRANCH  25  39
BRANCH  26  50
ATOM     50  C   UNL A   1      39.623  32.927  36.605  1.00  0.00     0.064 A 
ATOM     51  C   UNL A   1      38.656  32.445  37.496  1.00  0.00     0.173 A 
ATOM     52  C   UNL A   1      40.351  34.067  36.982  1.00  0.00     0.173 A 
ATOM     53  F   UNL A   1      37.933  31.360  37.176  1.00  0.00    -0.203 F 
ATOM     54  C   UNL A   1      38.399  33.097  38.698  1.00  0.00     0.198 A 
ATOM     55  C   UNL A   1      40.120  34.695  38.202  1.00  0.00     0.198 A 
ATOM     56  F   UNL A   1      41.303  34.556  36.173  1.00  0.00    -0.203 F 
ATOM     57  F   UNL A   1      37.428  32.649  39.504  1.00  0.00    -0.200 F 
ATOM     58  C   UNL A   1      39.135  34.219  39.052  1.00  0.00     0.200 A 
ATOM     59  F   UNL A   1      40.852  35.761  38.553  1.00  0.00    -0.200 F 
ATOM     60  F   UNL A   1      38.889  34.844  40.211  1.00  0.00    -0.200 F 
ENDBRANCH  26  50
BRANCH  38  61
ATOM     61  C   UNL A   1      43.998  27.915  34.573  1.00  0.00     0.064 A 
ATOM     62  C   UNL A   1      43.740  26.708  35.242  1.00  0.00     0.173 A 
ATOM     63  C   UNL A   1      45.309  28.412  34.599  1.00  0.00     0.173 A 
ATOM     64  F   UNL A   1      42.498  26.202  35.268  1.00  0.00    -0.203 F 
ATOM     65  C   UNL A   1      44.747  26.046  35.939  1.00  0.00     0.198 A 
ATOM     66  C   UNL A   1      46.321  27.729  35.266  1.00  0.00     0.198 A 
ATOM     67  F   UNL A   1      45.609  29.561  33.975  1.00  0.00    -0.203 F 
ATOM     68  F   UNL A   1      44.462  24.931  36.626  1.00  0.00    -0.200 F 
ATOM     69  C   UNL A   1      46.037  26.554  35.945  1.00  0.00     0.200 A 
ATOM     70  F   UNL A   1      47.571  28.213  35.259  1.00  0.00    -0.200 F 
ATOM     71  F   UNL A   1      47.007  25.914  36.614  1.00  0.00    -0.200 F 
ENDBRANCH  38  61
ENDBRANCH  12  13
ENDBRANCH   5   7
ENDBRANCH   2   3
ENDBRANCH   1   2
BRANCH   1  72
ATOM     72  C   UNL A   1      31.739  29.519  27.279  1.00  0.00     0.117 C 
BRANCH  72  73
ATOM     73  N   UNL A   1      33.179  28.861  27.411  1.00  0.00    -0.354 N 
ATOM     74  C   UNL A   1      34.049  28.165  26.559  1.00  0.00     0.250 C 
ATOM     75  H   UNL A   1      33.554  28.968  28.315  1.00  0.00     0.163 HD
ATOM     76  O   UNL A   1      35.254  28.181  26.802  1.00  0.00    -0.272 OA
BRANCH  74  77
ATOM     77  C   UNL A   1      33.380  27.225  25.571  1.00  0.00     0.145 C 
ATOM     78  C   UNL A   1      34.014  27.671  24.218  1.00  0.00     0.044 C 
ATOM     79  C   UNL A   1      31.847  27.082  25.354  1.00  0.00    -0.010 A 
ATOM     80  C   UNL A   1      33.346  28.973  23.757  1.00  0.00     0.008 C 
ATOM     81  C   UNL A   1      31.212  27.701  24.250  1.00  0.00    -0.042 A 
ATOM     82  C   UNL A   1      31.079  26.103  26.034  1.00  0.00     0.007 A 
ATOM     83  C   UNL A   1      31.905  28.704  23.363  1.00  0.00     0.036 C 
ATOM     84  C   UNL A   1      29.917  27.303  23.844  1.00  0.00     0.004 A 
ATOM     85  C   UNL A   1      29.824  25.673  25.585  1.00  0.00     0.000 A 
ATOM     86  C   UNL A   1      29.244  26.271  24.484  1.00  0.00     0.000 A 
BRANCH  77  87
ATOM     87  N   UNL A   1      33.910  25.965  26.023  1.00  0.00    -0.338 N 
ATOM     88  C   UNL A   1      34.407  25.022  25.187  1.00  0.00     0.224 C 
ATOM     89  H   UNL A   1      33.912  25.778  26.990  1.00  0.00     0.164 HD
ATOM     90  O   UNL A   1      35.535  24.690  25.585  1.00  0.00    -0.275 OA
BRANCH  88  91
ATOM     91  C   UNL A   1      33.632  24.200  23.858  1.00  0.00     0.082 C 
ATOM     92  C   UNL A   1      31.791  23.360  23.699  1.00  0.00     0.035 C 
ATOM     93  C   UNL A   1      35.048  22.897  23.887  1.00  0.00     0.035 C 
ATOM     94  C   UNL A   1      31.562  21.509  24.455  1.00  0.00     0.120 C 
ATOM     95  C   UNL A   1      34.740  21.290  24.752  1.00  0.00     0.120 C 
ATOM     96  N   UNL A   1      33.145  20.531  24.672  1.00  0.00    -0.342 N 
ATOM     97  C   UNL A   1      33.109  19.132  24.751  1.00  0.00     0.225 C 
ATOM     98  O   UNL A   1      32.091  18.573  25.160  1.00  0.00    -0.275 OA
BRANCH  97  99
ATOM     99  C   UNL A   1      34.216  18.227  24.200  1.00  0.00     0.079 C 
ATOM    100  C   UNL A   1      34.699  16.848  24.620  1.00  0.00     0.014 C 
ATOM    101  C   UNL A   1      34.051  17.047  23.279  1.00  0.00     0.014 C 
ENDBRANCH  97  99
ENDBRANCH  88  91
ENDBRANCH  77  87
ENDBRANCH  74  77
ENDBRANCH  72  73
ENDBRANCH   1  72
TORSDOF 13
ENDMDL
MODEL 3
REMARK VINA RESULT:     -16.1      0.652      7.075
REMARK SMILES O=C(NCCCNC(=O)[C@]1(NC(=O)C2CCN(C(=O)C3CC3)CC2)CCCc2ccccc21)c1ccc(-c2c3nc(c(-c4c(F)c(F)c(F)c(F)c4F)c4ccc([nH]4)c(-c4c(F)c(F)c(F)c(F)c4F)c4nc(c(-c5c(F)c(F)c(F)c(F)c5F)c5ccc2[nH]5)C=C4)C=C3)cc1
REMARK SMILES IDX 5 1 4 2 3 3 1 4 2 5 34 7 35 8 96 9 36 10 95 11 37 12 38 13
REMARK SMILES IDX 39 14 89 15 40 16 94 17 88 18 90 19 41 20 93 21 87 22 86 23
REMARK SMILES IDX 42 25 74 26 54 27 73 28 55 29 58 30 72 31 91 32 56 33 57 34
REMARK SMILES IDX 71 36 92 37 59 38 43 39 44 40 52 41 45 42 46 43 50 44 53 45
REMARK SMILES IDX 47 46 48 47 51 48 49 49 75 50 76 51 84 52 77 53 78 54 82 55
REMARK SMILES IDX 85 56 79 57 80 58 83 59 81 60 60 61 61 62 69 63 62 64 63 65
REMARK SMILES IDX 67 66 70 67 64 68 65 69 68 70 66 71 6 72 7 73 8 74 9 76
REMARK SMILES IDX 10 77 25 78 33 79 26 80 28 81 32 82 27 83 29 84 31 85 30 86
REMARK SMILES IDX 11 87 12 88 13 90 14 91 15 92 24 93 16 94 23 95 17 96 18 97
REMARK SMILES IDX 19 98 20 99 21 100 22 101
REMARK H PARENT 3 6 90 24 58 35 7 75 11 89
REMARK Flexibility Score: inf
ROOT
ATOM      1  C   UNL A   1      37.625  19.968  24.666  1.00  0.00     0.042 C 
ENDROOT
BRANCH   1   2
ATOM      2  C   UNL A   1      39.304  19.522  25.894  1.00  0.00     0.118 C 
BRANCH   2   3
ATOM      3  N   UNL A   1      40.702  18.911  25.773  1.00  0.00    -0.352 N 
ATOM      4  O   UNL A   1      42.699  18.377  26.697  1.00  0.00    -0.269 OA
ATOM      5  C   UNL A   1      41.878  19.262  26.455  1.00  0.00     0.251 C 
ATOM      6  H   UNL A   1      40.791  18.171  25.128  1.00  0.00     0.163 HD
BRANCH   5   7
ATOM      7  C   UNL A   1      42.273  20.678  26.731  1.00  0.00     0.039 A 
ATOM      8  C   UNL A   1      42.545  21.211  27.991  1.00  0.00     0.014 A 
ATOM      9  C   UNL A   1      42.382  21.523  25.617  1.00  0.00     0.014 A 
ATOM     10  C   UNL A   1      42.691  22.603  28.153  1.00  0.00     0.010 A 
ATOM     11  C   UNL A   1      42.552  22.905  25.766  1.00  0.00     0.010 A 
ATOM     12  C   UNL A   1      42.680  23.468  27.040  1.00  0.00    -0.014 A 
BRANCH  12  13
ATOM     13  C   UNL A   1      43.155  24.873  27.157  1.00  0.00     0.031 A 
ATOM     14  C   UNL A   1      44.576  25.311  26.915  1.00  0.00     0.074 A 
ATOM     15  C   UNL A   1      42.248  25.744  27.640  1.00  0.00     0.049 A 
ATOM     16  N   UNL A   1      45.099  26.506  27.075  1.00  0.00    -0.248 NA
ATOM     17  C   UNL A   1      45.534  24.302  26.444  1.00  0.00     0.031 C 
ATOM     18  C   UNL A   1      40.864  25.395  27.977  1.00  0.00     0.029 A 
ATOM     19  N   UNL A   1      42.346  27.068  27.975  1.00  0.00    -0.354 N 
ATOM     20  C   UNL A   1      46.442  26.397  26.727  1.00  0.00     0.074 A 
ATOM     21  C   UNL A   1      46.658  25.011  26.357  1.00  0.00     0.031 C 
ATOM     22  C   UNL A   1      40.247  26.467  28.483  1.00  0.00     0.029 A 
ATOM     23  C   UNL A   1      41.202  27.563  28.553  1.00  0.00     0.049 A 
ATOM     24  H   UNL A   1      43.154  27.610  27.818  1.00  0.00     0.167 HD
ATOM     25  C   UNL A   1      47.391  27.368  26.727  1.00  0.00     0.037 A 
ATOM     26  C   UNL A   1      40.952  28.754  29.119  1.00  0.00     0.037 A 
ATOM     27  C   UNL A   1      47.154  28.741  27.122  1.00  0.00     0.049 A 
ATOM     28  C   UNL A   1      42.032  29.791  29.123  1.00  0.00     0.074 A 
ATOM     29  C   UNL A   1      48.022  29.820  27.062  1.00  0.00     0.029 A 
ATOM     30  N   UNL A   1      45.975  29.215  27.679  1.00  0.00    -0.354 N 
ATOM     31  N   UNL A   1      43.256  29.709  28.666  1.00  0.00    -0.248 NA
ATOM     32  C   UNL A   1      41.691  31.092  29.710  1.00  0.00     0.031 C 
ATOM     33  C   UNL A   1      47.397  30.923  27.652  1.00  0.00     0.029 A 
ATOM     34  C   UNL A   1      46.113  30.555  28.016  1.00  0.00     0.049 A 
ATOM     35  H   UNL A   1      45.160  28.680  27.816  1.00  0.00     0.167 HD
ATOM     36  C   UNL A   1      43.829  30.949  28.894  1.00  0.00     0.074 A 
ATOM     37  C   UNL A   1      42.805  31.777  29.499  1.00  0.00     0.031 C 
ATOM     38  C   UNL A   1      45.092  31.363  28.633  1.00  0.00     0.037 A 
BRANCH  25  39
ATOM     39  C   UNL A   1      48.795  27.025  26.296  1.00  0.00     0.064 A 
ATOM     40  C   UNL A   1      49.711  26.435  27.179  1.00  0.00     0.173 A 
ATOM     41  C   UNL A   1      49.170  27.132  24.945  1.00  0.00     0.173 A 
ATOM     42  F   UNL A   1      49.403  26.290  28.476  1.00  0.00    -0.203 F 
ATOM     43  C   UNL A   1      50.949  25.970  26.729  1.00  0.00     0.198 A 
ATOM     44  C   UNL A   1      50.398  26.645  24.495  1.00  0.00     0.198 A 
ATOM     45  F   UNL A   1      48.325  27.662  24.048  1.00  0.00    -0.203 F 
ATOM     46  F   UNL A   1      51.808  25.412  27.593  1.00  0.00    -0.200 F 
ATOM     47  C   UNL A   1      51.285  26.065  25.387  1.00  0.00     0.200 A 
ATOM     48  F   UNL A   1      50.708  26.712  23.193  1.00  0.00    -0.200 F 
ATOM     49  F   UNL A   1      52.460  25.587  24.952  1.00  0.00    -0.200 F 
ENDBRANCH  25  39
BRANCH  26  50
ATOM     50  C   UNL A   1      39.625  29.010  29.733  1.00  0.00     0.064 A 
ATOM     51  C   UNL A   1      38.578  29.553  28.981  1.00  0.00     0.173 A 
ATOM     52  C   UNL A   1      39.374  28.700  31.079  1.00  0.00     0.173 A 
ATOM     53  F   UNL A   1      38.773  29.869  27.691  1.00  0.00    -0.203 F 
ATOM     54  C   UNL A   1      37.339  29.814  29.560  1.00  0.00     0.198 A 
ATOM     55  C   UNL A   1      38.123  28.924  31.646  1.00  0.00     0.198 A 
ATOM     56  F   UNL A   1      40.339  28.157  31.837  1.00  0.00    -0.203 F 
ATOM     57  F   UNL A   1      36.372  30.390  28.833  1.00  0.00    -0.200 F 
ATOM     58  C   UNL A   1      37.111  29.495  30.890  1.00  0.00     0.200 A 
ATOM     59  F   UNL A   1      37.899  28.588  32.924  1.00  0.00    -0.200 F 
ATOM     60  F   UNL A   1      35.918  29.742  31.445  1.00  0.00    -0.200 F 
ENDBRANCH  26  50
BRANCH  38  61
ATOM     61  C   UNL A   1      45.424  32.782  28.997  1.00  0.00     0.064 A 
ATOM     62  C   UNL A   1      45.896  33.119  30.274  1.00  0.00     0.173 A 
ATOM     63  C   UNL A   1      45.269  33.814  28.061  1.00  0.00     0.173 A 
ATOM     64  F   UNL A   1      46.038  32.171  31.214  1.00  0.00    -0.203 F 
ATOM     65  C   UNL A   1      46.166  34.442  30.612  1.00  0.00     0.198 A 
ATOM     66  C   UNL A   1      45.575  35.131  28.390  1.00  0.00     0.198 A 
ATOM     67  F   UNL A   1      44.822  33.546  26.824  1.00  0.00    -0.203 F 
ATOM     68  F   UNL A   1      46.552  34.748  31.859  1.00  0.00    -0.200 F 
ATOM     69  C   UNL A   1      46.013  35.445  29.668  1.00  0.00     0.200 A 
ATOM     70  F   UNL A   1      45.440  36.098  27.473  1.00  0.00    -0.200 F 
ATOM     71  F   UNL A   1      46.276  36.719  29.993  1.00  0.00    -0.200 F 
ENDBRANCH  38  61
ENDBRANCH  12  13
ENDBRANCH   5   7
ENDBRANCH   2   3
ENDBRANCH   1   2
BRANCH   1  72
ATOM     72  C   UNL A   1      37.054  21.640  24.001  1.00  0.00     0.117 C 
BRANCH  72  73
ATOM     73  N   UNL A   1      37.219  23.004  24.800  1.00  0.00    -0.354 N 
ATOM     74  C   UNL A   1      36.429  23.758  25.678  1.00  0.00     0.250 C 
ATOM     75  H   UNL A   1      38.095  23.423  24.637  1.00  0.00     0.163 HD
ATOM     76  O   UNL A   1      36.983  24.513  26.475  1.00  0.00    -0.272 OA
BRANCH  74  77
ATOM     77  C   UNL A   1      34.942  23.773  25.366  1.00  0.00     0.145 C 
ATOM     78  C   UNL A   1      34.318  23.372  26.739  1.00  0.00     0.044 C 
ATOM     79  C   UNL A   1      34.241  22.934  24.261  1.00  0.00    -0.010 A 
ATOM     80  C   UNL A   1      34.477  21.860  26.938  1.00  0.00     0.008 C 
ATOM     81  C   UNL A   1      33.532  21.754  24.590  1.00  0.00    -0.042 A 
ATOM     82  C   UNL A   1      34.007  23.448  22.961  1.00  0.00     0.007 A 
ATOM     83  C   UNL A   1      33.596  21.112  25.954  1.00  0.00     0.036 C 
ATOM     84  C   UNL A   1      32.613  21.183  23.679  1.00  0.00     0.004 A 
ATOM     85  C   UNL A   1      33.048  22.912  22.092  1.00  0.00     0.000 A 
ATOM     86  C   UNL A   1      32.345  21.779  22.454  1.00  0.00     0.000 A 
BRANCH  77  87
ATOM     87  N   UNL A   1      34.759  25.173  25.081  1.00  0.00    -0.338 N 
ATOM     88  C   UNL A   1      33.706  25.894  25.536  1.00  0.00     0.224 C 
ATOM     89  H   UNL A   1      35.432  25.629  24.527  1.00  0.00     0.164 HD
ATOM     90  O   UNL A   1      34.135  26.919  26.091  1.00  0.00    -0.275 OA
BRANCH  88  91
ATOM     91  C   UNL A   1      31.998  25.638  25.292  1.00  0.00     0.082 C 
ATOM     92  C   UNL A   1      30.933  25.261  23.606  1.00  0.00     0.035 C 
ATOM     93  C   UNL A   1      31.670  27.394  26.008  1.00  0.00     0.035 C 
ATOM     94  C   UNL A   1      30.452  26.843  22.456  1.00  0.00     0.120 C 
ATOM     95  C   UNL A   1      31.391  28.784  24.819  1.00  0.00     0.120 C 
ATOM     96  N   UNL A   1      30.496  28.504  23.319  1.00  0.00    -0.342 N 
ATOM     97  C   UNL A   1      29.778  29.591  22.802  1.00  0.00     0.225 C 
ATOM     98  O   UNL A   1      29.532  29.637  21.597  1.00  0.00    -0.275 OA
BRANCH  97  99
ATOM     99  C   UNL A   1      29.130  30.668  23.678  1.00  0.00     0.079 C 
ATOM    100  C   UNL A   1      28.876  32.148  23.442  1.00  0.00     0.014 C 
ATOM    101  C   UNL A   1      27.723  31.195  23.577  1.00  0.00     0.014 C 
ENDBRANCH  97  99
ENDBRANCH  88  91
ENDBRANCH  77  87
ENDBRANCH  74  77
ENDBRANCH  72  73
ENDBRANCH   1  72
TORSDOF 13
ENDMDL
