MODEL 1
REMARK VINA RESULT:     -10.5      0.000      0.000
REMARK SMILES C[C@H](C(=O)NCCCNC(=O)c1ccc(-c2c3nc(c(-c4c(F)c(F)c(F)c(F)c4F)c4ccc([nH]4)c(-c4c(F)c(F)c(F)c(F)c4F)c4nc(c(-c5c(F)c(F)c(F)c(F)c5F)c5ccc2[nH]5)C=C4)C=C3)cc1)c1ccc2c(c1)[nH]c1ccc(Cl)cc12
REMARK SMILES IDX 7 1 6 2 5 3 3 4 4 5 2 7 1 8 75 9 76 10 80 11 77 12 79 13
REMARK SMILES IDX 78 14 81 15 88 16 82 17 87 19 83 20 85 21 84 22 86 23 8 24
REMARK SMILES IDX 9 25 10 26 11 28 12 29 13 30 74 31 14 32 73 33 15 34 16 35
REMARK SMILES IDX 17 36 67 37 18 38 72 39 66 40 68 41 19 42 71 43 65 44 64 45
REMARK SMILES IDX 20 47 52 48 32 49 51 50 33 51 36 52 50 53 69 54 34 55 35 56
REMARK SMILES IDX 49 58 70 59 37 60 21 61 22 62 30 63 23 64 24 65 28 66 31 67
REMARK SMILES IDX 25 68 26 69 29 70 27 71 53 72 54 73 62 74 55 75 56 76 60 77
REMARK SMILES IDX 63 78 57 79 58 80 61 81 59 82 38 83 39 84 47 85 40 86 41 87
REMARK SMILES IDX 45 88 48 89 42 90 43 91 46 92 44 93
REMARK H PARENT 5 6 81 18 9 27 68 46 36 57
REMARK Flexibility Score: inf
ROOT
ATOM      1  C   UNL A   1      32.519  36.260  31.406  1.00  0.00     0.042 C 
ENDROOT
BRANCH   1   2
ATOM      2  C   UNL A   1      33.299  36.382  32.716  1.00  0.00     0.117 C 
BRANCH   2   3
ATOM      3  N   UNL A   1      34.736  36.249  32.546  1.00  0.00    -0.356 N 
ATOM      4  C   UNL A   1      35.595  35.309  33.047  1.00  0.00     0.227 C 
ATOM      5  O   UNL A   1      36.786  35.418  32.746  1.00  0.00    -0.274 OA
ATOM      6  H   UNL A   1      35.155  36.941  31.985  1.00  0.00     0.163 HD
BRANCH   4   7
ATOM      7  C   UNL A   1      35.071  34.173  33.942  1.00  0.00     0.105 C 
ATOM      8  C   UNL A   1      33.928  33.416  33.261  1.00  0.00     0.023 C 
BRANCH   7   9
ATOM      9  C   UNL A   1      36.173  33.202  34.342  1.00  0.00    -0.034 A 
ATOM     10  C   UNL A   1      36.969  33.479  35.462  1.00  0.00     0.005 A 
ATOM     11  C   UNL A   1      36.432  32.059  33.564  1.00  0.00     0.031 A 
ATOM     12  C   UNL A   1      38.078  32.685  35.776  1.00  0.00     0.011 A 
ATOM     13  C   UNL A   1      37.568  31.302  33.872  1.00  0.00     0.047 A 
ATOM     14  C   UNL A   1      38.406  31.597  34.944  1.00  0.00     0.007 A 
ATOM     15  N   UNL A   1      38.101  30.211  33.228  1.00  0.00    -0.355 N 
ATOM     16  C   UNL A   1      39.495  30.669  34.903  1.00  0.00     0.009 A 
ATOM     17  C   UNL A   1      39.298  29.843  33.796  1.00  0.00     0.047 A 
ATOM     18  H   UNL A   1      37.683  29.755  32.462  1.00  0.00     0.167 HD
ATOM     19  C   UNL A   1      40.652  30.485  35.687  1.00  0.00     0.031 A 
ATOM     20  C   UNL A   1      40.210  28.855  33.413  1.00  0.00     0.028 A 
ATOM     21  C   UNL A   1      41.572  29.500  35.314  1.00  0.00     0.041 A 
ATOM     22  C   UNL A   1      41.361  28.703  34.193  1.00  0.00     0.022 A 
ATOM     23  Cl  UNL A   1      43.002  29.286  36.252  1.00  0.00    -0.084 Cl
ENDBRANCH   7   9
ENDBRANCH   4   7
ENDBRANCH   2   3
ENDBRANCH   1   2
BRANCH   1  24
ATOM     24  C   UNL A   1      33.373  36.145  30.147  1.00  0.00     0.118 C 
BRANCH  24  25
ATOM     25  N   UNL A   1      32.828  35.205  29.182  1.00  0.00    -0.352 N 
ATOM     26  C   UNL A   1      33.396  34.133  28.541  1.00  0.00     0.251 C 
ATOM     27  H   UNL A   1      31.885  35.364  28.947  1.00  0.00     0.163 HD
ATOM     28  O   UNL A   1      32.776  33.600  27.624  1.00  0.00    -0.269 OA
BRANCH  26  29
ATOM     29  C   UNL A   1      34.734  33.607  28.910  1.00  0.00     0.039 A 
ATOM     30  C   UNL A   1      34.811  32.708  29.981  1.00  0.00     0.014 A 
ATOM     31  C   UNL A   1      35.912  34.038  28.293  1.00  0.00     0.014 A 
ATOM     32  C   UNL A   1      36.048  32.211  30.399  1.00  0.00     0.010 A 
ATOM     33  C   UNL A   1      37.145  33.495  28.670  1.00  0.00     0.010 A 
ATOM     34  C   UNL A   1      37.227  32.581  29.731  1.00  0.00    -0.014 A 
BRANCH  34  35
ATOM     35  C   UNL A   1      38.533  31.995  30.135  1.00  0.00     0.031 A 
ATOM     36  C   UNL A   1      39.430  32.703  31.114  1.00  0.00     0.074 A 
ATOM     37  C   UNL A   1      38.925  30.824  29.598  1.00  0.00     0.049 A 
ATOM     38  N   UNL A   1      40.593  32.329  31.590  1.00  0.00    -0.248 NA
ATOM     39  C   UNL A   1      38.973  34.009  31.609  1.00  0.00     0.031 C 
ATOM     40  C   UNL A   1      38.175  30.065  28.596  1.00  0.00     0.029 A 
ATOM     41  N   UNL A   1      40.048  30.067  29.818  1.00  0.00    -0.354 N 
ATOM     42  C   UNL A   1      41.006  33.351  32.433  1.00  0.00     0.074 A 
ATOM     43  C   UNL A   1      39.994  34.385  32.367  1.00  0.00     0.031 C 
ATOM     44  C   UNL A   1      38.845  28.938  28.307  1.00  0.00     0.029 A 
ATOM     45  C   UNL A   1      40.080  28.905  29.084  1.00  0.00     0.049 A 
ATOM     46  H   UNL A   1      40.763  30.330  30.442  1.00  0.00     0.167 HD
ATOM     47  C   UNL A   1      42.116  33.415  33.209  1.00  0.00     0.037 A 
ATOM     48  C   UNL A   1      40.999  27.923  29.045  1.00  0.00     0.037 A 
ATOM     49  C   UNL A   1      43.117  32.382  33.290  1.00  0.00     0.049 A 
ATOM     50  C   UNL A   1      42.210  28.006  29.931  1.00  0.00     0.074 A 
ATOM     51  C   UNL A   1      44.249  32.333  34.085  1.00  0.00     0.029 A 
ATOM     52  N   UNL A   1      43.105  31.211  32.545  1.00  0.00    -0.354 N 
ATOM     53  N   UNL A   1      42.554  28.949  30.776  1.00  0.00    -0.248 NA
ATOM     54  C   UNL A   1      43.155  26.883  29.868  1.00  0.00     0.031 C 
ATOM     55  C   UNL A   1      44.942  31.152  33.796  1.00  0.00     0.029 A 
ATOM     56  C   UNL A   1      44.219  30.444  32.850  1.00  0.00     0.049 A 
ATOM     57  H   UNL A   1      42.409  30.962  31.896  1.00  0.00     0.167 HD
ATOM     58  C   UNL A   1      43.744  28.527  31.352  1.00  0.00     0.074 A 
ATOM     59  C   UNL A   1      44.049  27.232  30.782  1.00  0.00     0.031 C 
ATOM     60  C   UNL A   1      44.517  29.160  32.269  1.00  0.00     0.037 A 
BRANCH  47  61
ATOM     61  C   UNL A   1      42.307  34.648  34.045  1.00  0.00     0.064 A 
ATOM     62  C   UNL A   1      41.928  34.682  35.395  1.00  0.00     0.173 A 
ATOM     63  C   UNL A   1      42.917  35.791  33.506  1.00  0.00     0.173 A 
ATOM     64  F   UNL A   1      41.333  33.620  35.957  1.00  0.00    -0.203 F 
ATOM     65  C   UNL A   1      42.128  35.825  36.167  1.00  0.00     0.198 A 
ATOM     66  C   UNL A   1      43.140  36.922  34.288  1.00  0.00     0.198 A 
ATOM     67  F   UNL A   1      43.306  35.809  32.222  1.00  0.00    -0.203 F 
ATOM     68  F   UNL A   1      41.717  35.848  37.443  1.00  0.00    -0.200 F 
ATOM     69  C   UNL A   1      42.739  36.940  35.615  1.00  0.00     0.200 A 
ATOM     70  F   UNL A   1      43.741  37.995  33.757  1.00  0.00    -0.200 F 
ATOM     71  F   UNL A   1      42.937  38.035  36.361  1.00  0.00    -0.200 F 
ENDBRANCH  47  61
BRANCH  48  72
ATOM     72  C   UNL A   1      40.787  26.753  28.155  1.00  0.00     0.064 A 
ATOM     73  C   UNL A   1      41.538  26.597  26.982  1.00  0.00     0.173 A 
ATOM     74  C   UNL A   1      39.837  25.769  28.460  1.00  0.00     0.173 A 
ATOM     75  F   UNL A   1      42.443  27.525  26.637  1.00  0.00    -0.203 F 
ATOM     76  C   UNL A   1      41.334  25.507  26.138  1.00  0.00     0.198 A 
ATOM     77  C   UNL A   1      39.652  24.665  27.629  1.00  0.00     0.198 A 
ATOM     78  F   UNL A   1      39.096  25.874  29.573  1.00  0.00    -0.203 F 
ATOM     79  F   UNL A   1      42.036  25.403  25.001  1.00  0.00    -0.200 F 
ATOM     80  C   UNL A   1      40.396  24.539  26.466  1.00  0.00     0.200 A 
ATOM     81  F   UNL A   1      38.752  23.729  27.953  1.00  0.00    -0.200 F 
ATOM     82  F   UNL A   1      40.203  23.491  25.655  1.00  0.00    -0.200 F 
ENDBRANCH  48  72
BRANCH  60  83
ATOM     83  C   UNL A   1      45.762  28.452  32.714  1.00  0.00     0.064 A 
ATOM     84  C   UNL A   1      47.012  28.736  32.141  1.00  0.00     0.173 A 
ATOM     85  C   UNL A   1      45.711  27.488  33.732  1.00  0.00     0.173 A 
ATOM     86  F   UNL A   1      47.110  29.639  31.153  1.00  0.00    -0.203 F 
ATOM     87  C   UNL A   1      48.157  28.059  32.549  1.00  0.00     0.198 A 
ATOM     88  C   UNL A   1      46.863  26.832  34.156  1.00  0.00     0.198 A 
ATOM     89  F   UNL A   1      44.542  27.184  34.317  1.00  0.00    -0.203 F 
ATOM     90  F   UNL A   1      49.330  28.309  31.951  1.00  0.00    -0.200 F 
ATOM     91  C   UNL A   1      48.082  27.111  33.558  1.00  0.00     0.200 A 
ATOM     92  F   UNL A   1      46.792  25.923  35.139  1.00  0.00    -0.200 F 
ATOM     93  F   UNL A   1      49.185  26.458  33.949  1.00  0.00    -0.200 F 
ENDBRANCH  60  83
ENDBRANCH  34  35
ENDBRANCH  26  29
ENDBRANCH  24  25
ENDBRANCH   1  24
TORSDOF 11
ENDMDL
MODEL 2
REMARK VINA RESULT:     -10.2      5.066     10.328
REMARK SMILES C[C@H](C(=O)NCCCNC(=O)c1ccc(-c2c3nc(c(-c4c(F)c(F)c(F)c(F)c4F)c4ccc([nH]4)c(-c4c(F)c(F)c(F)c(F)c4F)c4nc(c(-c5c(F)c(F)c(F)c(F)c5F)c5ccc2[nH]5)C=C4)C=C3)cc1)c1ccc2c(c1)[nH]c1ccc(Cl)cc12
REMARK SMILES IDX 7 1 6 2 5 3 3 4 4 5 2 7 1 8 75 9 76 10 80 11 77 12 79 13
REMARK SMILES IDX 78 14 81 15 88 16 82 17 87 19 83 20 85 21 84 22 86 23 8 24
REMARK SMILES IDX 9 25 10 26 11 28 12 29 13 30 74 31 14 32 73 33 15 34 16 35
REMARK SMILES IDX 17 36 67 37 18 38 72 39 66 40 68 41 19 42 71 43 65 44 64 45
REMARK SMILES IDX 20 47 52 48 32 49 51 50 33 51 36 52 50 53 69 54 34 55 35 56
REMARK SMILES IDX 49 58 70 59 37 60 21 61 22 62 30 63 23 64 24 65 28 66 31 67
REMARK SMILES IDX 25 68 26 69 29 70 27 71 53 72 54 73 62 74 55 75 56 76 60 77
REMARK SMILES IDX 63 78 57 79 58 80 61 81 59 82 38 83 39 84 47 85 40 86 41 87
REMARK SMILES IDX 45 88 48 89 42 90 43 91 46 92 44 93
REMARK H PARENT 5 6 81 18 9 27 68 46 36 57
REMARK Flexibility Score: inf
ROOT
ATOM      1  C   UNL A   1      35.401  22.467  26.399  1.00  0.00     0.042 C 
ENDROOT
BRANCH   1   2
ATOM      2  C   UNL A   1      35.314  21.161  25.609  1.00  0.00     0.117 C 
BRANCH   2   3
ATOM      3  N   UNL A   1      33.988  20.566  25.623  1.00  0.00    -0.356 N 
ATOM      4  C   UNL A   1      32.937  20.747  24.766  1.00  0.00     0.227 C 
ATOM      5  O   UNL A   1      31.905  20.112  24.997  1.00  0.00    -0.274 OA
ATOM      6  H   UNL A   1      33.820  19.938  26.362  1.00  0.00     0.163 HD
BRANCH   4   7
ATOM      7  C   UNL A   1      33.064  21.706  23.569  1.00  0.00     0.105 C 
ATOM      8  C   UNL A   1      31.969  21.441  22.532  1.00  0.00     0.023 C 
BRANCH   7   9
ATOM      9  C   UNL A   1      33.032  23.167  23.997  1.00  0.00    -0.034 A 
ATOM     10  C   UNL A   1      34.053  24.033  23.584  1.00  0.00     0.005 A 
ATOM     11  C   UNL A   1      32.015  23.637  24.848  1.00  0.00     0.031 A 
ATOM     12  C   UNL A   1      34.132  25.343  24.071  1.00  0.00     0.011 A 
ATOM     13  C   UNL A   1      32.136  24.937  25.354  1.00  0.00     0.047 A 
ATOM     14  C   UNL A   1      33.176  25.792  25.003  1.00  0.00     0.007 A 
ATOM     15  N   UNL A   1      31.352  25.604  26.263  1.00  0.00    -0.355 N 
ATOM     16  C   UNL A   1      33.020  26.992  25.766  1.00  0.00     0.009 A 
ATOM     17  C   UNL A   1      31.895  26.829  26.575  1.00  0.00     0.047 A 
ATOM     18  H   UNL A   1      30.513  25.254  26.643  1.00  0.00     0.167 HD
ATOM     19  C   UNL A   1      33.760  28.188  25.871  1.00  0.00     0.031 A 
ATOM     20  C   UNL A   1      31.481  27.788  27.504  1.00  0.00     0.028 A 
ATOM     21  C   UNL A   1      33.356  29.155  26.796  1.00  0.00     0.041 A 
ATOM     22  C   UNL A   1      32.240  28.958  27.606  1.00  0.00     0.022 A 
ATOM     23  Cl  UNL A   1      34.269  30.609  26.949  1.00  0.00    -0.084 Cl
ENDBRANCH   7   9
ENDBRANCH   4   7
ENDBRANCH   2   3
ENDBRANCH   1   2
BRANCH   1  24
ATOM     24  C   UNL A   1      36.657  23.297  26.151  1.00  0.00     0.118 C 
BRANCH  24  25
ATOM     25  N   UNL A   1      37.864  22.488  26.100  1.00  0.00    -0.352 N 
ATOM     26  C   UNL A   1      39.179  22.808  26.323  1.00  0.00     0.251 C 
ATOM     27  H   UNL A   1      37.711  21.544  25.864  1.00  0.00     0.163 HD
ATOM     28  O   UNL A   1      40.042  21.982  26.036  1.00  0.00    -0.269 OA
BRANCH  26  29
ATOM     29  C   UNL A   1      39.591  24.118  26.886  1.00  0.00     0.039 A 
ATOM     30  C   UNL A   1      39.323  24.362  28.240  1.00  0.00     0.014 A 
ATOM     31  C   UNL A   1      40.150  25.134  26.106  1.00  0.00     0.014 A 
ATOM     32  C   UNL A   1      39.651  25.592  28.814  1.00  0.00     0.010 A 
ATOM     33  C   UNL A   1      40.536  26.344  26.695  1.00  0.00     0.010 A 
ATOM     34  C   UNL A   1      40.285  26.588  28.053  1.00  0.00    -0.014 A 
BRANCH  34  35
ATOM     35  C   UNL A   1      40.696  27.869  28.687  1.00  0.00     0.031 A 
ATOM     36  C   UNL A   1      42.119  28.098  29.119  1.00  0.00     0.074 A 
ATOM     37  C   UNL A   1      39.773  28.827  28.896  1.00  0.00     0.049 A 
ATOM     38  N   UNL A   1      42.655  29.160  29.671  1.00  0.00    -0.248 NA
ATOM     39  C   UNL A   1      43.059  26.985  28.924  1.00  0.00     0.031 C 
ATOM     40  C   UNL A   1      38.350  28.709  28.575  1.00  0.00     0.029 A 
ATOM     41  N   UNL A   1      39.893  30.088  29.424  1.00  0.00    -0.354 N 
ATOM     42  C   UNL A   1      43.988  28.841  29.893  1.00  0.00     0.074 A 
ATOM     43  C   UNL A   1      44.171  27.471  29.461  1.00  0.00     0.031 C 
ATOM     44  C   UNL A   1      37.733  29.859  28.888  1.00  0.00     0.029 A 
ATOM     45  C   UNL A   1      38.709  30.786  29.453  1.00  0.00     0.049 A 
ATOM     46  H   UNL A   1      40.744  30.458  29.752  1.00  0.00     0.167 HD
ATOM     47  C   UNL A   1      44.976  29.626  30.390  1.00  0.00     0.037 A 
ATOM     48  C   UNL A   1      38.441  32.033  29.881  1.00  0.00     0.037 A 
ATOM     49  C   UNL A   1      44.802  30.995  30.805  1.00  0.00     0.049 A 
ATOM     50  C   UNL A   1      39.559  32.890  30.408  1.00  0.00     0.074 A 
ATOM     51  C   UNL A   1      45.753  31.885  31.273  1.00  0.00     0.029 A 
ATOM     52  N   UNL A   1      43.592  31.673  30.801  1.00  0.00    -0.354 N 
ATOM     53  N   UNL A   1      40.830  32.599  30.548  1.00  0.00    -0.248 NA
ATOM     54  C   UNL A   1      39.207  34.255  30.824  1.00  0.00     0.031 C 
ATOM     55  C   UNL A   1      45.114  33.089  31.588  1.00  0.00     0.029 A 
ATOM     56  C   UNL A   1      43.770  32.964  31.276  1.00  0.00     0.049 A 
ATOM     57  H   UNL A   1      42.733  31.294  30.506  1.00  0.00     0.167 HD
ATOM     58  C   UNL A   1      41.428  33.744  31.054  1.00  0.00     0.074 A 
ATOM     59  C   UNL A   1      40.388  34.744  31.171  1.00  0.00     0.031 C 
ATOM     60  C   UNL A   1      42.725  33.946  31.396  1.00  0.00     0.037 A 
BRANCH  47  61
ATOM     61  C   UNL A   1      46.346  29.022  30.508  1.00  0.00     0.064 A 
ATOM     62  C   UNL A   1      46.759  28.368  31.679  1.00  0.00     0.173 A 
ATOM     63  C   UNL A   1      47.239  29.056  29.426  1.00  0.00     0.173 A 
ATOM     64  F   UNL A   1      45.947  28.316  32.745  1.00  0.00    -0.203 F 
ATOM     65  C   UNL A   1      48.025  27.795  31.771  1.00  0.00     0.198 A 
ATOM     66  C   UNL A   1      48.494  28.456  29.512  1.00  0.00     0.198 A 
ATOM     67  F   UNL A   1      46.891  29.661  28.280  1.00  0.00    -0.203 F 
ATOM     68  F   UNL A   1      48.413  27.214  32.915  1.00  0.00    -0.200 F 
ATOM     69  C   UNL A   1      48.888  27.833  30.686  1.00  0.00     0.200 A 
ATOM     70  F   UNL A   1      49.322  28.484  28.459  1.00  0.00    -0.200 F 
ATOM     71  F   UNL A   1      50.103  27.274  30.774  1.00  0.00    -0.200 F 
ENDBRANCH  47  61
BRANCH  48  72
ATOM     72  C   UNL A   1      37.056  32.559  29.796  1.00  0.00     0.064 A 
ATOM     73  C   UNL A   1      36.619  33.255  28.659  1.00  0.00     0.173 A 
ATOM     74  C   UNL A   1      36.141  32.375  30.842  1.00  0.00     0.173 A 
ATOM     75  F   UNL A   1      37.466  33.475  27.643  1.00  0.00    -0.203 F 
ATOM     76  C   UNL A   1      35.324  33.761  28.580  1.00  0.00     0.198 A 
ATOM     77  C   UNL A   1      34.837  32.859  30.751  1.00  0.00     0.198 A 
ATOM     78  F   UNL A   1      36.511  31.714  31.948  1.00  0.00    -0.203 F 
ATOM     79  F   UNL A   1      34.945  34.459  27.501  1.00  0.00    -0.200 F 
ATOM     80  C   UNL A   1      34.432  33.557  29.623  1.00  0.00     0.200 A 
ATOM     81  F   UNL A   1      33.976  32.653  31.755  1.00  0.00    -0.200 F 
ATOM     82  F   UNL A   1      33.186  34.042  29.544  1.00  0.00    -0.200 F 
ENDBRANCH  48  72
BRANCH  60  83
ATOM     83  C   UNL A   1      43.086  35.305  31.921  1.00  0.00     0.064 A 
ATOM     84  C   UNL A   1      43.610  36.300  31.081  1.00  0.00     0.173 A 
ATOM     85  C   UNL A   1      42.894  35.622  33.274  1.00  0.00     0.173 A 
ATOM     86  F   UNL A   1      43.826  36.040  29.782  1.00  0.00    -0.203 F 
ATOM     87  C   UNL A   1      43.959  37.550  31.583  1.00  0.00     0.198 A 
ATOM     88  C   UNL A   1      43.219  36.883  33.767  1.00  0.00     0.198 A 
ATOM     89  F   UNL A   1      42.390  34.709  34.118  1.00  0.00    -0.203 F 
ATOM     90  F   UNL A   1      44.508  38.466  30.773  1.00  0.00    -0.200 F 
ATOM     91  C   UNL A   1      43.760  37.841  32.924  1.00  0.00     0.200 A 
ATOM     92  F   UNL A   1      43.017  37.167  35.062  1.00  0.00    -0.200 F 
ATOM     93  F   UNL A   1      44.098  39.045  33.407  1.00  0.00    -0.200 F 
ENDBRANCH  60  83
ENDBRANCH  34  35
ENDBRANCH  26  29
ENDBRANCH  24  25
ENDBRANCH   1  24
TORSDOF 11
ENDMDL
MODEL 3
REMARK VINA RESULT:     -10.1      3.777      7.180
REMARK SMILES C[C@H](C(=O)NCCCNC(=O)c1ccc(-c2c3nc(c(-c4c(F)c(F)c(F)c(F)c4F)c4ccc([nH]4)c(-c4c(F)c(F)c(F)c(F)c4F)c4nc(c(-c5c(F)c(F)c(F)c(F)c5F)c5ccc2[nH]5)C=C4)C=C3)cc1)c1ccc2c(c1)[nH]c1ccc(Cl)cc12
REMARK SMILES IDX 7 1 6 2 5 3 3 4 4 5 2 7 1 8 75 9 76 10 80 11 77 12 79 13
REMARK SMILES IDX 78 14 81 15 88 16 82 17 87 19 83 20 85 21 84 22 86 23 8 24
REMARK SMILES IDX 9 25 10 26 11 28 12 29 13 30 74 31 14 32 73 33 15 34 16 35
REMARK SMILES IDX 17 36 67 37 18 38 72 39 66 40 68 41 19 42 71 43 65 44 64 45
REMARK SMILES IDX 20 47 52 48 32 49 51 50 33 51 36 52 50 53 69 54 34 55 35 56
REMARK SMILES IDX 49 58 70 59 37 60 21 61 22 62 30 63 23 64 24 65 28 66 31 67
REMARK SMILES IDX 25 68 26 69 29 70 27 71 53 72 54 73 62 74 55 75 56 76 60 77
REMARK SMILES IDX 63 78 57 79 58 80 61 81 59 82 38 83 39 84 47 85 40 86 41 87
REMARK SMILES IDX 45 88 48 89 42 90 43 91 46 92 44 93
REMARK H PARENT 5 6 81 18 9 27 68 46 36 57
REMARK Flexibility Score: inf
ROOT
ATOM      1  C   UNL A   1      32.999  27.607  25.925  1.00  0.00     0.042 C 
ENDROOT
BRANCH   1   2
ATOM      2  C   UNL A   1      33.691  26.261  25.709  1.00  0.00     0.117 C 
BRANCH   2   3
ATOM      3  N   UNL A   1      33.926  25.952  24.309  1.00  0.00    -0.356 N 
ATOM      4  C   UNL A   1      34.127  24.744  23.699  1.00  0.00     0.227 C 
ATOM      5  O   UNL A   1      34.302  24.751  22.478  1.00  0.00    -0.274 OA
ATOM      6  H   UNL A   1      33.945  26.731  23.708  1.00  0.00     0.163 HD
BRANCH   4   7
ATOM      7  C   UNL A   1      34.128  23.445  24.524  1.00  0.00     0.105 C 
ATOM      8  C   UNL A   1      33.284  22.361  23.847  1.00  0.00     0.023 C 
BRANCH   7   9
ATOM      9  C   UNL A   1      35.536  22.926  24.777  1.00  0.00    -0.034 A 
ATOM     10  C   UNL A   1      35.907  21.663  24.293  1.00  0.00     0.005 A 
ATOM     11  C   UNL A   1      36.448  23.680  25.537  1.00  0.00     0.031 A 
ATOM     12  C   UNL A   1      37.142  21.095  24.625  1.00  0.00     0.011 A 
ATOM     13  C   UNL A   1      37.660  23.077  25.890  1.00  0.00     0.047 A 
ATOM     14  C   UNL A   1      38.021  21.800  25.471  1.00  0.00     0.007 A 
ATOM     15  N   UNL A   1      38.675  23.542  26.693  1.00  0.00    -0.355 N 
ATOM     16  C   UNL A   1      39.276  21.486  26.084  1.00  0.00     0.009 A 
ATOM     17  C   UNL A   1      39.638  22.578  26.873  1.00  0.00     0.047 A 
ATOM     18  H   UNL A   1      38.707  24.444  27.087  1.00  0.00     0.167 HD
ATOM     19  C   UNL A   1      40.116  20.355  26.068  1.00  0.00     0.031 A 
ATOM     20  C   UNL A   1      40.787  22.591  27.672  1.00  0.00     0.028 A 
ATOM     21  C   UNL A   1      41.267  20.355  26.862  1.00  0.00     0.041 A 
ATOM     22  C   UNL A   1      41.595  21.450  27.657  1.00  0.00     0.022 A 
ATOM     23  Cl  UNL A   1      42.286  18.965  26.868  1.00  0.00    -0.084 Cl
ENDBRANCH   7   9
ENDBRANCH   4   7
ENDBRANCH   2   3
ENDBRANCH   1   2
BRANCH   1  24
ATOM     24  C   UNL A   1      33.783  28.827  25.449  1.00  0.00     0.118 C 
BRANCH  24  25
ATOM     25  N   UNL A   1      33.208  30.080  25.912  1.00  0.00    -0.352 N 
ATOM     26  C   UNL A   1      33.565  30.914  26.941  1.00  0.00     0.251 C 
ATOM     27  H   UNL A   1      32.425  30.383  25.397  1.00  0.00     0.163 HD
ATOM     28  O   UNL A   1      32.803  31.829  27.248  1.00  0.00    -0.269 OA
BRANCH  26  29
ATOM     29  C   UNL A   1      34.830  30.744  27.697  1.00  0.00     0.039 A 
ATOM     30  C   UNL A   1      35.032  29.531  28.370  1.00  0.00     0.014 A 
ATOM     31  C   UNL A   1      35.774  31.766  27.834  1.00  0.00     0.014 A 
ATOM     32  C   UNL A   1      36.186  29.329  29.132  1.00  0.00     0.010 A 
ATOM     33  C   UNL A   1      36.958  31.543  28.544  1.00  0.00     0.010 A 
ATOM     34  C   UNL A   1      37.174  30.325  29.206  1.00  0.00    -0.014 A 
BRANCH  34  35
ATOM     35  C   UNL A   1      38.431  30.079  29.961  1.00  0.00     0.031 A 
ATOM     36  C   UNL A   1      38.600  30.577  31.370  1.00  0.00     0.074 A 
ATOM     37  C   UNL A   1      39.441  29.418  29.361  1.00  0.00     0.049 A 
ATOM     38  N   UNL A   1      39.622  30.436  32.180  1.00  0.00    -0.248 NA
ATOM     39  C   UNL A   1      37.487  31.349  31.939  1.00  0.00     0.031 C 
ATOM     40  C   UNL A   1      39.426  28.932  27.981  1.00  0.00     0.029 A 
ATOM     41  N   UNL A   1      40.672  29.040  29.835  1.00  0.00    -0.354 N 
ATOM     42  C   UNL A   1      39.276  31.104  33.348  1.00  0.00     0.074 A 
ATOM     43  C   UNL A   1      37.971  31.692  33.125  1.00  0.00     0.031 C 
ATOM     44  C   UNL A   1      40.581  28.298  27.727  1.00  0.00     0.029 A 
ATOM     45  C   UNL A   1      41.427  28.352  28.915  1.00  0.00     0.049 A 
ATOM     46  H   UNL A   1      40.985  29.242  30.746  1.00  0.00     0.167 HD
ATOM     47  C   UNL A   1      39.972  31.201  34.507  1.00  0.00     0.037 A 
ATOM     48  C   UNL A   1      42.659  27.820  29.020  1.00  0.00     0.037 A 
ATOM     49  C   UNL A   1      41.263  30.603  34.738  1.00  0.00     0.049 A 
ATOM     50  C   UNL A   1      43.400  27.922  30.323  1.00  0.00     0.074 A 
ATOM     51  C   UNL A   1      42.022  30.603  35.895  1.00  0.00     0.029 A 
ATOM     52  N   UNL A   1      41.987  29.897  33.788  1.00  0.00    -0.354 N 
ATOM     53  N   UNL A   1      43.032  28.498  31.442  1.00  0.00    -0.248 NA
ATOM     54  C   UNL A   1      44.724  27.288  30.383  1.00  0.00     0.031 C 
ATOM     55  C   UNL A   1      43.221  29.930  35.636  1.00  0.00     0.029 A 
ATOM     56  C   UNL A   1      43.192  29.474  34.329  1.00  0.00     0.049 A 
ATOM     57  H   UNL A   1      41.690  29.723  32.866  1.00  0.00     0.167 HD
ATOM     58  C   UNL A   1      44.069  28.285  32.339  1.00  0.00     0.074 A 
ATOM     59  C   UNL A   1      45.070  27.503  31.644  1.00  0.00     0.031 C 
ATOM     60  C   UNL A   1      44.184  28.704  33.623  1.00  0.00     0.037 A 
BRANCH  47  61
ATOM     61  C   UNL A   1      39.346  31.980  35.627  1.00  0.00     0.064 A 
ATOM     62  C   UNL A   1      38.481  31.370  36.549  1.00  0.00     0.173 A 
ATOM     63  C   UNL A   1      39.648  33.338  35.811  1.00  0.00     0.173 A 
ATOM     64  F   UNL A   1      38.153  30.077  36.413  1.00  0.00    -0.203 F 
ATOM     65  C   UNL A   1      37.921  32.098  37.597  1.00  0.00     0.198 A 
ATOM     66  C   UNL A   1      39.107  34.055  36.876  1.00  0.00     0.198 A 
ATOM     67  F   UNL A   1      40.476  33.968  34.963  1.00  0.00    -0.203 F 
ATOM     68  F   UNL A   1      37.063  31.504  38.439  1.00  0.00    -0.200 F 
ATOM     69  C   UNL A   1      38.240  33.437  37.763  1.00  0.00     0.200 A 
ATOM     70  F   UNL A   1      39.425  35.346  37.042  1.00  0.00    -0.200 F 
ATOM     71  F   UNL A   1      37.706  34.134  38.775  1.00  0.00    -0.200 F 
ENDBRANCH  47  61
BRANCH  48  72
ATOM     72  C   UNL A   1      43.254  27.110  27.860  1.00  0.00     0.064 A 
ATOM     73  C   UNL A   1      43.160  25.716  27.745  1.00  0.00     0.173 A 
ATOM     74  C   UNL A   1      43.923  27.807  26.845  1.00  0.00     0.173 A 
ATOM     75  F   UNL A   1      42.550  25.004  28.704  1.00  0.00    -0.203 F 
ATOM     76  C   UNL A   1      43.729  25.044  26.664  1.00  0.00     0.198 A 
ATOM     77  C   UNL A   1      44.469  27.137  25.751  1.00  0.00     0.198 A 
ATOM     78  F   UNL A   1      44.037  29.142  26.910  1.00  0.00    -0.203 F 
ATOM     79  F   UNL A   1      43.661  23.707  26.600  1.00  0.00    -0.200 F 
ATOM     80  C   UNL A   1      44.377  25.756  25.666  1.00  0.00     0.200 A 
ATOM     81  F   UNL A   1      45.086  27.828  24.784  1.00  0.00    -0.200 F 
ATOM     82  F   UNL A   1      44.920  25.109  24.626  1.00  0.00    -0.200 F 
ENDBRANCH  48  72
BRANCH  60  83
ATOM     83  C   UNL A   1      45.434  28.316  34.357  1.00  0.00     0.064 A 
ATOM     84  C   UNL A   1      45.525  27.105  35.060  1.00  0.00     0.173 A 
ATOM     85  C   UNL A   1      46.557  29.157  34.348  1.00  0.00     0.173 A 
ATOM     86  F   UNL A   1      44.472  26.275  35.111  1.00  0.00    -0.203 F 
ATOM     87  C   UNL A   1      46.684  26.765  35.752  1.00  0.00     0.198 A 
ATOM     88  C   UNL A   1      47.723  28.801  35.019  1.00  0.00     0.198 A 
ATOM     89  F   UNL A   1      46.524  30.323  33.686  1.00  0.00    -0.203 F 
ATOM     90  F   UNL A   1      46.729  25.628  36.460  1.00  0.00    -0.200 F 
ATOM     91  C   UNL A   1      47.782  27.610  35.728  1.00  0.00     0.200 A 
ATOM     92  F   UNL A   1      48.789  29.614  34.987  1.00  0.00    -0.200 F 
ATOM     93  F   UNL A   1      48.896  27.283  36.397  1.00  0.00    -0.200 F 
ENDBRANCH  60  83
ENDBRANCH  34  35
ENDBRANCH  26  29
ENDBRANCH  24  25
ENDBRANCH   1  24
TORSDOF 11
ENDMDL
