MODEL 1
REMARK VINA RESULT:     -12.5      0.000      0.000
REMARK SMILES NC(=O)c1cc(Cl)ccc1N1CCO[C@@H](CC(=O)NCCCNC(=O)c2ccc(-c3c4nc(c(-c5c(F)c(F)c(F)c(F)c5F)c5ccc([nH]5)c(-c5c(F)c(F)c(F)c(F)c5F)c5nc(c(-c6c(F)c(F)c(F)c(F)c6F)c6ccc3[nH]6)C=C5)C=C4)cc2)C1
REMARK SMILES IDX 20 1 19 2 17 3 18 4 16 6 15 7 11 8 12 9 89 10 13 11 14 12
REMARK SMILES IDX 10 13 4 14 5 15 6 16 9 17 7 18 8 19 2 20 1 21 3 24 21 25
REMARK SMILES IDX 22 26 23 27 24 28 25 30 26 31 27 32 88 33 28 34 87 35 29 36
REMARK SMILES IDX 30 37 31 38 81 39 32 40 86 41 80 42 82 43 33 44 85 45 79 46
REMARK SMILES IDX 78 47 34 49 66 50 46 51 65 52 47 53 50 54 64 55 83 56 48 57
REMARK SMILES IDX 49 58 63 60 84 61 51 62 35 63 36 64 44 65 37 66 38 67 42 68
REMARK SMILES IDX 45 69 39 70 40 71 43 72 41 73 67 74 68 75 76 76 69 77 70 78
REMARK SMILES IDX 74 79 77 80 71 81 72 82 75 83 73 84 52 85 53 86 61 87 54 88
REMARK SMILES IDX 55 89 59 90 62 91 56 92 57 93 60 94 58 95
REMARK H PARENT 19 5 1 22 1 23 23 29 82 48 50 59
REMARK Flexibility Score: inf
ROOT
ATOM      1  C   UNL A   1      36.878  20.329  24.942  1.00  0.00     0.117 C 
ENDROOT
BRANCH   1   2
ATOM      2  N   UNL A   1      36.990  21.397  23.955  1.00  0.00    -0.356 N 
ATOM      3  C   UNL A   1      36.525  22.680  23.947  1.00  0.00     0.222 C 
ATOM      4  O   UNL A   1      36.776  23.370  22.958  1.00  0.00    -0.275 OA
ATOM      5  H   UNL A   1      37.493  21.145  23.146  1.00  0.00     0.163 HD
BRANCH   3   6
ATOM      6  C   UNL A   1      35.698  23.235  25.091  1.00  0.00     0.133 C 
BRANCH   6   7
ATOM      7  C   UNL A   1      34.192  23.125  24.824  1.00  0.00     0.147 C 
ATOM      8  N   UNL A   1      32.350  24.255  23.575  1.00  0.00    -0.366 N 
ATOM      9  C   UNL A   1      32.003  23.001  22.919  1.00  0.00     0.145 C 
ATOM     10  C   UNL A   1      33.701  24.383  24.100  1.00  0.00     0.149 C 
ATOM     11  C   UNL A   1      32.537  21.821  23.748  1.00  0.00     0.182 C 
ATOM     12  O   UNL A   1      33.951  21.953  24.012  1.00  0.00    -0.374 OA
BRANCH   8  13
ATOM     13  C   UNL A   1      31.574  25.394  23.535  1.00  0.00     0.050 A 
ATOM     14  C   UNL A   1      31.636  26.307  22.468  1.00  0.00     0.064 A 
ATOM     15  C   UNL A   1      30.686  27.328  22.327  1.00  0.00     0.036 A 
ATOM     16  C   UNL A   1      29.672  27.456  23.268  1.00  0.00     0.041 A 
ATOM     17  C   UNL A   1      30.579  25.601  24.508  1.00  0.00     0.028 A 
ATOM     18  Cl  UNL A   1      28.443  28.628  23.017  1.00  0.00    -0.084 Cl
ATOM     19  C   UNL A   1      29.627  26.616  24.376  1.00  0.00     0.023 A 
BRANCH  14  20
ATOM     20  C   UNL A   1      32.640  26.162  21.394  1.00  0.00     0.250 C 
ATOM     21  N   UNL A   1      32.171  25.598  20.241  1.00  0.00    -0.366 N 
ATOM     22  H   UNL A   1      32.776  25.464  19.476  1.00  0.00     0.159 HD
ATOM     23  H   UNL A   1      31.227  25.323  20.174  1.00  0.00     0.159 HD
ATOM     24  O   UNL A   1      33.805  26.508  21.518  1.00  0.00    -0.269 OA
ENDBRANCH  14  20
ENDBRANCH   8  13
ENDBRANCH   6   7
ENDBRANCH   3   6
ENDBRANCH   1   2
BRANCH   1  25
ATOM     25  C   UNL A   1      38.139  19.465  25.022  1.00  0.00     0.042 C 
BRANCH  25  26
ATOM     26  C   UNL A   1      39.261  20.035  25.880  1.00  0.00     0.118 C 
BRANCH  26  27
ATOM     27  N   UNL A   1      40.384  19.119  25.961  1.00  0.00    -0.352 N 
ATOM     28  C   UNL A   1      41.733  19.347  26.075  1.00  0.00     0.251 C 
ATOM     29  H   UNL A   1      40.135  18.167  25.928  1.00  0.00     0.163 HD
ATOM     30  O   UNL A   1      42.502  18.417  25.838  1.00  0.00    -0.269 OA
BRANCH  28  31
ATOM     31  C   UNL A   1      42.302  20.666  26.468  1.00  0.00     0.039 A 
ATOM     32  C   UNL A   1      42.293  21.010  27.828  1.00  0.00     0.014 A 
ATOM     33  C   UNL A   1      42.727  21.617  25.540  1.00  0.00     0.014 A 
ATOM     34  C   UNL A   1      42.715  22.277  28.250  1.00  0.00     0.010 A 
ATOM     35  C   UNL A   1      43.229  22.851  25.967  1.00  0.00     0.010 A 
ATOM     36  C   UNL A   1      43.201  23.210  27.323  1.00  0.00    -0.014 A 
BRANCH  36  37
ATOM     37  C   UNL A   1      43.630  24.577  27.741  1.00  0.00     0.031 A 
ATOM     38  C   UNL A   1      42.599  25.632  28.059  1.00  0.00     0.074 A 
ATOM     39  C   UNL A   1      44.936  24.901  27.778  1.00  0.00     0.049 A 
ATOM     40  N   UNL A   1      42.765  26.900  28.348  1.00  0.00    -0.248 NA
ATOM     41  C   UNL A   1      41.191  25.207  28.033  1.00  0.00     0.031 C 
ATOM     42  C   UNL A   1      46.044  23.993  27.481  1.00  0.00     0.029 A 
ATOM     43  N   UNL A   1      45.552  26.100  28.047  1.00  0.00    -0.354 N 
ATOM     44  C   UNL A   1      41.489  27.423  28.517  1.00  0.00     0.074 A 
ATOM     45  C   UNL A   1      40.557  26.351  28.245  1.00  0.00     0.031 C 
ATOM     46  C   UNL A   1      47.201  24.669  27.563  1.00  0.00     0.029 A 
ATOM     47  C   UNL A   1      46.917  26.061  27.900  1.00  0.00     0.049 A 
ATOM     48  H   UNL A   1      45.063  26.909  28.318  1.00  0.00     0.167 HD
ATOM     49  C   UNL A   1      41.124  28.672  28.896  1.00  0.00     0.037 A 
ATOM     50  C   UNL A   1      47.839  27.036  28.012  1.00  0.00     0.037 A 
ATOM     51  C   UNL A   1      42.048  29.733  29.203  1.00  0.00     0.049 A 
ATOM     52  C   UNL A   1      47.411  28.427  28.390  1.00  0.00     0.074 A 
ATOM     53  C   UNL A   1      41.777  31.003  29.684  1.00  0.00     0.029 A 
ATOM     54  N   UNL A   1      43.424  29.650  29.049  1.00  0.00    -0.354 N 
ATOM     55  N   UNL A   1      46.208  28.887  28.631  1.00  0.00    -0.248 NA
ATOM     56  C   UNL A   1      48.476  29.432  28.531  1.00  0.00     0.031 C 
ATOM     57  C   UNL A   1      42.985  31.704  29.774  1.00  0.00     0.029 A 
ATOM     58  C   UNL A   1      44.013  30.855  29.397  1.00  0.00     0.049 A 
ATOM     59  H   UNL A   1      43.910  28.852  28.738  1.00  0.00     0.167 HD
ATOM     60  C   UNL A   1      46.372  30.217  28.992  1.00  0.00     0.074 A 
ATOM     61  C   UNL A   1      47.793  30.493  28.935  1.00  0.00     0.031 C 
ATOM     62  C   UNL A   1      45.429  31.122  29.349  1.00  0.00     0.037 A 
BRANCH  49  63
ATOM     63  C   UNL A   1      39.652  28.961  29.002  1.00  0.00     0.064 A 
ATOM     64  C   UNL A   1      38.889  29.323  27.882  1.00  0.00     0.173 A 
ATOM     65  C   UNL A   1      38.993  28.855  30.237  1.00  0.00     0.173 A 
ATOM     66  F   UNL A   1      39.470  29.445  26.678  1.00  0.00    -0.203 F 
ATOM     67  C   UNL A   1      37.530  29.610  28.001  1.00  0.00     0.198 A 
ATOM     68  C   UNL A   1      37.628  29.112  30.347  1.00  0.00     0.198 A 
ATOM     69  F   UNL A   1      39.671  28.501  31.339  1.00  0.00    -0.203 F 
ATOM     70  F   UNL A   1      36.836  30.014  26.927  1.00  0.00    -0.200 F 
ATOM     71  C   UNL A   1      36.901  29.501  29.231  1.00  0.00     0.200 A 
ATOM     72  F   UNL A   1      37.018  28.990  31.532  1.00  0.00    -0.200 F 
ATOM     73  F   UNL A   1      35.595  29.778  29.344  1.00  0.00    -0.200 F 
ENDBRANCH  49  63
BRANCH  50  74
ATOM     74  C   UNL A   1      49.274  26.712  27.808  1.00  0.00     0.064 A 
ATOM     75  C   UNL A   1      49.827  26.713  26.520  1.00  0.00     0.173 A 
ATOM     76  C   UNL A   1      50.122  26.421  28.886  1.00  0.00     0.173 A 
ATOM     77  F   UNL A   1      49.049  26.966  25.457  1.00  0.00    -0.203 F 
ATOM     78  C   UNL A   1      51.174  26.425  26.317  1.00  0.00     0.198 A 
ATOM     79  C   UNL A   1      51.474  26.154  28.683  1.00  0.00     0.198 A 
ATOM     80  F   UNL A   1      49.640  26.412  30.137  1.00  0.00    -0.203 F 
ATOM     81  F   UNL A   1      51.672  26.403  25.072  1.00  0.00    -0.200 F 
ATOM     82  C   UNL A   1      51.998  26.152  27.399  1.00  0.00     0.200 A 
ATOM     83  F   UNL A   1      52.270  25.905  29.732  1.00  0.00    -0.200 F 
ATOM     84  F   UNL A   1      53.296  25.886  27.204  1.00  0.00    -0.200 F 
ENDBRANCH  50  74
BRANCH  62  85
ATOM     85  C   UNL A   1      45.899  32.487  29.760  1.00  0.00     0.064 A 
ATOM     86  C   UNL A   1      46.263  32.777  31.081  1.00  0.00     0.173 A 
ATOM     87  C   UNL A   1      46.023  33.508  28.803  1.00  0.00     0.173 A 
ATOM     88  F   UNL A   1      46.145  31.842  32.035  1.00  0.00    -0.203 F 
ATOM     89  C   UNL A   1      46.714  34.047  31.437  1.00  0.00     0.198 A 
ATOM     90  C   UNL A   1      46.501  34.767  29.157  1.00  0.00     0.198 A 
ATOM     91  F   UNL A   1      45.692  33.281  27.524  1.00  0.00    -0.203 F 
ATOM     92  F   UNL A   1      47.014  34.316  32.715  1.00  0.00    -0.200 F 
ATOM     93  C   UNL A   1      46.840  35.037  30.473  1.00  0.00     0.200 A 
ATOM     94  F   UNL A   1      46.633  35.719  28.223  1.00  0.00    -0.200 F 
ATOM     95  F   UNL A   1      47.281  36.255  30.817  1.00  0.00    -0.200 F 
ENDBRANCH  62  85
ENDBRANCH  36  37
ENDBRANCH  28  31
ENDBRANCH  26  27
ENDBRANCH  25  26
ENDBRANCH   1  25
TORSDOF 13
ENDMDL
MODEL 2
REMARK VINA RESULT:     -12.5      5.712     10.699
REMARK SMILES NC(=O)c1cc(Cl)ccc1N1CCO[C@@H](CC(=O)NCCCNC(=O)c2ccc(-c3c4nc(c(-c5c(F)c(F)c(F)c(F)c5F)c5ccc([nH]5)c(-c5c(F)c(F)c(F)c(F)c5F)c5nc(c(-c6c(F)c(F)c(F)c(F)c6F)c6ccc3[nH]6)C=C5)C=C4)cc2)C1
REMARK SMILES IDX 20 1 19 2 17 3 18 4 16 6 15 7 11 8 12 9 89 10 13 11 14 12
REMARK SMILES IDX 10 13 4 14 5 15 6 16 9 17 7 18 8 19 2 20 1 21 3 24 21 25
REMARK SMILES IDX 22 26 23 27 24 28 25 30 26 31 27 32 88 33 28 34 87 35 29 36
REMARK SMILES IDX 30 37 31 38 81 39 32 40 86 41 80 42 82 43 33 44 85 45 79 46
REMARK SMILES IDX 78 47 34 49 66 50 46 51 65 52 47 53 50 54 64 55 83 56 48 57
REMARK SMILES IDX 49 58 63 60 84 61 51 62 35 63 36 64 44 65 37 66 38 67 42 68
REMARK SMILES IDX 45 69 39 70 40 71 43 72 41 73 67 74 68 75 76 76 69 77 70 78
REMARK SMILES IDX 74 79 77 80 71 81 72 82 75 83 73 84 52 85 53 86 61 87 54 88
REMARK SMILES IDX 55 89 59 90 62 91 56 92 57 93 60 94 58 95
REMARK H PARENT 19 5 1 22 1 23 23 29 82 48 50 59
REMARK Flexibility Score: inf
ROOT
ATOM      1  C   UNL A   1      31.504  30.910  26.044  1.00  0.00     0.117 C 
ENDROOT
BRANCH   1   2
ATOM      2  N   UNL A   1      31.418  29.828  27.019  1.00  0.00    -0.356 N 
ATOM      3  C   UNL A   1      32.028  28.609  27.079  1.00  0.00     0.222 C 
ATOM      4  O   UNL A   1      31.760  27.886  28.041  1.00  0.00    -0.275 OA
ATOM      5  H   UNL A   1      30.809  30.013  27.770  1.00  0.00     0.163 HD
BRANCH   3   6
ATOM      6  C   UNL A   1      32.973  28.135  25.992  1.00  0.00     0.133 C 
BRANCH   6   7
ATOM      7  C   UNL A   1      32.272  27.237  24.966  1.00  0.00     0.147 C 
ATOM      8  N   UNL A   1      31.470  24.893  24.659  1.00  0.00    -0.366 N 
ATOM      9  C   UNL A   1      30.133  25.375  24.335  1.00  0.00     0.145 C 
ATOM     10  C   UNL A   1      32.331  25.778  25.430  1.00  0.00     0.149 C 
ATOM     11  C   UNL A   1      30.212  26.840  23.871  1.00  0.00     0.182 C 
ATOM     12  O   UNL A   1      30.897  27.667  24.837  1.00  0.00    -0.374 OA
BRANCH   8  13
ATOM     13  C   UNL A   1      31.890  23.592  24.484  1.00  0.00     0.050 A 
ATOM     14  C   UNL A   1      31.609  22.580  25.419  1.00  0.00     0.064 A 
ATOM     15  C   UNL A   1      31.836  21.230  25.122  1.00  0.00     0.036 A 
ATOM     16  C   UNL A   1      32.368  20.880  23.888  1.00  0.00     0.041 A 
ATOM     17  C   UNL A   1      32.497  23.206  23.275  1.00  0.00     0.028 A 
ATOM     18  Cl  UNL A   1      32.524  19.217  23.486  1.00  0.00    -0.084 Cl
ATOM     19  C   UNL A   1      32.728  21.861  22.970  1.00  0.00     0.023 A 
BRANCH  14  20
ATOM     20  C   UNL A   1      30.961  22.891  26.711  1.00  0.00     0.250 C 
ATOM     21  N   UNL A   1      29.644  22.536  26.794  1.00  0.00    -0.366 N 
ATOM     22  H   UNL A   1      29.138  22.709  27.620  1.00  0.00     0.159 HD
ATOM     23  H   UNL A   1      29.199  22.107  26.026  1.00  0.00     0.159 HD
ATOM     24  O   UNL A   1      31.546  23.431  27.637  1.00  0.00    -0.269 OA
ENDBRANCH  14  20
ENDBRANCH   8  13
ENDBRANCH   6   7
ENDBRANCH   3   6
ENDBRANCH   1   2
BRANCH   1  25
ATOM     25  C   UNL A   1      31.396  32.295  26.688  1.00  0.00     0.042 C 
BRANCH  25  26
ATOM     26  C   UNL A   1      32.720  32.917  27.113  1.00  0.00     0.118 C 
BRANCH  26  27
ATOM     27  N   UNL A   1      32.534  34.268  27.610  1.00  0.00    -0.352 N 
ATOM     28  C   UNL A   1      33.057  34.910  28.705  1.00  0.00     0.251 C 
ATOM     29  H   UNL A   1      31.927  34.821  27.066  1.00  0.00     0.163 HD
ATOM     30  O   UNL A   1      32.529  35.959  29.071  1.00  0.00    -0.269 OA
BRANCH  28  31
ATOM     31  C   UNL A   1      34.228  34.393  29.465  1.00  0.00     0.039 A 
ATOM     32  C   UNL A   1      35.498  34.504  28.878  1.00  0.00     0.014 A 
ATOM     33  C   UNL A   1      34.106  33.700  30.670  1.00  0.00     0.014 A 
ATOM     34  C   UNL A   1      36.624  33.942  29.494  1.00  0.00     0.010 A 
ATOM     35  C   UNL A   1      35.241  33.214  31.328  1.00  0.00     0.010 A 
ATOM     36  C   UNL A   1      36.510  33.300  30.735  1.00  0.00    -0.014 A 
BRANCH  36  37
ATOM     37  C   UNL A   1      37.687  32.668  31.398  1.00  0.00     0.031 A 
ATOM     38  C   UNL A   1      38.379  31.490  30.758  1.00  0.00     0.074 A 
ATOM     39  C   UNL A   1      38.105  33.100  32.604  1.00  0.00     0.049 A 
ATOM     40  N   UNL A   1      39.355  30.744  31.217  1.00  0.00    -0.248 NA
ATOM     41  C   UNL A   1      37.897  31.086  29.428  1.00  0.00     0.031 C 
ATOM     42  C   UNL A   1      37.525  34.215  33.352  1.00  0.00     0.029 A 
ATOM     43  N   UNL A   1      39.095  32.625  33.429  1.00  0.00    -0.354 N 
ATOM     44  C   UNL A   1      39.587  29.778  30.245  1.00  0.00     0.074 A 
ATOM     45  C   UNL A   1      38.615  29.997  29.196  1.00  0.00     0.031 C 
ATOM     46  C   UNL A   1      38.155  34.327  34.533  1.00  0.00     0.029 A 
ATOM     47  C   UNL A   1      39.169  33.282  34.633  1.00  0.00     0.049 A 
ATOM     48  H   UNL A   1      39.695  31.886  33.182  1.00  0.00     0.167 HD
ATOM     49  C   UNL A   1      40.541  28.817  30.212  1.00  0.00     0.037 A 
ATOM     50  C   UNL A   1      39.954  33.063  35.705  1.00  0.00     0.037 A 
ATOM     51  C   UNL A   1      41.533  28.617  31.236  1.00  0.00     0.049 A 
ATOM     52  C   UNL A   1      40.979  31.963  35.667  1.00  0.00     0.074 A 
ATOM     53  C   UNL A   1      42.597  27.732  31.248  1.00  0.00     0.029 A 
ATOM     54  N   UNL A   1      41.577  29.309  32.437  1.00  0.00    -0.354 N 
ATOM     55  N   UNL A   1      41.244  31.112  34.707  1.00  0.00    -0.248 NA
ATOM     56  C   UNL A   1      41.827  31.806  36.858  1.00  0.00     0.031 C 
ATOM     57  C   UNL A   1      43.255  27.853  32.477  1.00  0.00     0.029 A 
ATOM     58  C   UNL A   1      42.632  28.850  33.210  1.00  0.00     0.049 A 
ATOM     59  H   UNL A   1      40.951  30.022  32.701  1.00  0.00     0.167 HD
ATOM     60  C   UNL A   1      42.313  30.349  35.156  1.00  0.00     0.074 A 
ATOM     61  C   UNL A   1      42.646  30.835  36.479  1.00  0.00     0.031 C 
ATOM     62  C   UNL A   1      42.966  29.345  34.522  1.00  0.00     0.037 A 
BRANCH  49  63
ATOM     63  C   UNL A   1      40.560  27.901  29.019  1.00  0.00     0.064 A 
ATOM     64  C   UNL A   1      41.369  28.160  27.902  1.00  0.00     0.173 A 
ATOM     65  C   UNL A   1      39.772  26.739  29.001  1.00  0.00     0.173 A 
ATOM     66  F   UNL A   1      42.137  29.260  27.865  1.00  0.00    -0.203 F 
ATOM     67  C   UNL A   1      41.357  27.314  26.795  1.00  0.00     0.198 A 
ATOM     68  C   UNL A   1      39.787  25.878  27.906  1.00  0.00     0.198 A 
ATOM     69  F   UNL A   1      38.989  26.435  30.047  1.00  0.00    -0.203 F 
ATOM     70  F   UNL A   1      42.092  27.617  25.716  1.00  0.00    -0.200 F 
ATOM     71  C   UNL A   1      40.570  26.173  26.799  1.00  0.00     0.200 A 
ATOM     72  F   UNL A   1      39.039  24.768  27.917  1.00  0.00    -0.200 F 
ATOM     73  F   UNL A   1      40.560  25.361  25.734  1.00  0.00    -0.200 F 
ENDBRANCH  49  63
BRANCH  50  74
ATOM     74  C   UNL A   1      39.831  33.944  36.894  1.00  0.00     0.064 A 
ATOM     75  C   UNL A   1      40.545  35.148  36.964  1.00  0.00     0.173 A 
ATOM     76  C   UNL A   1      38.988  33.617  37.965  1.00  0.00     0.173 A 
ATOM     77  F   UNL A   1      41.378  35.491  35.971  1.00  0.00    -0.203 F 
ATOM     78  C   UNL A   1      40.426  35.989  38.068  1.00  0.00     0.198 A 
ATOM     79  C   UNL A   1      38.854  34.470  39.058  1.00  0.00     0.198 A 
ATOM     80  F   UNL A   1      38.281  32.478  37.942  1.00  0.00    -0.203 F 
ATOM     81  F   UNL A   1      41.142  37.121  38.124  1.00  0.00    -0.200 F 
ATOM     82  C   UNL A   1      39.577  35.653  39.111  1.00  0.00     0.200 A 
ATOM     83  F   UNL A   1      38.021  34.149  40.058  1.00  0.00    -0.200 F 
ATOM     84  F   UNL A   1      39.455  36.468  40.167  1.00  0.00    -0.200 F 
ENDBRANCH  50  74
BRANCH  62  85
ATOM     85  C   UNL A   1      44.142  28.732  35.224  1.00  0.00     0.064 A 
ATOM     86  C   UNL A   1      45.439  29.241  35.077  1.00  0.00     0.173 A 
ATOM     87  C   UNL A   1      43.959  27.639  36.088  1.00  0.00     0.173 A 
ATOM     88  F   UNL A   1      45.670  30.272  34.250  1.00  0.00    -0.203 F 
ATOM     89  C   UNL A   1      46.514  28.668  35.752  1.00  0.00     0.198 A 
ATOM     90  C   UNL A   1      45.031  27.087  36.783  1.00  0.00     0.198 A 
ATOM     91  F   UNL A   1      42.737  27.116  36.266  1.00  0.00    -0.203 F 
ATOM     92  F   UNL A   1      47.754  29.143  35.563  1.00  0.00    -0.200 F 
ATOM     93  C   UNL A   1      46.308  27.597  36.610  1.00  0.00     0.200 A 
ATOM     94  F   UNL A   1      44.828  26.060  37.620  1.00  0.00    -0.200 F 
ATOM     95  F   UNL A   1      47.343  27.051  37.264  1.00  0.00    -0.200 F 
ENDBRANCH  62  85
ENDBRANCH  36  37
ENDBRANCH  28  31
ENDBRANCH  26  27
ENDBRANCH  25  26
ENDBRANCH   1  25
TORSDOF 13
ENDMDL
MODEL 3
REMARK VINA RESULT:     -12.4      5.736     10.724
REMARK SMILES NC(=O)c1cc(Cl)ccc1N1CCO[C@@H](CC(=O)NCCCNC(=O)c2ccc(-c3c4nc(c(-c5c(F)c(F)c(F)c(F)c5F)c5ccc([nH]5)c(-c5c(F)c(F)c(F)c(F)c5F)c5nc(c(-c6c(F)c(F)c(F)c(F)c6F)c6ccc3[nH]6)C=C5)C=C4)cc2)C1
REMARK SMILES IDX 20 1 19 2 17 3 18 4 16 6 15 7 11 8 12 9 89 10 13 11 14 12
REMARK SMILES IDX 10 13 4 14 5 15 6 16 9 17 7 18 8 19 2 20 1 21 3 24 21 25
REMARK SMILES IDX 22 26 23 27 24 28 25 30 26 31 27 32 88 33 28 34 87 35 29 36
REMARK SMILES IDX 30 37 31 38 81 39 32 40 86 41 80 42 82 43 33 44 85 45 79 46
REMARK SMILES IDX 78 47 34 49 66 50 46 51 65 52 47 53 50 54 64 55 83 56 48 57
REMARK SMILES IDX 49 58 63 60 84 61 51 62 35 63 36 64 44 65 37 66 38 67 42 68
REMARK SMILES IDX 45 69 39 70 40 71 43 72 41 73 67 74 68 75 76 76 69 77 70 78
REMARK SMILES IDX 74 79 77 80 71 81 72 82 75 83 73 84 52 85 53 86 61 87 54 88
REMARK SMILES IDX 55 89 59 90 62 91 56 92 57 93 60 94 58 95
REMARK H PARENT 19 5 1 22 1 23 23 29 82 48 50 59
REMARK Flexibility Score: inf
ROOT
ATOM      1  C   UNL A   1      31.387  30.874  26.124  1.00  0.00     0.117 C 
ENDROOT
BRANCH   1   2
ATOM      2  N   UNL A   1      32.305  30.097  26.949  1.00  0.00    -0.356 N 
ATOM      3  C   UNL A   1      33.252  29.168  26.628  1.00  0.00     0.222 C 
ATOM      4  O   UNL A   1      33.892  28.666  27.553  1.00  0.00    -0.275 OA
ATOM      5  H   UNL A   1      32.228  30.277  27.914  1.00  0.00     0.163 HD
BRANCH   3   6
ATOM      6  C   UNL A   1      33.490  28.736  25.194  1.00  0.00     0.133 C 
BRANCH   6   7
ATOM      7  C   UNL A   1      32.808  27.401  24.871  1.00  0.00     0.147 C 
ATOM      8  N   UNL A   1      32.897  24.978  25.464  1.00  0.00    -0.366 N 
ATOM      9  C   UNL A   1      31.480  24.992  25.804  1.00  0.00     0.145 C 
ATOM     10  C   UNL A   1      33.604  26.249  25.494  1.00  0.00     0.149 C 
ATOM     11  C   UNL A   1      30.795  26.181  25.108  1.00  0.00     0.182 C 
ATOM     12  O   UNL A   1      31.464  27.427  25.403  1.00  0.00    -0.374 OA
BRANCH   8  13
ATOM     13  C   UNL A   1      33.654  23.833  25.337  1.00  0.00     0.050 A 
ATOM     14  C   UNL A   1      34.010  23.303  24.085  1.00  0.00     0.064 A 
ATOM     15  C   UNL A   1      34.964  22.283  23.971  1.00  0.00     0.036 A 
ATOM     16  C   UNL A   1      35.558  21.768  25.115  1.00  0.00     0.041 A 
ATOM     17  C   UNL A   1      34.220  23.235  26.478  1.00  0.00     0.028 A 
ATOM     18  Cl  UNL A   1      36.815  20.608  24.955  1.00  0.00    -0.084 Cl
ATOM     19  C   UNL A   1      35.172  22.216  26.374  1.00  0.00     0.023 A 
BRANCH  14  20
ATOM     20  C   UNL A   1      33.474  23.875  22.832  1.00  0.00     0.250 C 
ATOM     21  N   UNL A   1      32.420  23.191  22.294  1.00  0.00    -0.366 N 
ATOM     22  H   UNL A   1      32.004  23.506  21.458  1.00  0.00     0.159 HD
ATOM     23  H   UNL A   1      32.075  22.384  22.740  1.00  0.00     0.159 HD
ATOM     24  O   UNL A   1      33.934  24.875  22.305  1.00  0.00    -0.269 OA
ENDBRANCH  14  20
ENDBRANCH   8  13
ENDBRANCH   6   7
ENDBRANCH   3   6
ENDBRANCH   1   2
BRANCH   1  25
ATOM     25  C   UNL A   1      31.362  32.357  26.504  1.00  0.00     0.042 C 
BRANCH  25  26
ATOM     26  C   UNL A   1      32.654  32.893  27.108  1.00  0.00     0.118 C 
BRANCH  26  27
ATOM     27  N   UNL A   1      32.498  34.264  27.558  1.00  0.00    -0.352 N 
ATOM     28  C   UNL A   1      33.035  34.931  28.632  1.00  0.00     0.251 C 
ATOM     29  H   UNL A   1      31.904  34.812  26.996  1.00  0.00     0.163 HD
ATOM     30  O   UNL A   1      32.530  36.003  28.962  1.00  0.00    -0.269 OA
BRANCH  28  31
ATOM     31  C   UNL A   1      34.194  34.414  29.410  1.00  0.00     0.039 A 
ATOM     32  C   UNL A   1      35.478  34.575  28.869  1.00  0.00     0.014 A 
ATOM     33  C   UNL A   1      34.051  33.674  30.585  1.00  0.00     0.014 A 
ATOM     34  C   UNL A   1      36.597  34.017  29.500  1.00  0.00     0.010 A 
ATOM     35  C   UNL A   1      35.176  33.190  31.262  1.00  0.00     0.010 A 
ATOM     36  C   UNL A   1      36.461  33.327  30.714  1.00  0.00    -0.014 A 
BRANCH  36  37
ATOM     37  C   UNL A   1      37.631  32.699  31.392  1.00  0.00     0.031 A 
ATOM     38  C   UNL A   1      38.330  31.519  30.763  1.00  0.00     0.074 A 
ATOM     39  C   UNL A   1      38.036  33.136  32.600  1.00  0.00     0.049 A 
ATOM     40  N   UNL A   1      39.302  30.776  31.236  1.00  0.00    -0.248 NA
ATOM     41  C   UNL A   1      37.862  31.109  29.430  1.00  0.00     0.031 C 
ATOM     42  C   UNL A   1      37.448  34.254  33.338  1.00  0.00     0.029 A 
ATOM     43  N   UNL A   1      39.018  32.665  33.437  1.00  0.00    -0.354 N 
ATOM     44  C   UNL A   1      39.544  29.806  30.270  1.00  0.00     0.074 A 
ATOM     45  C   UNL A   1      38.583  30.020  29.210  1.00  0.00     0.031 C 
ATOM     46  C   UNL A   1      38.065  34.371  34.524  1.00  0.00     0.029 A 
ATOM     47  C   UNL A   1      39.079  33.327  34.640  1.00  0.00     0.049 A 
ATOM     48  H   UNL A   1      39.621  31.925  33.199  1.00  0.00     0.167 HD
ATOM     49  C   UNL A   1      40.500  28.845  30.250  1.00  0.00     0.037 A 
ATOM     50  C   UNL A   1      39.853  33.113  35.720  1.00  0.00     0.037 A 
ATOM     51  C   UNL A   1      41.481  28.650  31.286  1.00  0.00     0.049 A 
ATOM     52  C   UNL A   1      40.879  32.013  35.697  1.00  0.00     0.074 A 
ATOM     53  C   UNL A   1      42.546  27.766  31.312  1.00  0.00     0.029 A 
ATOM     54  N   UNL A   1      41.512  29.347  32.484  1.00  0.00    -0.354 N 
ATOM     55  N   UNL A   1      41.155  31.159  34.743  1.00  0.00    -0.248 NA
ATOM     56  C   UNL A   1      41.715  31.862  36.897  1.00  0.00     0.031 C 
ATOM     57  C   UNL A   1      43.191  27.893  32.547  1.00  0.00     0.029 A 
ATOM     58  C   UNL A   1      42.560  28.892  33.270  1.00  0.00     0.049 A 
ATOM     59  H   UNL A   1      40.884  30.061  32.739  1.00  0.00     0.167 HD
ATOM     60  C   UNL A   1      42.219  30.399  35.207  1.00  0.00     0.074 A 
ATOM     61  C   UNL A   1      42.538  30.890  36.531  1.00  0.00     0.031 C 
ATOM     62  C   UNL A   1      42.879  29.392  34.583  1.00  0.00     0.037 A 
BRANCH  49  63
ATOM     63  C   UNL A   1      40.531  27.924  29.061  1.00  0.00     0.064 A 
ATOM     64  C   UNL A   1      41.354  28.178  27.954  1.00  0.00     0.173 A 
ATOM     65  C   UNL A   1      39.742  26.764  29.039  1.00  0.00     0.173 A 
ATOM     66  F   UNL A   1      42.124  29.277  27.921  1.00  0.00    -0.203 F 
ATOM     67  C   UNL A   1      41.355  27.328  26.850  1.00  0.00     0.198 A 
ATOM     68  C   UNL A   1      39.769  25.899  27.947  1.00  0.00     0.198 A 
ATOM     69  F   UNL A   1      38.945  26.465  30.076  1.00  0.00    -0.203 F 
ATOM     70  F   UNL A   1      42.103  27.625  25.778  1.00  0.00    -0.200 F 
ATOM     71  C   UNL A   1      40.566  26.188  26.849  1.00  0.00     0.200 A 
ATOM     72  F   UNL A   1      39.019  24.789  27.954  1.00  0.00    -0.200 F 
ATOM     73  F   UNL A   1      40.567  25.372  25.787  1.00  0.00    -0.200 F 
ENDBRANCH  49  63
BRANCH  50  74
ATOM     74  C   UNL A   1      39.717  33.998  36.904  1.00  0.00     0.064 A 
ATOM     75  C   UNL A   1      38.905  33.623  37.983  1.00  0.00     0.173 A 
ATOM     76  C   UNL A   1      40.406  35.216  36.993  1.00  0.00     0.173 A 
ATOM     77  F   UNL A   1      38.212  32.476  37.933  1.00  0.00    -0.203 F 
ATOM     78  C   UNL A   1      38.780  34.439  39.105  1.00  0.00     0.198 A 
ATOM     79  C   UNL A   1      40.297  36.021  38.125  1.00  0.00     0.198 A 
ATOM     80  F   UNL A   1      41.198  35.616  35.987  1.00  0.00    -0.203 F 
ATOM     81  F   UNL A   1      37.975  34.071  40.111  1.00  0.00    -0.200 F 
ATOM     82  C   UNL A   1      39.481  35.634  39.178  1.00  0.00     0.200 A 
ATOM     83  F   UNL A   1      40.986  37.167  38.198  1.00  0.00    -0.200 F 
ATOM     84  F   UNL A   1      39.369  36.413  40.262  1.00  0.00    -0.200 F 
ENDBRANCH  50  74
BRANCH  62  85
ATOM     85  C   UNL A   1      44.049  28.783  35.300  1.00  0.00     0.064 A 
ATOM     86  C   UNL A   1      45.349  29.286  35.156  1.00  0.00     0.173 A 
ATOM     87  C   UNL A   1      43.856  27.700  36.174  1.00  0.00     0.173 A 
ATOM     88  F   UNL A   1      45.588  30.307  34.320  1.00  0.00    -0.203 F 
ATOM     89  C   UNL A   1      46.417  28.716  35.845  1.00  0.00     0.198 A 
ATOM     90  C   UNL A   1      44.922  27.152  36.882  1.00  0.00     0.198 A 
ATOM     91  F   UNL A   1      42.631  27.183  36.350  1.00  0.00    -0.203 F 
ATOM     92  F   UNL A   1      47.659  29.185  35.659  1.00  0.00    -0.200 F 
ATOM     93  C   UNL A   1      46.201  27.656  36.712  1.00  0.00     0.200 A 
ATOM     94  F   UNL A   1      44.709  26.134  37.728  1.00  0.00    -0.200 F 
ATOM     95  F   UNL A   1      47.230  27.113  37.379  1.00  0.00    -0.200 F 
ENDBRANCH  62  85
ENDBRANCH  36  37
ENDBRANCH  28  31
ENDBRANCH  26  27
ENDBRANCH  25  26
ENDBRANCH   1  25
TORSDOF 13
ENDMDL
