MODEL 1
REMARK VINA RESULT:     -12.1      0.000      0.000
REMARK SMILES Cc1ccc(NC(=O)C[C@H]([NH2+]Cc2cccnc2)C(=O)NCCCNC(=O)c2ccc(-c3c4nc(c(-c5c(F)c(F)c(F)c(F)c5F)c5ccc([nH]5)c(-c5c(F)c(F)c(F)c(F)c5F)c5nc(c(-c6c(F)c(F)c(F)c(F)c6F)c6ccc3[nH]6)C=C5)C=C4)cc2)cc1Cl
REMARK SMILES IDX 22 1 21 2 19 3 20 4 10 6 9 7 7 8 6 9 8 11 5 12 1 13 2 14
REMARK SMILES IDX 3 15 92 16 4 17 91 18 93 19 11 20 12 23 13 24 14 25 18 26
REMARK SMILES IDX 15 27 17 28 16 29 23 30 24 31 25 32 26 33 27 35 28 36 29 37
REMARK SMILES IDX 90 38 30 39 89 40 31 41 32 42 33 43 83 44 34 45 88 46 82 47
REMARK SMILES IDX 84 48 35 49 87 50 81 51 80 52 36 54 68 55 48 56 67 57 49 58
REMARK SMILES IDX 52 59 66 60 85 61 50 62 51 63 65 65 86 66 53 67 37 68 38 69
REMARK SMILES IDX 46 70 39 71 40 72 44 73 47 74 41 75 42 76 45 77 43 78 69 79
REMARK SMILES IDX 70 80 78 81 71 82 72 83 76 84 79 85 73 86 74 87 77 88 75 89
REMARK SMILES IDX 54 90 55 91 63 92 56 93 57 94 61 95 64 96 58 97 59 98 62 99
REMARK SMILES IDX 60 100
REMARK H PARENT 21 5 6 10 11 21 11 22 25 34 84 53 52 64
REMARK Flexibility Score: inf
ROOT
ATOM      1  C   UNL A   1      31.536  29.068  23.216  1.00  0.00     0.118 C 
ENDROOT
BRANCH   1   2
ATOM      2  N   UNL A   1      31.447  28.054  22.158  1.00  0.00    -0.351 N 
ATOM      3  C   UNL A   1      31.480  26.698  22.064  1.00  0.00     0.278 C 
ATOM      4  O   UNL A   1      31.403  26.261  20.903  1.00  0.00    -0.268 OA
ATOM      5  H   UNL A   1      31.330  28.470  21.273  1.00  0.00     0.163 HD
BRANCH   3   6
ATOM      6  C   UNL A   1      31.666  25.658  23.222  1.00  0.00     0.282 C 
BRANCH   6   7
ATOM      7  C   UNL A   1      30.991  25.973  24.536  1.00  0.00     0.175 C 
BRANCH   7   8
ATOM      8  C   UNL A   1      30.588  25.056  25.680  1.00  0.00     0.230 C 
ATOM      9  N   UNL A   1      30.895  23.790  26.014  1.00  0.00    -0.326 N 
ATOM     10  H   UNL A   1      30.398  23.536  26.826  1.00  0.00     0.169 HD
ATOM     11  O   UNL A   1      29.804  25.580  26.501  1.00  0.00    -0.274 OA
BRANCH   9  12
ATOM     12  C   UNL A   1      31.687  22.710  25.595  1.00  0.00     0.042 A 
ATOM     13  C   UNL A   1      34.231  19.320  24.626  1.00  0.00     0.046 C 
ATOM     14  C   UNL A   1      33.378  20.511  24.942  1.00  0.00    -0.032 A 
ATOM     15  C   UNL A   1      33.513  21.185  26.160  1.00  0.00     0.007 A 
ATOM     16  C   UNL A   1      32.407  20.963  24.053  1.00  0.00     0.046 A 
ATOM     17  C   UNL A   1      32.678  22.267  26.479  1.00  0.00     0.026 A 
ATOM     18  C   UNL A   1      31.606  22.062  24.380  1.00  0.00     0.047 A 
ATOM     19  Cl  UNL A   1      32.157  20.222  22.510  1.00  0.00    -0.084 Cl
ENDBRANCH   9  12
ENDBRANCH   7   8
ENDBRANCH   6   7
BRANCH   6  20
ATOM     20  N   UNL A   1      33.055  25.165  23.223  1.00  0.00    -0.332 N 
ATOM     21  H   UNL A   1      33.518  25.572  22.409  1.00  0.00     0.347 HD
ATOM     22  H   UNL A   1      32.956  24.150  23.227  1.00  0.00     0.347 HD
BRANCH  20  23
ATOM     23  C   UNL A   1      33.900  25.440  24.378  1.00  0.00     0.299 C 
BRANCH  23  24
ATOM     24  C   UNL A   1      34.939  24.354  24.539  1.00  0.00     0.024 A 
ATOM     25  C   UNL A   1      35.248  23.457  23.509  1.00  0.00     0.013 A 
ATOM     26  C   UNL A   1      35.685  24.243  25.711  1.00  0.00     0.120 A 
ATOM     27  C   UNL A   1      36.281  22.537  23.675  1.00  0.00     0.021 A 
ATOM     28  N   UNL A   1      36.689  23.354  25.905  1.00  0.00    -0.264 NA
ATOM     29  C   UNL A   1      36.971  22.530  24.876  1.00  0.00     0.111 A 
ENDBRANCH  23  24
ENDBRANCH  20  23
ENDBRANCH   6  20
ENDBRANCH   3   6
ENDBRANCH   1   2
BRANCH   1  30
ATOM     30  C   UNL A   1      32.907  29.078  23.897  1.00  0.00     0.042 C 
BRANCH  30  31
ATOM     31  C   UNL A   1      32.934  29.135  25.416  1.00  0.00     0.118 C 
BRANCH  31  32
ATOM     32  N   UNL A   1      32.605  30.445  25.950  1.00  0.00    -0.352 N 
ATOM     33  C   UNL A   1      33.196  31.236  26.904  1.00  0.00     0.251 C 
ATOM     34  H   UNL A   1      31.801  30.845  25.547  1.00  0.00     0.163 HD
ATOM     35  O   UNL A   1      32.591  32.263  27.235  1.00  0.00    -0.269 OA
BRANCH  33  36
ATOM     36  C   UNL A   1      34.496  30.934  27.570  1.00  0.00     0.039 A 
ATOM     37  C   UNL A   1      34.725  29.611  27.983  1.00  0.00     0.014 A 
ATOM     38  C   UNL A   1      35.456  31.895  27.893  1.00  0.00     0.014 A 
ATOM     39  C   UNL A   1      35.889  29.261  28.681  1.00  0.00     0.010 A 
ATOM     40  C   UNL A   1      36.667  31.529  28.499  1.00  0.00     0.010 A 
ATOM     41  C   UNL A   1      36.888  30.214  28.931  1.00  0.00    -0.014 A 
BRANCH  41  42
ATOM     42  C   UNL A   1      38.125  29.853  29.685  1.00  0.00     0.031 A 
ATOM     43  C   UNL A   1      38.352  30.370  31.085  1.00  0.00     0.074 A 
ATOM     44  C   UNL A   1      39.062  29.073  29.110  1.00  0.00     0.049 A 
ATOM     45  N   UNL A   1      39.365  30.166  31.893  1.00  0.00    -0.248 NA
ATOM     46  C   UNL A   1      37.321  31.257  31.643  1.00  0.00     0.031 C 
ATOM     47  C   UNL A   1      39.004  28.549  27.746  1.00  0.00     0.029 A 
ATOM     48  N   UNL A   1      40.248  28.583  29.603  1.00  0.00    -0.354 N 
ATOM     49  C   UNL A   1      39.100  30.911  33.036  1.00  0.00     0.074 A 
ATOM     50  C   UNL A   1      37.862  31.619  32.797  1.00  0.00     0.031 C 
ATOM     51  C   UNL A   1      40.082  27.779  27.523  1.00  0.00     0.029 A 
ATOM     52  C   UNL A   1      40.923  27.779  28.716  1.00  0.00     0.049 A 
ATOM     53  H   UNL A   1      40.581  28.787  30.506  1.00  0.00     0.167 HD
ATOM     54  C   UNL A   1      39.804  30.982  34.193  1.00  0.00     0.037 A 
ATOM     55  C   UNL A   1      42.086  27.109  28.850  1.00  0.00     0.037 A 
ATOM     56  C   UNL A   1      41.017  30.249  34.454  1.00  0.00     0.049 A 
ATOM     57  C   UNL A   1      42.829  27.172  30.158  1.00  0.00     0.074 A 
ATOM     58  C   UNL A   1      41.771  30.209  35.615  1.00  0.00     0.029 A 
ATOM     59  N   UNL A   1      41.649  29.419  33.540  1.00  0.00    -0.354 N 
ATOM     60  N   UNL A   1      42.529  27.828  31.251  1.00  0.00    -0.248 NA
ATOM     61  C   UNL A   1      44.065  26.382  30.252  1.00  0.00     0.031 C 
ATOM     62  C   UNL A   1      42.880  29.386  35.390  1.00  0.00     0.029 A 
ATOM     63  C   UNL A   1      42.790  28.872  34.107  1.00  0.00     0.049 A 
ATOM     64  H   UNL A   1      41.334  29.245  32.624  1.00  0.00     0.167 HD
ATOM     65  C   UNL A   1      43.520  27.511  32.170  1.00  0.00     0.074 A 
ATOM     66  C   UNL A   1      44.420  26.585  31.513  1.00  0.00     0.031 C 
ATOM     67  C   UNL A   1      43.673  27.948  33.445  1.00  0.00     0.037 A 
BRANCH  54  68
ATOM     68  C   UNL A   1      39.274  31.879  35.277  1.00  0.00     0.064 A 
ATOM     69  C   UNL A   1      38.488  31.380  36.327  1.00  0.00     0.173 A 
ATOM     70  C   UNL A   1      39.584  33.248  35.286  1.00  0.00     0.173 A 
ATOM     71  F   UNL A   1      38.154  30.080  36.361  1.00  0.00    -0.203 F 
ATOM     72  C   UNL A   1      38.004  32.222  37.325  1.00  0.00     0.198 A 
ATOM     73  C   UNL A   1      39.125  34.081  36.304  1.00  0.00     0.198 A 
ATOM     74  F   UNL A   1      40.339  33.779  34.313  1.00  0.00    -0.203 F 
ATOM     75  F   UNL A   1      37.210  31.730  38.288  1.00  0.00    -0.200 F 
ATOM     76  C   UNL A   1      38.328  33.569  37.317  1.00  0.00     0.200 A 
ATOM     77  F   UNL A   1      39.451  35.381  36.303  1.00  0.00    -0.200 F 
ATOM     78  F   UNL A   1      37.867  34.377  38.282  1.00  0.00    -0.200 F 
ENDBRANCH  54  68
BRANCH  55  79
ATOM     79  C   UNL A   1      42.595  26.277  27.728  1.00  0.00     0.064 A 
ATOM     80  C   UNL A   1      42.136  24.966  27.538  1.00  0.00     0.173 A 
ATOM     81  C   UNL A   1      43.554  26.769  26.831  1.00  0.00     0.173 A 
ATOM     82  F   UNL A   1      41.235  24.444  28.384  1.00  0.00    -0.203 F 
ATOM     83  C   UNL A   1      42.631  24.172  26.506  1.00  0.00     0.198 A 
ATOM     84  C   UNL A   1      44.027  25.983  25.782  1.00  0.00     0.198 A 
ATOM     85  F   UNL A   1      44.022  28.019  26.966  1.00  0.00    -0.203 F 
ATOM     86  F   UNL A   1      42.209  22.906  26.378  1.00  0.00    -0.200 F 
ATOM     87  C   UNL A   1      43.572  24.682  25.626  1.00  0.00     0.200 A 
ATOM     88  F   UNL A   1      44.925  26.485  24.924  1.00  0.00    -0.200 F 
ATOM     89  F   UNL A   1      44.046  23.919  24.631  1.00  0.00    -0.200 F 
ENDBRANCH  55  79
BRANCH  67  90
ATOM     90  C   UNL A   1      44.834  27.399  34.223  1.00  0.00     0.064 A 
ATOM     91  C   UNL A   1      46.080  28.045  34.245  1.00  0.00     0.173 A 
ATOM     92  C   UNL A   1      44.695  26.216  34.966  1.00  0.00     0.173 A 
ATOM     93  F   UNL A   1      46.268  29.171  33.541  1.00  0.00    -0.203 F 
ATOM     94  C   UNL A   1      47.153  27.506  34.950  1.00  0.00     0.198 A 
ATOM     95  C   UNL A   1      45.762  25.697  35.695  1.00  0.00     0.198 A 
ATOM     96  F   UNL A   1      43.523  25.564  34.986  1.00  0.00    -0.203 F 
ATOM     97  F   UNL A   1      48.350  28.109  34.908  1.00  0.00    -0.200 F 
ATOM     98  C   UNL A   1      46.993  26.337  35.677  1.00  0.00     0.200 A 
ATOM     99  F   UNL A   1      45.602  24.574  36.407  1.00  0.00    -0.200 F 
ATOM    100  F   UNL A   1      48.027  25.819  36.353  1.00  0.00    -0.200 F 
ENDBRANCH  67  90
ENDBRANCH  41  42
ENDBRANCH  33  36
ENDBRANCH  31  32
ENDBRANCH  30  31
ENDBRANCH   1  30
TORSDOF 16
ENDMDL
MODEL 2
REMARK VINA RESULT:     -12.1      1.596      3.950
REMARK SMILES Cc1ccc(NC(=O)C[C@H]([NH2+]Cc2cccnc2)C(=O)NCCCNC(=O)c2ccc(-c3c4nc(c(-c5c(F)c(F)c(F)c(F)c5F)c5ccc([nH]5)c(-c5c(F)c(F)c(F)c(F)c5F)c5nc(c(-c6c(F)c(F)c(F)c(F)c6F)c6ccc3[nH]6)C=C5)C=C4)cc2)cc1Cl
REMARK SMILES IDX 22 1 21 2 19 3 20 4 10 6 9 7 7 8 6 9 8 11 5 12 1 13 2 14
REMARK SMILES IDX 3 15 92 16 4 17 91 18 93 19 11 20 12 23 13 24 14 25 18 26
REMARK SMILES IDX 15 27 17 28 16 29 23 30 24 31 25 32 26 33 27 35 28 36 29 37
REMARK SMILES IDX 90 38 30 39 89 40 31 41 32 42 33 43 83 44 34 45 88 46 82 47
REMARK SMILES IDX 84 48 35 49 87 50 81 51 80 52 36 54 68 55 48 56 67 57 49 58
REMARK SMILES IDX 52 59 66 60 85 61 50 62 51 63 65 65 86 66 53 67 37 68 38 69
REMARK SMILES IDX 46 70 39 71 40 72 44 73 47 74 41 75 42 76 45 77 43 78 69 79
REMARK SMILES IDX 70 80 78 81 71 82 72 83 76 84 79 85 73 86 74 87 77 88 75 89
REMARK SMILES IDX 54 90 55 91 63 92 56 93 57 94 61 95 64 96 58 97 59 98 62 99
REMARK SMILES IDX 60 100
REMARK H PARENT 21 5 6 10 11 21 11 22 25 34 84 53 52 64
REMARK Flexibility Score: inf
ROOT
ATOM      1  C   UNL A   1      33.501  28.843  25.307  1.00  0.00     0.118 C 
ENDROOT
BRANCH   1   2
ATOM      2  N   UNL A   1      33.904  28.633  23.910  1.00  0.00    -0.351 N 
ATOM      3  C   UNL A   1      33.345  28.152  22.768  1.00  0.00     0.278 C 
ATOM      4  O   UNL A   1      34.112  28.128  21.790  1.00  0.00    -0.268 OA
ATOM      5  H   UNL A   1      34.833  28.919  23.760  1.00  0.00     0.163 HD
BRANCH   3   6
ATOM      6  C   UNL A   1      31.898  27.580  22.572  1.00  0.00     0.282 C 
BRANCH   6   7
ATOM      7  C   UNL A   1      31.780  26.255  21.856  1.00  0.00     0.175 C 
BRANCH   7   8
ATOM      8  C   UNL A   1      32.847  25.232  21.498  1.00  0.00     0.230 C 
ATOM      9  N   UNL A   1      33.551  24.330  22.206  1.00  0.00    -0.326 N 
ATOM     10  H   UNL A   1      34.180  23.865  21.609  1.00  0.00     0.169 HD
ATOM     11  O   UNL A   1      33.140  25.205  20.283  1.00  0.00    -0.274 OA
BRANCH   9  12
ATOM     12  C   UNL A   1      33.688  23.830  23.510  1.00  0.00     0.042 A 
ATOM     13  C   UNL A   1      34.083  22.603  27.662  1.00  0.00     0.046 C 
ATOM     14  C   UNL A   1      33.982  23.017  26.225  1.00  0.00    -0.032 A 
ATOM     15  C   UNL A   1      34.159  24.353  25.851  1.00  0.00     0.007 A 
ATOM     16  C   UNL A   1      33.681  22.097  25.225  1.00  0.00     0.046 A 
ATOM     17  C   UNL A   1      34.012  24.750  24.513  1.00  0.00     0.026 A 
ATOM     18  C   UNL A   1      33.569  22.511  23.894  1.00  0.00     0.047 A 
ATOM     19  Cl  UNL A   1      33.457  20.415  25.562  1.00  0.00    -0.084 Cl
ENDBRANCH   9  12
ENDBRANCH   7   8
ENDBRANCH   6   7
BRANCH   6  20
ATOM     20  N   UNL A   1      30.979  28.677  22.219  1.00  0.00    -0.332 N 
ATOM     21  H   UNL A   1      30.596  28.463  21.297  1.00  0.00     0.347 HD
ATOM     22  H   UNL A   1      31.558  29.514  22.286  1.00  0.00     0.347 HD
BRANCH  20  23
ATOM     23  C   UNL A   1      29.851  28.960  23.096  1.00  0.00     0.299 C 
BRANCH  23  24
ATOM     24  C   UNL A   1      29.204  30.273  22.714  1.00  0.00     0.024 A 
ATOM     25  C   UNL A   1      29.080  31.335  23.617  1.00  0.00     0.013 A 
ATOM     26  C   UNL A   1      28.762  30.503  21.412  1.00  0.00     0.120 A 
ATOM     27  C   UNL A   1      28.565  32.556  23.189  1.00  0.00     0.021 A 
ATOM     28  N   UNL A   1      28.249  31.676  20.968  1.00  0.00    -0.264 NA
ATOM     29  C   UNL A   1      28.175  32.679  21.865  1.00  0.00     0.111 A 
ENDBRANCH  23  24
ENDBRANCH  20  23
ENDBRANCH   6  20
ENDBRANCH   3   6
ENDBRANCH   1   2
BRANCH   1  30
ATOM     30  C   UNL A   1      32.529  30.015  25.461  1.00  0.00     0.042 C 
BRANCH  30  31
ATOM     31  C   UNL A   1      32.291  30.545  26.867  1.00  0.00     0.118 C 
BRANCH  31  32
ATOM     32  N   UNL A   1      32.446  31.985  26.974  1.00  0.00    -0.352 N 
ATOM     33  C   UNL A   1      33.401  32.776  27.564  1.00  0.00     0.251 C 
ATOM     34  H   UNL A   1      31.727  32.494  26.537  1.00  0.00     0.163 HD
ATOM     35  O   UNL A   1      33.181  33.993  27.596  1.00  0.00    -0.269 OA
BRANCH  33  36
ATOM     36  C   UNL A   1      34.665  32.269  28.173  1.00  0.00     0.039 A 
ATOM     37  C   UNL A   1      34.665  30.958  28.676  1.00  0.00     0.014 A 
ATOM     38  C   UNL A   1      35.812  33.042  28.362  1.00  0.00     0.014 A 
ATOM     39  C   UNL A   1      35.789  30.432  29.329  1.00  0.00     0.010 A 
ATOM     40  C   UNL A   1      36.971  32.485  28.922  1.00  0.00     0.010 A 
ATOM     41  C   UNL A   1      36.967  31.185  29.443  1.00  0.00    -0.014 A 
BRANCH  41  42
ATOM     42  C   UNL A   1      38.164  30.638  30.149  1.00  0.00     0.031 A 
ATOM     43  C   UNL A   1      38.450  31.012  31.583  1.00  0.00     0.074 A 
ATOM     44  C   UNL A   1      39.013  29.816  29.500  1.00  0.00     0.049 A 
ATOM     45  N   UNL A   1      39.441  30.639  32.358  1.00  0.00    -0.248 NA
ATOM     46  C   UNL A   1      37.519  31.951  32.225  1.00  0.00     0.031 C 
ATOM     47  C   UNL A   1      38.895  29.414  28.098  1.00  0.00     0.029 A 
ATOM     48  N   UNL A   1      40.144  29.168  29.936  1.00  0.00    -0.354 N 
ATOM     49  C   UNL A   1      39.260  31.312  33.562  1.00  0.00     0.074 A 
ATOM     50  C   UNL A   1      38.100  32.160  33.397  1.00  0.00     0.031 C 
ATOM     51  C   UNL A   1      39.886  28.559  27.799  1.00  0.00     0.029 A 
ATOM     52  C   UNL A   1      40.729  28.374  28.978  1.00  0.00     0.049 A 
ATOM     53  H   UNL A   1      40.501  29.262  30.848  1.00  0.00     0.167 HD
ATOM     54  C   UNL A   1      39.973  31.215  34.711  1.00  0.00     0.037 A 
ATOM     55  C   UNL A   1      41.816  27.580  29.041  1.00  0.00     0.037 A 
ATOM     56  C   UNL A   1      41.105  30.342  34.895  1.00  0.00     0.049 A 
ATOM     57  C   UNL A   1      42.568  27.458  30.339  1.00  0.00     0.074 A 
ATOM     58  C   UNL A   1      41.857  30.130  36.039  1.00  0.00     0.029 A 
ATOM     59  N   UNL A   1      41.643  29.530  33.908  1.00  0.00    -0.354 N 
ATOM     60  N   UNL A   1      42.343  28.050  31.487  1.00  0.00    -0.248 NA
ATOM     61  C   UNL A   1      43.717  26.541  30.353  1.00  0.00     0.031 C 
ATOM     62  C   UNL A   1      42.873  29.219  35.733  1.00  0.00     0.029 A 
ATOM     63  C   UNL A   1      42.725  28.824  34.414  1.00  0.00     0.049 A 
ATOM     64  H   UNL A   1      41.308  29.465  32.986  1.00  0.00     0.167 HD
ATOM     65  C   UNL A   1      43.301  27.558  32.364  1.00  0.00     0.074 A 
ATOM     66  C   UNL A   1      44.097  26.603  31.621  1.00  0.00     0.031 C 
ATOM     67  C   UNL A   1      43.504  27.872  33.667  1.00  0.00     0.037 A 
BRANCH  54  68
ATOM     68  C   UNL A   1      39.544  32.069  35.871  1.00  0.00     0.064 A 
ATOM     69  C   UNL A   1      40.102  33.337  36.098  1.00  0.00     0.173 A 
ATOM     70  C   UNL A   1      38.538  31.631  36.746  1.00  0.00     0.173 A 
ATOM     71  F   UNL A   1      41.074  33.800  35.297  1.00  0.00    -0.203 F 
ATOM     72  C   UNL A   1      39.694  34.118  37.176  1.00  0.00     0.198 A 
ATOM     73  C   UNL A   1      38.110  32.430  37.805  1.00  0.00     0.198 A 
ATOM     74  F   UNL A   1      37.963  30.432  36.572  1.00  0.00    -0.203 F 
ATOM     75  F   UNL A   1      40.281  35.303  37.404  1.00  0.00    -0.200 F 
ATOM     76  C   UNL A   1      38.695  33.667  38.025  1.00  0.00     0.200 A 
ATOM     77  F   UNL A   1      37.134  31.998  38.615  1.00  0.00    -0.200 F 
ATOM     78  F   UNL A   1      38.299  34.423  39.058  1.00  0.00    -0.200 F 
ENDBRANCH  54  68
BRANCH  55  79
ATOM     79  C   UNL A   1      42.232  26.796  27.849  1.00  0.00     0.064 A 
ATOM     80  C   UNL A   1      43.177  27.305  26.947  1.00  0.00     0.173 A 
ATOM     81  C   UNL A   1      41.691  25.530  27.581  1.00  0.00     0.173 A 
ATOM     82  F   UNL A   1      43.706  28.521  27.148  1.00  0.00    -0.203 F 
ATOM     83  C   UNL A   1      43.549  26.588  25.811  1.00  0.00     0.198 A 
ATOM     84  C   UNL A   1      42.086  24.802  26.461  1.00  0.00     0.198 A 
ATOM     85  F   UNL A   1      40.787  24.995  28.416  1.00  0.00    -0.203 F 
ATOM     86  F   UNL A   1      44.418  27.121  24.941  1.00  0.00    -0.200 F 
ATOM     87  C   UNL A   1      43.008  25.335  25.572  1.00  0.00     0.200 A 
ATOM     88  F   UNL A   1      41.572  23.584  26.241  1.00  0.00    -0.200 F 
ATOM     89  F   UNL A   1      43.368  24.643  24.483  1.00  0.00    -0.200 F 
ENDBRANCH  55  79
BRANCH  67  90
ATOM     90  C   UNL A   1      44.606  27.144  34.383  1.00  0.00     0.064 A 
ATOM     91  C   UNL A   1      44.388  25.911  35.015  1.00  0.00     0.173 A 
ATOM     92  C   UNL A   1      45.901  27.685  34.427  1.00  0.00     0.173 A 
ATOM     93  F   UNL A   1      43.165  25.359  35.013  1.00  0.00    -0.203 F 
ATOM     94  C   UNL A   1      45.416  25.264  35.697  1.00  0.00     0.198 A 
ATOM     95  C   UNL A   1      46.933  27.020  35.084  1.00  0.00     0.198 A 
ATOM     96  F   UNL A   1      46.165  28.857  33.832  1.00  0.00    -0.203 F 
ATOM     97  F   UNL A   1      45.169  24.116  36.344  1.00  0.00    -0.200 F 
ATOM     98  C   UNL A   1      46.687  25.816  35.728  1.00  0.00     0.200 A 
ATOM     99  F   UNL A   1      48.164  27.549  35.102  1.00  0.00    -0.200 F 
ATOM    100  F   UNL A   1      47.674  25.194  36.386  1.00  0.00    -0.200 F 
ENDBRANCH  67  90
ENDBRANCH  41  42
ENDBRANCH  33  36
ENDBRANCH  31  32
ENDBRANCH  30  31
ENDBRANCH   1  30
TORSDOF 16
ENDMDL
MODEL 3
REMARK VINA RESULT:     -12.0      1.378      3.168
REMARK SMILES Cc1ccc(NC(=O)C[C@H]([NH2+]Cc2cccnc2)C(=O)NCCCNC(=O)c2ccc(-c3c4nc(c(-c5c(F)c(F)c(F)c(F)c5F)c5ccc([nH]5)c(-c5c(F)c(F)c(F)c(F)c5F)c5nc(c(-c6c(F)c(F)c(F)c(F)c6F)c6ccc3[nH]6)C=C5)C=C4)cc2)cc1Cl
REMARK SMILES IDX 22 1 21 2 19 3 20 4 10 6 9 7 7 8 6 9 8 11 5 12 1 13 2 14
REMARK SMILES IDX 3 15 92 16 4 17 91 18 93 19 11 20 12 23 13 24 14 25 18 26
REMARK SMILES IDX 15 27 17 28 16 29 23 30 24 31 25 32 26 33 27 35 28 36 29 37
REMARK SMILES IDX 90 38 30 39 89 40 31 41 32 42 33 43 83 44 34 45 88 46 82 47
REMARK SMILES IDX 84 48 35 49 87 50 81 51 80 52 36 54 68 55 48 56 67 57 49 58
REMARK SMILES IDX 52 59 66 60 85 61 50 62 51 63 65 65 86 66 53 67 37 68 38 69
REMARK SMILES IDX 46 70 39 71 40 72 44 73 47 74 41 75 42 76 45 77 43 78 69 79
REMARK SMILES IDX 70 80 78 81 71 82 72 83 76 84 79 85 73 86 74 87 77 88 75 89
REMARK SMILES IDX 54 90 55 91 63 92 56 93 57 94 61 95 64 96 58 97 59 98 62 99
REMARK SMILES IDX 60 100
REMARK H PARENT 21 5 6 10 11 21 11 22 25 34 84 53 52 64
REMARK Flexibility Score: inf
ROOT
ATOM      1  C   UNL A   1      32.422  26.362  26.124  1.00  0.00     0.118 C 
ENDROOT
BRANCH   1   2
ATOM      2  N   UNL A   1      31.433  25.416  26.656  1.00  0.00    -0.351 N 
ATOM      3  C   UNL A   1      31.264  24.068  26.712  1.00  0.00     0.278 C 
ATOM      4  O   UNL A   1      30.206  23.704  27.251  1.00  0.00    -0.268 OA
ATOM      5  H   UNL A   1      30.687  25.888  27.092  1.00  0.00     0.163 HD
BRANCH   3   6
ATOM      6  C   UNL A   1      32.203  22.957  26.128  1.00  0.00     0.282 C 
BRANCH   6   7
ATOM      7  C   UNL A   1      31.747  22.276  24.859  1.00  0.00     0.175 C 
BRANCH   7   8
ATOM      8  C   UNL A   1      32.025  22.619  23.404  1.00  0.00     0.230 C 
ATOM      9  N   UNL A   1      31.848  23.722  22.655  1.00  0.00    -0.326 N 
ATOM     10  H   UNL A   1      32.129  23.537  21.730  1.00  0.00     0.169 HD
ATOM     11  O   UNL A   1      32.534  21.684  22.749  1.00  0.00    -0.274 OA
BRANCH   9  12
ATOM     12  C   UNL A   1      31.399  25.049  22.750  1.00  0.00     0.042 A 
ATOM     13  C   UNL A   1      30.262  29.244  22.827  1.00  0.00     0.046 C 
ATOM     14  C   UNL A   1      30.664  27.800  22.836  1.00  0.00    -0.032 A 
ATOM     15  C   UNL A   1      31.925  27.407  22.376  1.00  0.00     0.007 A 
ATOM     16  C   UNL A   1      29.792  26.807  23.270  1.00  0.00     0.046 A 
ATOM     17  C   UNL A   1      32.284  26.050  22.334  1.00  0.00     0.026 A 
ATOM     18  C   UNL A   1      30.182  25.465  23.247  1.00  0.00     0.047 A 
ATOM     19  Cl  UNL A   1      28.213  27.171  23.876  1.00  0.00    -0.084 Cl
ENDBRANCH   9  12
ENDBRANCH   7   8
ENDBRANCH   6   7
BRANCH   6  20
ATOM     20  N   UNL A   1      32.746  22.143  27.231  1.00  0.00    -0.332 N 
ATOM     21  H   UNL A   1      32.685  21.166  26.941  1.00  0.00     0.347 HD
ATOM     22  H   UNL A   1      32.182  22.413  28.036  1.00  0.00     0.347 HD
BRANCH  20  23
ATOM     23  C   UNL A   1      34.117  22.374  27.668  1.00  0.00     0.299 C 
BRANCH  23  24
ATOM     24  C   UNL A   1      35.056  22.362  26.483  1.00  0.00     0.024 A 
ATOM     25  C   UNL A   1      35.799  23.487  26.107  1.00  0.00     0.013 A 
ATOM     26  C   UNL A   1      35.271  21.196  25.751  1.00  0.00     0.120 A 
ATOM     27  C   UNL A   1      36.723  23.395  25.068  1.00  0.00     0.021 A 
ATOM     28  N   UNL A   1      36.155  21.078  24.730  1.00  0.00    -0.264 NA
ATOM     29  C   UNL A   1      36.869  22.179  24.423  1.00  0.00     0.111 A 
ENDBRANCH  23  24
ENDBRANCH  20  23
ENDBRANCH   6  20
ENDBRANCH   3   6
ENDBRANCH   1   2
BRANCH   1  30
ATOM     30  C   UNL A   1      32.002  27.820  26.331  1.00  0.00     0.042 C 
BRANCH  30  31
ATOM     31  C   UNL A   1      32.809  28.889  25.611  1.00  0.00     0.118 C 
BRANCH  31  32
ATOM     32  N   UNL A   1      32.519  30.236  26.070  1.00  0.00    -0.352 N 
ATOM     33  C   UNL A   1      33.152  31.074  26.955  1.00  0.00     0.251 C 
ATOM     34  H   UNL A   1      31.710  30.626  25.666  1.00  0.00     0.163 HD
ATOM     35  O   UNL A   1      32.575  32.132  27.238  1.00  0.00    -0.269 OA
BRANCH  33  36
ATOM     36  C   UNL A   1      34.466  30.790  27.600  1.00  0.00     0.039 A 
ATOM     37  C   UNL A   1      34.684  29.491  28.090  1.00  0.00     0.014 A 
ATOM     38  C   UNL A   1      35.451  31.751  27.835  1.00  0.00     0.014 A 
ATOM     39  C   UNL A   1      35.862  29.164  28.775  1.00  0.00     0.010 A 
ATOM     40  C   UNL A   1      36.673  31.400  28.427  1.00  0.00     0.010 A 
ATOM     41  C   UNL A   1      36.884  30.111  28.935  1.00  0.00    -0.014 A 
BRANCH  41  42
ATOM     42  C   UNL A   1      38.137  29.775  29.674  1.00  0.00     0.031 A 
ATOM     43  C   UNL A   1      38.376  30.306  31.066  1.00  0.00     0.074 A 
ATOM     44  C   UNL A   1      39.078  29.004  29.092  1.00  0.00     0.049 A 
ATOM     45  N   UNL A   1      39.404  30.123  31.862  1.00  0.00    -0.248 NA
ATOM     46  C   UNL A   1      37.340  31.182  31.633  1.00  0.00     0.031 C 
ATOM     47  C   UNL A   1      39.009  28.468  27.733  1.00  0.00     0.029 A 
ATOM     48  N   UNL A   1      40.278  28.535  29.572  1.00  0.00    -0.354 N 
ATOM     49  C   UNL A   1      39.144  30.874  33.003  1.00  0.00     0.074 A 
ATOM     50  C   UNL A   1      37.892  31.561  32.775  1.00  0.00     0.031 C 
ATOM     51  C   UNL A   1      40.095  27.712  27.501  1.00  0.00     0.029 A 
ATOM     52  C   UNL A   1      40.953  27.734  28.682  1.00  0.00     0.049 A 
ATOM     53  H   UNL A   1      40.621  28.752  30.469  1.00  0.00     0.167 HD
ATOM     54  C   UNL A   1      39.863  30.965  34.149  1.00  0.00     0.037 A 
ATOM     55  C   UNL A   1      42.126  27.083  28.805  1.00  0.00     0.037 A 
ATOM     56  C   UNL A   1      41.090  30.252  34.398  1.00  0.00     0.049 A 
ATOM     57  C   UNL A   1      42.887  27.167  30.101  1.00  0.00     0.074 A 
ATOM     58  C   UNL A   1      41.861  30.232  35.549  1.00  0.00     0.029 A 
ATOM     59  N   UNL A   1      41.721  29.424  33.482  1.00  0.00    -0.354 N 
ATOM     60  N   UNL A   1      42.593  27.827  31.194  1.00  0.00    -0.248 NA
ATOM     61  C   UNL A   1      44.136  26.396  30.184  1.00  0.00     0.031 C 
ATOM     62  C   UNL A   1      42.978  29.424  35.315  1.00  0.00     0.029 A 
ATOM     63  C   UNL A   1      42.878  28.899  34.037  1.00  0.00     0.049 A 
ATOM     64  H   UNL A   1      41.396  29.238  32.572  1.00  0.00     0.167 HD
ATOM     65  C   UNL A   1      43.602  27.532  32.101  1.00  0.00     0.074 A 
ATOM     66  C   UNL A   1      44.505  26.615  31.438  1.00  0.00     0.031 C 
ATOM     67  C   UNL A   1      43.765  27.982  33.370  1.00  0.00     0.037 A 
BRANCH  54  68
ATOM     68  C   UNL A   1      39.335  31.862  35.233  1.00  0.00     0.064 A 
ATOM     69  C   UNL A   1      38.518  31.371  36.263  1.00  0.00     0.173 A 
ATOM     70  C   UNL A   1      39.677  33.223  35.263  1.00  0.00     0.173 A 
ATOM     71  F   UNL A   1      38.153  30.079  36.277  1.00  0.00    -0.203 F 
ATOM     72  C   UNL A   1      38.036  32.213  37.262  1.00  0.00     0.198 A 
ATOM     73  C   UNL A   1      39.219  34.056  36.282  1.00  0.00     0.198 A 
ATOM     74  F   UNL A   1      40.461  33.746  34.309  1.00  0.00    -0.203 F 
ATOM     75  F   UNL A   1      37.214  31.730  38.205  1.00  0.00    -0.200 F 
ATOM     76  C   UNL A   1      38.392  33.552  37.275  1.00  0.00     0.200 A 
ATOM     77  F   UNL A   1      39.576  35.348  36.301  1.00  0.00    -0.200 F 
ATOM     78  F   UNL A   1      37.933  34.361  38.240  1.00  0.00    -0.200 F 
ENDBRANCH  54  68
BRANCH  55  79
ATOM     79  C   UNL A   1      42.633  26.250  27.682  1.00  0.00     0.064 A 
ATOM     80  C   UNL A   1      43.565  26.764  26.769  1.00  0.00     0.173 A 
ATOM     81  C   UNL A   1      42.193  24.932  27.493  1.00  0.00     0.173 A 
ATOM     82  F   UNL A   1      43.999  28.027  26.895  1.00  0.00    -0.203 F 
ATOM     83  C   UNL A   1      44.022  25.999  25.698  1.00  0.00     0.198 A 
ATOM     84  C   UNL A   1      42.673  24.159  26.438  1.00  0.00     0.198 A 
ATOM     85  F   UNL A   1      41.306  24.392  28.342  1.00  0.00    -0.203 F 
ATOM     86  F   UNL A   1      44.876  26.532  24.813  1.00  0.00    -0.200 F 
ATOM     87  C   UNL A   1      43.580  24.695  25.536  1.00  0.00     0.200 A 
ATOM     88  F   UNL A   1      42.254  22.894  26.293  1.00  0.00    -0.200 F 
ATOM     89  F   UNL A   1      44.021  23.958  24.508  1.00  0.00    -0.200 F 
ENDBRANCH  55  79
BRANCH  67  90
ATOM     90  C   UNL A   1      44.945  27.457  34.136  1.00  0.00     0.064 A 
ATOM     91  C   UNL A   1      44.870  26.275  34.889  1.00  0.00     0.173 A 
ATOM     92  C   UNL A   1      46.171  28.140  34.107  1.00  0.00     0.173 A 
ATOM     93  F   UNL A   1      43.717  25.593  34.961  1.00  0.00    -0.203 F 
ATOM     94  C   UNL A   1      45.967  25.818  35.615  1.00  0.00     0.198 A 
ATOM     95  C   UNL A   1      47.275  27.662  34.809  1.00  0.00     0.198 A 
ATOM     96  F   UNL A   1      46.300  29.269  33.395  1.00  0.00    -0.203 F 
ATOM     97  F   UNL A   1      45.854  24.720  36.376  1.00  0.00    -0.200 F 
ATOM     98  C   UNL A   1      47.169  26.509  35.571  1.00  0.00     0.200 A 
ATOM     99  F   UNL A   1      48.439  28.324  34.755  1.00  0.00    -0.200 F 
ATOM    100  F   UNL A   1      48.222  26.068  36.272  1.00  0.00    -0.200 F 
ENDBRANCH  67  90
ENDBRANCH  41  42
ENDBRANCH  33  36
ENDBRANCH  31  32
ENDBRANCH  30  31
ENDBRANCH   1  30
TORSDOF 16
ENDMDL
