MODEL 1
REMARK VINA RESULT:     -12.6      0.000      0.000
REMARK SMILES CC[NH2+][C@@]1(C(=O)NCCCNC(=O)c2ccc(-c3c4nc(c(-c5c(F)c(F)c(F)c(F)c5F)c5ccc([nH]5)c(-c5c(F)c(F)c(F)c(F)c5F)c5nc(c(-c6c(F)c(F)c(F)c(F)c6F)c6ccc3[nH]6)C=C5)C=C4)cc2)CC[C@H]([NH+]2CCC(C(C)(C)C)CC2)C1
REMARK SMILES IDX 9 1 8 2 7 3 5 4 6 5 4 7 77 8 90 9 78 10 79 11 3 12 2 15 1 16
REMARK SMILES IDX 80 17 81 18 89 19 82 21 88 22 83 23 84 24 85 25 86 26 87 27
REMARK SMILES IDX 10 28 11 29 12 30 13 32 14 33 15 34 76 35 16 36 75 37 17 38
REMARK SMILES IDX 18 39 19 40 69 41 20 42 74 43 68 44 70 45 21 46 73 47 67 48
REMARK SMILES IDX 66 49 22 51 54 52 34 53 53 54 35 55 38 56 52 57 71 58 36 59
REMARK SMILES IDX 37 60 51 62 72 63 39 64 23 65 24 66 32 67 25 68 26 69 30 70
REMARK SMILES IDX 33 71 27 72 28 73 31 74 29 75 55 76 56 77 64 78 57 79 58 80
REMARK SMILES IDX 62 81 65 82 59 83 60 84 63 85 61 86 40 87 41 88 49 89 42 90
REMARK SMILES IDX 43 91 47 92 50 93 44 94 45 95 48 96 46 97
REMARK H PARENT 7 6 3 13 3 14 80 20 11 31 70 50 38 61
REMARK Flexibility Score: inf
ROOT
ATOM      1  C   UNL A   1      31.823  31.431  27.072  1.00  0.00     0.042 C 
ENDROOT
BRANCH   1   2
ATOM      2  C   UNL A   1      30.691  31.788  26.088  1.00  0.00     0.118 C 
BRANCH   2   3
ATOM      3  N   UNL A   1      30.790  31.065  24.800  1.00  0.00    -0.351 N 
ATOM      4  C   UNL A   1      29.689  30.863  23.970  1.00  0.00     0.281 C 
ATOM      5  O   UNL A   1      28.689  31.577  24.093  1.00  0.00    -0.268 OA
ATOM      6  H   UNL A   1      31.666  30.715  24.518  1.00  0.00     0.163 HD
BRANCH   4   7
ATOM      7  C   UNL A   1      29.748  29.702  22.853  1.00  0.00     0.181 C 
ATOM      8  C   UNL A   1      28.575  28.680  22.973  1.00  0.00     0.085 C 
ATOM      9  C   UNL A   1      30.975  28.745  22.921  1.00  0.00     0.144 C 
ATOM     10  C   UNL A   1      29.101  27.342  23.501  1.00  0.00     0.072 C 
ATOM     11  C   UNL A   1      30.589  27.497  23.795  1.00  0.00     0.191 C 
BRANCH   7  12
ATOM     12  N   UNL A   1      29.676  30.389  21.516  1.00  0.00    -0.334 N 
ATOM     13  H   UNL A   1      30.110  31.308  21.598  1.00  0.00     0.347 HD
ATOM     14  H   UNL A   1      30.164  29.802  20.839  1.00  0.00     0.347 HD
BRANCH  12  15
ATOM     15  C   UNL A   1      28.283  30.561  21.042  1.00  0.00     0.257 C 
ATOM     16  C   UNL A   1      28.028  31.981  20.552  1.00  0.00     0.071 C 
ENDBRANCH  12  15
ENDBRANCH   7  12
BRANCH  11  17
ATOM     17  N   UNL A   1      31.030  27.456  25.200  1.00  0.00    -0.332 N 
ATOM     18  C   UNL A   1      32.401  27.822  25.565  1.00  0.00     0.262 C 
ATOM     19  C   UNL A   1      30.659  26.300  25.966  1.00  0.00     0.262 C 
ATOM     20  H   UNL A   1      30.457  28.259  25.461  1.00  0.00     0.348 HD
ATOM     21  C   UNL A   1      33.454  26.678  25.676  1.00  0.00     0.066 C 
ATOM     22  C   UNL A   1      31.510  25.106  25.599  1.00  0.00     0.066 C 
ATOM     23  C   UNL A   1      32.932  25.270  26.077  1.00  0.00     0.005 C 
BRANCH  23  24
ATOM     24  C   UNL A   1      33.819  24.038  25.634  1.00  0.00    -0.035 C 
ATOM     25  C   UNL A   1      34.117  23.184  26.875  1.00  0.00     0.011 C 
ATOM     26  C   UNL A   1      33.080  23.127  24.614  1.00  0.00     0.011 C 
ATOM     27  C   UNL A   1      35.147  24.447  24.960  1.00  0.00     0.011 C 
ENDBRANCH  23  24
ENDBRANCH  11  17
ENDBRANCH   4   7
ENDBRANCH   2   3
ENDBRANCH   1   2
BRANCH   1  28
ATOM     28  C   UNL A   1      32.952  32.457  27.210  1.00  0.00     0.118 C 
BRANCH  28  29
ATOM     29  N   UNL A   1      32.554  33.808  27.627  1.00  0.00    -0.352 N 
ATOM     30  C   UNL A   1      33.070  34.686  28.565  1.00  0.00     0.251 C 
ATOM     31  H   UNL A   1      31.768  34.157  27.147  1.00  0.00     0.163 HD
ATOM     32  O   UNL A   1      32.531  35.786  28.723  1.00  0.00    -0.269 OA
BRANCH  30  33
ATOM     33  C   UNL A   1      34.229  34.333  29.425  1.00  0.00     0.039 A 
ATOM     34  C   UNL A   1      34.028  33.744  30.683  1.00  0.00     0.014 A 
ATOM     35  C   UNL A   1      35.527  34.559  28.992  1.00  0.00     0.014 A 
ATOM     36  C   UNL A   1      35.123  33.272  31.425  1.00  0.00     0.010 A 
ATOM     37  C   UNL A   1      36.587  33.940  29.637  1.00  0.00     0.010 A 
ATOM     38  C   UNL A   1      36.412  33.300  30.874  1.00  0.00    -0.014 A 
BRANCH  38  39
ATOM     39  C   UNL A   1      37.618  32.728  31.541  1.00  0.00     0.031 A 
ATOM     40  C   UNL A   1      38.364  31.599  30.865  1.00  0.00     0.074 A 
ATOM     41  C   UNL A   1      37.958  33.097  32.793  1.00  0.00     0.049 A 
ATOM     42  N   UNL A   1      39.243  30.763  31.358  1.00  0.00    -0.248 NA
ATOM     43  C   UNL A   1      38.004  31.321  29.462  1.00  0.00     0.031 C 
ATOM     44  C   UNL A   1      37.286  34.124  33.592  1.00  0.00     0.029 A 
ATOM     45  N   UNL A   1      38.941  32.626  33.629  1.00  0.00    -0.354 N 
ATOM     46  C   UNL A   1      39.476  29.829  30.353  1.00  0.00     0.074 A 
ATOM     47  C   UNL A   1      38.586  30.151  29.261  1.00  0.00     0.031 C 
ATOM     48  C   UNL A   1      37.896  34.228  34.783  1.00  0.00     0.029 A 
ATOM     49  C   UNL A   1      38.965  33.240  34.859  1.00  0.00     0.049 A 
ATOM     50  H   UNL A   1      39.571  31.913  33.372  1.00  0.00     0.167 HD
ATOM     51  C   UNL A   1      40.380  28.822  30.322  1.00  0.00     0.037 A 
ATOM     52  C   UNL A   1      39.752  33.018  35.930  1.00  0.00     0.037 A 
ATOM     53  C   UNL A   1      41.329  28.577  31.373  1.00  0.00     0.049 A 
ATOM     54  C   UNL A   1      40.794  31.933  35.855  1.00  0.00     0.074 A 
ATOM     55  C   UNL A   1      42.364  27.661  31.407  1.00  0.00     0.029 A 
ATOM     56  N   UNL A   1      41.369  29.276  32.572  1.00  0.00    -0.354 N 
ATOM     57  N   UNL A   1      41.049  31.097  34.876  1.00  0.00    -0.248 NA
ATOM     58  C   UNL A   1      41.658  31.758  37.030  1.00  0.00     0.031 C 
ATOM     59  C   UNL A   1      43.006  27.777  32.643  1.00  0.00     0.029 A 
ATOM     60  C   UNL A   1      42.404  28.799  33.359  1.00  0.00     0.049 A 
ATOM     61  H   UNL A   1      40.754  30.001  32.824  1.00  0.00     0.167 HD
ATOM     62  C   UNL A   1      42.117  30.320  35.303  1.00  0.00     0.074 A 
ATOM     63  C   UNL A   1      42.474  30.795  36.624  1.00  0.00     0.031 C 
ATOM     64  C   UNL A   1      42.746  29.304  34.664  1.00  0.00     0.037 A 
BRANCH  51  65
ATOM     65  C   UNL A   1      40.406  27.937  29.106  1.00  0.00     0.064 A 
ATOM     66  C   UNL A   1      41.185  28.249  27.979  1.00  0.00     0.173 A 
ATOM     67  C   UNL A   1      39.658  26.750  29.069  1.00  0.00     0.173 A 
ATOM     68  F   UNL A   1      41.914  29.376  27.952  1.00  0.00    -0.203 F 
ATOM     69  C   UNL A   1      41.175  27.436  26.849  1.00  0.00     0.198 A 
ATOM     70  C   UNL A   1      39.683  25.918  27.952  1.00  0.00     0.198 A 
ATOM     71  F   UNL A   1      38.902  26.394  30.119  1.00  0.00    -0.203 F 
ATOM     72  F   UNL A   1      41.870  27.798  25.760  1.00  0.00    -0.200 F 
ATOM     73  C   UNL A   1      40.431  26.268  26.838  1.00  0.00     0.200 A 
ATOM     74  F   UNL A   1      38.975  24.779  27.951  1.00  0.00    -0.200 F 
ATOM     75  F   UNL A   1      40.426  25.483  25.752  1.00  0.00    -0.200 F 
ENDBRANCH  51  65
BRANCH  52  76
ATOM     76  C   UNL A   1      39.617  33.865  37.148  1.00  0.00     0.064 A 
ATOM     77  C   UNL A   1      38.819  33.446  38.224  1.00  0.00     0.173 A 
ATOM     78  C   UNL A   1      40.275  35.097  37.270  1.00  0.00     0.173 A 
ATOM     79  F   UNL A   1      38.152  32.285  38.148  1.00  0.00    -0.203 F 
ATOM     80  C   UNL A   1      38.670  34.235  39.363  1.00  0.00     0.198 A 
ATOM     81  C   UNL A   1      40.150  35.871  38.423  1.00  0.00     0.198 A 
ATOM     82  F   UNL A   1      41.056  35.543  36.275  1.00  0.00    -0.203 F 
ATOM     83  F   UNL A   1      37.865  33.830  40.354  1.00  0.00    -0.200 F 
ATOM     84  C   UNL A   1      39.342  35.444  39.465  1.00  0.00     0.200 A 
ATOM     85  F   UNL A   1      40.813  37.032  38.525  1.00  0.00    -0.200 F 
ATOM     86  F   UNL A   1      39.202  36.198  40.563  1.00  0.00    -0.200 F 
ENDBRANCH  52  76
BRANCH  64  87
ATOM     87  C   UNL A   1      43.906  28.660  35.365  1.00  0.00     0.064 A 
ATOM     88  C   UNL A   1      43.728  27.572  36.230  1.00  0.00     0.173 A 
ATOM     89  C   UNL A   1      45.215  29.097  35.114  1.00  0.00     0.173 A 
ATOM     90  F   UNL A   1      42.494  27.126  36.512  1.00  0.00    -0.203 F 
ATOM     91  C   UNL A   1      44.820  26.956  36.836  1.00  0.00     0.198 A 
ATOM     92  C   UNL A   1      46.306  28.460  35.696  1.00  0.00     0.198 A 
ATOM     93  F   UNL A   1      45.436  30.129  34.285  1.00  0.00    -0.203 F 
ATOM     94  F   UNL A   1      44.626  25.944  37.692  1.00  0.00    -0.200 F 
ATOM     95  C   UNL A   1      46.107  27.394  36.560  1.00  0.00     0.200 A 
ATOM     96  F   UNL A   1      47.549  28.871  35.413  1.00  0.00    -0.200 F 
ATOM     97  F   UNL A   1      47.158  26.789  37.132  1.00  0.00    -0.200 F 
ENDBRANCH  64  87
ENDBRANCH  38  39
ENDBRANCH  30  33
ENDBRANCH  28  29
ENDBRANCH   1  28
TORSDOF 14
ENDMDL
MODEL 2
REMARK VINA RESULT:     -12.5      5.137     10.545
REMARK SMILES CC[NH2+][C@@]1(C(=O)NCCCNC(=O)c2ccc(-c3c4nc(c(-c5c(F)c(F)c(F)c(F)c5F)c5ccc([nH]5)c(-c5c(F)c(F)c(F)c(F)c5F)c5nc(c(-c6c(F)c(F)c(F)c(F)c6F)c6ccc3[nH]6)C=C5)C=C4)cc2)CC[C@H]([NH+]2CCC(C(C)(C)C)CC2)C1
REMARK SMILES IDX 9 1 8 2 7 3 5 4 6 5 4 7 77 8 90 9 78 10 79 11 3 12 2 15 1 16
REMARK SMILES IDX 80 17 81 18 89 19 82 21 88 22 83 23 84 24 85 25 86 26 87 27
REMARK SMILES IDX 10 28 11 29 12 30 13 32 14 33 15 34 76 35 16 36 75 37 17 38
REMARK SMILES IDX 18 39 19 40 69 41 20 42 74 43 68 44 70 45 21 46 73 47 67 48
REMARK SMILES IDX 66 49 22 51 54 52 34 53 53 54 35 55 38 56 52 57 71 58 36 59
REMARK SMILES IDX 37 60 51 62 72 63 39 64 23 65 24 66 32 67 25 68 26 69 30 70
REMARK SMILES IDX 33 71 27 72 28 73 31 74 29 75 55 76 56 77 64 78 57 79 58 80
REMARK SMILES IDX 62 81 65 82 59 83 60 84 63 85 61 86 40 87 41 88 49 89 42 90
REMARK SMILES IDX 43 91 47 92 50 93 44 94 45 95 48 96 46 97
REMARK H PARENT 7 6 3 13 3 14 80 20 11 31 70 50 38 61
REMARK Flexibility Score: inf
ROOT
ATOM      1  C   UNL A   1      36.484  23.372  24.459  1.00  0.00     0.042 C 
ENDROOT
BRANCH   1   2
ATOM      2  C   UNL A   1      35.538  22.927  23.327  1.00  0.00     0.118 C 
BRANCH   2   3
ATOM      3  N   UNL A   1      34.111  22.937  23.723  1.00  0.00    -0.351 N 
ATOM      4  C   UNL A   1      33.384  24.116  23.868  1.00  0.00     0.281 C 
ATOM      5  O   UNL A   1      33.783  25.153  23.330  1.00  0.00    -0.268 OA
ATOM      6  H   UNL A   1      33.659  22.078  23.889  1.00  0.00     0.163 HD
BRANCH   4   7
ATOM      7  C   UNL A   1      32.021  24.099  24.730  1.00  0.00     0.181 C 
ATOM      8  C   UNL A   1      30.738  24.072  23.842  1.00  0.00     0.085 C 
ATOM      9  C   UNL A   1      31.745  25.360  25.601  1.00  0.00     0.144 C 
ATOM     10  C   UNL A   1      30.032  25.430  23.904  1.00  0.00     0.072 C 
ATOM     11  C   UNL A   1      30.874  26.367  24.765  1.00  0.00     0.191 C 
BRANCH   7  12
ATOM     12  N   UNL A   1      32.065  22.858  25.579  1.00  0.00    -0.334 N 
ATOM     13  H   UNL A   1      31.217  22.317  25.411  1.00  0.00     0.347 HD
ATOM     14  H   UNL A   1      32.902  22.334  25.319  1.00  0.00     0.347 HD
BRANCH  12  15
ATOM     15  C   UNL A   1      32.157  23.162  27.025  1.00  0.00     0.257 C 
ATOM     16  C   UNL A   1      33.389  22.524  27.656  1.00  0.00     0.071 C 
ENDBRANCH  12  15
ENDBRANCH   7  12
BRANCH  11  17
ATOM     17  N   UNL A   1      31.543  27.503  24.109  1.00  0.00    -0.332 N 
ATOM     18  C   UNL A   1      31.541  28.831  24.727  1.00  0.00     0.262 C 
ATOM     19  C   UNL A   1      31.319  27.666  22.701  1.00  0.00     0.262 C 
ATOM     20  H   UNL A   1      32.476  27.125  24.282  1.00  0.00     0.348 HD
ATOM     21  C   UNL A   1      30.424  29.830  24.299  1.00  0.00     0.066 C 
ATOM     22  C   UNL A   1      29.947  28.238  22.430  1.00  0.00     0.066 C 
ATOM     23  C   UNL A   1      29.852  29.682  22.862  1.00  0.00     0.005 C 
BRANCH  23  24
ATOM     24  C   UNL A   1      28.393  30.244  22.623  1.00  0.00    -0.035 C 
ATOM     25  C   UNL A   1      27.384  29.155  23.011  1.00  0.00     0.011 C 
ATOM     26  C   UNL A   1      28.096  31.485  23.512  1.00  0.00     0.011 C 
ATOM     27  C   UNL A   1      28.137  30.688  21.167  1.00  0.00     0.011 C 
ENDBRANCH  23  24
ENDBRANCH  11  17
ENDBRANCH   4   7
ENDBRANCH   2   3
ENDBRANCH   1   2
BRANCH   1  28
ATOM     28  C   UNL A   1      36.578  22.442  25.673  1.00  0.00     0.118 C 
BRANCH  28  29
ATOM     29  N   UNL A   1      37.635  21.423  25.629  1.00  0.00    -0.352 N 
ATOM     30  C   UNL A   1      38.954  21.427  26.050  1.00  0.00     0.251 C 
ATOM     31  H   UNL A   1      37.351  20.573  25.220  1.00  0.00     0.163 HD
ATOM     32  O   UNL A   1      39.642  20.414  25.887  1.00  0.00    -0.269 OA
BRANCH  30  33
ATOM     33  C   UNL A   1      39.588  22.627  26.653  1.00  0.00     0.039 A 
ATOM     34  C   UNL A   1      40.576  22.490  27.640  1.00  0.00     0.014 A 
ATOM     35  C   UNL A   1      39.232  23.901  26.236  1.00  0.00     0.014 A 
ATOM     36  C   UNL A   1      41.282  23.616  28.096  1.00  0.00     0.010 A 
ATOM     37  C   UNL A   1      40.041  24.982  26.552  1.00  0.00     0.010 A 
ATOM     38  C   UNL A   1      41.070  24.868  27.500  1.00  0.00    -0.014 A 
BRANCH  38  39
ATOM     39  C   UNL A   1      41.843  26.098  27.843  1.00  0.00     0.031 A 
ATOM     40  C   UNL A   1      41.165  27.193  28.634  1.00  0.00     0.074 A 
ATOM     41  C   UNL A   1      43.073  26.307  27.331  1.00  0.00     0.049 A 
ATOM     42  N   UNL A   1      41.517  28.443  28.805  1.00  0.00    -0.248 NA
ATOM     43  C   UNL A   1      39.866  26.855  29.245  1.00  0.00     0.031 C 
ATOM     44  C   UNL A   1      43.821  25.366  26.495  1.00  0.00     0.029 A 
ATOM     45  N   UNL A   1      43.904  27.398  27.417  1.00  0.00    -0.354 N 
ATOM     46  C   UNL A   1      40.454  29.043  29.472  1.00  0.00     0.074 A 
ATOM     47  C   UNL A   1      39.415  28.048  29.598  1.00  0.00     0.031 C 
ATOM     48  C   UNL A   1      45.009  25.904  26.175  1.00  0.00     0.029 A 
ATOM     49  C   UNL A   1      45.088  27.249  26.732  1.00  0.00     0.049 A 
ATOM     50  H   UNL A   1      43.674  28.212  27.921  1.00  0.00     0.167 HD
ATOM     51  C   UNL A   1      40.366  30.296  29.977  1.00  0.00     0.037 A 
ATOM     52  C   UNL A   1      46.112  28.108  26.564  1.00  0.00     0.037 A 
ATOM     53  C   UNL A   1      41.446  31.244  29.935  1.00  0.00     0.049 A 
ATOM     54  C   UNL A   1      46.022  29.478  27.184  1.00  0.00     0.074 A 
ATOM     55  C   UNL A   1      41.516  32.500  30.509  1.00  0.00     0.029 A 
ATOM     56  N   UNL A   1      42.660  31.023  29.299  1.00  0.00    -0.354 N 
ATOM     57  N   UNL A   1      45.039  30.013  27.869  1.00  0.00    -0.248 NA
ATOM     58  C   UNL A   1      47.182  30.363  27.011  1.00  0.00     0.031 C 
ATOM     59  C   UNL A   1      42.757  33.057  30.185  1.00  0.00     0.029 A 
ATOM     60  C   UNL A   1      43.480  32.128  29.453  1.00  0.00     0.049 A 
ATOM     61  H   UNL A   1      42.900  30.204  28.810  1.00  0.00     0.167 HD
ATOM     62  C   UNL A   1      45.471  31.282  28.231  1.00  0.00     0.074 A 
ATOM     63  C   UNL A   1      46.812  31.430  27.705  1.00  0.00     0.031 C 
ATOM     64  C   UNL A   1      44.818  32.240  28.932  1.00  0.00     0.037 A 
BRANCH  51  65
ATOM     65  C   UNL A   1      39.078  30.699  30.641  1.00  0.00     0.064 A 
ATOM     66  C   UNL A   1      38.901  30.609  32.032  1.00  0.00     0.173 A 
ATOM     67  C   UNL A   1      38.010  31.201  29.882  1.00  0.00     0.173 A 
ATOM     68  F   UNL A   1      39.886  30.128  32.808  1.00  0.00    -0.203 F 
ATOM     69  C   UNL A   1      37.693  30.957  32.628  1.00  0.00     0.198 A 
ATOM     70  C   UNL A   1      36.816  31.587  30.488  1.00  0.00     0.198 A 
ATOM     71  F   UNL A   1      38.121  31.320  28.550  1.00  0.00    -0.203 F 
ATOM     72  F   UNL A   1      37.528  30.790  33.949  1.00  0.00    -0.200 F 
ATOM     73  C   UNL A   1      36.653  31.453  31.858  1.00  0.00     0.200 A 
ATOM     74  F   UNL A   1      35.817  32.082  29.743  1.00  0.00    -0.200 F 
ATOM     75  F   UNL A   1      35.492  31.792  32.435  1.00  0.00    -0.200 F 
ENDBRANCH  51  65
BRANCH  52  76
ATOM     76  C   UNL A   1      47.327  27.687  25.812  1.00  0.00     0.064 A 
ATOM     77  C   UNL A   1      48.447  27.182  26.490  1.00  0.00     0.173 A 
ATOM     78  C   UNL A   1      47.399  27.773  24.414  1.00  0.00     0.173 A 
ATOM     79  F   UNL A   1      48.437  27.099  27.828  1.00  0.00    -0.203 F 
ATOM     80  C   UNL A   1      49.597  26.800  25.801  1.00  0.00     0.198 A 
ATOM     81  C   UNL A   1      48.539  27.361  23.724  1.00  0.00     0.198 A 
ATOM     82  F   UNL A   1      46.355  28.242  23.715  1.00  0.00    -0.203 F 
ATOM     83  F   UNL A   1      50.667  26.365  26.479  1.00  0.00    -0.200 F 
ATOM     84  C   UNL A   1      49.639  26.883  24.418  1.00  0.00     0.200 A 
ATOM     85  F   UNL A   1      48.570  27.427  22.385  1.00  0.00    -0.200 F 
ATOM     86  F   UNL A   1      50.743  26.509  23.756  1.00  0.00    -0.200 F 
ENDBRANCH  52  76
BRANCH  64  87
ATOM     87  C   UNL A   1      45.555  33.518  29.206  1.00  0.00     0.064 A 
ATOM     88  C   UNL A   1      45.456  34.621  28.346  1.00  0.00     0.173 A 
ATOM     89  C   UNL A   1      46.314  33.660  30.376  1.00  0.00     0.173 A 
ATOM     90  F   UNL A   1      44.752  34.529  27.208  1.00  0.00    -0.203 F 
ATOM     91  C   UNL A   1      46.108  35.815  28.639  1.00  0.00     0.198 A 
ATOM     92  C   UNL A   1      46.939  34.865  30.683  1.00  0.00     0.198 A 
ATOM     93  F   UNL A   1      46.431  32.636  31.236  1.00  0.00    -0.203 F 
ATOM     94  F   UNL A   1      46.035  36.843  27.784  1.00  0.00    -0.200 F 
ATOM     95  C   UNL A   1      46.840  35.938  29.812  1.00  0.00     0.200 A 
ATOM     96  F   UNL A   1      47.629  34.989  31.825  1.00  0.00    -0.200 F 
ATOM     97  F   UNL A   1      47.454  37.095  30.099  1.00  0.00    -0.200 F 
ENDBRANCH  64  87
ENDBRANCH  38  39
ENDBRANCH  30  33
ENDBRANCH  28  29
ENDBRANCH   1  28
TORSDOF 14
ENDMDL
MODEL 3
REMARK VINA RESULT:     -12.4      1.120      2.531
REMARK SMILES CC[NH2+][C@@]1(C(=O)NCCCNC(=O)c2ccc(-c3c4nc(c(-c5c(F)c(F)c(F)c(F)c5F)c5ccc([nH]5)c(-c5c(F)c(F)c(F)c(F)c5F)c5nc(c(-c6c(F)c(F)c(F)c(F)c6F)c6ccc3[nH]6)C=C5)C=C4)cc2)CC[C@H]([NH+]2CCC(C(C)(C)C)CC2)C1
REMARK SMILES IDX 9 1 8 2 7 3 5 4 6 5 4 7 77 8 90 9 78 10 79 11 3 12 2 15 1 16
REMARK SMILES IDX 80 17 81 18 89 19 82 21 88 22 83 23 84 24 85 25 86 26 87 27
REMARK SMILES IDX 10 28 11 29 12 30 13 32 14 33 15 34 76 35 16 36 75 37 17 38
REMARK SMILES IDX 18 39 19 40 69 41 20 42 74 43 68 44 70 45 21 46 73 47 67 48
REMARK SMILES IDX 66 49 22 51 54 52 34 53 53 54 35 55 38 56 52 57 71 58 36 59
REMARK SMILES IDX 37 60 51 62 72 63 39 64 23 65 24 66 32 67 25 68 26 69 30 70
REMARK SMILES IDX 33 71 27 72 28 73 31 74 29 75 55 76 56 77 64 78 57 79 58 80
REMARK SMILES IDX 62 81 65 82 59 83 60 84 63 85 61 86 40 87 41 88 49 89 42 90
REMARK SMILES IDX 43 91 47 92 50 93 44 94 45 95 48 96 46 97
REMARK H PARENT 7 6 3 13 3 14 80 20 11 31 70 50 38 61
REMARK Flexibility Score: inf
ROOT
ATOM      1  C   UNL A   1      31.716  31.565  26.746  1.00  0.00     0.042 C 
ENDROOT
BRANCH   1   2
ATOM      2  C   UNL A   1      32.014  30.055  26.690  1.00  0.00     0.118 C 
BRANCH   2   3
ATOM      3  N   UNL A   1      31.576  29.420  25.426  1.00  0.00    -0.351 N 
ATOM      4  C   UNL A   1      31.374  28.047  25.309  1.00  0.00     0.281 C 
ATOM      5  O   UNL A   1      31.198  27.365  26.324  1.00  0.00    -0.268 OA
ATOM      6  H   UNL A   1      31.422  29.990  24.638  1.00  0.00     0.163 HD
BRANCH   4   7
ATOM      7  C   UNL A   1      31.362  27.375  23.844  1.00  0.00     0.181 C 
ATOM      8  C   UNL A   1      30.108  26.480  23.595  1.00  0.00     0.085 C 
ATOM      9  C   UNL A   1      32.506  26.362  23.544  1.00  0.00     0.144 C 
ATOM     10  C   UNL A   1      30.514  25.002  23.592  1.00  0.00     0.072 C 
ATOM     11  C   UNL A   1      32.004  24.916  23.905  1.00  0.00     0.191 C 
BRANCH   7  12
ATOM     12  N   UNL A   1      31.371  28.506  22.853  1.00  0.00    -0.334 N 
ATOM     13  H   UNL A   1      31.656  29.359  23.333  1.00  0.00     0.347 HD
ATOM     14  H   UNL A   1      32.023  28.259  22.107  1.00  0.00     0.347 HD
BRANCH  12  15
ATOM     15  C   UNL A   1      30.044  28.729  22.234  1.00  0.00     0.257 C 
ATOM     16  C   UNL A   1      29.508  30.122  22.543  1.00  0.00     0.071 C 
ENDBRANCH  12  15
ENDBRANCH   7  12
BRANCH  11  17
ATOM     17  N   UNL A   1      32.413  24.329  25.193  1.00  0.00    -0.332 N 
ATOM     18  C   UNL A   1      33.460  24.956  26.003  1.00  0.00     0.262 C 
ATOM     19  C   UNL A   1      32.615  22.908  25.226  1.00  0.00     0.262 C 
ATOM     20  H   UNL A   1      31.533  24.576  25.648  1.00  0.00     0.348 HD
ATOM     21  C   UNL A   1      34.921  24.446  25.825  1.00  0.00     0.066 C 
ATOM     22  C   UNL A   1      33.922  22.528  24.567  1.00  0.00     0.066 C 
ATOM     23  C   UNL A   1      35.107  22.964  25.394  1.00  0.00     0.005 C 
BRANCH  23  24
ATOM     24  C   UNL A   1      36.463  22.609  24.661  1.00  0.00    -0.035 C 
ATOM     25  C   UNL A   1      37.600  23.379  25.346  1.00  0.00     0.011 C 
ATOM     26  C   UNL A   1      36.802  21.095  24.767  1.00  0.00     0.011 C 
ATOM     27  C   UNL A   1      36.452  22.941  23.153  1.00  0.00     0.011 C 
ENDBRANCH  23  24
ENDBRANCH  11  17
ENDBRANCH   4   7
ENDBRANCH   2   3
ENDBRANCH   1   2
BRANCH   1  28
ATOM     28  C   UNL A   1      32.856  32.465  27.234  1.00  0.00     0.118 C 
BRANCH  28  29
ATOM     29  N   UNL A   1      32.485  33.836  27.610  1.00  0.00    -0.352 N 
ATOM     30  C   UNL A   1      33.031  34.738  28.507  1.00  0.00     0.251 C 
ATOM     31  H   UNL A   1      31.696  34.180  27.132  1.00  0.00     0.163 HD
ATOM     32  O   UNL A   1      32.510  35.851  28.637  1.00  0.00    -0.269 OA
BRANCH  30  33
ATOM     33  C   UNL A   1      34.199  34.398  29.359  1.00  0.00     0.039 A 
ATOM     34  C   UNL A   1      34.014  33.873  30.647  1.00  0.00     0.014 A 
ATOM     35  C   UNL A   1      35.492  34.573  28.889  1.00  0.00     0.014 A 
ATOM     36  C   UNL A   1      35.113  33.410  31.387  1.00  0.00     0.010 A 
ATOM     37  C   UNL A   1      36.552  33.959  29.539  1.00  0.00     0.010 A 
ATOM     38  C   UNL A   1      36.390  33.382  30.808  1.00  0.00    -0.014 A 
BRANCH  38  39
ATOM     39  C   UNL A   1      37.598  32.813  31.476  1.00  0.00     0.031 A 
ATOM     40  C   UNL A   1      38.325  31.662  30.818  1.00  0.00     0.074 A 
ATOM     41  C   UNL A   1      37.953  33.207  32.716  1.00  0.00     0.049 A 
ATOM     42  N   UNL A   1      39.201  30.829  31.321  1.00  0.00    -0.248 NA
ATOM     43  C   UNL A   1      37.948  31.356  29.426  1.00  0.00     0.031 C 
ATOM     44  C   UNL A   1      37.300  34.258  33.498  1.00  0.00     0.029 A 
ATOM     45  N   UNL A   1      38.941  32.744  33.552  1.00  0.00    -0.354 N 
ATOM     46  C   UNL A   1      39.414  29.870  30.336  1.00  0.00     0.074 A 
ATOM     47  C   UNL A   1      38.517  30.175  29.246  1.00  0.00     0.031 C 
ATOM     48  C   UNL A   1      37.923  34.383  34.681  1.00  0.00     0.029 A 
ATOM     49  C   UNL A   1      38.983  33.386  34.768  1.00  0.00     0.049 A 
ATOM     50  H   UNL A   1      39.561  32.020  33.305  1.00  0.00     0.167 HD
ATOM     51  C   UNL A   1      40.308  28.853  30.318  1.00  0.00     0.037 A 
ATOM     52  C   UNL A   1      39.779  33.181  35.836  1.00  0.00     0.037 A 
ATOM     53  C   UNL A   1      41.265  28.622  31.365  1.00  0.00     0.049 A 
ATOM     54  C   UNL A   1      40.809  32.083  35.775  1.00  0.00     0.074 A 
ATOM     55  C   UNL A   1      42.291  27.697  31.409  1.00  0.00     0.029 A 
ATOM     56  N   UNL A   1      41.325  29.347  32.547  1.00  0.00    -0.354 N 
ATOM     57  N   UNL A   1      41.047  31.224  34.812  1.00  0.00    -0.248 NA
ATOM     58  C   UNL A   1      41.684  31.926  36.945  1.00  0.00     0.031 C 
ATOM     59  C   UNL A   1      42.948  27.834  32.636  1.00  0.00     0.029 A 
ATOM     60  C   UNL A   1      42.363  28.879  33.334  1.00  0.00     0.049 A 
ATOM     61  H   UNL A   1      40.719  30.084  32.789  1.00  0.00     0.167 HD
ATOM     62  C   UNL A   1      42.111  30.446  35.247  1.00  0.00     0.074 A 
ATOM     63  C   UNL A   1      42.486  30.946  36.553  1.00  0.00     0.031 C 
ATOM     64  C   UNL A   1      42.723  29.409  34.625  1.00  0.00     0.037 A 
BRANCH  51  65
ATOM     65  C   UNL A   1      40.313  27.941  29.122  1.00  0.00     0.064 A 
ATOM     66  C   UNL A   1      39.556  26.758  29.089  1.00  0.00     0.173 A 
ATOM     67  C   UNL A   1      41.069  28.260  27.984  1.00  0.00     0.173 A 
ATOM     68  F   UNL A   1      38.820  26.396  30.151  1.00  0.00    -0.203 F 
ATOM     69  C   UNL A   1      39.595  25.908  27.986  1.00  0.00     0.198 A 
ATOM     70  C   UNL A   1      41.073  27.428  26.866  1.00  0.00     0.198 A 
ATOM     71  F   UNL A   1      41.806  29.381  27.951  1.00  0.00    -0.203 F 
ATOM     72  F   UNL A   1      38.921  24.749  28.012  1.00  0.00    -0.200 F 
ATOM     73  C   UNL A   1      40.347  26.247  26.873  1.00  0.00     0.200 A 
ATOM     74  F   UNL A   1      41.789  27.766  25.783  1.00  0.00    -0.200 F 
ATOM     75  F   UNL A   1      40.380  25.431  25.811  1.00  0.00    -0.200 F 
ENDBRANCH  51  65
BRANCH  52  76
ATOM     76  C   UNL A   1      39.665  34.056  37.035  1.00  0.00     0.064 A 
ATOM     77  C   UNL A   1      40.347  35.281  37.094  1.00  0.00     0.173 A 
ATOM     78  C   UNL A   1      38.877  33.699  38.139  1.00  0.00     0.173 A 
ATOM     79  F   UNL A   1      41.129  35.659  36.073  1.00  0.00    -0.203 F 
ATOM     80  C   UNL A   1      40.262  36.102  38.217  1.00  0.00     0.198 A 
ATOM     81  C   UNL A   1      38.769  34.536  39.250  1.00  0.00     0.198 A 
ATOM     82  F   UNL A   1      38.198  32.542  38.135  1.00  0.00    -0.203 F 
ATOM     83  F   UNL A   1      40.962  37.244  38.262  1.00  0.00    -0.200 F 
ATOM     84  C   UNL A   1      39.467  35.733  39.290  1.00  0.00     0.200 A 
ATOM     85  F   UNL A   1      37.987  34.184  40.280  1.00  0.00    -0.200 F 
ATOM     86  F   UNL A   1      39.382  36.527  40.367  1.00  0.00    -0.200 F 
ENDBRANCH  52  76
BRANCH  64  87
ATOM     87  C   UNL A   1      43.884  28.770  35.328  1.00  0.00     0.064 A 
ATOM     88  C   UNL A   1      45.201  29.196  35.107  1.00  0.00     0.173 A 
ATOM     89  C   UNL A   1      43.667  27.766  36.283  1.00  0.00     0.173 A 
ATOM     90  F   UNL A   1      45.460  30.144  34.193  1.00  0.00    -0.203 F 
ATOM     91  C   UNL A   1      46.262  28.624  35.802  1.00  0.00     0.198 A 
ATOM     92  C   UNL A   1      44.726  27.219  37.000  1.00  0.00     0.198 A 
ATOM     93  F   UNL A   1      42.422  27.332  36.537  1.00  0.00    -0.203 F 
ATOM     94  F   UNL A   1      47.517  29.016  35.546  1.00  0.00    -0.200 F 
ATOM     95  C   UNL A   1      46.022  27.644  36.755  1.00  0.00     0.200 A 
ATOM     96  F   UNL A   1      44.491  26.286  37.933  1.00  0.00    -0.200 F 
ATOM     97  F   UNL A   1      47.044  27.106  37.435  1.00  0.00    -0.200 F 
ENDBRANCH  64  87
ENDBRANCH  38  39
ENDBRANCH  30  33
ENDBRANCH  28  29
ENDBRANCH   1  28
TORSDOF 14
ENDMDL
