MODEL 1
REMARK VINA RESULT:     -12.5      0.000      0.000
REMARK SMILES O=C(NCCCNC(=O)[C@@H]1C=C[C@H](NS(=O)(=O)c2ccc(Cl)cc2)C1)c1ccc(-c2c3nc(c(-c4c(F)c(F)c(F)c(F)c4F)c4ccc([nH]4)c(-c4c(F)c(F)c(F)c(F)c4F)c4nc(c(-c5c(F)c(F)c(F)c(F)c5F)c5ccc2[nH]5)C=C4)C=C3)cc1
REMARK SMILES IDX 5 1 4 2 3 3 1 4 2 5 26 7 27 8 88 9 28 10 87 11 29 12 30 13
REMARK SMILES IDX 31 14 81 15 32 16 86 17 80 18 82 19 33 20 85 21 79 22 78 23
REMARK SMILES IDX 34 25 66 26 46 27 65 28 47 29 50 30 64 31 83 32 48 33 49 34
REMARK SMILES IDX 63 36 84 37 51 38 35 39 36 40 44 41 37 42 38 43 42 44 45 45
REMARK SMILES IDX 39 46 40 47 43 48 41 49 67 50 68 51 76 52 69 53 70 54 74 55
REMARK SMILES IDX 77 56 71 57 72 58 75 59 73 60 52 61 53 62 61 63 54 64 55 65
REMARK SMILES IDX 59 66 62 67 56 68 57 69 60 70 58 71 6 72 7 73 8 74 9 76
REMARK SMILES IDX 10 77 11 78 25 79 12 80 13 81 14 82 15 84 16 85 17 86 18 87
REMARK SMILES IDX 19 88 24 89 20 90 23 91 21 92 22 93
REMARK H PARENT 3 6 82 24 50 35 7 75 14 83
REMARK Flexibility Score: inf
ROOT
ATOM      1  C   UNL A   1      31.408  32.067  26.806  1.00  0.00     0.042 C 
ENDROOT
BRANCH   1   2
ATOM      2  C   UNL A   1      32.657  32.924  26.991  1.00  0.00     0.118 C 
BRANCH   2   3
ATOM      3  N   UNL A   1      32.400  34.224  27.594  1.00  0.00    -0.352 N 
ATOM      4  O   UNL A   1      32.497  35.918  29.067  1.00  0.00    -0.269 OA
ATOM      5  C   UNL A   1      32.994  34.877  28.645  1.00  0.00     0.251 C 
ATOM      6  H   UNL A   1      31.665  34.725  27.171  1.00  0.00     0.163 HD
BRANCH   5   7
ATOM      7  C   UNL A   1      34.198  34.330  29.309  1.00  0.00     0.039 A 
ATOM      8  C   UNL A   1      35.480  34.617  28.849  1.00  0.00     0.014 A 
ATOM      9  C   UNL A   1      34.037  33.541  30.455  1.00  0.00     0.014 A 
ATOM     10  C   UNL A   1      36.580  33.973  29.408  1.00  0.00     0.010 A 
ATOM     11  C   UNL A   1      35.153  32.973  31.080  1.00  0.00     0.010 A 
ATOM     12  C   UNL A   1      36.432  33.140  30.529  1.00  0.00    -0.014 A 
BRANCH  12  13
ATOM     13  C   UNL A   1      37.630  32.473  31.106  1.00  0.00     0.031 A 
ATOM     14  C   UNL A   1      38.108  32.808  32.495  1.00  0.00     0.074 A 
ATOM     15  C   UNL A   1      38.261  31.523  30.391  1.00  0.00     0.049 A 
ATOM     16  N   UNL A   1      39.089  32.276  33.181  1.00  0.00    -0.248 NA
ATOM     17  C   UNL A   1      37.399  33.883  33.205  1.00  0.00     0.031 C 
ATOM     18  C   UNL A   1      37.906  31.121  29.029  1.00  0.00     0.029 A 
ATOM     19  N   UNL A   1      39.313  30.703  30.716  1.00  0.00    -0.354 N 
ATOM     20  C   UNL A   1      39.132  32.965  34.386  1.00  0.00     0.074 A 
ATOM     21  C   UNL A   1      38.094  33.972  34.330  1.00  0.00     0.031 C 
ATOM     22  C   UNL A   1      38.682  30.093  28.658  1.00  0.00     0.029 A 
ATOM     23  C   UNL A   1      39.626  29.798  29.731  1.00  0.00     0.049 A 
ATOM     24  H   UNL A   1      39.794  30.757  31.572  1.00  0.00     0.167 HD
ATOM     25  C   UNL A   1      39.953  32.770  35.446  1.00  0.00     0.037 A 
ATOM     26  C   UNL A   1      40.570  28.840  29.693  1.00  0.00     0.037 A 
ATOM     27  C   UNL A   1      40.967  31.748  35.512  1.00  0.00     0.049 A 
ATOM     28  C   UNL A   1      41.469  28.648  30.881  1.00  0.00     0.074 A 
ATOM     29  C   UNL A   1      41.812  31.436  36.564  1.00  0.00     0.029 A 
ATOM     30  N   UNL A   1      41.277  30.873  34.481  1.00  0.00    -0.354 N 
ATOM     31  N   UNL A   1      41.464  29.275  32.032  1.00  0.00    -0.248 NA
ATOM     32  C   UNL A   1      42.509  27.618  30.762  1.00  0.00     0.031 C 
ATOM     33  C   UNL A   1      42.664  30.405  36.153  1.00  0.00     0.029 A 
ATOM     34  C   UNL A   1      42.316  30.039  34.864  1.00  0.00     0.049 A 
ATOM     35  H   UNL A   1      40.825  30.849  33.607  1.00  0.00     0.167 HD
ATOM     36  C   UNL A   1      42.480  28.700  32.783  1.00  0.00     0.074 A 
ATOM     37  C   UNL A   1      43.070  27.662  31.962  1.00  0.00     0.031 C 
ATOM     38  C   UNL A   1      42.889  29.007  34.037  1.00  0.00     0.037 A 
BRANCH  25  39
ATOM     39  C   UNL A   1      39.807  33.693  36.623  1.00  0.00     0.064 A 
ATOM     40  C   UNL A   1      40.512  34.902  36.707  1.00  0.00     0.173 A 
ATOM     41  C   UNL A   1      38.914  33.382  37.661  1.00  0.00     0.173 A 
ATOM     42  F   UNL A   1      41.386  35.243  35.748  1.00  0.00    -0.203 F 
ATOM     43  C   UNL A   1      40.348  35.753  37.798  1.00  0.00     0.198 A 
ATOM     44  C   UNL A   1      38.732  34.248  38.736  1.00  0.00     0.198 A 
ATOM     45  F   UNL A   1      38.210  32.240  37.627  1.00  0.00    -0.203 F 
ATOM     46  F   UNL A   1      41.066  36.883  37.878  1.00  0.00    -0.200 F 
ATOM     47  C   UNL A   1      39.454  35.428  38.807  1.00  0.00     0.200 A 
ATOM     48  F   UNL A   1      37.859  33.937  39.704  1.00  0.00    -0.200 F 
ATOM     49  F   UNL A   1      39.294  36.252  39.853  1.00  0.00    -0.200 F 
ENDBRANCH  25  39
BRANCH  26  50
ATOM     50  C   UNL A   1      40.696  27.975  28.492  1.00  0.00     0.064 A 
ATOM     51  C   UNL A   1      41.472  28.376  27.395  1.00  0.00     0.173 A 
ATOM     52  C   UNL A   1      40.052  26.732  28.417  1.00  0.00     0.173 A 
ATOM     53  F   UNL A   1      42.090  29.566  27.413  1.00  0.00    -0.203 F 
ATOM     54  C   UNL A   1      41.589  27.571  26.264  1.00  0.00     0.198 A 
ATOM     55  C   UNL A   1      40.193  25.915  27.297  1.00  0.00     0.198 A 
ATOM     56  F   UNL A   1      39.300  26.302  29.441  1.00  0.00    -0.203 F 
ATOM     57  F   UNL A   1      42.305  27.996  25.214  1.00  0.00    -0.200 F 
ATOM     58  C   UNL A   1      40.956  26.338  26.219  1.00  0.00     0.200 A 
ATOM     59  F   UNL A   1      39.592  24.718  27.264  1.00  0.00    -0.200 F 
ATOM     60  F   UNL A   1      41.075  25.561  25.134  1.00  0.00    -0.200 F 
ENDBRANCH  26  50
BRANCH  38  61
ATOM     61  C   UNL A   1      44.006  28.185  34.611  1.00  0.00     0.064 A 
ATOM     62  C   UNL A   1      43.763  26.973  35.274  1.00  0.00     0.173 A 
ATOM     63  C   UNL A   1      45.337  28.608  34.481  1.00  0.00     0.173 A 
ATOM     64  F   UNL A   1      42.506  26.533  35.439  1.00  0.00    -0.203 F 
ATOM     65  C   UNL A   1      44.810  26.230  35.812  1.00  0.00     0.198 A 
ATOM     66  C   UNL A   1      46.384  27.849  34.995  1.00  0.00     0.198 A 
ATOM     67  F   UNL A   1      45.624  29.757  33.851  1.00  0.00    -0.203 F 
ATOM     68  F   UNL A   1      44.551  25.102  36.489  1.00  0.00    -0.200 F 
ATOM     69  C   UNL A   1      46.119  26.665  35.668  1.00  0.00     0.200 A 
ATOM     70  F   UNL A   1      47.649  28.264  34.845  1.00  0.00    -0.200 F 
ATOM     71  F   UNL A   1      47.126  25.948  36.188  1.00  0.00    -0.200 F 
ENDBRANCH  38  61
ENDBRANCH  12  13
ENDBRANCH   5   7
ENDBRANCH   2   3
ENDBRANCH   1   2
BRANCH   1  72
ATOM     72  C   UNL A   1      31.666  30.570  26.669  1.00  0.00     0.117 C 
BRANCH  72  73
ATOM     73  N   UNL A   1      32.167  30.184  25.367  1.00  0.00    -0.356 N 
ATOM     74  C   UNL A   1      32.359  28.955  24.821  1.00  0.00     0.226 C 
ATOM     75  H   UNL A   1      32.409  30.937  24.779  1.00  0.00     0.163 HD
ATOM     76  O   UNL A   1      32.371  28.911  23.590  1.00  0.00    -0.274 OA
BRANCH  74  77
ATOM     77  C   UNL A   1      32.431  27.684  25.678  1.00  0.00     0.103 C 
ATOM     78  C   UNL A   1      33.785  27.073  25.863  1.00  0.00    -0.016 C 
ATOM     79  C   UNL A   1      31.629  26.523  25.035  1.00  0.00     0.042 C 
ATOM     80  C   UNL A   1      33.855  25.822  25.398  1.00  0.00    -0.011 C 
ATOM     81  C   UNL A   1      32.591  25.369  24.743  1.00  0.00     0.093 C 
BRANCH  81  82
ATOM     82  N   UNL A   1      32.973  25.054  23.375  1.00  0.00    -0.204 NA
ATOM     83  H   UNL A   1      33.909  25.442  23.269  1.00  0.00     0.142 HD
BRANCH  82  84
ATOM     84  S   UNL A   1      33.052  23.549  22.668  1.00  0.00     0.241 S 
ATOM     85  O   UNL A   1      31.881  22.842  23.143  1.00  0.00    -0.207 OA
ATOM     86  O   UNL A   1      33.315  23.710  21.257  1.00  0.00    -0.207 OA
BRANCH  84  87
ATOM     87  C   UNL A   1      34.440  22.794  23.472  1.00  0.00     0.082 A 
ATOM     88  C   UNL A   1      34.239  21.749  24.375  1.00  0.00     0.023 A 
ATOM     89  C   UNL A   1      35.734  23.236  23.166  1.00  0.00     0.023 A 
ATOM     90  C   UNL A   1      35.346  21.115  24.949  1.00  0.00     0.022 A 
ATOM     91  C   UNL A   1      36.834  22.599  23.740  1.00  0.00     0.022 A 
ATOM     92  C   UNL A   1      36.637  21.533  24.616  1.00  0.00     0.041 A 
ATOM     93  Cl  UNL A   1      37.999  20.702  25.261  1.00  0.00    -0.084 Cl
ENDBRANCH  84  87
ENDBRANCH  82  84
ENDBRANCH  81  82
ENDBRANCH  74  77
ENDBRANCH  72  73
ENDBRANCH   1  72
TORSDOF 13
ENDMDL
MODEL 2
REMARK VINA RESULT:     -12.4      5.513     10.927
REMARK SMILES O=C(NCCCNC(=O)[C@@H]1C=C[C@H](NS(=O)(=O)c2ccc(Cl)cc2)C1)c1ccc(-c2c3nc(c(-c4c(F)c(F)c(F)c(F)c4F)c4ccc([nH]4)c(-c4c(F)c(F)c(F)c(F)c4F)c4nc(c(-c5c(F)c(F)c(F)c(F)c5F)c5ccc2[nH]5)C=C4)C=C3)cc1
REMARK SMILES IDX 5 1 4 2 3 3 1 4 2 5 26 7 27 8 88 9 28 10 87 11 29 12 30 13
REMARK SMILES IDX 31 14 81 15 32 16 86 17 80 18 82 19 33 20 85 21 79 22 78 23
REMARK SMILES IDX 34 25 66 26 46 27 65 28 47 29 50 30 64 31 83 32 48 33 49 34
REMARK SMILES IDX 63 36 84 37 51 38 35 39 36 40 44 41 37 42 38 43 42 44 45 45
REMARK SMILES IDX 39 46 40 47 43 48 41 49 67 50 68 51 76 52 69 53 70 54 74 55
REMARK SMILES IDX 77 56 71 57 72 58 75 59 73 60 52 61 53 62 61 63 54 64 55 65
REMARK SMILES IDX 59 66 62 67 56 68 57 69 60 70 58 71 6 72 7 73 8 74 9 76
REMARK SMILES IDX 10 77 11 78 25 79 12 80 13 81 14 82 15 84 16 85 17 86 18 87
REMARK SMILES IDX 19 88 24 89 20 90 23 91 21 92 22 93
REMARK H PARENT 3 6 82 24 50 35 7 75 14 83
REMARK Flexibility Score: inf
ROOT
ATOM      1  C   UNL A   1      38.249  19.235  25.041  1.00  0.00     0.042 C 
ENDROOT
BRANCH   1   2
ATOM      2  C   UNL A   1      39.460  19.795  25.783  1.00  0.00     0.118 C 
BRANCH   2   3
ATOM      3  N   UNL A   1      40.605  18.897  25.812  1.00  0.00    -0.352 N 
ATOM      4  O   UNL A   1      42.745  18.215  25.870  1.00  0.00    -0.269 OA
ATOM      5  C   UNL A   1      41.938  19.124  26.048  1.00  0.00     0.251 C 
ATOM      6  H   UNL A   1      40.382  17.956  25.627  1.00  0.00     0.163 HD
BRANCH   5   7
ATOM      7  C   UNL A   1      42.428  20.454  26.473  1.00  0.00     0.039 A 
ATOM      8  C   UNL A   1      42.346  20.874  27.798  1.00  0.00     0.014 A 
ATOM      9  C   UNL A   1      43.030  21.287  25.522  1.00  0.00     0.014 A 
ATOM     10  C   UNL A   1      42.684  22.181  28.136  1.00  0.00     0.010 A 
ATOM     11  C   UNL A   1      43.464  22.568  25.883  1.00  0.00     0.010 A 
ATOM     12  C   UNL A   1      43.245  23.047  27.183  1.00  0.00    -0.014 A 
BRANCH  12  13
ATOM     13  C   UNL A   1      43.604  24.435  27.579  1.00  0.00     0.031 A 
ATOM     14  C   UNL A   1      45.033  24.908  27.538  1.00  0.00     0.074 A 
ATOM     15  C   UNL A   1      42.625  25.291  27.931  1.00  0.00     0.049 A 
ATOM     16  N   UNL A   1      45.516  26.102  27.782  1.00  0.00    -0.248 NA
ATOM     17  C   UNL A   1      46.057  23.912  27.185  1.00  0.00     0.031 C 
ATOM     18  C   UNL A   1      41.204  24.950  28.026  1.00  0.00     0.029 A 
ATOM     19  N   UNL A   1      42.668  26.626  28.245  1.00  0.00    -0.354 N 
ATOM     20  C   UNL A   1      46.893  25.994  27.638  1.00  0.00     0.074 A 
ATOM     21  C   UNL A   1      47.175  24.613  27.310  1.00  0.00     0.031 C 
ATOM     22  C   UNL A   1      40.505  26.057  28.314  1.00  0.00     0.029 A 
ATOM     23  C   UNL A   1      41.430  27.174  28.479  1.00  0.00     0.049 A 
ATOM     24  H   UNL A   1      43.505  27.142  28.296  1.00  0.00     0.167 HD
ATOM     25  C   UNL A   1      47.836  26.960  27.758  1.00  0.00     0.037 A 
ATOM     26  C   UNL A   1      41.077  28.434  28.794  1.00  0.00     0.037 A 
ATOM     27  C   UNL A   1      47.552  28.342  28.056  1.00  0.00     0.049 A 
ATOM     28  C   UNL A   1      42.144  29.484  28.924  1.00  0.00     0.074 A 
ATOM     29  C   UNL A   1      48.435  29.405  28.144  1.00  0.00     0.029 A 
ATOM     30  N   UNL A   1      46.288  28.850  28.319  1.00  0.00    -0.354 N 
ATOM     31  N   UNL A   1      43.437  29.378  28.735  1.00  0.00    -0.248 NA
ATOM     32  C   UNL A   1      41.701  30.828  29.314  1.00  0.00     0.031 C 
ATOM     33  C   UNL A   1      47.712  30.547  28.506  1.00  0.00     0.029 A 
ATOM     34  C   UNL A   1      46.372  30.207  28.594  1.00  0.00     0.049 A 
ATOM     35  H   UNL A   1      45.456  28.325  28.312  1.00  0.00     0.167 HD
ATOM     36  C   UNL A   1      43.959  30.644  28.960  1.00  0.00     0.074 A 
ATOM     37  C   UNL A   1      42.840  31.506  29.282  1.00  0.00     0.031 C 
ATOM     38  C   UNL A   1      45.249  31.053  28.908  1.00  0.00     0.037 A 
BRANCH  25  39
ATOM     39  C   UNL A   1      49.273  26.559  27.585  1.00  0.00     0.064 A 
ATOM     40  C   UNL A   1      50.112  26.320  28.683  1.00  0.00     0.173 A 
ATOM     41  C   UNL A   1      49.807  26.369  26.301  1.00  0.00     0.173 A 
ATOM     42  F   UNL A   1      49.657  26.498  29.933  1.00  0.00    -0.203 F 
ATOM     43  C   UNL A   1      51.437  25.931  28.502  1.00  0.00     0.198 A 
ATOM     44  C   UNL A   1      51.124  25.952  26.123  1.00  0.00     0.198 A 
ATOM     45  F   UNL A   1      49.046  26.577  25.215  1.00  0.00    -0.203 F 
ATOM     46  F   UNL A   1      52.233  25.751  29.566  1.00  0.00    -0.200 F 
ATOM     47  C   UNL A   1      51.940  25.741  27.223  1.00  0.00     0.200 A 
ATOM     48  F   UNL A   1      51.603  25.758  24.886  1.00  0.00    -0.200 F 
ATOM     49  F   UNL A   1      53.213  25.360  27.051  1.00  0.00    -0.200 F 
ENDBRANCH  25  39
BRANCH  26  50
ATOM     50  C   UNL A   1      39.644  28.772  28.988  1.00  0.00     0.064 A 
ATOM     51  C   UNL A   1      39.033  28.623  30.240  1.00  0.00     0.173 A 
ATOM     52  C   UNL A   1      38.859  29.256  27.932  1.00  0.00     0.173 A 
ATOM     53  F   UNL A   1      39.738  28.145  31.276  1.00  0.00    -0.203 F 
ATOM     54  C   UNL A   1      37.688  28.935  30.426  1.00  0.00     0.198 A 
ATOM     55  C   UNL A   1      37.521  29.594  28.125  1.00  0.00     0.198 A 
ATOM     56  F   UNL A   1      39.398  29.419  26.714  1.00  0.00    -0.203 F 
ATOM     57  F   UNL A   1      37.118  28.746  31.624  1.00  0.00    -0.200 F 
ATOM     58  C   UNL A   1      36.935  29.426  29.370  1.00  0.00     0.200 A 
ATOM     59  F   UNL A   1      36.803  30.083  27.106  1.00  0.00    -0.200 F 
ATOM     60  F   UNL A   1      35.644  29.733  29.551  1.00  0.00    -0.200 F 
ENDBRANCH  26  50
BRANCH  38  61
ATOM     61  C   UNL A   1      45.515  32.507  29.171  1.00  0.00     0.064 A 
ATOM     62  C   UNL A   1      45.480  33.459  28.141  1.00  0.00     0.173 A 
ATOM     63  C   UNL A   1      45.791  32.953  30.471  1.00  0.00     0.173 A 
ATOM     64  F   UNL A   1      45.236  33.080  26.878  1.00  0.00    -0.203 F 
ATOM     65  C   UNL A   1      45.742  34.802  28.400  1.00  0.00     0.198 A 
ATOM     66  C   UNL A   1      46.025  34.300  30.731  1.00  0.00     0.198 A 
ATOM     67  F   UNL A   1      45.831  32.084  31.491  1.00  0.00    -0.203 F 
ATOM     68  F   UNL A   1      45.758  35.686  27.393  1.00  0.00    -0.200 F 
ATOM     69  C   UNL A   1      46.009  35.222  29.695  1.00  0.00     0.200 A 
ATOM     70  F   UNL A   1      46.272  34.707  31.985  1.00  0.00    -0.200 F 
ATOM     71  F   UNL A   1      46.262  36.515  29.942  1.00  0.00    -0.200 F 
ENDBRANCH  38  61
ENDBRANCH  12  13
ENDBRANCH   5   7
ENDBRANCH   2   3
ENDBRANCH   1   2
BRANCH   1  72
ATOM     72  C   UNL A   1      37.094  20.214  24.859  1.00  0.00     0.117 C 
BRANCH  72  73
ATOM     73  N   UNL A   1      37.484  21.603  24.979  1.00  0.00    -0.356 N 
ATOM     74  C   UNL A   1      36.804  22.742  24.684  1.00  0.00     0.226 C 
ATOM     75  H   UNL A   1      38.392  21.746  25.333  1.00  0.00     0.163 HD
ATOM     76  O   UNL A   1      37.178  23.757  25.274  1.00  0.00    -0.274 OA
BRANCH  74  77
ATOM     77  C   UNL A   1      35.572  22.743  23.770  1.00  0.00     0.103 C 
ATOM     78  C   UNL A   1      35.144  24.067  23.219  1.00  0.00    -0.016 C 
ATOM     79  C   UNL A   1      34.304  22.275  24.531  1.00  0.00     0.042 C 
ATOM     80  C   UNL A   1      33.903  24.402  23.584  1.00  0.00    -0.011 C 
ATOM     81  C   UNL A   1      33.277  23.411  24.511  1.00  0.00     0.093 C 
BRANCH  81  82
ATOM     82  N   UNL A   1      32.985  24.164  25.721  1.00  0.00    -0.204 NA
ATOM     83  H   UNL A   1      33.741  24.843  25.794  1.00  0.00     0.142 HD
BRANCH  82  84
ATOM     84  S   UNL A   1      31.603  25.025  26.068  1.00  0.00     0.241 S 
ATOM     85  O   UNL A   1      30.917  25.171  24.801  1.00  0.00    -0.207 OA
ATOM     86  O   UNL A   1      30.956  24.426  27.211  1.00  0.00    -0.207 OA
BRANCH  84  87
ATOM     87  C   UNL A   1      32.220  26.635  26.480  1.00  0.00     0.082 A 
ATOM     88  C   UNL A   1      33.542  26.972  26.185  1.00  0.00     0.023 A 
ATOM     89  C   UNL A   1      31.359  27.568  27.073  1.00  0.00     0.023 A 
ATOM     90  C   UNL A   1      33.995  28.268  26.451  1.00  0.00     0.022 A 
ATOM     91  C   UNL A   1      31.816  28.859  27.334  1.00  0.00     0.022 A 
ATOM     92  C   UNL A   1      33.127  29.208  27.009  1.00  0.00     0.041 A 
ATOM     93  Cl  UNL A   1      33.662  30.824  27.263  1.00  0.00    -0.084 Cl
ENDBRANCH  84  87
ENDBRANCH  82  84
ENDBRANCH  81  82
ENDBRANCH  74  77
ENDBRANCH  72  73
ENDBRANCH   1  72
TORSDOF 13
ENDMDL
MODEL 3
REMARK VINA RESULT:     -12.4      0.319      1.177
REMARK SMILES O=C(NCCCNC(=O)[C@@H]1C=C[C@H](NS(=O)(=O)c2ccc(Cl)cc2)C1)c1ccc(-c2c3nc(c(-c4c(F)c(F)c(F)c(F)c4F)c4ccc([nH]4)c(-c4c(F)c(F)c(F)c(F)c4F)c4nc(c(-c5c(F)c(F)c(F)c(F)c5F)c5ccc2[nH]5)C=C4)C=C3)cc1
REMARK SMILES IDX 5 1 4 2 3 3 1 4 2 5 26 7 27 8 88 9 28 10 87 11 29 12 30 13
REMARK SMILES IDX 31 14 81 15 32 16 86 17 80 18 82 19 33 20 85 21 79 22 78 23
REMARK SMILES IDX 34 25 66 26 46 27 65 28 47 29 50 30 64 31 83 32 48 33 49 34
REMARK SMILES IDX 63 36 84 37 51 38 35 39 36 40 44 41 37 42 38 43 42 44 45 45
REMARK SMILES IDX 39 46 40 47 43 48 41 49 67 50 68 51 76 52 69 53 70 54 74 55
REMARK SMILES IDX 77 56 71 57 72 58 75 59 73 60 52 61 53 62 61 63 54 64 55 65
REMARK SMILES IDX 59 66 62 67 56 68 57 69 60 70 58 71 6 72 7 73 8 74 9 76
REMARK SMILES IDX 10 77 11 78 25 79 12 80 13 81 14 82 15 84 16 85 17 86 18 87
REMARK SMILES IDX 19 88 24 89 20 90 23 91 21 92 22 93
REMARK H PARENT 3 6 82 24 50 35 7 75 14 83
REMARK Flexibility Score: inf
ROOT
ATOM      1  C   UNL A   1      31.442  32.108  26.706  1.00  0.00     0.042 C 
ENDROOT
BRANCH   1   2
ATOM      2  C   UNL A   1      32.699  32.925  26.989  1.00  0.00     0.118 C 
BRANCH   2   3
ATOM      3  N   UNL A   1      32.442  34.208  27.626  1.00  0.00    -0.352 N 
ATOM      4  O   UNL A   1      32.528  35.860  29.147  1.00  0.00    -0.269 OA
ATOM      5  C   UNL A   1      33.025  34.827  28.703  1.00  0.00     0.251 C 
ATOM      6  H   UNL A   1      31.717  34.726  27.207  1.00  0.00     0.163 HD
BRANCH   5   7
ATOM      7  C   UNL A   1      34.216  34.253  29.369  1.00  0.00     0.039 A 
ATOM      8  C   UNL A   1      35.507  34.576  28.960  1.00  0.00     0.014 A 
ATOM      9  C   UNL A   1      34.032  33.401  30.464  1.00  0.00     0.014 A 
ATOM     10  C   UNL A   1      36.598  33.910  29.512  1.00  0.00     0.010 A 
ATOM     11  C   UNL A   1      35.136  32.807  31.086  1.00  0.00     0.010 A 
ATOM     12  C   UNL A   1      36.427  33.015  30.581  1.00  0.00    -0.014 A 
BRANCH  12  13
ATOM     13  C   UNL A   1      37.615  32.327  31.153  1.00  0.00     0.031 A 
ATOM     14  C   UNL A   1      38.078  32.619  32.556  1.00  0.00     0.074 A 
ATOM     15  C   UNL A   1      38.252  31.395  30.418  1.00  0.00     0.049 A 
ATOM     16  N   UNL A   1      39.050  32.063  33.238  1.00  0.00    -0.248 NA
ATOM     17  C   UNL A   1      37.365  33.676  33.289  1.00  0.00     0.031 C 
ATOM     18  C   UNL A   1      37.911  31.033  29.041  1.00  0.00     0.029 A 
ATOM     19  N   UNL A   1      39.295  30.561  30.731  1.00  0.00    -0.354 N 
ATOM     20  C   UNL A   1      39.080  32.717  34.463  1.00  0.00     0.074 A 
ATOM     21  C   UNL A   1      38.048  33.730  34.424  1.00  0.00     0.031 C 
ATOM     22  C   UNL A   1      38.687  30.013  28.649  1.00  0.00     0.029 A 
ATOM     23  C   UNL A   1      39.617  29.683  29.724  1.00  0.00     0.049 A 
ATOM     24  H   UNL A   1      39.767  30.588  31.595  1.00  0.00     0.167 HD
ATOM     25  C   UNL A   1      39.888  32.487  35.527  1.00  0.00     0.037 A 
ATOM     26  C   UNL A   1      40.557  28.722  29.670  1.00  0.00     0.037 A 
ATOM     27  C   UNL A   1      40.897  31.459  35.575  1.00  0.00     0.049 A 
ATOM     28  C   UNL A   1      41.442  28.493  30.862  1.00  0.00     0.074 A 
ATOM     29  C   UNL A   1      41.728  31.114  36.627  1.00  0.00     0.029 A 
ATOM     30  N   UNL A   1      41.215  30.613  34.522  1.00  0.00    -0.354 N 
ATOM     31  N   UNL A   1      41.425  29.085  32.031  1.00  0.00    -0.248 NA
ATOM     32  C   UNL A   1      42.478  27.461  30.725  1.00  0.00     0.031 C 
ATOM     33  C   UNL A   1      42.581  30.091  36.197  1.00  0.00     0.029 A 
ATOM     34  C   UNL A   1      42.247  29.764  34.893  1.00  0.00     0.049 A 
ATOM     35  H   UNL A   1      40.774  30.616  33.643  1.00  0.00     0.167 HD
ATOM     36  C   UNL A   1      42.430  28.485  32.776  1.00  0.00     0.074 A 
ATOM     37  C   UNL A   1      43.025  27.468  31.933  1.00  0.00     0.031 C 
ATOM     38  C   UNL A   1      42.825  28.754  34.044  1.00  0.00     0.037 A 
BRANCH  25  39
ATOM     39  C   UNL A   1      39.732  33.376  36.727  1.00  0.00     0.064 A 
ATOM     40  C   UNL A   1      38.862  33.053  37.780  1.00  0.00     0.173 A 
ATOM     41  C   UNL A   1      40.496  34.547  36.846  1.00  0.00     0.173 A 
ATOM     42  F   UNL A   1      38.100  31.951  37.712  1.00  0.00    -0.203 F 
ATOM     43  C   UNL A   1      38.746  33.882  38.893  1.00  0.00     0.198 A 
ATOM     44  C   UNL A   1      40.397  35.359  37.974  1.00  0.00     0.198 A 
ATOM     45  F   UNL A   1      41.348  34.900  35.872  1.00  0.00    -0.203 F 
ATOM     46  F   UNL A   1      37.875  33.576  39.866  1.00  0.00    -0.200 F 
ATOM     47  C   UNL A   1      39.518  35.030  38.992  1.00  0.00     0.200 A 
ATOM     48  F   UNL A   1      41.154  36.462  38.072  1.00  0.00    -0.200 F 
ATOM     49  F   UNL A   1      39.408  35.822  40.068  1.00  0.00    -0.200 F 
ENDBRANCH  25  39
BRANCH  26  50
ATOM     50  C   UNL A   1      40.694  27.892  28.445  1.00  0.00     0.064 A 
ATOM     51  C   UNL A   1      41.480  28.324  27.368  1.00  0.00     0.173 A 
ATOM     52  C   UNL A   1      40.050  26.652  28.329  1.00  0.00     0.173 A 
ATOM     53  F   UNL A   1      42.099  29.512  27.425  1.00  0.00    -0.203 F 
ATOM     54  C   UNL A   1      41.607  27.551  26.216  1.00  0.00     0.198 A 
ATOM     55  C   UNL A   1      40.201  25.867  27.188  1.00  0.00     0.198 A 
ATOM     56  F   UNL A   1      39.288  26.194  29.334  1.00  0.00    -0.203 F 
ATOM     57  F   UNL A   1      42.333  28.005  25.185  1.00  0.00    -0.200 F 
ATOM     58  C   UNL A   1      40.974  26.321  26.129  1.00  0.00     0.200 A 
ATOM     59  F   UNL A   1      39.600  24.672  27.115  1.00  0.00    -0.200 F 
ATOM     60  F   UNL A   1      41.103  25.575  25.024  1.00  0.00    -0.200 F 
ENDBRANCH  26  50
BRANCH  38  61
ATOM     61  C   UNL A   1      43.932  27.910  34.607  1.00  0.00     0.064 A 
ATOM     62  C   UNL A   1      43.674  26.687  35.244  1.00  0.00     0.173 A 
ATOM     63  C   UNL A   1      45.267  28.324  34.492  1.00  0.00     0.173 A 
ATOM     64  F   UNL A   1      42.413  26.256  35.393  1.00  0.00    -0.203 F 
ATOM     65  C   UNL A   1      44.712  25.925  35.773  1.00  0.00     0.198 A 
ATOM     66  C   UNL A   1      46.304  27.545  34.996  1.00  0.00     0.198 A 
ATOM     67  F   UNL A   1      45.567  29.483  33.887  1.00  0.00    -0.203 F 
ATOM     68  F   UNL A   1      44.439  24.786  36.426  1.00  0.00    -0.200 F 
ATOM     69  C   UNL A   1      46.026  26.351  35.644  1.00  0.00     0.200 A 
ATOM     70  F   UNL A   1      47.574  27.953  34.861  1.00  0.00    -0.200 F 
ATOM     71  F   UNL A   1      47.023  25.615  36.154  1.00  0.00    -0.200 F 
ENDBRANCH  38  61
ENDBRANCH  12  13
ENDBRANCH   5   7
ENDBRANCH   2   3
ENDBRANCH   1   2
BRANCH   1  72
ATOM     72  C   UNL A   1      31.656  30.601  26.621  1.00  0.00     0.117 C 
BRANCH  72  73
ATOM     73  N   UNL A   1      31.529  30.070  25.280  1.00  0.00    -0.356 N 
ATOM     74  C   UNL A   1      31.436  28.787  24.841  1.00  0.00     0.226 C 
ATOM     75  H   UNL A   1      31.505  30.751  24.569  1.00  0.00     0.163 HD
ATOM     76  O   UNL A   1      30.907  28.636  23.739  1.00  0.00    -0.274 OA
BRANCH  74  77
ATOM     77  C   UNL A   1      31.849  27.595  25.713  1.00  0.00     0.103 C 
ATOM     78  C   UNL A   1      33.316  27.320  25.826  1.00  0.00    -0.016 C 
ATOM     79  C   UNL A   1      31.305  26.261  25.140  1.00  0.00     0.042 C 
ATOM     80  C   UNL A   1      33.650  26.106  25.380  1.00  0.00    -0.011 C 
ATOM     81  C   UNL A   1      32.493  25.352  24.809  1.00  0.00     0.093 C 
BRANCH  81  82
ATOM     82  N   UNL A   1      32.862  25.092  23.426  1.00  0.00    -0.204 NA
ATOM     83  H   UNL A   1      33.783  25.515  23.318  1.00  0.00     0.142 HD
BRANCH  82  84
ATOM     84  S   UNL A   1      32.980  23.614  22.671  1.00  0.00     0.241 S 
ATOM     85  O   UNL A   1      31.806  22.878  23.090  1.00  0.00    -0.207 OA
ATOM     86  O   UNL A   1      33.278  23.826  21.275  1.00  0.00    -0.207 OA
BRANCH  84  87
ATOM     87  C   UNL A   1      34.355  22.849  23.487  1.00  0.00     0.082 A 
ATOM     88  C   UNL A   1      34.145  21.761  24.336  1.00  0.00     0.023 A 
ATOM     89  C   UNL A   1      35.649  23.327  23.245  1.00  0.00     0.023 A 
ATOM     90  C   UNL A   1      35.245  21.122  24.918  1.00  0.00     0.022 A 
ATOM     91  C   UNL A   1      36.743  22.685  23.826  1.00  0.00     0.022 A 
ATOM     92  C   UNL A   1      36.537  21.577  24.647  1.00  0.00     0.041 A 
ATOM     93  Cl  UNL A   1      37.894  20.743  25.300  1.00  0.00    -0.084 Cl
ENDBRANCH  84  87
ENDBRANCH  82  84
ENDBRANCH  81  82
ENDBRANCH  74  77
ENDBRANCH  72  73
ENDBRANCH   1  72
TORSDOF 13
ENDMDL
