MODEL 1
REMARK VINA RESULT:     -12.7      0.000      0.000
REMARK SMILES O=C(NCCCNC(=O)[C@H]1CC[C@H]2CCCC[C@@H]2N1C(=O)c1ccn[nH]1)c1ccc(-c2c3nc(c(-c4c(F)c(F)c(F)c(F)c4F)c4ccc([nH]4)c(-c4c(F)c(F)c(F)c(F)c4F)c4nc(c(-c5c(F)c(F)c(F)c(F)c5F)c5ccc2[nH]5)C=C4)C=C3)cc1
REMARK SMILES IDX 5 1 4 2 3 3 1 4 2 5 27 7 28 8 89 9 29 10 88 11 30 12 31 13
REMARK SMILES IDX 32 14 82 15 33 16 87 17 81 18 83 19 34 20 86 21 80 22 79 23
REMARK SMILES IDX 35 25 67 26 47 27 66 28 48 29 51 30 65 31 84 32 49 33 50 34
REMARK SMILES IDX 64 36 85 37 52 38 36 39 37 40 45 41 38 42 39 43 43 44 46 45
REMARK SMILES IDX 40 46 41 47 44 48 42 49 68 50 69 51 77 52 70 53 71 54 75 55
REMARK SMILES IDX 78 56 72 57 73 58 76 59 74 60 53 61 54 62 62 63 55 64 56 65
REMARK SMILES IDX 60 66 63 67 57 68 58 69 61 70 59 71 6 72 7 73 8 74 9 76
REMARK SMILES IDX 10 77 11 78 19 79 12 80 18 81 13 82 17 83 14 84 16 85 15 86
REMARK SMILES IDX 20 87 21 88 22 89 23 90 26 91 24 92 25 93
REMARK H PARENT 3 6 83 24 51 35 7 75 26 94
REMARK Flexibility Score: inf
ROOT
ATOM      1  C   UNL A   1      35.720  23.442  25.714  1.00  0.00     0.042 C 
ENDROOT
BRANCH   1   2
ATOM      2  C   UNL A   1      37.061  23.511  24.978  1.00  0.00     0.118 C 
BRANCH   2   3
ATOM      3  N   UNL A   1      38.037  22.591  25.540  1.00  0.00    -0.352 N 
ATOM      4  O   UNL A   1      39.920  21.912  26.547  1.00  0.00    -0.269 OA
ATOM      5  C   UNL A   1      39.133  22.829  26.325  1.00  0.00     0.251 C 
ATOM      6  H   UNL A   1      37.886  21.643  25.319  1.00  0.00     0.163 HD
BRANCH   5   7
ATOM      7  C   UNL A   1      39.400  24.163  26.910  1.00  0.00     0.039 A 
ATOM      8  C   UNL A   1      39.111  24.458  28.246  1.00  0.00     0.014 A 
ATOM      9  C   UNL A   1      40.080  25.102  26.123  1.00  0.00     0.014 A 
ATOM     10  C   UNL A   1      39.475  25.697  28.782  1.00  0.00     0.010 A 
ATOM     11  C   UNL A   1      40.457  26.335  26.661  1.00  0.00     0.010 A 
ATOM     12  C   UNL A   1      40.157  26.640  27.995  1.00  0.00    -0.014 A 
BRANCH  12  13
ATOM     13  C   UNL A   1      40.619  27.911  28.598  1.00  0.00     0.031 A 
ATOM     14  C   UNL A   1      42.072  28.146  28.876  1.00  0.00     0.074 A 
ATOM     15  C   UNL A   1      39.716  28.865  28.890  1.00  0.00     0.049 A 
ATOM     16  N   UNL A   1      42.659  29.221  29.339  1.00  0.00    -0.248 NA
ATOM     17  C   UNL A   1      42.987  27.029  28.600  1.00  0.00     0.031 C 
ATOM     18  C   UNL A   1      38.271  28.749  28.690  1.00  0.00     0.029 A 
ATOM     19  N   UNL A   1      39.886  30.125  29.405  1.00  0.00    -0.354 N 
ATOM     20  C   UNL A   1      44.009  28.913  29.414  1.00  0.00     0.074 A 
ATOM     21  C   UNL A   1      44.156  27.547  28.954  1.00  0.00     0.031 C 
ATOM     22  C   UNL A   1      37.688  29.904  29.051  1.00  0.00     0.029 A 
ATOM     23  C   UNL A   1      38.716  30.834  29.506  1.00  0.00     0.049 A 
ATOM     24  H   UNL A   1      40.761  30.485  29.676  1.00  0.00     0.167 HD
ATOM     25  C   UNL A   1      45.030  29.698  29.826  1.00  0.00     0.037 A 
ATOM     26  C   UNL A   1      38.502  32.103  29.904  1.00  0.00     0.037 A 
ATOM     27  C   UNL A   1      44.898  31.057  30.280  1.00  0.00     0.049 A 
ATOM     28  C   UNL A   1      39.656  32.960  30.330  1.00  0.00     0.074 A 
ATOM     29  C   UNL A   1      45.887  31.927  30.705  1.00  0.00     0.029 A 
ATOM     30  N   UNL A   1      43.697  31.742  30.366  1.00  0.00    -0.354 N 
ATOM     31  N   UNL A   1      40.930  32.664  30.373  1.00  0.00    -0.248 NA
ATOM     32  C   UNL A   1      39.338  34.330  30.759  1.00  0.00     0.031 C 
ATOM     33  C   UNL A   1      45.282  33.143  31.052  1.00  0.00     0.029 A 
ATOM     34  C   UNL A   1      43.919  33.026  30.838  1.00  0.00     0.049 A 
ATOM     35  H   UNL A   1      42.817  31.372  30.128  1.00  0.00     0.167 HD
ATOM     36  C   UNL A   1      41.568  33.808  30.828  1.00  0.00     0.074 A 
ATOM     37  C   UNL A   1      40.541  34.807  31.046  1.00  0.00     0.031 C 
ATOM     38  C   UNL A   1      42.890  34.007  31.044  1.00  0.00     0.037 A 
BRANCH  25  39
ATOM     39  C   UNL A   1      46.399  29.100  29.801  1.00  0.00     0.064 A 
ATOM     40  C   UNL A   1      47.218  29.228  28.671  1.00  0.00     0.173 A 
ATOM     41  C   UNL A   1      46.906  28.427  30.919  1.00  0.00     0.173 A 
ATOM     42  F   UNL A   1      46.765  29.854  27.576  1.00  0.00    -0.203 F 
ATOM     43  C   UNL A   1      48.504  28.695  28.661  1.00  0.00     0.198 A 
ATOM     44  C   UNL A   1      48.194  27.899  30.908  1.00  0.00     0.198 A 
ATOM     45  F   UNL A   1      46.151  28.277  32.018  1.00  0.00    -0.203 F 
ATOM     46  F   UNL A   1      49.269  28.814  27.567  1.00  0.00    -0.200 F 
ATOM     47  C   UNL A   1      48.992  28.033  29.779  1.00  0.00     0.200 A 
ATOM     48  F   UNL A   1      48.663  27.254  31.985  1.00  0.00    -0.200 F 
ATOM     49  F   UNL A   1      50.228  27.517  29.767  1.00  0.00    -0.200 F 
ENDBRANCH  25  39
BRANCH  26  50
ATOM     50  C   UNL A   1      37.128  32.647  29.871  1.00  0.00     0.064 A 
ATOM     51  C   UNL A   1      36.658  33.320  28.736  1.00  0.00     0.173 A 
ATOM     52  C   UNL A   1      36.260  32.488  30.957  1.00  0.00     0.173 A 
ATOM     53  F   UNL A   1      37.466  33.501  27.682  1.00  0.00    -0.203 F 
ATOM     54  C   UNL A   1      35.357  33.815  28.688  1.00  0.00     0.198 A 
ATOM     55  C   UNL A   1      34.958  32.983  30.906  1.00  0.00     0.198 A 
ATOM     56  F   UNL A   1      36.678  31.858  32.064  1.00  0.00    -0.203 F 
ATOM     57  F   UNL A   1      34.929  34.460  27.595  1.00  0.00    -0.200 F 
ATOM     58  C   UNL A   1      34.508  33.643  29.772  1.00  0.00     0.200 A 
ATOM     59  F   UNL A   1      34.141  32.821  31.956  1.00  0.00    -0.200 F 
ATOM     60  F   UNL A   1      33.258  34.122  29.725  1.00  0.00    -0.200 F 
ENDBRANCH  26  50
BRANCH  38  61
ATOM     61  C   UNL A   1      43.298  35.358  31.537  1.00  0.00     0.064 A 
ATOM     62  C   UNL A   1      43.706  36.357  30.643  1.00  0.00     0.173 A 
ATOM     63  C   UNL A   1      43.252  35.664  32.903  1.00  0.00     0.173 A 
ATOM     64  F   UNL A   1      43.774  36.100  29.329  1.00  0.00    -0.203 F 
ATOM     65  C   UNL A   1      44.060  37.621  31.105  1.00  0.00     0.198 A 
ATOM     66  C   UNL A   1      43.604  36.931  33.361  1.00  0.00     0.198 A 
ATOM     67  F   UNL A   1      42.875  34.733  33.792  1.00  0.00    -0.203 F 
ATOM     68  F   UNL A   1      44.461  38.562  30.238  1.00  0.00    -0.200 F 
ATOM     69  C   UNL A   1      44.007  37.908  32.462  1.00  0.00     0.200 A 
ATOM     70  F   UNL A   1      43.560  37.205  34.672  1.00  0.00    -0.200 F 
ATOM     71  F   UNL A   1      44.354  39.124  32.904  1.00  0.00    -0.200 F 
ENDBRANCH  38  61
ENDBRANCH  12  13
ENDBRANCH   5   7
ENDBRANCH   2   3
ENDBRANCH   1   2
BRANCH   1  72
ATOM     72  C   UNL A   1      34.741  24.546  25.312  1.00  0.00     0.117 C 
BRANCH  72  73
ATOM     73  N   UNL A   1      34.211  24.359  23.978  1.00  0.00    -0.354 N 
ATOM     74  C   UNL A   1      33.531  25.182  23.140  1.00  0.00     0.242 C 
ATOM     75  H   UNL A   1      34.375  23.462  23.606  1.00  0.00     0.163 HD
ATOM     76  O   UNL A   1      33.372  24.754  21.985  1.00  0.00    -0.273 OA
BRANCH  74  77
ATOM     77  C   UNL A   1      32.892  26.546  23.532  1.00  0.00     0.175 C 
ATOM     78  C   UNL A   1      32.348  27.563  22.526  1.00  0.00     0.036 C 
ATOM     79  N   UNL A   1      31.887  26.357  24.596  1.00  0.00    -0.322 N 
ATOM     80  C   UNL A   1      31.743  28.807  23.223  1.00  0.00     0.008 C 
ATOM     81  C   UNL A   1      31.598  27.548  25.418  1.00  0.00     0.089 C 
ATOM     82  C   UNL A   1      32.082  28.847  24.718  1.00  0.00     0.012 C 
ATOM     83  C   UNL A   1      32.198  27.517  26.828  1.00  0.00     0.025 C 
ATOM     84  C   UNL A   1      31.514  30.063  25.453  1.00  0.00     0.006 C 
ATOM     85  C   UNL A   1      31.719  28.736  27.625  1.00  0.00     0.002 C 
ATOM     86  C   UNL A   1      31.988  30.062  26.909  1.00  0.00     0.000 C 
BRANCH  79  87
ATOM     87  C   UNL A   1      30.857  25.440  24.316  1.00  0.00     0.272 C 
ATOM     88  O   UNL A   1      30.179  25.527  23.295  1.00  0.00    -0.267 OA
BRANCH  87  89
ATOM     89  C   UNL A   1      30.641  24.396  25.278  1.00  0.00     0.123 A 
ATOM     90  C   UNL A   1      31.164  23.120  25.345  1.00  0.00     0.055 A 
ATOM     91  N   UNL A   1      29.926  24.551  26.433  1.00  0.00    -0.273 N 
ATOM     92  C   UNL A   1      30.629  22.568  26.523  1.00  0.00     0.135 A 
ATOM     93  N   UNL A   1      29.850  23.433  27.178  1.00  0.00    -0.183 NA
ATOM     94  H   UNL A   1      29.506  25.401  26.696  1.00  0.00     0.190 HD
ENDBRANCH  87  89
ENDBRANCH  79  87
ENDBRANCH  74  77
ENDBRANCH  72  73
ENDBRANCH   1  72
TORSDOF 12
ENDMDL
MODEL 2
REMARK VINA RESULT:     -12.7      0.716      1.772
REMARK SMILES O=C(NCCCNC(=O)[C@H]1CC[C@H]2CCCC[C@@H]2N1C(=O)c1ccn[nH]1)c1ccc(-c2c3nc(c(-c4c(F)c(F)c(F)c(F)c4F)c4ccc([nH]4)c(-c4c(F)c(F)c(F)c(F)c4F)c4nc(c(-c5c(F)c(F)c(F)c(F)c5F)c5ccc2[nH]5)C=C4)C=C3)cc1
REMARK SMILES IDX 5 1 4 2 3 3 1 4 2 5 27 7 28 8 89 9 29 10 88 11 30 12 31 13
REMARK SMILES IDX 32 14 82 15 33 16 87 17 81 18 83 19 34 20 86 21 80 22 79 23
REMARK SMILES IDX 35 25 67 26 47 27 66 28 48 29 51 30 65 31 84 32 49 33 50 34
REMARK SMILES IDX 64 36 85 37 52 38 36 39 37 40 45 41 38 42 39 43 43 44 46 45
REMARK SMILES IDX 40 46 41 47 44 48 42 49 68 50 69 51 77 52 70 53 71 54 75 55
REMARK SMILES IDX 78 56 72 57 73 58 76 59 74 60 53 61 54 62 62 63 55 64 56 65
REMARK SMILES IDX 60 66 63 67 57 68 58 69 61 70 59 71 6 72 7 73 8 74 9 76
REMARK SMILES IDX 10 77 11 78 19 79 12 80 18 81 13 82 17 83 14 84 16 85 15 86
REMARK SMILES IDX 20 87 21 88 22 89 23 90 26 91 24 92 25 93
REMARK H PARENT 3 6 83 24 51 35 7 75 26 94
REMARK Flexibility Score: inf
ROOT
ATOM      1  C   UNL A   1      35.869  23.492  26.045  1.00  0.00     0.042 C 
ENDROOT
BRANCH   1   2
ATOM      2  C   UNL A   1      37.042  23.647  25.073  1.00  0.00     0.118 C 
BRANCH   2   3
ATOM      3  N   UNL A   1      38.148  22.766  25.412  1.00  0.00    -0.352 N 
ATOM      4  O   UNL A   1      40.183  22.158  26.129  1.00  0.00    -0.269 OA
ATOM      5  C   UNL A   1      39.303  23.016  26.105  1.00  0.00     0.251 C 
ATOM      6  H   UNL A   1      38.052  21.839  25.090  1.00  0.00     0.163 HD
BRANCH   5   7
ATOM      7  C   UNL A   1      39.522  24.292  26.823  1.00  0.00     0.039 A 
ATOM      8  C   UNL A   1      39.129  24.472  28.153  1.00  0.00     0.014 A 
ATOM      9  C   UNL A   1      40.263  25.291  26.176  1.00  0.00     0.014 A 
ATOM     10  C   UNL A   1      39.450  25.657  28.821  1.00  0.00     0.010 A 
ATOM     11  C   UNL A   1      40.596  26.470  26.847  1.00  0.00     0.010 A 
ATOM     12  C   UNL A   1      40.192  26.660  28.175  1.00  0.00    -0.014 A 
BRANCH  12  13
ATOM     13  C   UNL A   1      40.605  27.871  28.920  1.00  0.00     0.031 A 
ATOM     14  C   UNL A   1      42.023  28.053  29.366  1.00  0.00     0.074 A 
ATOM     15  C   UNL A   1      39.689  28.819  29.191  1.00  0.00     0.049 A 
ATOM     16  N   UNL A   1      42.573  29.076  29.971  1.00  0.00    -0.248 NA
ATOM     17  C   UNL A   1      42.947  26.941  29.100  1.00  0.00     0.031 C 
ATOM     18  C   UNL A   1      38.272  28.750  28.833  1.00  0.00     0.029 A 
ATOM     19  N   UNL A   1      39.821  30.032  29.818  1.00  0.00    -0.354 N 
ATOM     20  C   UNL A   1      43.902  28.734  30.161  1.00  0.00     0.074 A 
ATOM     21  C   UNL A   1      44.079  27.404  29.613  1.00  0.00     0.031 C 
ATOM     22  C   UNL A   1      37.669  29.887  29.221  1.00  0.00     0.029 A 
ATOM     23  C   UNL A   1      38.657  30.757  29.852  1.00  0.00     0.049 A 
ATOM     24  H   UNL A   1      40.667  30.351  30.206  1.00  0.00     0.167 HD
ATOM     25  C   UNL A   1      44.886  29.463  30.737  1.00  0.00     0.037 A 
ATOM     26  C   UNL A   1      38.419  31.995  30.324  1.00  0.00     0.037 A 
ATOM     27  C   UNL A   1      44.724  30.786  31.281  1.00  0.00     0.049 A 
ATOM     28  C   UNL A   1      39.532  32.793  30.933  1.00  0.00     0.074 A 
ATOM     29  C   UNL A   1      45.675  31.599  31.873  1.00  0.00     0.029 A 
ATOM     30  N   UNL A   1      43.530  31.488  31.295  1.00  0.00    -0.354 N 
ATOM     31  N   UNL A   1      40.791  32.466  31.086  1.00  0.00    -0.248 NA
ATOM     32  C   UNL A   1      39.189  34.132  31.433  1.00  0.00     0.031 C 
ATOM     33  C   UNL A   1      45.053  32.798  32.250  1.00  0.00     0.029 A 
ATOM     34  C   UNL A   1      43.719  32.726  31.886  1.00  0.00     0.049 A 
ATOM     35  H   UNL A   1      42.675  31.156  30.938  1.00  0.00     0.167 HD
ATOM     36  C   UNL A   1      41.393  33.558  31.692  1.00  0.00     0.074 A 
ATOM     37  C   UNL A   1      40.362  34.559  31.880  1.00  0.00     0.031 C 
ATOM     38  C   UNL A   1      42.687  33.712  32.060  1.00  0.00     0.037 A 
BRANCH  25  39
ATOM     39  C   UNL A   1      46.241  28.839  30.808  1.00  0.00     0.064 A 
ATOM     40  C   UNL A   1      46.612  28.051  31.906  1.00  0.00     0.173 A 
ATOM     41  C   UNL A   1      47.159  29.000  29.763  1.00  0.00     0.173 A 
ATOM     42  F   UNL A   1      45.766  27.882  32.933  1.00  0.00    -0.203 F 
ATOM     43  C   UNL A   1      47.865  27.446  31.956  1.00  0.00     0.198 A 
ATOM     44  C   UNL A   1      48.409  28.391  29.814  1.00  0.00     0.198 A 
ATOM     45  F   UNL A   1      46.845  29.753  28.698  1.00  0.00    -0.203 F 
ATOM     46  F   UNL A   1      48.209  26.706  33.020  1.00  0.00    -0.200 F 
ATOM     47  C   UNL A   1      48.761  27.614  30.910  1.00  0.00     0.200 A 
ATOM     48  F   UNL A   1      49.278  28.558  28.807  1.00  0.00    -0.200 F 
ATOM     49  F   UNL A   1      49.967  27.034  30.961  1.00  0.00    -0.200 F 
ENDBRANCH  25  39
BRANCH  26  50
ATOM     50  C   UNL A   1      37.063  32.571  30.191  1.00  0.00     0.064 A 
ATOM     51  C   UNL A   1      36.120  32.408  31.213  1.00  0.00     0.173 A 
ATOM     52  C   UNL A   1      36.696  33.306  29.059  1.00  0.00     0.173 A 
ATOM     53  F   UNL A   1      36.433  31.699  32.308  1.00  0.00    -0.203 F 
ATOM     54  C   UNL A   1      34.849  32.967  31.107  1.00  0.00     0.198 A 
ATOM     55  C   UNL A   1      35.425  33.866  28.954  1.00  0.00     0.198 A 
ATOM     56  F   UNL A   1      37.570  33.474  28.055  1.00  0.00    -0.203 F 
ATOM     57  F   UNL A   1      33.959  32.795  32.094  1.00  0.00    -0.200 F 
ATOM     58  C   UNL A   1      34.504  33.698  29.979  1.00  0.00     0.200 A 
ATOM     59  F   UNL A   1      35.091  34.566  27.862  1.00  0.00    -0.200 F 
ATOM     60  F   UNL A   1      33.281  34.233  29.876  1.00  0.00    -0.200 F 
ENDBRANCH  26  50
BRANCH  38  61
ATOM     61  C   UNL A   1      43.059  35.012  32.697  1.00  0.00     0.064 A 
ATOM     62  C   UNL A   1      43.535  36.080  31.927  1.00  0.00     0.173 A 
ATOM     63  C   UNL A   1      42.911  35.199  34.078  1.00  0.00     0.173 A 
ATOM     64  F   UNL A   1      43.701  35.936  30.604  1.00  0.00    -0.203 F 
ATOM     65  C   UNL A   1      43.855  37.297  32.521  1.00  0.00     0.198 A 
ATOM     66  C   UNL A   1      43.229  36.419  34.668  1.00  0.00     0.198 A 
ATOM     67  F   UNL A   1      42.466  34.198  34.852  1.00  0.00    -0.203 F 
ATOM     68  F   UNL A   1      44.322  38.306  31.771  1.00  0.00    -0.200 F 
ATOM     69  C   UNL A   1      43.701  37.466  33.890  1.00  0.00     0.200 A 
ATOM     70  F   UNL A   1      43.087  36.580  35.991  1.00  0.00    -0.200 F 
ATOM     71  F   UNL A   1      44.015  38.637  34.460  1.00  0.00    -0.200 F 
ENDBRANCH  38  61
ENDBRANCH  12  13
ENDBRANCH   5   7
ENDBRANCH   2   3
ENDBRANCH   1   2
BRANCH   1  72
ATOM     72  C   UNL A   1      34.638  24.314  25.658  1.00  0.00     0.117 C 
BRANCH  72  73
ATOM     73  N   UNL A   1      34.268  24.138  24.269  1.00  0.00    -0.354 N 
ATOM     74  C   UNL A   1      33.722  24.979  23.355  1.00  0.00     0.242 C 
ATOM     75  H   UNL A   1      34.445  23.234  23.921  1.00  0.00     0.163 HD
ATOM     76  O   UNL A   1      33.689  24.551  22.189  1.00  0.00    -0.273 OA
BRANCH  74  77
ATOM     77  C   UNL A   1      33.086  26.365  23.666  1.00  0.00     0.175 C 
ATOM     78  C   UNL A   1      32.644  27.369  22.599  1.00  0.00     0.036 C 
ATOM     79  N   UNL A   1      31.999  26.223  24.654  1.00  0.00    -0.322 N 
ATOM     80  C   UNL A   1      32.015  28.642  23.219  1.00  0.00     0.008 C 
ATOM     81  C   UNL A   1      31.676  27.439  25.424  1.00  0.00     0.089 C 
ATOM     82  C   UNL A   1      32.241  28.711  24.734  1.00  0.00     0.012 C 
ATOM     83  C   UNL A   1      32.166  27.431  26.876  1.00  0.00     0.025 C 
ATOM     84  C   UNL A   1      31.647  29.956  25.396  1.00  0.00     0.006 C 
ATOM     85  C   UNL A   1      31.655  28.678  27.607  1.00  0.00     0.002 C 
ATOM     86  C   UNL A   1      32.008  29.981  26.884  1.00  0.00     0.000 C 
BRANCH  79  87
ATOM     87  C   UNL A   1      30.973  25.321  24.316  1.00  0.00     0.272 C 
ATOM     88  O   UNL A   1      30.381  25.394  23.242  1.00  0.00    -0.267 OA
BRANCH  87  89
ATOM     89  C   UNL A   1      30.655  24.310  25.286  1.00  0.00     0.123 A 
ATOM     90  C   UNL A   1      31.050  22.990  25.362  1.00  0.00     0.055 A 
ATOM     91  N   UNL A   1      29.959  24.543  26.439  1.00  0.00    -0.273 N 
ATOM     92  C   UNL A   1      30.464  22.502  26.543  1.00  0.00     0.135 A 
ATOM     93  N   UNL A   1      29.773  23.443  27.192  1.00  0.00    -0.183 NA
ATOM     94  H   UNL A   1      29.625  25.433  26.696  1.00  0.00     0.190 HD
ENDBRANCH  87  89
ENDBRANCH  79  87
ENDBRANCH  74  77
ENDBRANCH  72  73
ENDBRANCH   1  72
TORSDOF 12
ENDMDL
MODEL 3
REMARK VINA RESULT:     -12.6      3.971      8.835
REMARK SMILES O=C(NCCCNC(=O)[C@H]1CC[C@H]2CCCC[C@@H]2N1C(=O)c1ccn[nH]1)c1ccc(-c2c3nc(c(-c4c(F)c(F)c(F)c(F)c4F)c4ccc([nH]4)c(-c4c(F)c(F)c(F)c(F)c4F)c4nc(c(-c5c(F)c(F)c(F)c(F)c5F)c5ccc2[nH]5)C=C4)C=C3)cc1
REMARK SMILES IDX 5 1 4 2 3 3 1 4 2 5 27 7 28 8 89 9 29 10 88 11 30 12 31 13
REMARK SMILES IDX 32 14 82 15 33 16 87 17 81 18 83 19 34 20 86 21 80 22 79 23
REMARK SMILES IDX 35 25 67 26 47 27 66 28 48 29 51 30 65 31 84 32 49 33 50 34
REMARK SMILES IDX 64 36 85 37 52 38 36 39 37 40 45 41 38 42 39 43 43 44 46 45
REMARK SMILES IDX 40 46 41 47 44 48 42 49 68 50 69 51 77 52 70 53 71 54 75 55
REMARK SMILES IDX 78 56 72 57 73 58 76 59 74 60 53 61 54 62 62 63 55 64 56 65
REMARK SMILES IDX 60 66 63 67 57 68 58 69 61 70 59 71 6 72 7 73 8 74 9 76
REMARK SMILES IDX 10 77 11 78 19 79 12 80 18 81 13 82 17 83 14 84 16 85 15 86
REMARK SMILES IDX 20 87 21 88 22 89 23 90 26 91 24 92 25 93
REMARK H PARENT 3 6 83 24 51 35 7 75 26 94
REMARK Flexibility Score: inf
ROOT
ATOM      1  C   UNL A   1      31.877  28.039  25.390  1.00  0.00     0.042 C 
ENDROOT
BRANCH   1   2
ATOM      2  C   UNL A   1      33.054  29.019  25.435  1.00  0.00     0.118 C 
BRANCH   2   3
ATOM      3  N   UNL A   1      32.656  30.322  25.946  1.00  0.00    -0.352 N 
ATOM      4  O   UNL A   1      32.622  32.105  27.303  1.00  0.00    -0.269 OA
ATOM      5  C   UNL A   1      33.227  31.110  26.910  1.00  0.00     0.251 C 
ATOM      6  H   UNL A   1      31.844  30.697  25.533  1.00  0.00     0.163 HD
BRANCH   5   7
ATOM      7  C   UNL A   1      34.551  30.794  27.493  1.00  0.00     0.039 A 
ATOM      8  C   UNL A   1      35.517  31.780  27.717  1.00  0.00     0.014 A 
ATOM      9  C   UNL A   1      34.773  29.487  27.948  1.00  0.00     0.014 A 
ATOM     10  C   UNL A   1      36.711  31.452  28.365  1.00  0.00     0.010 A 
ATOM     11  C   UNL A   1      35.961  29.161  28.609  1.00  0.00     0.010 A 
ATOM     12  C   UNL A   1      36.937  30.143  28.822  1.00  0.00    -0.014 A 
BRANCH  12  13
ATOM     13  C   UNL A   1      38.164  29.828  29.589  1.00  0.00     0.031 A 
ATOM     14  C   UNL A   1      38.373  30.378  30.966  1.00  0.00     0.074 A 
ATOM     15  C   UNL A   1      39.097  29.032  29.035  1.00  0.00     0.049 A 
ATOM     16  N   UNL A   1      39.354  30.155  31.804  1.00  0.00    -0.248 NA
ATOM     17  C   UNL A   1      37.346  31.301  31.472  1.00  0.00     0.031 C 
ATOM     18  C   UNL A   1      39.025  28.453  27.693  1.00  0.00     0.029 A 
ATOM     19  N   UNL A   1      40.282  28.562  29.542  1.00  0.00    -0.354 N 
ATOM     20  C   UNL A   1      39.069  30.908  32.931  1.00  0.00     0.074 A 
ATOM     21  C   UNL A   1      37.823  31.602  32.671  1.00  0.00     0.031 C 
ATOM     22  C   UNL A   1      40.105  27.680  27.493  1.00  0.00     0.029 A 
ATOM     23  C   UNL A   1      40.941  27.713  28.690  1.00  0.00     0.049 A 
ATOM     24  H   UNL A   1      40.626  28.810  30.430  1.00  0.00     0.167 HD
ATOM     25  C   UNL A   1      39.779  31.009  34.079  1.00  0.00     0.037 A 
ATOM     26  C   UNL A   1      42.083  27.022  28.864  1.00  0.00     0.037 A 
ATOM     27  C   UNL A   1      41.014  30.322  34.350  1.00  0.00     0.049 A 
ATOM     28  C   UNL A   1      42.836  27.131  30.156  1.00  0.00     0.074 A 
ATOM     29  C   UNL A   1      41.792  30.362  35.494  1.00  0.00     0.029 A 
ATOM     30  N   UNL A   1      41.648  29.469  33.463  1.00  0.00    -0.354 N 
ATOM     31  N   UNL A   1      42.542  27.828  31.223  1.00  0.00    -0.248 NA
ATOM     32  C   UNL A   1      44.078  26.353  30.264  1.00  0.00     0.031 C 
ATOM     33  C   UNL A   1      42.903  29.531  35.298  1.00  0.00     0.029 A 
ATOM     34  C   UNL A   1      42.810  28.975  34.034  1.00  0.00     0.049 A 
ATOM     35  H   UNL A   1      41.323  29.247  32.561  1.00  0.00     0.167 HD
ATOM     36  C   UNL A   1      43.557  27.571  32.133  1.00  0.00     0.074 A 
ATOM     37  C   UNL A   1      44.475  26.652  31.493  1.00  0.00     0.031 C 
ATOM     38  C   UNL A   1      43.709  28.058  33.387  1.00  0.00     0.037 A 
BRANCH  25  39
ATOM     39  C   UNL A   1      39.228  31.904  35.141  1.00  0.00     0.064 A 
ATOM     40  C   UNL A   1      38.452  31.385  36.186  1.00  0.00     0.173 A 
ATOM     41  C   UNL A   1      39.505  33.277  35.134  1.00  0.00     0.173 A 
ATOM     42  F   UNL A   1      38.155  30.078  36.222  1.00  0.00    -0.203 F 
ATOM     43  C   UNL A   1      37.965  32.217  37.190  1.00  0.00     0.198 A 
ATOM     44  C   UNL A   1      39.020  34.106  36.142  1.00  0.00     0.198 A 
ATOM     45  F   UNL A   1      40.238  33.814  34.147  1.00  0.00    -0.203 F 
ATOM     46  F   UNL A   1      37.212  31.706  38.175  1.00  0.00    -0.200 F 
ATOM     47  C   UNL A   1      38.250  33.575  37.169  1.00  0.00     0.200 A 
ATOM     48  F   UNL A   1      39.290  35.418  36.118  1.00  0.00    -0.200 F 
ATOM     49  F   UNL A   1      37.778  34.374  38.134  1.00  0.00    -0.200 F 
ENDBRANCH  25  39
BRANCH  26  50
ATOM     50  C   UNL A   1      42.555  26.125  27.788  1.00  0.00     0.064 A 
ATOM     51  C   UNL A   1      42.058  24.820  27.682  1.00  0.00     0.173 A 
ATOM     52  C   UNL A   1      43.489  26.559  26.840  1.00  0.00     0.173 A 
ATOM     53  F   UNL A   1      41.172  24.365  28.579  1.00  0.00    -0.203 F 
ATOM     54  C   UNL A   1      42.480  23.977  26.657  1.00  0.00     0.198 A 
ATOM     55  C   UNL A   1      43.909  25.715  25.815  1.00  0.00     0.198 A 
ATOM     56  F   UNL A   1      43.994  27.799  26.916  1.00  0.00    -0.203 F 
ATOM     57  F   UNL A   1      41.997  22.729  26.577  1.00  0.00    -0.200 F 
ATOM     58  C   UNL A   1      43.403  24.426  25.723  1.00  0.00     0.200 A 
ATOM     59  F   UNL A   1      44.804  26.148  24.917  1.00  0.00    -0.200 F 
ATOM     60  F   UNL A   1      43.810  23.614  24.739  1.00  0.00    -0.200 F 
ENDBRANCH  26  50
BRANCH  38  61
ATOM     61  C   UNL A   1      44.910  27.599  34.149  1.00  0.00     0.064 A 
ATOM     62  C   UNL A   1      46.108  28.326  34.110  1.00  0.00     0.173 A 
ATOM     63  C   UNL A   1      44.856  26.447  34.944  1.00  0.00     0.173 A 
ATOM     64  F   UNL A   1      46.203  29.428  33.352  1.00  0.00    -0.203 F 
ATOM     65  C   UNL A   1      47.215  27.909  34.842  1.00  0.00     0.198 A 
ATOM     66  C   UNL A   1      45.965  26.035  35.677  1.00  0.00     0.198 A 
ATOM     67  F   UNL A   1      43.730  25.719  35.001  1.00  0.00    -0.203 F 
ATOM     68  F   UNL A   1      48.358  28.608  34.783  1.00  0.00    -0.200 F 
ATOM     69  C   UNL A   1      47.143  26.766  35.625  1.00  0.00     0.200 A 
ATOM     70  F   UNL A   1      45.897  24.927  36.427  1.00  0.00    -0.200 F 
ATOM     71  F   UNL A   1      48.213  26.364  36.324  1.00  0.00    -0.200 F 
ENDBRANCH  38  61
ENDBRANCH  12  13
ENDBRANCH   5   7
ENDBRANCH   2   3
ENDBRANCH   1   2
BRANCH   1  72
ATOM     72  C   UNL A   1      32.302  26.574  25.288  1.00  0.00     0.117 C 
BRANCH  72  73
ATOM     73  N   UNL A   1      31.391  25.682  25.974  1.00  0.00    -0.354 N 
ATOM     74  C   UNL A   1      31.578  24.502  26.618  1.00  0.00     0.242 C 
ATOM     75  H   UNL A   1      30.456  25.991  25.973  1.00  0.00     0.163 HD
ATOM     76  O   UNL A   1      30.596  24.080  27.251  1.00  0.00    -0.273 OA
BRANCH  74  77
ATOM     77  C   UNL A   1      32.867  23.633  26.559  1.00  0.00     0.175 C 
ATOM     78  C   UNL A   1      33.220  22.545  27.577  1.00  0.00     0.036 C 
ATOM     79  N   UNL A   1      33.056  23.083  25.203  1.00  0.00    -0.322 N 
ATOM     80  C   UNL A   1      34.549  21.830  27.230  1.00  0.00     0.008 C 
ATOM     81  C   UNL A   1      34.440  22.708  24.855  1.00  0.00     0.089 C 
ATOM     82  C   UNL A   1      35.321  22.562  26.125  1.00  0.00     0.012 C 
ATOM     83  C   UNL A   1      35.146  23.673  23.897  1.00  0.00     0.025 C 
ATOM     84  C   UNL A   1      36.649  21.900  25.751  1.00  0.00     0.006 C 
ATOM     85  C   UNL A   1      36.518  23.109  23.505  1.00  0.00     0.002 C 
ATOM     86  C   UNL A   1      37.386  22.756  24.715  1.00  0.00     0.000 C 
BRANCH  79  87
ATOM     87  C   UNL A   1      31.982  22.334  24.685  1.00  0.00     0.272 C 
ATOM     88  O   UNL A   1      30.934  22.871  24.334  1.00  0.00    -0.267 OA
BRANCH  87  89
ATOM     89  C   UNL A   1      32.174  20.914  24.584  1.00  0.00     0.123 A 
ATOM     90  C   UNL A   1      32.528  20.135  23.501  1.00  0.00     0.055 A 
ATOM     91  N   UNL A   1      32.153  20.058  25.649  1.00  0.00    -0.273 N 
ATOM     92  C   UNL A   1      32.603  18.825  24.004  1.00  0.00     0.135 A 
ATOM     93  N   UNL A   1      32.348  18.770  25.314  1.00  0.00    -0.183 NA
ATOM     94  H   UNL A   1      32.009  20.356  26.576  1.00  0.00     0.190 HD
ENDBRANCH  87  89
ENDBRANCH  79  87
ENDBRANCH  74  77
ENDBRANCH  72  73
ENDBRANCH   1  72
TORSDOF 12
ENDMDL
