MODEL 1
REMARK VINA RESULT:     -12.3      0.000      0.000
REMARK SMILES O=C(NCCCNC(=O)c1cc2ccccc2cc1OCCO)c1ccc(-c2c3nc(c(-c4c(F)c(F)c(F)c(F)c4F)c4ccc([nH]4)c(-c4c(F)c(F)c(F)c(F)c4F)c4nc(c(-c5c(F)c(F)c(F)c(F)c5F)c5ccc2[nH]5)C=C4)C=C3)cc1
REMARK SMILES IDX 6 1 5 2 4 3 3 4 1 5 2 6 24 8 25 9 86 10 26 11 85 12 27 13
REMARK SMILES IDX 28 14 29 15 79 16 30 17 84 18 78 19 80 20 31 21 83 22 77 23
REMARK SMILES IDX 76 24 32 26 64 27 44 28 63 29 45 30 48 31 62 32 81 33 46 34
REMARK SMILES IDX 47 35 61 37 82 38 49 39 33 40 34 41 42 42 35 43 36 44 40 45
REMARK SMILES IDX 43 46 37 47 38 48 41 49 39 50 65 51 66 52 74 53 67 54 68 55
REMARK SMILES IDX 72 56 75 57 69 58 70 59 73 60 71 61 50 62 51 63 59 64 52 65
REMARK SMILES IDX 53 66 57 67 60 68 54 69 55 70 58 71 56 72 7 73 8 74 9 76
REMARK SMILES IDX 10 77 11 78 19 79 12 80 18 81 13 82 17 83 14 84 16 85 15 86
REMARK SMILES IDX 20 87 21 88 22 89 23 90
REMARK H PARENT 3 7 80 25 48 36 7 75 23 91
REMARK Flexibility Score: inf
ROOT
ATOM      1  C   UNL A   1      32.368  30.511  26.391  1.00  0.00     0.118 C 
ENDROOT
BRANCH   1   2
ATOM      2  C   UNL A   1      31.956  31.958  26.586  1.00  0.00     0.042 C 
BRANCH   2   3
ATOM      3  C   UNL A   1      32.941  32.795  27.386  1.00  0.00     0.118 C 
BRANCH   3   4
ATOM      4  N   UNL A   1      32.487  34.141  27.709  1.00  0.00    -0.352 N 
ATOM      5  O   UNL A   1      32.538  36.123  28.815  1.00  0.00    -0.269 OA
ATOM      6  C   UNL A   1      33.020  35.010  28.637  1.00  0.00     0.251 C 
ATOM      7  H   UNL A   1      31.708  34.468  27.205  1.00  0.00     0.163 HD
BRANCH   6   8
ATOM      8  C   UNL A   1      34.164  34.549  29.454  1.00  0.00     0.039 A 
ATOM      9  C   UNL A   1      35.466  34.648  28.958  1.00  0.00     0.014 A 
ATOM     10  C   UNL A   1      33.917  33.916  30.676  1.00  0.00     0.014 A 
ATOM     11  C   UNL A   1      36.493  33.961  29.591  1.00  0.00     0.010 A 
ATOM     12  C   UNL A   1      34.970  33.298  31.355  1.00  0.00     0.010 A 
ATOM     13  C   UNL A   1      36.256  33.274  30.792  1.00  0.00    -0.014 A 
BRANCH  13  14
ATOM     14  C   UNL A   1      37.381  32.575  31.462  1.00  0.00     0.031 A 
ATOM     15  C   UNL A   1      38.111  31.446  30.788  1.00  0.00     0.074 A 
ATOM     16  C   UNL A   1      37.759  32.997  32.683  1.00  0.00     0.049 A 
ATOM     17  N   UNL A   1      39.116  30.734  31.233  1.00  0.00    -0.248 NA
ATOM     18  C   UNL A   1      37.654  31.057  29.445  1.00  0.00     0.031 C 
ATOM     19  C   UNL A   1      37.116  34.077  33.433  1.00  0.00     0.029 A 
ATOM     20  N   UNL A   1      38.777  32.581  33.502  1.00  0.00    -0.354 N 
ATOM     21  C   UNL A   1      39.397  29.803  30.242  1.00  0.00     0.074 A 
ATOM     22  C   UNL A   1      38.448  30.029  29.172  1.00  0.00     0.031 C 
ATOM     23  C   UNL A   1      37.771  34.259  34.588  1.00  0.00     0.029 A 
ATOM     24  C   UNL A   1      38.842  33.275  34.684  1.00  0.00     0.049 A 
ATOM     25  H   UNL A   1      39.399  31.856  33.266  1.00  0.00     0.167 HD
ATOM     26  C   UNL A   1      40.362  28.853  30.229  1.00  0.00     0.037 A 
ATOM     27  C   UNL A   1      39.659  33.120  35.742  1.00  0.00     0.037 A 
ATOM     28  C   UNL A   1      41.325  28.658  31.283  1.00  0.00     0.049 A 
ATOM     29  C   UNL A   1      40.713  32.053  35.698  1.00  0.00     0.074 A 
ATOM     30  C   UNL A   1      42.385  27.767  31.331  1.00  0.00     0.029 A 
ATOM     31  N   UNL A   1      41.342  29.361  32.478  1.00  0.00    -0.354 N 
ATOM     32  N   UNL A   1      40.992  31.208  34.736  1.00  0.00    -0.248 NA
ATOM     33  C   UNL A   1      41.559  31.912  36.890  1.00  0.00     0.031 C 
ATOM     34  C   UNL A   1      43.018  27.904  32.570  1.00  0.00     0.029 A 
ATOM     35  C   UNL A   1      42.375  28.904  33.281  1.00  0.00     0.049 A 
ATOM     36  H   UNL A   1      40.713  30.080  32.720  1.00  0.00     0.167 HD
ATOM     37  C   UNL A   1      42.045  30.437  35.203  1.00  0.00     0.074 A 
ATOM     38  C   UNL A   1      42.374  30.934  36.524  1.00  0.00     0.031 C 
ATOM     39  C   UNL A   1      42.676  29.403  34.597  1.00  0.00     0.037 A 
BRANCH  26  40
ATOM     40  C   UNL A   1      40.434  27.931  29.048  1.00  0.00     0.064 A 
ATOM     41  C   UNL A   1      39.687  26.746  28.994  1.00  0.00     0.173 A 
ATOM     42  C   UNL A   1      41.187  28.286  27.919  1.00  0.00     0.173 A 
ATOM     43  F   UNL A   1      38.957  26.358  30.050  1.00  0.00    -0.203 F 
ATOM     44  C   UNL A   1      39.695  25.947  27.851  1.00  0.00     0.198 A 
ATOM     45  C   UNL A   1      41.178  27.496  26.772  1.00  0.00     0.198 A 
ATOM     46  F   UNL A   1      41.913  29.414  27.919  1.00  0.00    -0.203 F 
ATOM     47  F   UNL A   1      38.986  24.810  27.826  1.00  0.00    -0.200 F 
ATOM     48  C   UNL A   1      40.432  26.328  26.739  1.00  0.00     0.200 A 
ATOM     49  F   UNL A   1      41.882  27.871  25.695  1.00  0.00    -0.200 F 
ATOM     50  F   UNL A   1      40.424  25.567  25.636  1.00  0.00    -0.200 F 
ENDBRANCH  26  40
BRANCH  27  51
ATOM     51  C   UNL A   1      39.488  33.987  36.934  1.00  0.00     0.064 A 
ATOM     52  C   UNL A   1      38.730  33.564  38.034  1.00  0.00     0.173 A 
ATOM     53  C   UNL A   1      40.094  35.250  37.002  1.00  0.00     0.173 A 
ATOM     54  F   UNL A   1      38.116  32.372  38.006  1.00  0.00    -0.203 F 
ATOM     55  C   UNL A   1      38.574  34.379  39.152  1.00  0.00     0.198 A 
ATOM     56  C   UNL A   1      39.960  36.052  38.132  1.00  0.00     0.198 A 
ATOM     57  F   UNL A   1      40.833  35.696  35.976  1.00  0.00    -0.203 F 
ATOM     58  F   UNL A   1      37.813  33.969  40.176  1.00  0.00    -0.200 F 
ATOM     59  C   UNL A   1      39.195  35.618  39.204  1.00  0.00     0.200 A 
ATOM     60  F   UNL A   1      40.575  37.240  38.184  1.00  0.00    -0.200 F 
ATOM     61  F   UNL A   1      39.051  36.398  40.284  1.00  0.00    -0.200 F 
ENDBRANCH  27  51
BRANCH  39  62
ATOM     62  C   UNL A   1      43.780  28.743  35.364  1.00  0.00     0.064 A 
ATOM     63  C   UNL A   1      45.104  29.193  35.264  1.00  0.00     0.173 A 
ATOM     64  C   UNL A   1      43.510  27.664  36.219  1.00  0.00     0.173 A 
ATOM     65  F   UNL A   1      45.411  30.210  34.444  1.00  0.00    -0.203 F 
ATOM     66  C   UNL A   1      46.125  28.571  35.976  1.00  0.00     0.198 A 
ATOM     67  C   UNL A   1      44.531  27.059  36.947  1.00  0.00     0.198 A 
ATOM     68  F   UNL A   1      42.259  27.200  36.350  1.00  0.00    -0.203 F 
ATOM     69  F   UNL A   1      47.390  28.987  35.832  1.00  0.00    -0.200 F 
ATOM     70  C   UNL A   1      45.837  27.509  36.821  1.00  0.00     0.200 A 
ATOM     71  F   UNL A   1      44.250  26.038  37.768  1.00  0.00    -0.200 F 
ATOM     72  F   UNL A   1      46.822  26.910  37.505  1.00  0.00    -0.200 F 
ENDBRANCH  39  62
ENDBRANCH  13  14
ENDBRANCH   6   8
ENDBRANCH   3   4
ENDBRANCH   2   3
ENDBRANCH   1   2
BRANCH   1  73
ATOM     73  N   UNL A   1      31.663  29.571  27.245  1.00  0.00    -0.352 N 
ATOM     74  C   UNL A   1      31.633  28.204  27.128  1.00  0.00     0.255 C 
ATOM     75  H   UNL A   1      31.150  29.958  27.991  1.00  0.00     0.163 HD
ATOM     76  O   UNL A   1      31.043  27.508  27.949  1.00  0.00    -0.269 OA
BRANCH  74  77
ATOM     77  C   UNL A   1      32.228  27.577  25.936  1.00  0.00     0.082 A 
ATOM     78  C   UNL A   1      33.299  26.712  26.190  1.00  0.00     0.026 A 
ATOM     79  C   UNL A   1      31.700  27.703  24.647  1.00  0.00     0.132 A 
ATOM     80  C   UNL A   1      33.776  25.865  25.185  1.00  0.00    -0.017 A 
ATOM     81  C   UNL A   1      32.163  26.846  23.645  1.00  0.00     0.056 A 
ATOM     82  C   UNL A   1      34.798  24.943  25.450  1.00  0.00     0.009 A 
ATOM     83  C   UNL A   1      33.182  25.909  23.903  1.00  0.00    -0.015 A 
ATOM     84  C   UNL A   1      35.213  24.044  24.469  1.00  0.00     0.001 A 
ATOM     85  C   UNL A   1      33.611  24.995  22.927  1.00  0.00     0.009 A 
ATOM     86  C   UNL A   1      34.614  24.063  23.213  1.00  0.00     0.001 A 
BRANCH  79  87
ATOM     87  O   UNL A   1      30.634  28.495  24.314  1.00  0.00    -0.490 OA
BRANCH  87  88
ATOM     88  C   UNL A   1      30.142  28.323  22.972  1.00  0.00     0.257 C 
BRANCH  88  89
ATOM     89  C   UNL A   1      29.766  29.689  22.383  1.00  0.00     0.197 C 
BRANCH  89  90
ATOM     90  O   UNL A   1      30.634  30.052  21.311  1.00  0.00    -0.393 OA
ATOM     91  H   UNL A   1      30.717  29.307  20.695  1.00  0.00     0.210 HD
ENDBRANCH  89  90
ENDBRANCH  88  89
ENDBRANCH  87  88
ENDBRANCH  79  87
ENDBRANCH  74  77
ENDBRANCH   1  73
TORSDOF 14
ENDMDL
MODEL 2
REMARK VINA RESULT:     -12.3      1.148      7.645
REMARK SMILES O=C(NCCCNC(=O)c1cc2ccccc2cc1OCCO)c1ccc(-c2c3nc(c(-c4c(F)c(F)c(F)c(F)c4F)c4ccc([nH]4)c(-c4c(F)c(F)c(F)c(F)c4F)c4nc(c(-c5c(F)c(F)c(F)c(F)c5F)c5ccc2[nH]5)C=C4)C=C3)cc1
REMARK SMILES IDX 6 1 5 2 4 3 3 4 1 5 2 6 24 8 25 9 86 10 26 11 85 12 27 13
REMARK SMILES IDX 28 14 29 15 79 16 30 17 84 18 78 19 80 20 31 21 83 22 77 23
REMARK SMILES IDX 76 24 32 26 64 27 44 28 63 29 45 30 48 31 62 32 81 33 46 34
REMARK SMILES IDX 47 35 61 37 82 38 49 39 33 40 34 41 42 42 35 43 36 44 40 45
REMARK SMILES IDX 43 46 37 47 38 48 41 49 39 50 65 51 66 52 74 53 67 54 68 55
REMARK SMILES IDX 72 56 75 57 69 58 70 59 73 60 71 61 50 62 51 63 59 64 52 65
REMARK SMILES IDX 53 66 57 67 60 68 54 69 55 70 58 71 56 72 7 73 8 74 9 76
REMARK SMILES IDX 10 77 11 78 19 79 12 80 18 81 13 82 17 83 14 84 16 85 15 86
REMARK SMILES IDX 20 87 21 88 22 89 23 90
REMARK H PARENT 3 7 80 25 48 36 7 75 23 91
REMARK Flexibility Score: inf
ROOT
ATOM      1  C   UNL A   1      32.383  30.031  26.351  1.00  0.00     0.118 C 
ENDROOT
BRANCH   1   2
ATOM      2  C   UNL A   1      31.886  31.395  26.789  1.00  0.00     0.042 C 
BRANCH   2   3
ATOM      3  C   UNL A   1      32.977  32.358  27.229  1.00  0.00     0.118 C 
BRANCH   3   4
ATOM      4  N   UNL A   1      32.519  33.702  27.555  1.00  0.00    -0.352 N 
ATOM      5  O   UNL A   1      32.581  35.691  28.648  1.00  0.00    -0.269 OA
ATOM      6  C   UNL A   1      33.068  34.581  28.464  1.00  0.00     0.251 C 
ATOM      7  H   UNL A   1      31.724  34.019  27.070  1.00  0.00     0.163 HD
BRANCH   6   8
ATOM      8  C   UNL A   1      34.237  34.136  29.253  1.00  0.00     0.039 A 
ATOM      9  C   UNL A   1      35.531  34.436  28.822  1.00  0.00     0.014 A 
ATOM     10  C   UNL A   1      34.034  33.321  30.371  1.00  0.00     0.014 A 
ATOM     11  C   UNL A   1      36.613  33.781  29.395  1.00  0.00     0.010 A 
ATOM     12  C   UNL A   1      35.132  32.730  31.000  1.00  0.00     0.010 A 
ATOM     13  C   UNL A   1      36.426  32.916  30.486  1.00  0.00    -0.014 A 
BRANCH  13  14
ATOM     14  C   UNL A   1      37.605  32.255  31.097  1.00  0.00     0.031 A 
ATOM     15  C   UNL A   1      38.076  32.619  32.479  1.00  0.00     0.074 A 
ATOM     16  C   UNL A   1      38.231  31.291  30.398  1.00  0.00     0.049 A 
ATOM     17  N   UNL A   1      39.085  32.134  33.158  1.00  0.00    -0.248 NA
ATOM     18  C   UNL A   1      37.326  33.666  33.190  1.00  0.00     0.031 C 
ATOM     19  C   UNL A   1      37.866  30.864  29.046  1.00  0.00     0.029 A 
ATOM     20  N   UNL A   1      39.295  30.490  30.724  1.00  0.00    -0.354 N 
ATOM     21  C   UNL A   1      39.106  32.828  34.361  1.00  0.00     0.074 A 
ATOM     22  C   UNL A   1      38.016  33.780  34.318  1.00  0.00     0.031 C 
ATOM     23  C   UNL A   1      38.670  29.860  28.670  1.00  0.00     0.029 A 
ATOM     24  C   UNL A   1      39.641  29.612  29.728  1.00  0.00     0.049 A 
ATOM     25  H   UNL A   1      39.765  30.541  31.588  1.00  0.00     0.167 HD
ATOM     26  C   UNL A   1      39.957  32.677  35.404  1.00  0.00     0.037 A 
ATOM     27  C   UNL A   1      40.647  28.720  29.663  1.00  0.00     0.037 A 
ATOM     28  C   UNL A   1      41.018  31.704  35.453  1.00  0.00     0.049 A 
ATOM     29  C   UNL A   1      41.576  28.583  30.834  1.00  0.00     0.074 A 
ATOM     30  C   UNL A   1      41.889  31.427  36.495  1.00  0.00     0.029 A 
ATOM     31  N   UNL A   1      41.357  30.850  34.415  1.00  0.00    -0.354 N 
ATOM     32  N   UNL A   1      41.558  29.217  31.980  1.00  0.00    -0.248 NA
ATOM     33  C   UNL A   1      42.670  27.613  30.698  1.00  0.00     0.031 C 
ATOM     34  C   UNL A   1      42.779  30.435  36.071  1.00  0.00     0.029 A 
ATOM     35  C   UNL A   1      42.441  30.068  34.779  1.00  0.00     0.049 A 
ATOM     36  H   UNL A   1      40.894  30.806  33.546  1.00  0.00     0.167 HD
ATOM     37  C   UNL A   1      42.633  28.724  32.703  1.00  0.00     0.074 A 
ATOM     38  C   UNL A   1      43.266  27.716  31.876  1.00  0.00     0.031 C 
ATOM     39  C   UNL A   1      43.063  29.081  33.937  1.00  0.00     0.037 A 
BRANCH  26  40
ATOM     40  C   UNL A   1      39.799  33.587  36.587  1.00  0.00     0.064 A 
ATOM     41  C   UNL A   1      40.431  34.837  36.643  1.00  0.00     0.173 A 
ATOM     42  C   UNL A   1      38.928  33.243  37.632  1.00  0.00     0.173 A 
ATOM     43  F   UNL A   1      41.278  35.210  35.672  1.00  0.00    -0.203 F 
ATOM     44  C   UNL A   1      40.200  35.708  37.706  1.00  0.00     0.198 A 
ATOM     45  C   UNL A   1      38.685  34.123  38.683  1.00  0.00     0.198 A 
ATOM     46  F   UNL A   1      38.294  32.061  37.621  1.00  0.00    -0.203 F 
ATOM     47  F   UNL A   1      40.827  36.893  37.748  1.00  0.00    -0.200 F 
ATOM     48  C   UNL A   1      39.321  35.355  38.719  1.00  0.00     0.200 A 
ATOM     49  F   UNL A   1      37.827  33.784  39.655  1.00  0.00    -0.200 F 
ATOM     50  F   UNL A   1      39.087  36.202  39.731  1.00  0.00    -0.200 F 
ENDBRANCH  26  40
BRANCH  27  51
ATOM     51  C   UNL A   1      40.831  27.911  28.434  1.00  0.00     0.064 A 
ATOM     52  C   UNL A   1      41.604  28.383  27.365  1.00  0.00     0.173 A 
ATOM     53  C   UNL A   1      40.249  26.640  28.310  1.00  0.00     0.173 A 
ATOM     54  F   UNL A   1      42.164  29.600  27.430  1.00  0.00    -0.203 F 
ATOM     55  C   UNL A   1      41.777  27.620  26.213  1.00  0.00     0.198 A 
ATOM     56  C   UNL A   1      40.446  25.866  27.171  1.00  0.00     0.198 A 
ATOM     57  F   UNL A   1      39.505  26.143  29.309  1.00  0.00    -0.203 F 
ATOM     58  F   UNL A   1      42.489  28.108  25.189  1.00  0.00    -0.200 F 
ATOM     59  C   UNL A   1      41.205  26.359  26.120  1.00  0.00     0.200 A 
ATOM     60  F   UNL A   1      39.905  24.644  27.092  1.00  0.00    -0.200 F 
ATOM     61  F   UNL A   1      41.378  25.622  25.014  1.00  0.00    -0.200 F 
ENDBRANCH  27  51
BRANCH  39  62
ATOM     62  C   UNL A   1      44.279  28.378  34.456  1.00  0.00     0.064 A 
ATOM     63  C   UNL A   1      45.563  28.908  34.262  1.00  0.00     0.173 A 
ATOM     64  C   UNL A   1      44.160  27.174  35.167  1.00  0.00     0.173 A 
ATOM     65  F   UNL A   1      45.726  30.046  33.572  1.00  0.00    -0.203 F 
ATOM     66  C   UNL A   1      46.688  28.245  34.742  1.00  0.00     0.198 A 
ATOM     67  C   UNL A   1      45.287  26.527  35.666  1.00  0.00     0.198 A 
ATOM     68  F   UNL A   1      42.953  26.631  35.380  1.00  0.00    -0.203 F 
ATOM     69  F   UNL A   1      47.909  28.745  34.508  1.00  0.00    -0.200 F 
ATOM     70  C   UNL A   1      46.550  27.059  35.448  1.00  0.00     0.200 A 
ATOM     71  F   UNL A   1      45.151  25.385  36.354  1.00  0.00    -0.200 F 
ATOM     72  F   UNL A   1      47.635  26.422  35.909  1.00  0.00    -0.200 F 
ENDBRANCH  39  62
ENDBRANCH  13  14
ENDBRANCH   6   8
ENDBRANCH   3   4
ENDBRANCH   2   3
ENDBRANCH   1   2
BRANCH   1  73
ATOM     73  N   UNL A   1      33.079  30.033  25.076  1.00  0.00    -0.352 N 
ATOM     74  C   UNL A   1      33.089  29.035  24.134  1.00  0.00     0.255 C 
ATOM     75  H   UNL A   1      33.602  30.841  24.864  1.00  0.00     0.163 HD
ATOM     76  O   UNL A   1      33.674  29.177  23.064  1.00  0.00    -0.269 OA
BRANCH  74  77
ATOM     77  C   UNL A   1      32.480  27.737  24.464  1.00  0.00     0.082 A 
ATOM     78  C   UNL A   1      33.372  26.756  24.914  1.00  0.00     0.026 A 
ATOM     79  C   UNL A   1      31.100  27.508  24.477  1.00  0.00     0.132 A 
ATOM     80  C   UNL A   1      32.894  25.581  25.500  1.00  0.00    -0.017 A 
ATOM     81  C   UNL A   1      30.618  26.342  25.077  1.00  0.00     0.056 A 
ATOM     82  C   UNL A   1      33.780  24.627  26.019  1.00  0.00     0.009 A 
ATOM     83  C   UNL A   1      31.499  25.381  25.611  1.00  0.00    -0.015 A 
ATOM     84  C   UNL A   1      33.298  23.496  26.676  1.00  0.00     0.001 A 
ATOM     85  C   UNL A   1      31.031  24.238  26.278  1.00  0.00     0.009 A 
ATOM     86  C   UNL A   1      31.926  23.307  26.814  1.00  0.00     0.001 A 
BRANCH  79  87
ATOM     87  O   UNL A   1      30.154  28.420  24.091  1.00  0.00    -0.490 OA
BRANCH  87  88
ATOM     88  C   UNL A   1      29.772  28.351  22.705  1.00  0.00     0.257 C 
BRANCH  88  89
ATOM     89  C   UNL A   1      29.858  29.750  22.079  1.00  0.00     0.197 C 
BRANCH  89  90
ATOM     90  O   UNL A   1      31.152  30.000  21.536  1.00  0.00    -0.393 OA
ATOM     91  H   UNL A   1      31.076  30.609  20.784  1.00  0.00     0.210 HD
ENDBRANCH  89  90
ENDBRANCH  88  89
ENDBRANCH  87  88
ENDBRANCH  79  87
ENDBRANCH  74  77
ENDBRANCH   1  73
TORSDOF 14
ENDMDL
MODEL 3
REMARK VINA RESULT:     -12.3      0.098      1.620
REMARK SMILES O=C(NCCCNC(=O)c1cc2ccccc2cc1OCCO)c1ccc(-c2c3nc(c(-c4c(F)c(F)c(F)c(F)c4F)c4ccc([nH]4)c(-c4c(F)c(F)c(F)c(F)c4F)c4nc(c(-c5c(F)c(F)c(F)c(F)c5F)c5ccc2[nH]5)C=C4)C=C3)cc1
REMARK SMILES IDX 6 1 5 2 4 3 3 4 1 5 2 6 24 8 25 9 86 10 26 11 85 12 27 13
REMARK SMILES IDX 28 14 29 15 79 16 30 17 84 18 78 19 80 20 31 21 83 22 77 23
REMARK SMILES IDX 76 24 32 26 64 27 44 28 63 29 45 30 48 31 62 32 81 33 46 34
REMARK SMILES IDX 47 35 61 37 82 38 49 39 33 40 34 41 42 42 35 43 36 44 40 45
REMARK SMILES IDX 43 46 37 47 38 48 41 49 39 50 65 51 66 52 74 53 67 54 68 55
REMARK SMILES IDX 72 56 75 57 69 58 70 59 73 60 71 61 50 62 51 63 59 64 52 65
REMARK SMILES IDX 53 66 57 67 60 68 54 69 55 70 58 71 56 72 7 73 8 74 9 76
REMARK SMILES IDX 10 77 11 78 19 79 12 80 18 81 13 82 17 83 14 84 16 85 15 86
REMARK SMILES IDX 20 87 21 88 22 89 23 90
REMARK H PARENT 3 7 80 25 48 36 7 75 23 91
REMARK Flexibility Score: inf
ROOT
ATOM      1  C   UNL A   1      32.337  30.497  26.343  1.00  0.00     0.118 C 
ENDROOT
BRANCH   1   2
ATOM      2  C   UNL A   1      31.939  31.946  26.546  1.00  0.00     0.042 C 
BRANCH   2   3
ATOM      3  C   UNL A   1      32.903  32.755  27.399  1.00  0.00     0.118 C 
BRANCH   3   4
ATOM      4  N   UNL A   1      32.466  34.110  27.707  1.00  0.00    -0.352 N 
ATOM      5  O   UNL A   1      32.551  36.109  28.780  1.00  0.00    -0.269 OA
ATOM      6  C   UNL A   1      33.020  34.988  28.614  1.00  0.00     0.251 C 
ATOM      7  H   UNL A   1      31.684  34.438  27.208  1.00  0.00     0.163 HD
BRANCH   6   8
ATOM      8  C   UNL A   1      34.170  34.529  29.423  1.00  0.00     0.039 A 
ATOM      9  C   UNL A   1      35.464  34.591  28.901  1.00  0.00     0.014 A 
ATOM     10  C   UNL A   1      33.934  33.934  30.665  1.00  0.00     0.014 A 
ATOM     11  C   UNL A   1      36.491  33.903  29.534  1.00  0.00     0.010 A 
ATOM     12  C   UNL A   1      34.988  33.316  31.343  1.00  0.00     0.010 A 
ATOM     13  C   UNL A   1      36.263  33.253  30.758  1.00  0.00    -0.014 A 
BRANCH  13  14
ATOM     14  C   UNL A   1      37.388  32.553  31.427  1.00  0.00     0.031 A 
ATOM     15  C   UNL A   1      38.114  31.421  30.753  1.00  0.00     0.074 A 
ATOM     16  C   UNL A   1      37.769  32.975  32.646  1.00  0.00     0.049 A 
ATOM     17  N   UNL A   1      39.118  30.707  31.197  1.00  0.00    -0.248 NA
ATOM     18  C   UNL A   1      37.654  31.031  29.411  1.00  0.00     0.031 C 
ATOM     19  C   UNL A   1      37.130  34.057  33.397  1.00  0.00     0.029 A 
ATOM     20  N   UNL A   1      38.787  32.558  33.465  1.00  0.00    -0.354 N 
ATOM     21  C   UNL A   1      39.395  29.774  30.206  1.00  0.00     0.074 A 
ATOM     22  C   UNL A   1      38.445  30.001  29.138  1.00  0.00     0.031 C 
ATOM     23  C   UNL A   1      37.787  34.239  34.551  1.00  0.00     0.029 A 
ATOM     24  C   UNL A   1      38.856  33.253  34.646  1.00  0.00     0.049 A 
ATOM     25  H   UNL A   1      39.407  31.830  33.228  1.00  0.00     0.167 HD
ATOM     26  C   UNL A   1      40.358  28.822  30.193  1.00  0.00     0.037 A 
ATOM     27  C   UNL A   1      39.674  33.097  35.702  1.00  0.00     0.037 A 
ATOM     28  C   UNL A   1      41.322  28.626  31.246  1.00  0.00     0.049 A 
ATOM     29  C   UNL A   1      40.726  32.027  35.658  1.00  0.00     0.074 A 
ATOM     30  C   UNL A   1      42.380  27.733  31.292  1.00  0.00     0.029 A 
ATOM     31  N   UNL A   1      41.343  29.330  32.440  1.00  0.00    -0.354 N 
ATOM     32  N   UNL A   1      41.001  31.180  34.697  1.00  0.00    -0.248 NA
ATOM     33  C   UNL A   1      41.574  31.886  36.848  1.00  0.00     0.031 C 
ATOM     34  C   UNL A   1      43.016  27.870  32.531  1.00  0.00     0.029 A 
ATOM     35  C   UNL A   1      42.377  28.872  33.241  1.00  0.00     0.049 A 
ATOM     36  H   UNL A   1      40.716  30.051  32.682  1.00  0.00     0.167 HD
ATOM     37  C   UNL A   1      42.053  30.407  35.163  1.00  0.00     0.074 A 
ATOM     38  C   UNL A   1      42.386  30.905  36.482  1.00  0.00     0.031 C 
ATOM     39  C   UNL A   1      42.681  29.371  34.556  1.00  0.00     0.037 A 
BRANCH  26  40
ATOM     40  C   UNL A   1      40.426  27.898  29.013  1.00  0.00     0.064 A 
ATOM     41  C   UNL A   1      39.679  26.713  28.963  1.00  0.00     0.173 A 
ATOM     42  C   UNL A   1      41.174  28.252  27.880  1.00  0.00     0.173 A 
ATOM     43  F   UNL A   1      38.953  26.326  30.023  1.00  0.00    -0.203 F 
ATOM     44  C   UNL A   1      39.683  25.913  27.821  1.00  0.00     0.198 A 
ATOM     45  C   UNL A   1      41.161  27.460  26.735  1.00  0.00     0.198 A 
ATOM     46  F   UNL A   1      41.900  29.380  27.876  1.00  0.00    -0.203 F 
ATOM     47  F   UNL A   1      38.974  24.775  27.800  1.00  0.00    -0.200 F 
ATOM     48  C   UNL A   1      40.416  26.292  26.706  1.00  0.00     0.200 A 
ATOM     49  F   UNL A   1      41.861  27.834  25.654  1.00  0.00    -0.200 F 
ATOM     50  F   UNL A   1      40.403  25.530  25.604  1.00  0.00    -0.200 F 
ENDBRANCH  26  40
BRANCH  27  51
ATOM     51  C   UNL A   1      39.507  33.965  36.893  1.00  0.00     0.064 A 
ATOM     52  C   UNL A   1      40.092  35.237  36.950  1.00  0.00     0.173 A 
ATOM     53  C   UNL A   1      38.744  33.546  37.993  1.00  0.00     0.173 A 
ATOM     54  F   UNL A   1      40.847  35.673  35.930  1.00  0.00    -0.203 F 
ATOM     55  C   UNL A   1      39.931  36.051  38.068  1.00  0.00     0.198 A 
ATOM     56  C   UNL A   1      38.559  34.372  39.098  1.00  0.00     0.198 A 
ATOM     57  F   UNL A   1      38.160  32.339  37.983  1.00  0.00    -0.203 F 
ATOM     58  F   UNL A   1      40.532  37.248  38.115  1.00  0.00    -0.200 F 
ATOM     59  C   UNL A   1      39.159  35.622  39.138  1.00  0.00     0.200 A 
ATOM     60  F   UNL A   1      37.800  33.959  40.121  1.00  0.00    -0.200 F 
ATOM     61  F   UNL A   1      38.997  36.409  40.210  1.00  0.00    -0.200 F 
ENDBRANCH  27  51
BRANCH  39  62
ATOM     62  C   UNL A   1      43.784  28.709  35.323  1.00  0.00     0.064 A 
ATOM     63  C   UNL A   1      43.513  27.710  36.268  1.00  0.00     0.173 A 
ATOM     64  C   UNL A   1      45.123  29.065  35.100  1.00  0.00     0.173 A 
ATOM     65  F   UNL A   1      42.246  27.352  36.528  1.00  0.00    -0.203 F 
ATOM     66  C   UNL A   1      44.543  27.104  36.981  1.00  0.00     0.198 A 
ATOM     67  C   UNL A   1      46.152  28.439  35.798  1.00  0.00     0.198 A 
ATOM     68  F   UNL A   1      45.431  30.013  34.203  1.00  0.00    -0.203 F 
ATOM     69  F   UNL A   1      44.260  26.183  37.912  1.00  0.00    -0.200 F 
ATOM     70  C   UNL A   1      45.861  27.465  36.742  1.00  0.00     0.200 A 
ATOM     71  F   UNL A   1      47.425  28.783  35.561  1.00  0.00    -0.200 F 
ATOM     72  F   UNL A   1      46.852  26.880  37.430  1.00  0.00    -0.200 F 
ENDBRANCH  39  62
ENDBRANCH  13  14
ENDBRANCH   6   8
ENDBRANCH   3   4
ENDBRANCH   2   3
ENDBRANCH   1   2
BRANCH   1  73
ATOM     73  N   UNL A   1      31.687  29.568  27.251  1.00  0.00    -0.352 N 
ATOM     74  C   UNL A   1      31.676  28.198  27.170  1.00  0.00     0.255 C 
ATOM     75  H   UNL A   1      31.201  29.966  28.010  1.00  0.00     0.163 HD
ATOM     76  O   UNL A   1      31.135  27.515  28.034  1.00  0.00    -0.269 OA
BRANCH  74  77
ATOM     77  C   UNL A   1      32.227  27.551  25.969  1.00  0.00     0.082 A 
ATOM     78  C   UNL A   1      33.340  26.730  26.191  1.00  0.00     0.026 A 
ATOM     79  C   UNL A   1      31.626  27.613  24.707  1.00  0.00     0.132 A 
ATOM     80  C   UNL A   1      33.791  25.865  25.191  1.00  0.00    -0.017 A 
ATOM     81  C   UNL A   1      32.064  26.738  23.710  1.00  0.00     0.056 A 
ATOM     82  C   UNL A   1      34.858  24.988  25.429  1.00  0.00     0.009 A 
ATOM     83  C   UNL A   1      33.128  25.845  23.942  1.00  0.00    -0.015 A 
ATOM     84  C   UNL A   1      35.251  24.070  24.457  1.00  0.00     0.001 A 
ATOM     85  C   UNL A   1      33.536  24.912  22.975  1.00  0.00     0.009 A 
ATOM     86  C   UNL A   1      34.585  24.025  23.236  1.00  0.00     0.001 A 
BRANCH  79  87
ATOM     87  O   UNL A   1      30.517  28.358  24.407  1.00  0.00    -0.490 OA
BRANCH  87  88
ATOM     88  C   UNL A   1      30.152  28.374  23.015  1.00  0.00     0.257 C 
BRANCH  88  89
ATOM     89  C   UNL A   1      29.959  29.824  22.551  1.00  0.00     0.197 C 
BRANCH  89  90
ATOM     90  O   UNL A   1      30.610  30.067  21.306  1.00  0.00    -0.393 OA
ATOM     91  H   UNL A   1      30.024  30.580  20.728  1.00  0.00     0.210 HD
ENDBRANCH  89  90
ENDBRANCH  88  89
ENDBRANCH  87  88
ENDBRANCH  79  87
ENDBRANCH  74  77
ENDBRANCH   1  73
TORSDOF 14
ENDMDL
