MODEL 1
REMARK VINA RESULT:     -14.5      0.000      0.000
REMARK SMILES Cc1ccc(C(=O)NCCCNC(=O)c2ccc(-c3c4nc(c(-c5c(F)c(F)c(F)c(F)c5F)c5ccc([nH]5)c(-c5c(F)c(F)c(F)c(F)c5F)c5nc(c(-c6c(F)c(F)c(F)c(F)c6F)c6ccc3[nH]6)C=C5)C=C4)cc2)cc1NC(=O)Cc1ccc2ccccc2c1
REMARK SMILES IDX 9 1 8 2 6 3 7 4 5 6 1 7 2 8 3 9 79 10 4 11 78 12 80 13 81 14
REMARK SMILES IDX 82 16 83 17 84 18 85 19 93 20 86 21 92 22 87 23 91 24 88 25
REMARK SMILES IDX 90 26 89 27 10 28 11 29 12 30 13 31 14 33 15 34 16 35 77 36
REMARK SMILES IDX 17 37 76 38 18 39 19 40 20 41 70 42 21 43 75 44 69 45 71 46
REMARK SMILES IDX 22 47 74 48 68 49 67 50 23 52 55 53 35 54 54 55 36 56 39 57
REMARK SMILES IDX 53 58 72 59 37 60 38 61 52 63 73 64 40 65 24 66 25 67 33 68
REMARK SMILES IDX 26 69 27 70 31 71 34 72 28 73 29 74 32 75 30 76 56 77 57 78
REMARK SMILES IDX 65 79 58 80 59 81 63 82 66 83 60 84 61 85 64 86 62 87 41 88
REMARK SMILES IDX 42 89 50 90 43 91 44 92 48 93 51 94 45 95 46 96 49 97 47 98
REMARK H PARENT 8 5 80 15 12 32 71 51 39 62
REMARK Flexibility Score: inf
ROOT
ATOM      1  C   UNL A   1      32.103  29.486  25.035  1.00  0.00     0.118 C 
ENDROOT
BRANCH   1   2
ATOM      2  N   UNL A   1      31.459  29.695  23.759  1.00  0.00    -0.352 N 
ATOM      3  C   UNL A   1      30.796  28.831  22.918  1.00  0.00     0.251 C 
ATOM      4  O   UNL A   1      30.217  29.333  21.946  1.00  0.00    -0.269 OA
ATOM      5  H   UNL A   1      31.503  30.623  23.432  1.00  0.00     0.163 HD
BRANCH   3   6
ATOM      6  C   UNL A   1      30.825  27.339  23.051  1.00  0.00     0.041 A 
ATOM      7  C   UNL A   1      31.451  23.071  23.294  1.00  0.00     0.046 C 
ATOM      8  C   UNL A   1      31.180  24.554  23.305  1.00  0.00    -0.027 A 
ATOM      9  C   UNL A   1      31.740  25.272  22.223  1.00  0.00     0.006 A 
ATOM     10  C   UNL A   1      30.392  25.229  24.265  1.00  0.00     0.044 A 
ATOM     11  C   UNL A   1      31.601  26.652  22.121  1.00  0.00     0.014 A 
ATOM     12  C   UNL A   1      30.139  26.591  24.025  1.00  0.00     0.040 A 
BRANCH  10  13
ATOM     13  N   UNL A   1      29.932  24.517  25.422  1.00  0.00    -0.326 N 
ATOM     14  C   UNL A   1      30.505  24.085  26.615  1.00  0.00     0.228 C 
ATOM     15  H   UNL A   1      28.980  24.273  25.357  1.00  0.00     0.169 HD
ATOM     16  O   UNL A   1      29.828  23.393  27.376  1.00  0.00    -0.274 OA
BRANCH  14  17
ATOM     17  C   UNL A   1      31.921  24.457  26.902  1.00  0.00     0.135 C 
BRANCH  17  18
ATOM     18  C   UNL A   1      33.180  23.880  26.299  1.00  0.00    -0.038 A 
ATOM     19  C   UNL A   1      33.951  24.871  25.691  1.00  0.00     0.005 A 
ATOM     20  C   UNL A   1      33.727  22.590  26.297  1.00  0.00     0.013 A 
ATOM     21  C   UNL A   1      35.054  24.575  24.920  1.00  0.00     0.009 A 
ATOM     22  C   UNL A   1      34.953  22.303  25.580  1.00  0.00    -0.018 A 
ATOM     23  C   UNL A   1      35.489  23.289  24.744  1.00  0.00    -0.018 A 
ATOM     24  C   UNL A   1      35.756  21.148  25.694  1.00  0.00     0.009 A 
ATOM     25  C   UNL A   1      36.549  23.066  23.857  1.00  0.00     0.009 A 
ATOM     26  C   UNL A   1      36.947  20.997  24.949  1.00  0.00     0.001 A 
ATOM     27  C   UNL A   1      37.302  21.919  23.972  1.00  0.00     0.001 A 
ENDBRANCH  17  18
ENDBRANCH  14  17
ENDBRANCH  10  13
ENDBRANCH   3   6
ENDBRANCH   1   2
BRANCH   1  28
ATOM     28  C   UNL A   1      31.796  30.491  26.129  1.00  0.00     0.042 C 
BRANCH  28  29
ATOM     29  C   UNL A   1      32.980  30.818  27.028  1.00  0.00     0.118 C 
BRANCH  29  30
ATOM     30  N   UNL A   1      34.170  29.971  26.842  1.00  0.00    -0.352 N 
ATOM     31  C   UNL A   1      35.393  29.855  27.501  1.00  0.00     0.251 C 
ATOM     32  H   UNL A   1      34.083  29.352  26.083  1.00  0.00     0.163 HD
ATOM     33  O   UNL A   1      36.223  29.010  27.168  1.00  0.00    -0.269 OA
BRANCH  31  34
ATOM     34  C   UNL A   1      35.677  30.529  28.782  1.00  0.00     0.039 A 
ATOM     35  C   UNL A   1      36.346  31.735  28.513  1.00  0.00     0.014 A 
ATOM     36  C   UNL A   1      36.092  29.704  29.801  1.00  0.00     0.014 A 
ATOM     37  C   UNL A   1      37.690  31.795  28.803  1.00  0.00     0.010 A 
ATOM     38  C   UNL A   1      37.449  29.685  29.996  1.00  0.00     0.010 A 
ATOM     39  C   UNL A   1      38.249  30.683  29.417  1.00  0.00    -0.014 A 
BRANCH  39  40
ATOM     40  C   UNL A   1      39.657  30.577  29.695  1.00  0.00     0.031 A 
ATOM     41  C   UNL A   1      40.304  29.473  28.971  1.00  0.00     0.074 A 
ATOM     42  C   UNL A   1      40.307  31.378  30.565  1.00  0.00     0.049 A 
ATOM     43  N   UNL A   1      41.241  28.747  29.459  1.00  0.00    -0.248 NA
ATOM     44  C   UNL A   1      39.816  28.994  27.677  1.00  0.00     0.031 C 
ATOM     45  C   UNL A   1      41.751  31.459  30.745  1.00  0.00     0.029 A 
ATOM     46  N   UNL A   1      39.782  32.210  31.569  1.00  0.00    -0.354 N 
ATOM     47  C   UNL A   1      41.661  27.902  28.457  1.00  0.00     0.074 A 
ATOM     48  C   UNL A   1      40.666  28.003  27.425  1.00  0.00     0.031 C 
ATOM     49  C   UNL A   1      42.019  32.078  31.906  1.00  0.00     0.029 A 
ATOM     50  C   UNL A   1      40.760  32.301  32.593  1.00  0.00     0.049 A 
ATOM     51  H   UNL A   1      38.901  32.648  31.562  1.00  0.00     0.167 HD
ATOM     52  C   UNL A   1      42.895  27.340  28.565  1.00  0.00     0.037 A 
ATOM     53  C   UNL A   1      40.502  31.927  33.884  1.00  0.00     0.037 A 
ATOM     54  C   UNL A   1      43.498  27.728  29.840  1.00  0.00     0.049 A 
ATOM     55  C   UNL A   1      41.270  30.701  34.298  1.00  0.00     0.074 A 
ATOM     56  C   UNL A   1      44.323  28.792  30.173  1.00  0.00     0.029 A 
ATOM     57  N   UNL A   1      42.946  27.271  31.034  1.00  0.00    -0.354 N 
ATOM     58  N   UNL A   1      41.870  29.911  33.454  1.00  0.00    -0.248 NA
ATOM     59  C   UNL A   1      41.362  30.234  35.677  1.00  0.00     0.031 C 
ATOM     60  C   UNL A   1      44.220  29.005  31.569  1.00  0.00     0.029 A 
ATOM     61  C   UNL A   1      43.364  28.053  32.097  1.00  0.00     0.049 A 
ATOM     62  H   UNL A   1      42.341  26.498  31.111  1.00  0.00     0.167 HD
ATOM     63  C   UNL A   1      42.357  28.823  34.122  1.00  0.00     0.074 A 
ATOM     64  C   UNL A   1      42.053  29.093  35.516  1.00  0.00     0.031 C 
ATOM     65  C   UNL A   1      42.930  27.775  33.462  1.00  0.00     0.037 A 
BRANCH  52  66
ATOM     66  C   UNL A   1      43.665  26.774  27.393  1.00  0.00     0.064 A 
ATOM     67  C   UNL A   1      43.786  25.376  27.247  1.00  0.00     0.173 A 
ATOM     68  C   UNL A   1      44.363  27.525  26.425  1.00  0.00     0.173 A 
ATOM     69  F   UNL A   1      43.104  24.531  28.029  1.00  0.00    -0.203 F 
ATOM     70  C   UNL A   1      44.619  24.790  26.289  1.00  0.00     0.198 A 
ATOM     71  C   UNL A   1      45.236  26.941  25.502  1.00  0.00     0.198 A 
ATOM     72  F   UNL A   1      44.180  28.841  26.284  1.00  0.00    -0.203 F 
ATOM     73  F   UNL A   1      44.693  23.454  26.207  1.00  0.00    -0.200 F 
ATOM     74  C   UNL A   1      45.370  25.572  25.438  1.00  0.00     0.200 A 
ATOM     75  F   UNL A   1      45.940  27.722  24.668  1.00  0.00    -0.200 F 
ATOM     76  F   UNL A   1      46.191  25.011  24.542  1.00  0.00    -0.200 F 
ENDBRANCH  52  66
BRANCH  53  77
ATOM     77  C   UNL A   1      39.099  32.209  34.297  1.00  0.00     0.064 A 
ATOM     78  C   UNL A   1      38.760  33.571  34.351  1.00  0.00     0.173 A 
ATOM     79  C   UNL A   1      38.099  31.287  33.965  1.00  0.00     0.173 A 
ATOM     80  F   UNL A   1      39.665  34.474  34.761  1.00  0.00    -0.203 F 
ATOM     81  C   UNL A   1      37.592  34.016  33.750  1.00  0.00     0.198 A 
ATOM     82  C   UNL A   1      36.910  31.736  33.400  1.00  0.00     0.198 A 
ATOM     83  F   UNL A   1      38.343  29.971  34.025  1.00  0.00    -0.203 F 
ATOM     84  F   UNL A   1      37.403  35.327  33.542  1.00  0.00    -0.200 F 
ATOM     85  C   UNL A   1      36.698  33.098  33.222  1.00  0.00     0.200 A 
ATOM     86  F   UNL A   1      36.028  30.850  32.920  1.00  0.00    -0.200 F 
ATOM     87  F   UNL A   1      35.667  33.540  32.492  1.00  0.00    -0.200 F 
ENDBRANCH  53  77
BRANCH  65  88
ATOM     88  C   UNL A   1      43.240  26.440  34.089  1.00  0.00     0.064 A 
ATOM     89  C   UNL A   1      42.289  25.644  34.750  1.00  0.00     0.173 A 
ATOM     90  C   UNL A   1      44.523  25.863  33.950  1.00  0.00     0.173 A 
ATOM     91  F   UNL A   1      40.995  25.987  34.792  1.00  0.00    -0.203 F 
ATOM     92  C   UNL A   1      42.630  24.430  35.347  1.00  0.00     0.198 A 
ATOM     93  C   UNL A   1      44.838  24.612  34.474  1.00  0.00     0.198 A 
ATOM     94  F   UNL A   1      45.506  26.483  33.283  1.00  0.00    -0.203 F 
ATOM     95  F   UNL A   1      41.707  23.755  36.046  1.00  0.00    -0.200 F 
ATOM     96  C   UNL A   1      43.902  23.912  35.205  1.00  0.00     0.200 A 
ATOM     97  F   UNL A   1      46.052  24.087  34.256  1.00  0.00    -0.200 F 
ATOM     98  F   UNL A   1      44.218  22.731  35.751  1.00  0.00    -0.200 F 
ENDBRANCH  65  88
ENDBRANCH  39  40
ENDBRANCH  31  34
ENDBRANCH  29  30
ENDBRANCH  28  29
ENDBRANCH   1  28
TORSDOF 13
ENDMDL
MODEL 2
REMARK VINA RESULT:     -14.5      0.970      1.897
REMARK SMILES Cc1ccc(C(=O)NCCCNC(=O)c2ccc(-c3c4nc(c(-c5c(F)c(F)c(F)c(F)c5F)c5ccc([nH]5)c(-c5c(F)c(F)c(F)c(F)c5F)c5nc(c(-c6c(F)c(F)c(F)c(F)c6F)c6ccc3[nH]6)C=C5)C=C4)cc2)cc1NC(=O)Cc1ccc2ccccc2c1
REMARK SMILES IDX 9 1 8 2 6 3 7 4 5 6 1 7 2 8 3 9 79 10 4 11 78 12 80 13 81 14
REMARK SMILES IDX 82 16 83 17 84 18 85 19 93 20 86 21 92 22 87 23 91 24 88 25
REMARK SMILES IDX 90 26 89 27 10 28 11 29 12 30 13 31 14 33 15 34 16 35 77 36
REMARK SMILES IDX 17 37 76 38 18 39 19 40 20 41 70 42 21 43 75 44 69 45 71 46
REMARK SMILES IDX 22 47 74 48 68 49 67 50 23 52 55 53 35 54 54 55 36 56 39 57
REMARK SMILES IDX 53 58 72 59 37 60 38 61 52 63 73 64 40 65 24 66 25 67 33 68
REMARK SMILES IDX 26 69 27 70 31 71 34 72 28 73 29 74 32 75 30 76 56 77 57 78
REMARK SMILES IDX 65 79 58 80 59 81 63 82 66 83 60 84 61 85 64 86 62 87 41 88
REMARK SMILES IDX 42 89 50 90 43 91 44 92 48 93 51 94 45 95 46 96 49 97 47 98
REMARK H PARENT 8 5 80 15 12 32 71 51 39 62
REMARK Flexibility Score: inf
ROOT
ATOM      1  C   UNL A   1      31.790  29.810  25.497  1.00  0.00     0.118 C 
ENDROOT
BRANCH   1   2
ATOM      2  N   UNL A   1      31.041  30.096  24.296  1.00  0.00    -0.352 N 
ATOM      3  C   UNL A   1      30.363  29.274  23.425  1.00  0.00     0.251 C 
ATOM      4  O   UNL A   1      29.685  29.828  22.550  1.00  0.00    -0.269 OA
ATOM      5  H   UNL A   1      31.008  31.051  24.058  1.00  0.00     0.163 HD
BRANCH   3   6
ATOM      6  C   UNL A   1      30.483  27.781  23.412  1.00  0.00     0.041 A 
ATOM      7  C   UNL A   1      31.364  23.556  23.223  1.00  0.00     0.046 C 
ATOM      8  C   UNL A   1      31.007  25.011  23.385  1.00  0.00    -0.027 A 
ATOM      9  C   UNL A   1      31.492  25.862  22.366  1.00  0.00     0.006 A 
ATOM     10  C   UNL A   1      30.208  25.541  24.425  1.00  0.00     0.044 A 
ATOM     11  C   UNL A   1      31.270  27.235  22.402  1.00  0.00     0.014 A 
ATOM     12  C   UNL A   1      29.870  26.903  24.324  1.00  0.00     0.040 A 
BRANCH  10  13
ATOM     13  N   UNL A   1      29.824  24.695  25.517  1.00  0.00    -0.326 N 
ATOM     14  C   UNL A   1      30.467  24.153  26.627  1.00  0.00     0.228 C 
ATOM     15  H   UNL A   1      28.876  24.433  25.470  1.00  0.00     0.169 HD
ATOM     16  O   UNL A   1      29.846  23.364  27.338  1.00  0.00    -0.274 OA
BRANCH  14  17
ATOM     17  C   UNL A   1      31.886  24.533  26.884  1.00  0.00     0.135 C 
BRANCH  17  18
ATOM     18  C   UNL A   1      33.138  23.935  26.286  1.00  0.00    -0.038 A 
ATOM     19  C   UNL A   1      33.951  24.919  25.723  1.00  0.00     0.005 A 
ATOM     20  C   UNL A   1      33.645  22.629  26.255  1.00  0.00     0.013 A 
ATOM     21  C   UNL A   1      35.058  24.611  24.963  1.00  0.00     0.009 A 
ATOM     22  C   UNL A   1      34.874  22.326  25.551  1.00  0.00    -0.018 A 
ATOM     23  C   UNL A   1      35.456  23.318  24.755  1.00  0.00    -0.018 A 
ATOM     24  C   UNL A   1      35.639  21.143  25.643  1.00  0.00     0.009 A 
ATOM     25  C   UNL A   1      36.525  23.089  23.880  1.00  0.00     0.009 A 
ATOM     26  C   UNL A   1      36.839  20.976  24.916  1.00  0.00     0.001 A 
ATOM     27  C   UNL A   1      37.240  21.916  23.974  1.00  0.00     0.001 A 
ENDBRANCH  17  18
ENDBRANCH  14  17
ENDBRANCH  10  13
ENDBRANCH   3   6
ENDBRANCH   1   2
BRANCH   1  28
ATOM     28  C   UNL A   1      31.723  30.842  26.607  1.00  0.00     0.042 C 
BRANCH  28  29
ATOM     29  C   UNL A   1      33.073  31.192  27.218  1.00  0.00     0.118 C 
BRANCH  29  30
ATOM     30  N   UNL A   1      34.136  30.193  27.023  1.00  0.00    -0.352 N 
ATOM     31  C   UNL A   1      35.352  29.931  27.652  1.00  0.00     0.251 C 
ATOM     32  H   UNL A   1      33.946  29.573  26.282  1.00  0.00     0.163 HD
ATOM     33  O   UNL A   1      36.054  28.977  27.319  1.00  0.00    -0.269 OA
BRANCH  31  34
ATOM     34  C   UNL A   1      35.760  30.591  28.907  1.00  0.00     0.039 A 
ATOM     35  C   UNL A   1      36.460  31.767  28.586  1.00  0.00     0.014 A 
ATOM     36  C   UNL A   1      36.213  29.747  29.894  1.00  0.00     0.014 A 
ATOM     37  C   UNL A   1      37.823  31.767  28.776  1.00  0.00     0.010 A 
ATOM     38  C   UNL A   1      37.579  29.668  29.988  1.00  0.00     0.010 A 
ATOM     39  C   UNL A   1      38.377  30.631  29.349  1.00  0.00    -0.014 A 
BRANCH  39  40
ATOM     40  C   UNL A   1      39.796  30.461  29.522  1.00  0.00     0.031 A 
ATOM     41  C   UNL A   1      40.321  29.272  28.835  1.00  0.00     0.074 A 
ATOM     42  C   UNL A   1      40.557  31.284  30.273  1.00  0.00     0.049 A 
ATOM     43  N   UNL A   1      41.256  28.530  29.302  1.00  0.00    -0.248 NA
ATOM     44  C   UNL A   1      39.702  28.731  27.625  1.00  0.00     0.031 C 
ATOM     45  C   UNL A   1      42.013  31.292  30.331  1.00  0.00     0.029 A 
ATOM     46  N   UNL A   1      40.162  32.216  31.248  1.00  0.00    -0.354 N 
ATOM     47  C   UNL A   1      41.545  27.591  28.338  1.00  0.00     0.074 A 
ATOM     48  C   UNL A   1      40.474  27.675  27.383  1.00  0.00     0.031 C 
ATOM     49  C   UNL A   1      42.409  31.977  31.416  1.00  0.00     0.029 A 
ATOM     50  C   UNL A   1      41.226  32.322  32.182  1.00  0.00     0.049 A 
ATOM     51  H   UNL A   1      39.308  32.704  31.278  1.00  0.00     0.167 HD
ATOM     52  C   UNL A   1      42.752  26.966  28.391  1.00  0.00     0.037 A 
ATOM     53  C   UNL A   1      41.057  32.059  33.515  1.00  0.00     0.037 A 
ATOM     54  C   UNL A   1      43.479  27.410  29.580  1.00  0.00     0.049 A 
ATOM     55  C   UNL A   1      41.791  30.822  33.959  1.00  0.00     0.074 A 
ATOM     56  C   UNL A   1      44.384  28.445  29.764  1.00  0.00     0.029 A 
ATOM     57  N   UNL A   1      43.005  27.073  30.845  1.00  0.00    -0.354 N 
ATOM     58  N   UNL A   1      42.276  29.940  33.133  1.00  0.00    -0.248 NA
ATOM     59  C   UNL A   1      41.973  30.452  35.358  1.00  0.00     0.031 C 
ATOM     60  C   UNL A   1      44.409  28.763  31.143  1.00  0.00     0.029 A 
ATOM     61  C   UNL A   1      43.551  27.904  31.809  1.00  0.00     0.049 A 
ATOM     62  H   UNL A   1      42.369  26.345  31.030  1.00  0.00     0.167 HD
ATOM     63  C   UNL A   1      42.758  28.876  33.842  1.00  0.00     0.074 A 
ATOM     64  C   UNL A   1      42.587  29.264  35.231  1.00  0.00     0.031 C 
ATOM     65  C   UNL A   1      43.218  27.751  33.221  1.00  0.00     0.037 A 
BRANCH  52  66
ATOM     66  C   UNL A   1      43.390  26.273  27.208  1.00  0.00     0.064 A 
ATOM     67  C   UNL A   1      43.108  24.913  26.960  1.00  0.00     0.173 A 
ATOM     68  C   UNL A   1      44.332  26.843  26.327  1.00  0.00     0.173 A 
ATOM     69  F   UNL A   1      42.165  24.260  27.649  1.00  0.00    -0.203 F 
ATOM     70  C   UNL A   1      43.788  24.168  25.992  1.00  0.00     0.198 A 
ATOM     71  C   UNL A   1      45.049  26.087  25.395  1.00  0.00     0.198 A 
ATOM     72  F   UNL A   1      44.549  28.161  26.281  1.00  0.00    -0.203 F 
ATOM     73  F   UNL A   1      43.475  22.878  25.811  1.00  0.00    -0.200 F 
ATOM     74  C   UNL A   1      44.782  24.746  25.232  1.00  0.00     0.200 A 
ATOM     75  F   UNL A   1      45.997  26.676  24.650  1.00  0.00    -0.200 F 
ATOM     76  F   UNL A   1      45.455  24.025  24.326  1.00  0.00    -0.200 F 
ENDBRANCH  52  66
BRANCH  53  77
ATOM     77  C   UNL A   1      39.710  32.452  34.014  1.00  0.00     0.064 A 
ATOM     78  C   UNL A   1      38.910  31.388  34.463  1.00  0.00     0.173 A 
ATOM     79  C   UNL A   1      39.554  33.704  34.620  1.00  0.00     0.173 A 
ATOM     80  F   UNL A   1      38.961  30.200  33.841  1.00  0.00    -0.203 F 
ATOM     81  C   UNL A   1      38.264  31.480  35.687  1.00  0.00     0.198 A 
ATOM     82  C   UNL A   1      38.871  33.803  35.827  1.00  0.00     0.198 A 
ATOM     83  F   UNL A   1      40.201  34.776  34.141  1.00  0.00    -0.203 F 
ATOM     84  F   UNL A   1      37.745  30.381  36.253  1.00  0.00    -0.200 F 
ATOM     85  C   UNL A   1      38.297  32.671  36.394  1.00  0.00     0.200 A 
ATOM     86  F   UNL A   1      38.871  34.963  36.497  1.00  0.00    -0.200 F 
ATOM     87  F   UNL A   1      37.826  32.697  37.647  1.00  0.00    -0.200 F 
ENDBRANCH  53  77
BRANCH  65  88
ATOM     88  C   UNL A   1      43.509  26.449  33.922  1.00  0.00     0.064 A 
ATOM     89  C   UNL A   1      44.789  25.874  34.011  1.00  0.00     0.173 A 
ATOM     90  C   UNL A   1      42.490  25.773  34.632  1.00  0.00     0.173 A 
ATOM     91  F   UNL A   1      45.874  26.504  33.541  1.00  0.00    -0.203 F 
ATOM     92  C   UNL A   1      45.004  24.647  34.640  1.00  0.00     0.198 A 
ATOM     93  C   UNL A   1      42.726  24.593  35.331  1.00  0.00     0.198 A 
ATOM     94  F   UNL A   1      41.237  26.247  34.689  1.00  0.00    -0.203 F 
ATOM     95  F   UNL A   1      46.226  24.098  34.614  1.00  0.00    -0.200 F 
ATOM     96  C   UNL A   1      43.975  24.010  35.304  1.00  0.00     0.200 A 
ATOM     97  F   UNL A   1      41.736  24.031  36.040  1.00  0.00    -0.200 F 
ATOM     98  F   UNL A   1      44.192  22.849  35.935  1.00  0.00    -0.200 F 
ENDBRANCH  65  88
ENDBRANCH  39  40
ENDBRANCH  31  34
ENDBRANCH  29  30
ENDBRANCH  28  29
ENDBRANCH   1  28
TORSDOF 13
ENDMDL
MODEL 3
REMARK VINA RESULT:     -14.2      3.169      9.375
REMARK SMILES Cc1ccc(C(=O)NCCCNC(=O)c2ccc(-c3c4nc(c(-c5c(F)c(F)c(F)c(F)c5F)c5ccc([nH]5)c(-c5c(F)c(F)c(F)c(F)c5F)c5nc(c(-c6c(F)c(F)c(F)c(F)c6F)c6ccc3[nH]6)C=C5)C=C4)cc2)cc1NC(=O)Cc1ccc2ccccc2c1
REMARK SMILES IDX 9 1 8 2 6 3 7 4 5 6 1 7 2 8 3 9 79 10 4 11 78 12 80 13 81 14
REMARK SMILES IDX 82 16 83 17 84 18 85 19 93 20 86 21 92 22 87 23 91 24 88 25
REMARK SMILES IDX 90 26 89 27 10 28 11 29 12 30 13 31 14 33 15 34 16 35 77 36
REMARK SMILES IDX 17 37 76 38 18 39 19 40 20 41 70 42 21 43 75 44 69 45 71 46
REMARK SMILES IDX 22 47 74 48 68 49 67 50 23 52 55 53 35 54 54 55 36 56 39 57
REMARK SMILES IDX 53 58 72 59 37 60 38 61 52 63 73 64 40 65 24 66 25 67 33 68
REMARK SMILES IDX 26 69 27 70 31 71 34 72 28 73 29 74 32 75 30 76 56 77 57 78
REMARK SMILES IDX 65 79 58 80 59 81 63 82 66 83 60 84 61 85 64 86 62 87 41 88
REMARK SMILES IDX 42 89 50 90 43 91 44 92 48 93 51 94 45 95 46 96 49 97 47 98
REMARK H PARENT 8 5 80 15 12 32 71 51 39 62
REMARK Flexibility Score: inf
ROOT
ATOM      1  C   UNL A   1      35.987  21.069  25.043  1.00  0.00     0.118 C 
ENDROOT
BRANCH   1   2
ATOM      2  N   UNL A   1      35.026  20.043  25.377  1.00  0.00    -0.352 N 
ATOM      3  C   UNL A   1      33.675  19.944  25.136  1.00  0.00     0.251 C 
ATOM      4  O   UNL A   1      33.136  18.866  25.419  1.00  0.00    -0.269 OA
ATOM      5  H   UNL A   1      35.407  19.276  25.864  1.00  0.00     0.163 HD
BRANCH   3   6
ATOM      6  C   UNL A   1      32.820  21.078  24.660  1.00  0.00     0.041 A 
ATOM      7  C   UNL A   1      30.414  24.563  23.805  1.00  0.00     0.046 C 
ATOM      8  C   UNL A   1      31.304  23.364  24.008  1.00  0.00    -0.027 A 
ATOM      9  C   UNL A   1      31.131  22.693  25.240  1.00  0.00     0.006 A 
ATOM     10  C   UNL A   1      32.227  22.867  23.058  1.00  0.00     0.044 A 
ATOM     11  C   UNL A   1      31.909  21.591  25.579  1.00  0.00     0.014 A 
ATOM     12  C   UNL A   1      32.864  21.654  23.378  1.00  0.00     0.040 A 
BRANCH  10  13
ATOM     13  N   UNL A   1      32.484  23.621  21.867  1.00  0.00    -0.326 N 
ATOM     14  C   UNL A   1      33.221  24.760  21.553  1.00  0.00     0.228 C 
ATOM     15  H   UNL A   1      32.029  23.244  21.080  1.00  0.00     0.169 HD
ATOM     16  O   UNL A   1      33.148  25.210  20.409  1.00  0.00    -0.274 OA
BRANCH  14  17
ATOM     17  C   UNL A   1      34.041  25.397  22.623  1.00  0.00     0.135 C 
BRANCH  17  18
ATOM     18  C   UNL A   1      33.589  26.344  23.710  1.00  0.00    -0.038 A 
ATOM     19  C   UNL A   1      33.758  25.780  24.975  1.00  0.00     0.005 A 
ATOM     20  C   UNL A   1      33.112  27.660  23.684  1.00  0.00     0.013 A 
ATOM     21  C   UNL A   1      33.258  26.372  26.115  1.00  0.00     0.009 A 
ATOM     22  C   UNL A   1      32.694  28.324  24.902  1.00  0.00    -0.018 A 
ATOM     23  C   UNL A   1      32.608  27.575  26.080  1.00  0.00    -0.018 A 
ATOM     24  C   UNL A   1      32.445  29.703  25.078  1.00  0.00     0.009 A 
ATOM     25  C   UNL A   1      32.035  28.051  27.266  1.00  0.00     0.009 A 
ATOM     26  C   UNL A   1      32.061  30.233  26.331  1.00  0.00     0.001 A 
ATOM     27  C   UNL A   1      31.778  29.397  27.405  1.00  0.00     0.001 A 
ENDBRANCH  17  18
ENDBRANCH  14  17
ENDBRANCH  10  13
ENDBRANCH   3   6
ENDBRANCH   1   2
BRANCH   1  28
ATOM     28  C   UNL A   1      37.404  20.611  24.756  1.00  0.00     0.042 C 
BRANCH  28  29
ATOM     29  C   UNL A   1      38.478  21.411  25.481  1.00  0.00     0.118 C 
BRANCH  29  30
ATOM     30  N   UNL A   1      38.043  22.706  26.028  1.00  0.00    -0.352 N 
ATOM     31  C   UNL A   1      38.710  23.831  26.513  1.00  0.00     0.251 C 
ATOM     32  H   UNL A   1      37.064  22.798  26.061  1.00  0.00     0.163 HD
ATOM     33  O   UNL A   1      38.096  24.832  26.878  1.00  0.00    -0.269 OA
BRANCH  31  34
ATOM     34  C   UNL A   1      40.168  24.013  26.381  1.00  0.00     0.039 A 
ATOM     35  C   UNL A   1      40.794  23.424  27.493  1.00  0.00     0.014 A 
ATOM     36  C   UNL A   1      40.566  25.245  25.917  1.00  0.00     0.014 A 
ATOM     37  C   UNL A   1      41.319  24.266  28.446  1.00  0.00     0.010 A 
ATOM     38  C   UNL A   1      40.973  26.114  26.897  1.00  0.00     0.010 A 
ATOM     39  C   UNL A   1      41.260  25.627  28.183  1.00  0.00    -0.014 A 
BRANCH  39  40
ATOM     40  C   UNL A   1      41.691  26.620  29.131  1.00  0.00     0.031 A 
ATOM     41  C   UNL A   1      40.630  27.573  29.488  1.00  0.00     0.074 A 
ATOM     42  C   UNL A   1      42.950  26.695  29.609  1.00  0.00     0.049 A 
ATOM     43  N   UNL A   1      40.830  28.820  29.707  1.00  0.00    -0.248 NA
ATOM     44  C   UNL A   1      39.212  27.212  29.461  1.00  0.00     0.031 C 
ATOM     45  C   UNL A   1      43.403  27.538  30.709  1.00  0.00     0.029 A 
ATOM     46  N   UNL A   1      44.126  26.108  29.112  1.00  0.00    -0.354 N 
ATOM     47  C   UNL A   1      39.630  29.357  30.114  1.00  0.00     0.074 A 
ATOM     48  C   UNL A   1      38.641  28.358  29.819  1.00  0.00     0.031 C 
ATOM     49  C   UNL A   1      44.742  27.623  30.680  1.00  0.00     0.029 A 
ATOM     50  C   UNL A   1      45.205  26.953  29.479  1.00  0.00     0.049 A 
ATOM     51  H   UNL A   1      44.188  25.267  28.604  1.00  0.00     0.167 HD
ATOM     52  C   UNL A   1      39.652  30.529  30.804  1.00  0.00     0.037 A 
ATOM     53  C   UNL A   1      46.045  27.510  28.551  1.00  0.00     0.037 A 
ATOM     54  C   UNL A   1      41.028  31.019  30.892  1.00  0.00     0.049 A 
ATOM     55  C   UNL A   1      45.893  29.004  28.455  1.00  0.00     0.074 A 
ATOM     56  C   UNL A   1      42.006  30.822  31.855  1.00  0.00     0.029 A 
ATOM     57  N   UNL A   1      41.689  31.433  29.739  1.00  0.00    -0.354 N 
ATOM     58  N   UNL A   1      44.886  29.657  28.961  1.00  0.00    -0.248 NA
ATOM     59  C   UNL A   1      46.821  29.863  27.727  1.00  0.00     0.031 C 
ATOM     60  C   UNL A   1      43.265  31.070  31.256  1.00  0.00     0.029 A 
ATOM     61  C   UNL A   1      43.058  31.452  29.941  1.00  0.00     0.049 A 
ATOM     62  H   UNL A   1      41.244  31.678  28.896  1.00  0.00     0.167 HD
ATOM     63  C   UNL A   1      44.968  30.970  28.589  1.00  0.00     0.074 A 
ATOM     64  C   UNL A   1      46.219  31.057  27.857  1.00  0.00     0.031 C 
ATOM     65  C   UNL A   1      43.977  31.860  28.883  1.00  0.00     0.037 A 
BRANCH  52  66
ATOM     66  C   UNL A   1      38.518  31.006  31.683  1.00  0.00     0.064 A 
ATOM     67  C   UNL A   1      37.421  31.679  31.104  1.00  0.00     0.173 A 
ATOM     68  C   UNL A   1      38.466  30.908  33.089  1.00  0.00     0.173 A 
ATOM     69  F   UNL A   1      37.279  31.767  29.776  1.00  0.00    -0.203 F 
ATOM     70  C   UNL A   1      36.425  32.292  31.870  1.00  0.00     0.198 A 
ATOM     71  C   UNL A   1      37.499  31.565  33.856  1.00  0.00     0.198 A 
ATOM     72  F   UNL A   1      39.300  30.121  33.774  1.00  0.00    -0.203 F 
ATOM     73  F   UNL A   1      35.413  32.920  31.257  1.00  0.00    -0.200 F 
ATOM     74  C   UNL A   1      36.482  32.264  33.247  1.00  0.00     0.200 A 
ATOM     75  F   UNL A   1      37.562  31.506  35.196  1.00  0.00    -0.200 F 
ATOM     76  F   UNL A   1      35.544  32.878  33.980  1.00  0.00    -0.200 F 
ENDBRANCH  52  66
BRANCH  53  77
ATOM     77  C   UNL A   1      46.282  26.620  27.381  1.00  0.00     0.064 A 
ATOM     78  C   UNL A   1      45.707  27.057  26.177  1.00  0.00     0.173 A 
ATOM     79  C   UNL A   1      47.474  25.887  27.322  1.00  0.00     0.173 A 
ATOM     80  F   UNL A   1      44.515  27.676  26.187  1.00  0.00    -0.203 F 
ATOM     81  C   UNL A   1      46.467  27.081  25.017  1.00  0.00     0.198 A 
ATOM     82  C   UNL A   1      48.216  25.876  26.146  1.00  0.00     0.198 A 
ATOM     83  F   UNL A   1      47.991  25.340  28.431  1.00  0.00    -0.203 F 
ATOM     84  F   UNL A   1      46.030  27.757  23.944  1.00  0.00    -0.200 F 
ATOM     85  C   UNL A   1      47.744  26.543  25.021  1.00  0.00     0.200 A 
ATOM     86  F   UNL A   1      49.437  25.326  26.137  1.00  0.00    -0.200 F 
ATOM     87  F   UNL A   1      48.531  26.728  23.955  1.00  0.00    -0.200 F 
ENDBRANCH  53  77
BRANCH  65  88
ATOM     88  C   UNL A   1      43.865  33.239  28.285  1.00  0.00     0.064 A 
ATOM     89  C   UNL A   1      43.936  34.427  29.033  1.00  0.00     0.173 A 
ATOM     90  C   UNL A   1      43.779  33.408  26.884  1.00  0.00     0.173 A 
ATOM     91  F   UNL A   1      44.201  34.413  30.346  1.00  0.00    -0.203 F 
ATOM     92  C   UNL A   1      43.791  35.682  28.440  1.00  0.00     0.198 A 
ATOM     93  C   UNL A   1      43.721  34.665  26.288  1.00  0.00     0.198 A 
ATOM     94  F   UNL A   1      43.771  32.362  26.047  1.00  0.00    -0.203 F 
ATOM     95  F   UNL A   1      43.773  36.778  29.210  1.00  0.00    -0.200 F 
ATOM     96  C   UNL A   1      43.688  35.801  27.069  1.00  0.00     0.200 A 
ATOM     97  F   UNL A   1      43.705  34.766  24.951  1.00  0.00    -0.200 F 
ATOM     98  F   UNL A   1      43.583  37.008  26.499  1.00  0.00    -0.200 F 
ENDBRANCH  65  88
ENDBRANCH  39  40
ENDBRANCH  31  34
ENDBRANCH  29  30
ENDBRANCH  28  29
ENDBRANCH   1  28
TORSDOF 13
ENDMDL
