MODEL 1
REMARK VINA RESULT:     -13.1      0.000      0.000
REMARK SMILES Cc1nsc(NC(=O)c2ccc(N)cc2)c1C(=O)NCCCNC(=O)c1ccc(-c2c3nc(c(-c4c(F)c(F)c(F)c(F)c4F)c4ccc([nH]4)c(-c4c(F)c(F)c(F)c(F)c4F)c4nc(c(-c5c(F)c(F)c(F)c(F)c5F)c5ccc2[nH]5)C=C4)C=C3)cc1
REMARK SMILES IDX 20 1 19 2 17 3 18 4 16 6 1 7 2 8 3 9 4 10 5 11 6 12 7 13
REMARK SMILES IDX 8 15 9 16 10 17 15 18 11 19 14 20 12 21 13 22 21 25 22 26
REMARK SMILES IDX 23 27 24 28 25 30 26 31 27 32 88 33 28 34 87 35 29 36 30 37
REMARK SMILES IDX 31 38 81 39 32 40 86 41 80 42 82 43 33 44 85 45 79 46 78 47
REMARK SMILES IDX 34 49 66 50 46 51 65 52 47 53 50 54 64 55 83 56 48 57 49 58
REMARK SMILES IDX 63 60 84 61 51 62 35 63 36 64 44 65 37 66 38 67 42 68 45 69
REMARK SMILES IDX 39 70 40 71 43 72 41 73 67 74 68 75 76 76 69 77 70 78 74 79
REMARK SMILES IDX 77 80 71 81 72 82 75 83 73 84 52 85 53 86 61 87 54 88 55 89
REMARK SMILES IDX 59 90 62 91 56 92 57 93 60 94 58 95
REMARK H PARENT 19 5 6 14 13 23 13 24 23 29 82 48 50 59
REMARK Flexibility Score: inf
ROOT
ATOM      1  C   UNL A   1      37.761  23.301  25.945  1.00  0.00     0.118 C 
ENDROOT
BRANCH   1   2
ATOM      2  N   UNL A   1      36.480  23.081  26.568  1.00  0.00    -0.352 N 
ATOM      3  C   UNL A   1      35.202  22.925  26.113  1.00  0.00     0.256 C 
ATOM      4  O   UNL A   1      34.424  22.550  27.001  1.00  0.00    -0.269 OA
ATOM      5  H   UNL A   1      36.540  23.033  27.549  1.00  0.00     0.163 HD
BRANCH   3   6
ATOM      6  C   UNL A   1      34.689  23.202  24.759  1.00  0.00     0.097 A 
ATOM      7  C   UNL A   1      36.556  22.800  22.843  1.00  0.00     0.069 C 
ATOM      8  C   UNL A   1      35.250  23.230  23.404  1.00  0.00     0.066 A 
ATOM      9  N   UNL A   1      34.466  23.757  22.459  1.00  0.00    -0.195 NA
ATOM     10  S   UNL A   1      33.041  24.197  23.109  1.00  0.00    -0.017 S 
ATOM     11  C   UNL A   1      33.321  23.509  24.631  1.00  0.00     0.129 A 
BRANCH  11  12
ATOM     12  N   UNL A   1      32.326  23.429  25.597  1.00  0.00    -0.312 N 
ATOM     13  C   UNL A   1      31.700  24.404  26.348  1.00  0.00     0.256 C 
ATOM     14  H   UNL A   1      32.011  22.514  25.779  1.00  0.00     0.171 HD
ATOM     15  O   UNL A   1      30.973  24.092  27.290  1.00  0.00    -0.269 OA
BRANCH  13  16
ATOM     16  C   UNL A   1      31.837  25.837  26.026  1.00  0.00     0.040 A 
ATOM     17  C   UNL A   1      30.872  26.501  25.262  1.00  0.00     0.016 A 
ATOM     18  C   UNL A   1      32.991  26.503  26.440  1.00  0.00     0.016 A 
ATOM     19  C   UNL A   1      31.133  27.795  24.803  1.00  0.00     0.026 A 
ATOM     20  C   UNL A   1      33.232  27.803  25.990  1.00  0.00     0.026 A 
ATOM     21  C   UNL A   1      32.324  28.446  25.142  1.00  0.00     0.031 A 
BRANCH  21  22
ATOM     22  N   UNL A   1      32.620  29.687  24.613  1.00  0.00    -0.399 N 
ATOM     23  H   UNL A   1      32.060  30.464  24.838  1.00  0.00     0.156 HD
ATOM     24  H   UNL A   1      33.391  29.793  24.010  1.00  0.00     0.156 HD
ENDBRANCH  21  22
ENDBRANCH  13  16
ENDBRANCH  11  12
ENDBRANCH   3   6
ENDBRANCH   1   2
BRANCH   1  25
ATOM     25  C   UNL A   1      38.518  22.004  25.656  1.00  0.00     0.042 C 
BRANCH  25  26
ATOM     26  C   UNL A   1      39.634  21.746  26.645  1.00  0.00     0.118 C 
BRANCH  26  27
ATOM     27  N   UNL A   1      40.951  21.786  25.998  1.00  0.00    -0.352 N 
ATOM     28  C   UNL A   1      41.812  22.858  25.845  1.00  0.00     0.251 C 
ATOM     29  H   UNL A   1      41.265  20.932  25.622  1.00  0.00     0.163 HD
ATOM     30  O   UNL A   1      42.693  22.845  25.007  1.00  0.00    -0.269 OA
BRANCH  28  31
ATOM     31  C   UNL A   1      41.626  24.022  26.727  1.00  0.00     0.039 A 
ATOM     32  C   UNL A   1      42.241  24.107  27.979  1.00  0.00     0.014 A 
ATOM     33  C   UNL A   1      40.863  25.070  26.231  1.00  0.00     0.014 A 
ATOM     34  C   UNL A   1      42.139  25.303  28.682  1.00  0.00     0.010 A 
ATOM     35  C   UNL A   1      40.980  26.304  26.797  1.00  0.00     0.010 A 
ATOM     36  C   UNL A   1      41.524  26.405  28.066  1.00  0.00    -0.014 A 
BRANCH  36  37
ATOM     37  C   UNL A   1      41.518  27.726  28.674  1.00  0.00     0.031 A 
ATOM     38  C   UNL A   1      42.662  28.571  28.252  1.00  0.00     0.074 A 
ATOM     39  C   UNL A   1      40.452  28.199  29.358  1.00  0.00     0.049 A 
ATOM     40  N   UNL A   1      43.675  28.928  28.966  1.00  0.00    -0.248 NA
ATOM     41  C   UNL A   1      42.796  28.906  26.824  1.00  0.00     0.031 C 
ATOM     42  C   UNL A   1      39.140  27.565  29.547  1.00  0.00     0.029 A 
ATOM     43  N   UNL A   1      40.279  29.410  29.955  1.00  0.00    -0.354 N 
ATOM     44  C   UNL A   1      44.457  29.730  28.140  1.00  0.00     0.074 A 
ATOM     45  C   UNL A   1      43.995  29.493  26.800  1.00  0.00     0.031 C 
ATOM     46  C   UNL A   1      38.248  28.474  29.998  1.00  0.00     0.029 A 
ATOM     47  C   UNL A   1      38.962  29.697  30.306  1.00  0.00     0.049 A 
ATOM     48  H   UNL A   1      41.023  30.031  30.124  1.00  0.00     0.167 HD
ATOM     49  C   UNL A   1      45.204  30.735  28.676  1.00  0.00     0.037 A 
ATOM     50  C   UNL A   1      38.495  30.866  30.808  1.00  0.00     0.037 A 
ATOM     51  C   UNL A   1      45.307  30.568  30.107  1.00  0.00     0.049 A 
ATOM     52  C   UNL A   1      39.663  31.596  31.351  1.00  0.00     0.074 A 
ATOM     53  C   UNL A   1      45.866  29.635  30.955  1.00  0.00     0.029 A 
ATOM     54  N   UNL A   1      44.394  31.274  30.849  1.00  0.00    -0.354 N 
ATOM     55  N   UNL A   1      40.350  31.196  32.386  1.00  0.00    -0.248 NA
ATOM     56  C   UNL A   1      40.341  32.541  30.479  1.00  0.00     0.031 C 
ATOM     57  C   UNL A   1      44.986  29.572  32.078  1.00  0.00     0.029 A 
ATOM     58  C   UNL A   1      43.972  30.517  31.906  1.00  0.00     0.049 A 
ATOM     59  H   UNL A   1      44.089  32.189  30.650  1.00  0.00     0.167 HD
ATOM     60  C   UNL A   1      41.667  31.476  32.059  1.00  0.00     0.074 A 
ATOM     61  C   UNL A   1      41.586  32.421  30.949  1.00  0.00     0.031 C 
ATOM     62  C   UNL A   1      42.674  30.680  32.526  1.00  0.00     0.037 A 
BRANCH  49  63
ATOM     63  C   UNL A   1      45.432  32.087  28.027  1.00  0.00     0.064 A 
ATOM     64  C   UNL A   1      44.309  32.891  27.736  1.00  0.00     0.173 A 
ATOM     65  C   UNL A   1      46.632  32.486  27.398  1.00  0.00     0.173 A 
ATOM     66  F   UNL A   1      43.109  32.609  28.269  1.00  0.00    -0.203 F 
ATOM     67  C   UNL A   1      44.363  33.941  26.814  1.00  0.00     0.198 A 
ATOM     68  C   UNL A   1      46.693  33.566  26.518  1.00  0.00     0.198 A 
ATOM     69  F   UNL A   1      47.771  31.797  27.511  1.00  0.00    -0.203 F 
ATOM     70  F   UNL A   1      43.238  34.583  26.470  1.00  0.00    -0.200 F 
ATOM     71  C   UNL A   1      45.554  34.271  26.198  1.00  0.00     0.200 A 
ATOM     72  F   UNL A   1      47.856  33.859  25.917  1.00  0.00    -0.200 F 
ATOM     73  F   UNL A   1      45.597  35.230  25.264  1.00  0.00    -0.200 F 
ENDBRANCH  49  63
BRANCH  50  74
ATOM     74  C   UNL A   1      37.179  31.513  30.598  1.00  0.00     0.064 A 
ATOM     75  C   UNL A   1      36.229  31.587  31.630  1.00  0.00     0.173 A 
ATOM     76  C   UNL A   1      36.947  32.329  29.474  1.00  0.00     0.173 A 
ATOM     77  F   UNL A   1      36.400  30.879  32.756  1.00  0.00    -0.203 F 
ATOM     78  C   UNL A   1      35.125  32.445  31.552  1.00  0.00     0.198 A 
ATOM     79  C   UNL A   1      35.845  33.183  29.396  1.00  0.00     0.198 A 
ATOM     80  F   UNL A   1      37.839  32.385  28.475  1.00  0.00    -0.203 F 
ATOM     81  F   UNL A   1      34.273  32.536  32.584  1.00  0.00    -0.200 F 
ATOM     82  C   UNL A   1      34.942  33.251  30.441  1.00  0.00     0.200 A 
ATOM     83  F   UNL A   1      35.703  33.990  28.336  1.00  0.00    -0.200 F 
ATOM     84  F   UNL A   1      33.922  34.121  30.394  1.00  0.00    -0.200 F 
ENDBRANCH  50  74
BRANCH  62  85
ATOM     85  C   UNL A   1      42.352  29.761  33.674  1.00  0.00     0.064 A 
ATOM     86  C   UNL A   1      41.893  28.439  33.541  1.00  0.00     0.173 A 
ATOM     87  C   UNL A   1      42.637  30.214  34.970  1.00  0.00     0.173 A 
ATOM     88  F   UNL A   1      41.680  27.900  32.335  1.00  0.00    -0.203 F 
ATOM     89  C   UNL A   1      41.694  27.626  34.656  1.00  0.00     0.198 A 
ATOM     90  C   UNL A   1      42.476  29.388  36.078  1.00  0.00     0.198 A 
ATOM     91  F   UNL A   1      43.123  31.451  35.155  1.00  0.00    -0.203 F 
ATOM     92  F   UNL A   1      41.241  26.372  34.503  1.00  0.00    -0.200 F 
ATOM     93  C   UNL A   1      41.993  28.099  35.923  1.00  0.00     0.200 A 
ATOM     94  F   UNL A   1      42.813  29.835  37.294  1.00  0.00    -0.200 F 
ATOM     95  F   UNL A   1      41.841  27.305  36.993  1.00  0.00    -0.200 F 
ENDBRANCH  62  85
ENDBRANCH  36  37
ENDBRANCH  28  31
ENDBRANCH  26  27
ENDBRANCH  25  26
ENDBRANCH   1  25
TORSDOF 13
ENDMDL
MODEL 2
REMARK VINA RESULT:     -13.0      3.082      8.690
REMARK SMILES Cc1nsc(NC(=O)c2ccc(N)cc2)c1C(=O)NCCCNC(=O)c1ccc(-c2c3nc(c(-c4c(F)c(F)c(F)c(F)c4F)c4ccc([nH]4)c(-c4c(F)c(F)c(F)c(F)c4F)c4nc(c(-c5c(F)c(F)c(F)c(F)c5F)c5ccc2[nH]5)C=C4)C=C3)cc1
REMARK SMILES IDX 20 1 19 2 17 3 18 4 16 6 1 7 2 8 3 9 4 10 5 11 6 12 7 13
REMARK SMILES IDX 8 15 9 16 10 17 15 18 11 19 14 20 12 21 13 22 21 25 22 26
REMARK SMILES IDX 23 27 24 28 25 30 26 31 27 32 88 33 28 34 87 35 29 36 30 37
REMARK SMILES IDX 31 38 81 39 32 40 86 41 80 42 82 43 33 44 85 45 79 46 78 47
REMARK SMILES IDX 34 49 66 50 46 51 65 52 47 53 50 54 64 55 83 56 48 57 49 58
REMARK SMILES IDX 63 60 84 61 51 62 35 63 36 64 44 65 37 66 38 67 42 68 45 69
REMARK SMILES IDX 39 70 40 71 43 72 41 73 67 74 68 75 76 76 69 77 70 78 74 79
REMARK SMILES IDX 77 80 71 81 72 82 75 83 73 84 52 85 53 86 61 87 54 88 55 89
REMARK SMILES IDX 59 90 62 91 56 92 57 93 60 94 58 95
REMARK H PARENT 19 5 6 14 13 23 13 24 23 29 82 48 50 59
REMARK Flexibility Score: inf
ROOT
ATOM      1  C   UNL A   1      33.983  29.196  26.737  1.00  0.00     0.118 C 
ENDROOT
BRANCH   1   2
ATOM      2  N   UNL A   1      32.785  28.814  27.441  1.00  0.00    -0.352 N 
ATOM      3  C   UNL A   1      31.700  28.038  27.147  1.00  0.00     0.256 C 
ATOM      4  O   UNL A   1      30.992  27.817  28.139  1.00  0.00    -0.269 OA
ATOM      5  H   UNL A   1      32.736  29.205  28.343  1.00  0.00     0.163 HD
BRANCH   3   6
ATOM      6  C   UNL A   1      31.296  27.521  25.827  1.00  0.00     0.097 A 
ATOM      7  C   UNL A   1      31.479  29.391  23.882  1.00  0.00     0.069 C 
ATOM      8  C   UNL A   1      31.124  28.080  24.482  1.00  0.00     0.066 A 
ATOM      9  N   UNL A   1      30.515  27.289  23.595  1.00  0.00    -0.195 NA
ATOM     10  S   UNL A   1      30.162  25.858  24.285  1.00  0.00    -0.017 S 
ATOM     11  C   UNL A   1      30.996  26.148  25.730  1.00  0.00     0.129 A 
BRANCH  11  12
ATOM     12  N   UNL A   1      31.186  25.155  26.683  1.00  0.00    -0.312 N 
ATOM     13  C   UNL A   1      32.006  24.044  26.694  1.00  0.00     0.256 C 
ATOM     14  H   UNL A   1      30.639  25.262  27.494  1.00  0.00     0.171 HD
ATOM     15  O   UNL A   1      31.878  23.186  27.566  1.00  0.00    -0.269 OA
BRANCH  13  16
ATOM     16  C   UNL A   1      33.085  23.866  25.704  1.00  0.00     0.040 A 
ATOM     17  C   UNL A   1      32.926  23.012  24.608  1.00  0.00     0.016 A 
ATOM     18  C   UNL A   1      34.301  24.514  25.923  1.00  0.00     0.016 A 
ATOM     19  C   UNL A   1      34.032  22.708  23.810  1.00  0.00     0.026 A 
ATOM     20  C   UNL A   1      35.395  24.216  25.107  1.00  0.00     0.026 A 
ATOM     21  C   UNL A   1      35.279  23.287  24.068  1.00  0.00     0.031 A 
BRANCH  21  22
ATOM     22  N   UNL A   1      36.390  22.915  23.336  1.00  0.00    -0.399 N 
ATOM     23  H   UNL A   1      36.536  23.290  22.438  1.00  0.00     0.156 HD
ATOM     24  H   UNL A   1      37.035  22.275  23.713  1.00  0.00     0.156 HD
ENDBRANCH  21  22
ENDBRANCH  13  16
ENDBRANCH  11  12
ENDBRANCH   3   6
ENDBRANCH   1   2
BRANCH   1  25
ATOM     25  C   UNL A   1      35.145  29.536  27.672  1.00  0.00     0.042 C 
BRANCH  25  26
ATOM     26  C   UNL A   1      35.610  30.969  27.528  1.00  0.00     0.118 C 
BRANCH  26  27
ATOM     27  N   UNL A   1      35.194  31.791  28.670  1.00  0.00    -0.352 N 
ATOM     28  C   UNL A   1      35.555  31.676  30.001  1.00  0.00     0.251 C 
ATOM     29  H   UNL A   1      34.574  32.526  28.460  1.00  0.00     0.163 HD
ATOM     30  O   UNL A   1      34.889  32.185  30.881  1.00  0.00    -0.269 OA
BRANCH  28  31
ATOM     31  C   UNL A   1      36.772  30.912  30.320  1.00  0.00     0.039 A 
ATOM     32  C   UNL A   1      36.722  29.575  30.723  1.00  0.00     0.014 A 
ATOM     33  C   UNL A   1      37.987  31.558  30.135  1.00  0.00     0.014 A 
ATOM     34  C   UNL A   1      37.921  28.881  30.856  1.00  0.00     0.010 A 
ATOM     35  C   UNL A   1      39.124  30.818  30.018  1.00  0.00     0.010 A 
ATOM     36  C   UNL A   1      39.117  29.511  30.475  1.00  0.00    -0.014 A 
BRANCH  36  37
ATOM     37  C   UNL A   1      40.385  28.801  30.438  1.00  0.00     0.031 A 
ATOM     38  C   UNL A   1      41.021  28.665  31.771  1.00  0.00     0.074 A 
ATOM     39  C   UNL A   1      40.805  28.136  29.338  1.00  0.00     0.049 A 
ATOM     40  N   UNL A   1      42.080  29.265  32.196  1.00  0.00    -0.248 NA
ATOM     41  C   UNL A   1      40.299  27.922  32.818  1.00  0.00     0.031 C 
ATOM     42  C   UNL A   1      40.090  27.931  28.071  1.00  0.00     0.029 A 
ATOM     43  N   UNL A   1      41.939  27.405  29.153  1.00  0.00    -0.354 N 
ATOM     44  C   UNL A   1      42.289  28.794  33.489  1.00  0.00     0.074 A 
ATOM     45  C   UNL A   1      41.061  28.163  33.888  1.00  0.00     0.031 C 
ATOM     46  C   UNL A   1      40.689  26.955  27.355  1.00  0.00     0.029 A 
ATOM     47  C   UNL A   1      41.927  26.599  28.017  1.00  0.00     0.049 A 
ATOM     48  H   UNL A   1      42.704  27.444  29.771  1.00  0.00     0.167 HD
ATOM     49  C   UNL A   1      43.555  28.706  33.985  1.00  0.00     0.037 A 
ATOM     50  C   UNL A   1      42.871  25.696  27.657  1.00  0.00     0.037 A 
ATOM     51  C   UNL A   1      44.466  29.461  33.158  1.00  0.00     0.049 A 
ATOM     52  C   UNL A   1      44.104  26.045  28.397  1.00  0.00     0.074 A 
ATOM     53  C   UNL A   1      44.634  30.791  32.833  1.00  0.00     0.029 A 
ATOM     54  N   UNL A   1      45.128  28.738  32.198  1.00  0.00    -0.354 N 
ATOM     55  N   UNL A   1      44.787  27.138  28.192  1.00  0.00    -0.248 NA
ATOM     56  C   UNL A   1      44.340  25.393  29.675  1.00  0.00     0.031 C 
ATOM     57  C   UNL A   1      45.072  30.795  31.474  1.00  0.00     0.029 A 
ATOM     58  C   UNL A   1      45.226  29.473  31.050  1.00  0.00     0.049 A 
ATOM     59  H   UNL A   1      45.479  27.826  32.318  1.00  0.00     0.167 HD
ATOM     60  C   UNL A   1      45.182  27.546  29.456  1.00  0.00     0.074 A 
ATOM     61  C   UNL A   1      45.000  26.370  30.303  1.00  0.00     0.031 C 
ATOM     62  C   UNL A   1      45.326  28.875  29.735  1.00  0.00     0.037 A 
BRANCH  49  63
ATOM     63  C   UNL A   1      44.056  27.596  34.891  1.00  0.00     0.064 A 
ATOM     64  C   UNL A   1      43.909  26.259  34.462  1.00  0.00     0.173 A 
ATOM     65  C   UNL A   1      44.371  27.754  36.259  1.00  0.00     0.173 A 
ATOM     66  F   UNL A   1      43.603  25.981  33.184  1.00  0.00    -0.203 F 
ATOM     67  C   UNL A   1      43.968  25.181  35.350  1.00  0.00     0.198 A 
ATOM     68  C   UNL A   1      44.480  26.672  37.132  1.00  0.00     0.198 A 
ATOM     69  F   UNL A   1      44.477  28.951  36.842  1.00  0.00    -0.203 F 
ATOM     70  F   UNL A   1      43.683  23.946  34.917  1.00  0.00    -0.200 F 
ATOM     71  C   UNL A   1      44.244  25.390  36.687  1.00  0.00     0.200 A 
ATOM     72  F   UNL A   1      44.731  26.898  38.429  1.00  0.00    -0.200 F 
ATOM     73  F   UNL A   1      44.235  24.369  37.554  1.00  0.00    -0.200 F 
ENDBRANCH  49  63
BRANCH  50  74
ATOM     74  C   UNL A   1      42.706  24.403  26.951  1.00  0.00     0.064 A 
ATOM     75  C   UNL A   1      43.203  24.212  25.652  1.00  0.00     0.173 A 
ATOM     76  C   UNL A   1      42.319  23.244  27.650  1.00  0.00     0.173 A 
ATOM     77  F   UNL A   1      43.639  25.259  24.936  1.00  0.00    -0.203 F 
ATOM     78  C   UNL A   1      43.329  22.934  25.094  1.00  0.00     0.198 A 
ATOM     79  C   UNL A   1      42.443  21.970  27.093  1.00  0.00     0.198 A 
ATOM     80  F   UNL A   1      41.906  23.319  28.924  1.00  0.00    -0.203 F 
ATOM     81  F   UNL A   1      43.867  22.785  23.875  1.00  0.00    -0.200 F 
ATOM     82  C   UNL A   1      42.960  21.814  25.821  1.00  0.00     0.200 A 
ATOM     83  F   UNL A   1      42.124  20.891  27.822  1.00  0.00    -0.200 F 
ATOM     84  F   UNL A   1      43.142  20.586  25.313  1.00  0.00    -0.200 F 
ENDBRANCH  50  74
BRANCH  62  85
ATOM     85  C   UNL A   1      45.415  29.820  28.566  1.00  0.00     0.064 A 
ATOM     86  C   UNL A   1      44.315  30.442  27.950  1.00  0.00     0.173 A 
ATOM     87  C   UNL A   1      46.693  30.198  28.132  1.00  0.00     0.173 A 
ATOM     88  F   UNL A   1      43.065  30.204  28.364  1.00  0.00    -0.203 F 
ATOM     89  C   UNL A   1      44.491  31.369  26.922  1.00  0.00     0.198 A 
ATOM     90  C   UNL A   1      46.866  31.152  27.134  1.00  0.00     0.198 A 
ATOM     91  F   UNL A   1      47.781  29.673  28.716  1.00  0.00    -0.203 F 
ATOM     92  F   UNL A   1      43.424  31.938  26.340  1.00  0.00    -0.200 F 
ATOM     93  C   UNL A   1      45.766  31.728  26.521  1.00  0.00     0.200 A 
ATOM     94  F   UNL A   1      48.103  31.530  26.784  1.00  0.00    -0.200 F 
ATOM     95  F   UNL A   1      45.937  32.649  25.562  1.00  0.00    -0.200 F 
ENDBRANCH  62  85
ENDBRANCH  36  37
ENDBRANCH  28  31
ENDBRANCH  26  27
ENDBRANCH  25  26
ENDBRANCH   1  25
TORSDOF 13
ENDMDL
MODEL 3
REMARK VINA RESULT:     -12.8      3.142      8.747
REMARK SMILES Cc1nsc(NC(=O)c2ccc(N)cc2)c1C(=O)NCCCNC(=O)c1ccc(-c2c3nc(c(-c4c(F)c(F)c(F)c(F)c4F)c4ccc([nH]4)c(-c4c(F)c(F)c(F)c(F)c4F)c4nc(c(-c5c(F)c(F)c(F)c(F)c5F)c5ccc2[nH]5)C=C4)C=C3)cc1
REMARK SMILES IDX 20 1 19 2 17 3 18 4 16 6 1 7 2 8 3 9 4 10 5 11 6 12 7 13
REMARK SMILES IDX 8 15 9 16 10 17 15 18 11 19 14 20 12 21 13 22 21 25 22 26
REMARK SMILES IDX 23 27 24 28 25 30 26 31 27 32 88 33 28 34 87 35 29 36 30 37
REMARK SMILES IDX 31 38 81 39 32 40 86 41 80 42 82 43 33 44 85 45 79 46 78 47
REMARK SMILES IDX 34 49 66 50 46 51 65 52 47 53 50 54 64 55 83 56 48 57 49 58
REMARK SMILES IDX 63 60 84 61 51 62 35 63 36 64 44 65 37 66 38 67 42 68 45 69
REMARK SMILES IDX 39 70 40 71 43 72 41 73 67 74 68 75 76 76 69 77 70 78 74 79
REMARK SMILES IDX 77 80 71 81 72 82 75 83 73 84 52 85 53 86 61 87 54 88 55 89
REMARK SMILES IDX 59 90 62 91 56 92 57 93 60 94 58 95
REMARK H PARENT 19 5 6 14 13 23 13 24 23 29 82 48 50 59
REMARK Flexibility Score: inf
ROOT
ATOM      1  C   UNL A   1      32.828  30.140  26.115  1.00  0.00     0.118 C 
ENDROOT
BRANCH   1   2
ATOM      2  N   UNL A   1      33.535  29.377  25.117  1.00  0.00    -0.352 N 
ATOM      3  C   UNL A   1      33.271  28.241  24.406  1.00  0.00     0.256 C 
ATOM      4  O   UNL A   1      34.086  28.053  23.492  1.00  0.00    -0.269 OA
ATOM      5  H   UNL A   1      34.413  29.765  24.898  1.00  0.00     0.163 HD
BRANCH   3   6
ATOM      6  C   UNL A   1      32.203  27.255  24.651  1.00  0.00     0.097 A 
ATOM      7  C   UNL A   1      29.845  27.988  23.549  1.00  0.00     0.069 C 
ATOM      8  C   UNL A   1      30.766  27.165  24.373  1.00  0.00     0.066 A 
ATOM      9  N   UNL A   1      30.117  26.166  24.976  1.00  0.00    -0.195 NA
ATOM     10  S   UNL A   1      31.163  25.279  25.852  1.00  0.00    -0.017 S 
ATOM     11  C   UNL A   1      32.561  26.055  25.294  1.00  0.00     0.129 A 
BRANCH  11  12
ATOM     12  N   UNL A   1      33.834  25.584  25.593  1.00  0.00    -0.312 N 
ATOM     13  C   UNL A   1      34.464  24.394  25.287  1.00  0.00     0.256 C 
ATOM     14  H   UNL A   1      34.384  26.209  26.117  1.00  0.00     0.171 HD
ATOM     15  O   UNL A   1      35.535  24.103  25.816  1.00  0.00    -0.269 OA
BRANCH  13  16
ATOM     16  C   UNL A   1      33.910  23.458  24.289  1.00  0.00     0.040 A 
ATOM     17  C   UNL A   1      33.912  23.772  22.926  1.00  0.00     0.016 A 
ATOM     18  C   UNL A   1      33.316  22.280  24.742  1.00  0.00     0.016 A 
ATOM     19  C   UNL A   1      33.198  22.964  22.037  1.00  0.00     0.026 A 
ATOM     20  C   UNL A   1      32.621  21.471  23.840  1.00  0.00     0.026 A 
ATOM     21  C   UNL A   1      32.528  21.823  22.490  1.00  0.00     0.031 A 
BRANCH  21  22
ATOM     22  N   UNL A   1      31.748  21.078  21.626  1.00  0.00    -0.399 N 
ATOM     23  H   UNL A   1      32.163  20.616  20.862  1.00  0.00     0.156 HD
ATOM     24  H   UNL A   1      30.777  21.010  21.774  1.00  0.00     0.156 HD
ENDBRANCH  21  22
ENDBRANCH  13  16
ENDBRANCH  11  12
ENDBRANCH   3   6
ENDBRANCH   1   2
BRANCH   1  25
ATOM     25  C   UNL A   1      33.566  30.207  27.452  1.00  0.00     0.042 C 
BRANCH  25  26
ATOM     26  C   UNL A   1      34.465  31.420  27.564  1.00  0.00     0.118 C 
BRANCH  26  27
ATOM     27  N   UNL A   1      34.403  32.019  28.902  1.00  0.00    -0.352 N 
ATOM     28  C   UNL A   1      35.189  31.754  30.010  1.00  0.00     0.251 C 
ATOM     29  H   UNL A   1      33.708  32.704  29.028  1.00  0.00     0.163 HD
ATOM     30  O   UNL A   1      34.822  32.055  31.130  1.00  0.00    -0.269 OA
BRANCH  28  31
ATOM     31  C   UNL A   1      36.484  31.090  29.792  1.00  0.00     0.039 A 
ATOM     32  C   UNL A   1      37.661  31.813  29.586  1.00  0.00     0.014 A 
ATOM     33  C   UNL A   1      36.500  29.703  29.870  1.00  0.00     0.014 A 
ATOM     34  C   UNL A   1      38.864  31.115  29.543  1.00  0.00     0.010 A 
ATOM     35  C   UNL A   1      37.683  29.062  30.081  1.00  0.00     0.010 A 
ATOM     36  C   UNL A   1      38.862  29.738  29.817  1.00  0.00    -0.014 A 
BRANCH  36  37
ATOM     37  C   UNL A   1      40.093  28.974  29.943  1.00  0.00     0.031 A 
ATOM     38  C   UNL A   1      40.553  28.831  31.346  1.00  0.00     0.074 A 
ATOM     39  C   UNL A   1      40.616  28.275  28.911  1.00  0.00     0.049 A 
ATOM     40  N   UNL A   1      41.576  29.392  31.894  1.00  0.00    -0.248 NA
ATOM     41  C   UNL A   1      39.675  28.134  32.303  1.00  0.00     0.031 C 
ATOM     42  C   UNL A   1      40.053  28.082  27.567  1.00  0.00     0.029 A 
ATOM     43  N   UNL A   1      41.730  27.495  28.874  1.00  0.00    -0.354 N 
ATOM     44  C   UNL A   1      41.604  28.932  33.207  1.00  0.00     0.074 A 
ATOM     45  C   UNL A   1      40.310  28.359  33.457  1.00  0.00     0.031 C 
ATOM     46  C   UNL A   1      40.693  27.072  26.939  1.00  0.00     0.029 A 
ATOM     47  C   UNL A   1      41.823  26.674  27.753  1.00  0.00     0.049 A 
ATOM     48  H   UNL A   1      42.415  27.511  29.582  1.00  0.00     0.167 HD
ATOM     49  C   UNL A   1      42.794  28.798  33.857  1.00  0.00     0.037 A 
ATOM     50  C   UNL A   1      42.764  25.726  27.521  1.00  0.00     0.037 A 
ATOM     51  C   UNL A   1      43.832  29.502  33.141  1.00  0.00     0.049 A 
ATOM     52  C   UNL A   1      43.911  26.034  28.405  1.00  0.00     0.074 A 
ATOM     53  C   UNL A   1      44.097  30.818  32.827  1.00  0.00     0.029 A 
ATOM     54  N   UNL A   1      44.575  28.737  32.277  1.00  0.00    -0.354 N 
ATOM     55  N   UNL A   1      44.660  27.094  28.275  1.00  0.00    -0.248 NA
ATOM     56  C   UNL A   1      43.958  25.392  29.708  1.00  0.00     0.031 C 
ATOM     57  C   UNL A   1      44.699  30.784  31.532  1.00  0.00     0.029 A 
ATOM     58  C   UNL A   1      44.846  29.450  31.143  1.00  0.00     0.049 A 
ATOM     59  H   UNL A   1      44.869  27.813  32.448  1.00  0.00     0.167 HD
ATOM     60  C   UNL A   1      44.914  27.503  29.575  1.00  0.00     0.074 A 
ATOM     61  C   UNL A   1      44.579  26.349  30.404  1.00  0.00     0.031 C 
ATOM     62  C   UNL A   1      45.080  28.830  29.856  1.00  0.00     0.037 A 
BRANCH  49  63
ATOM     63  C   UNL A   1      43.131  27.682  34.828  1.00  0.00     0.064 A 
ATOM     64  C   UNL A   1      43.469  28.025  36.155  1.00  0.00     0.173 A 
ATOM     65  C   UNL A   1      43.448  26.357  34.454  1.00  0.00     0.173 A 
ATOM     66  F   UNL A   1      43.223  29.259  36.626  1.00  0.00    -0.203 F 
ATOM     67  C   UNL A   1      44.157  27.149  36.999  1.00  0.00     0.198 A 
ATOM     68  C   UNL A   1      44.089  25.469  35.317  1.00  0.00     0.198 A 
ATOM     69  F   UNL A   1      43.258  25.891  33.217  1.00  0.00    -0.203 F 
ATOM     70  F   UNL A   1      44.576  27.572  38.200  1.00  0.00    -0.200 F 
ATOM     71  C   UNL A   1      44.476  25.874  36.574  1.00  0.00     0.200 A 
ATOM     72  F   UNL A   1      44.405  24.241  34.878  1.00  0.00    -0.200 F 
ATOM     73  F   UNL A   1      45.194  25.054  37.353  1.00  0.00    -0.200 F 
ENDBRANCH  49  63
BRANCH  50  74
ATOM     74  C   UNL A   1      42.631  24.431  26.812  1.00  0.00     0.064 A 
ATOM     75  C   UNL A   1      43.284  24.196  25.592  1.00  0.00     0.173 A 
ATOM     76  C   UNL A   1      42.100  23.303  27.466  1.00  0.00     0.173 A 
ATOM     77  F   UNL A   1      43.860  25.210  24.930  1.00  0.00    -0.203 F 
ATOM     78  C   UNL A   1      43.420  22.904  25.069  1.00  0.00     0.198 A 
ATOM     79  C   UNL A   1      42.234  22.015  26.943  1.00  0.00     0.198 A 
ATOM     80  F   UNL A   1      41.528  23.418  28.673  1.00  0.00    -0.203 F 
ATOM     81  F   UNL A   1      44.106  22.711  23.932  1.00  0.00    -0.200 F 
ATOM     82  C   UNL A   1      42.906  21.815  25.751  1.00  0.00     0.200 A 
ATOM     83  F   UNL A   1      41.771  20.964  27.634  1.00  0.00    -0.200 F 
ATOM     84  F   UNL A   1      43.094  20.571  25.285  1.00  0.00    -0.200 F 
ENDBRANCH  50  74
BRANCH  62  85
ATOM     85  C   UNL A   1      45.354  29.752  28.699  1.00  0.00     0.064 A 
ATOM     86  C   UNL A   1      44.369  30.438  27.967  1.00  0.00     0.173 A 
ATOM     87  C   UNL A   1      46.693  30.040  28.399  1.00  0.00     0.173 A 
ATOM     88  F   UNL A   1      43.069  30.288  28.249  1.00  0.00    -0.203 F 
ATOM     89  C   UNL A   1      44.712  31.339  26.959  1.00  0.00     0.198 A 
ATOM     90  C   UNL A   1      47.032  30.968  27.420  1.00  0.00     0.198 A 
ATOM     91  F   UNL A   1      47.677  29.451  29.096  1.00  0.00    -0.203 F 
ATOM     92  F   UNL A   1      43.752  31.970  26.266  1.00  0.00    -0.200 F 
ATOM     93  C   UNL A   1      46.043  31.608  26.692  1.00  0.00     0.200 A 
ATOM     94  F   UNL A   1      48.321  31.260  27.200  1.00  0.00    -0.200 F 
ATOM     95  F   UNL A   1      46.375  32.504  25.751  1.00  0.00    -0.200 F 
ENDBRANCH  62  85
ENDBRANCH  36  37
ENDBRANCH  28  31
ENDBRANCH  26  27
ENDBRANCH  25  26
ENDBRANCH   1  25
TORSDOF 13
ENDMDL
