MODEL 1
REMARK VINA RESULT:     -13.7      0.000      0.000
REMARK SMILES O=C(NCCCNC(=O)c1cc(Cl)cc(Cl)c1NC(=S)NC(=O)c1cccc([N+](=O)[O-])c1)c1ccc(-c2c3nc(c(-c4c(F)c(F)c(F)c(F)c4F)c4ccc([nH]4)c(-c4c(F)c(F)c(F)c(F)c4F)c4nc(c(-c5c(F)c(F)c(F)c(F)c5F)c5ccc2[nH]5)C=C4)C=C3)cc1
REMARK SMILES IDX 7 1 8 2 9 3 6 5 5 6 4 7 3 8 1 9 2 10 33 12 34 13 95 14 35 15
REMARK SMILES IDX 94 16 36 17 37 18 38 19 88 20 39 21 93 22 87 23 89 24 40 25
REMARK SMILES IDX 92 26 86 27 85 28 41 30 73 31 53 32 72 33 54 34 57 35 71 36
REMARK SMILES IDX 90 37 55 38 56 39 70 41 91 42 58 43 42 44 43 45 51 46 44 47
REMARK SMILES IDX 45 48 49 49 52 50 46 51 47 52 50 53 48 54 74 55 75 56 83 57
REMARK SMILES IDX 76 58 77 59 81 60 84 61 78 62 79 63 82 64 80 65 59 66 60 67
REMARK SMILES IDX 68 68 61 69 62 70 66 71 69 72 63 73 64 74 67 75 65 76 10 77
REMARK SMILES IDX 11 78 17 79 12 80 15 81 13 82 14 83 16 84 18 85 19 87 20 88
REMARK SMILES IDX 21 89 22 90 23 92 24 93 25 94 32 95 26 96 28 97 27 98 29 99
REMARK SMILES IDX 30 100 31 101
REMARK H PARENT 7 4 3 11 89 29 57 40 18 86 21 91
REMARK Flexibility Score: inf
ROOT
ATOM      1  N   UNL A   1      31.817  29.821  27.265  1.00  0.00    -0.352 N 
ATOM      2  C   UNL A   1      31.725  28.453  27.108  1.00  0.00     0.253 C 
ATOM      3  O   UNL A   1      31.403  27.713  28.026  1.00  0.00    -0.269 OA
ATOM      4  H   UNL A   1      31.857  30.137  28.196  1.00  0.00     0.163 HD
ENDROOT
BRANCH   1   5
ATOM      5  C   UNL A   1      31.860  30.871  26.240  1.00  0.00     0.118 C 
BRANCH   5   6
ATOM      6  C   UNL A   1      31.534  32.230  26.822  1.00  0.00     0.042 C 
BRANCH   6   7
ATOM      7  C   UNL A   1      32.782  32.936  27.302  1.00  0.00     0.118 C 
BRANCH   7   8
ATOM      8  N   UNL A   1      32.520  34.314  27.710  1.00  0.00    -0.352 N 
ATOM      9  O   UNL A   1      32.592  36.116  29.071  1.00  0.00    -0.269 OA
ATOM     10  C   UNL A   1      33.060  35.030  28.751  1.00  0.00     0.251 C 
ATOM     11  H   UNL A   1      31.863  34.800  27.159  1.00  0.00     0.163 HD
BRANCH  10  12
ATOM     12  C   UNL A   1      34.198  34.453  29.487  1.00  0.00     0.039 A 
ATOM     13  C   UNL A   1      35.480  34.578  28.959  1.00  0.00     0.014 A 
ATOM     14  C   UNL A   1      33.984  33.734  30.666  1.00  0.00     0.014 A 
ATOM     15  C   UNL A   1      36.501  33.801  29.466  1.00  0.00     0.010 A 
ATOM     16  C   UNL A   1      35.062  33.089  31.279  1.00  0.00     0.010 A 
ATOM     17  C   UNL A   1      36.323  33.093  30.665  1.00  0.00    -0.014 A 
BRANCH  17  18
ATOM     18  C   UNL A   1      37.524  32.474  31.277  1.00  0.00     0.031 A 
ATOM     19  C   UNL A   1      37.992  32.838  32.654  1.00  0.00     0.074 A 
ATOM     20  C   UNL A   1      38.138  31.499  30.577  1.00  0.00     0.049 A 
ATOM     21  N   UNL A   1      38.986  32.331  33.340  1.00  0.00    -0.248 NA
ATOM     22  C   UNL A   1      37.270  33.910  33.354  1.00  0.00     0.031 C 
ATOM     23  C   UNL A   1      37.771  31.083  29.217  1.00  0.00     0.029 A 
ATOM     24  N   UNL A   1      39.158  30.651  30.913  1.00  0.00    -0.354 N 
ATOM     25  C   UNL A   1      39.017  33.026  34.542  1.00  0.00     0.074 A 
ATOM     26  C   UNL A   1      37.963  34.016  34.481  1.00  0.00     0.031 C 
ATOM     27  C   UNL A   1      38.490  30.009  28.873  1.00  0.00     0.029 A 
ATOM     28  C   UNL A   1      39.443  29.728  29.935  1.00  0.00     0.049 A 
ATOM     29  H   UNL A   1      39.640  30.697  31.770  1.00  0.00     0.167 HD
ATOM     30  C   UNL A   1      39.846  32.841  35.597  1.00  0.00     0.037 A 
ATOM     31  C   UNL A   1      40.390  28.777  29.882  1.00  0.00     0.037 A 
ATOM     32  C   UNL A   1      40.892  31.847  35.639  1.00  0.00     0.049 A 
ATOM     33  C   UNL A   1      41.309  28.622  31.056  1.00  0.00     0.074 A 
ATOM     34  C   UNL A   1      41.785  31.577  36.661  1.00  0.00     0.029 A 
ATOM     35  N   UNL A   1      41.183  30.958  34.613  1.00  0.00    -0.354 N 
ATOM     36  N   UNL A   1      41.317  29.278  32.191  1.00  0.00    -0.248 NA
ATOM     37  C   UNL A   1      42.352  27.598  30.941  1.00  0.00     0.031 C 
ATOM     38  C   UNL A   1      42.649  30.562  36.234  1.00  0.00     0.029 A 
ATOM     39  C   UNL A   1      42.255  30.154  34.970  1.00  0.00     0.049 A 
ATOM     40  H   UNL A   1      40.700  30.907  33.756  1.00  0.00     0.167 HD
ATOM     41  C   UNL A   1      42.360  28.741  32.930  1.00  0.00     0.074 A 
ATOM     42  C   UNL A   1      42.931  27.677  32.130  1.00  0.00     0.031 C 
ATOM     43  C   UNL A   1      42.814  29.105  34.154  1.00  0.00     0.037 A 
BRANCH  30  44
ATOM     44  C   UNL A   1      39.674  33.734  36.792  1.00  0.00     0.064 A 
ATOM     45  C   UNL A   1      40.275  35.001  36.857  1.00  0.00     0.173 A 
ATOM     46  C   UNL A   1      38.841  33.352  37.856  1.00  0.00     0.173 A 
ATOM     47  F   UNL A   1      41.091  35.413  35.875  1.00  0.00    -0.203 F 
ATOM     48  C   UNL A   1      40.061  35.842  37.947  1.00  0.00     0.198 A 
ATOM     49  C   UNL A   1      38.606  34.208  38.929  1.00  0.00     0.198 A 
ATOM     50  F   UNL A   1      38.237  32.154  37.845  1.00  0.00    -0.203 F 
ATOM     51  F   UNL A   1      40.676  37.033  38.003  1.00  0.00    -0.200 F 
ATOM     52  C   UNL A   1      39.219  35.450  38.977  1.00  0.00     0.200 A 
ATOM     53  F   UNL A   1      37.780  33.832  39.916  1.00  0.00    -0.200 F 
ATOM     54  F   UNL A   1      39.001  36.267  40.016  1.00  0.00    -0.200 F 
ENDBRANCH  30  44
BRANCH  31  55
ATOM     55  C   UNL A   1      40.539  27.943  28.660  1.00  0.00     0.064 A 
ATOM     56  C   UNL A   1      41.310  28.371  27.573  1.00  0.00     0.173 A 
ATOM     57  C   UNL A   1      39.901  26.696  28.556  1.00  0.00     0.173 A 
ATOM     58  F   UNL A   1      41.930  29.560  27.618  1.00  0.00    -0.203 F 
ATOM     59  C   UNL A   1      41.411  27.601  26.416  1.00  0.00     0.198 A 
ATOM     60  C   UNL A   1      40.037  25.909  27.417  1.00  0.00     0.198 A 
ATOM     61  F   UNL A   1      39.159  26.233  29.573  1.00  0.00    -0.203 F 
ATOM     62  F   UNL A   1      42.103  28.063  25.366  1.00  0.00    -0.200 F 
ATOM     63  C   UNL A   1      40.780  26.368  26.341  1.00  0.00     0.200 A 
ATOM     64  F   UNL A   1      39.447  24.706  27.363  1.00  0.00    -0.200 F 
ATOM     65  F   UNL A   1      40.881  25.626  25.230  1.00  0.00    -0.200 F 
ENDBRANCH  31  55
BRANCH  43  66
ATOM     66  C   UNL A   1      43.972  28.320  34.699  1.00  0.00     0.064 A 
ATOM     67  C   UNL A   1      45.300  28.722  34.484  1.00  0.00     0.173 A 
ATOM     68  C   UNL A   1      43.752  27.145  35.431  1.00  0.00     0.173 A 
ATOM     69  F   UNL A   1      45.564  29.830  33.773  1.00  0.00    -0.203 F 
ATOM     70  C   UNL A   1      46.364  27.951  34.942  1.00  0.00     0.198 A 
ATOM     71  C   UNL A   1      44.819  26.396  35.921  1.00  0.00     0.198 A 
ATOM     72  F   UNL A   1      42.503  26.719  35.671  1.00  0.00    -0.203 F 
ATOM     73  F   UNL A   1      47.622  28.314  34.658  1.00  0.00    -0.200 F 
ATOM     74  C   UNL A   1      46.122  26.791  35.663  1.00  0.00     0.200 A 
ATOM     75  F   UNL A   1      44.583  25.285  36.631  1.00  0.00    -0.200 F 
ATOM     76  F   UNL A   1      47.147  26.046  36.098  1.00  0.00    -0.200 F 
ENDBRANCH  43  66
ENDBRANCH  17  18
ENDBRANCH  10  12
ENDBRANCH   7   8
ENDBRANCH   6   7
ENDBRANCH   5   6
ENDBRANCH   1   5
BRANCH   2  77
ATOM     77  C   UNL A   1      32.039  27.899  25.787  1.00  0.00     0.066 A 
ATOM     78  C   UNL A   1      33.245  27.223  25.613  1.00  0.00     0.036 A 
ATOM     79  C   UNL A   1      31.203  27.951  24.699  1.00  0.00     0.072 A 
ATOM     80  C   UNL A   1      33.673  26.738  24.312  1.00  0.00     0.043 A 
ATOM     81  C   UNL A   1      31.847  28.298  23.550  1.00  0.00     0.066 A 
ATOM     82  Cl  UNL A   1      34.679  24.561  23.740  1.00  0.00    -0.084 Cl
ATOM     83  C   UNL A   1      33.135  27.797  23.388  1.00  0.00     0.043 A 
ATOM     84  Cl  UNL A   1      31.047  29.135  22.285  1.00  0.00    -0.082 Cl
BRANCH  79  85
ATOM     85  N   UNL A   1      30.092  27.074  24.685  1.00  0.00    -0.330 N 
ATOM     86  H   UNL A   1      29.220  27.528  24.615  1.00  0.00     0.169 HD
BRANCH  85  87
ATOM     87  C   UNL A   1      30.013  25.721  24.752  1.00  0.00     0.177 C 
ATOM     88  S   UNL A   1      29.978  24.877  23.304  1.00  0.00    -0.040 S 
BRANCH  87  89
ATOM     89  N   UNL A   1      29.913  24.961  25.911  1.00  0.00    -0.299 N 
ATOM     90  C   UNL A   1      30.301  23.778  26.585  1.00  0.00     0.257 C 
ATOM     91  H   UNL A   1      29.320  25.454  26.523  1.00  0.00     0.172 HD
ATOM     92  O   UNL A   1      29.621  23.335  27.507  1.00  0.00    -0.269 OA
BRANCH  90  93
ATOM     93  C   UNL A   1      31.493  23.017  26.194  1.00  0.00     0.047 A 
ATOM     94  C   UNL A   1      33.123  23.551  26.869  1.00  0.00     0.014 A 
ATOM     95  C   UNL A   1      31.318  21.410  25.376  1.00  0.00     0.099 A 
ATOM     96  C   UNL A   1      34.516  22.356  26.877  1.00  0.00     0.008 A 
ATOM     97  C   UNL A   1      32.753  20.308  25.234  1.00  0.00     0.270 A 
ATOM     98  C   UNL A   1      34.333  20.740  26.052  1.00  0.00     0.085 A 
BRANCH  97  99
ATOM     99  N   UNL A   1      32.601  19.035  24.556  1.00  0.00     0.062 N 
ATOM    100  O   UNL A   1      32.153  18.099  25.227  1.00  0.00    -0.258 OA
ATOM    101  O   UNL A   1      32.858  19.009  23.348  1.00  0.00    -0.258 OA
ENDBRANCH  97  99
ENDBRANCH  90  93
ENDBRANCH  87  89
ENDBRANCH  85  87
ENDBRANCH  79  85
ENDBRANCH   2  77
TORSDOF 15
ENDMDL
MODEL 2
REMARK VINA RESULT:     -13.3      0.382      7.019
REMARK SMILES O=C(NCCCNC(=O)c1cc(Cl)cc(Cl)c1NC(=S)NC(=O)c1cccc([N+](=O)[O-])c1)c1ccc(-c2c3nc(c(-c4c(F)c(F)c(F)c(F)c4F)c4ccc([nH]4)c(-c4c(F)c(F)c(F)c(F)c4F)c4nc(c(-c5c(F)c(F)c(F)c(F)c5F)c5ccc2[nH]5)C=C4)C=C3)cc1
REMARK SMILES IDX 7 1 8 2 9 3 6 5 5 6 4 7 3 8 1 9 2 10 33 12 34 13 95 14 35 15
REMARK SMILES IDX 94 16 36 17 37 18 38 19 88 20 39 21 93 22 87 23 89 24 40 25
REMARK SMILES IDX 92 26 86 27 85 28 41 30 73 31 53 32 72 33 54 34 57 35 71 36
REMARK SMILES IDX 90 37 55 38 56 39 70 41 91 42 58 43 42 44 43 45 51 46 44 47
REMARK SMILES IDX 45 48 49 49 52 50 46 51 47 52 50 53 48 54 74 55 75 56 83 57
REMARK SMILES IDX 76 58 77 59 81 60 84 61 78 62 79 63 82 64 80 65 59 66 60 67
REMARK SMILES IDX 68 68 61 69 62 70 66 71 69 72 63 73 64 74 67 75 65 76 10 77
REMARK SMILES IDX 11 78 17 79 12 80 15 81 13 82 14 83 16 84 18 85 19 87 20 88
REMARK SMILES IDX 21 89 22 90 23 92 24 93 25 94 32 95 26 96 28 97 27 98 29 99
REMARK SMILES IDX 30 100 31 101
REMARK H PARENT 7 4 3 11 89 29 57 40 18 86 21 91
REMARK Flexibility Score: inf
ROOT
ATOM      1  N   UNL A   1      31.746  29.938  27.112  1.00  0.00    -0.352 N 
ATOM      2  C   UNL A   1      31.783  28.560  27.045  1.00  0.00     0.253 C 
ATOM      3  O   UNL A   1      31.569  27.855  28.021  1.00  0.00    -0.269 OA
ATOM      4  H   UNL A   1      31.790  30.318  28.019  1.00  0.00     0.163 HD
ENDROOT
BRANCH   1   5
ATOM      5  C   UNL A   1      31.648  30.917  26.023  1.00  0.00     0.118 C 
BRANCH   5   6
ATOM      6  C   UNL A   1      31.404  32.315  26.551  1.00  0.00     0.042 C 
BRANCH   6   7
ATOM      7  C   UNL A   1      32.641  32.874  27.215  1.00  0.00     0.118 C 
BRANCH   7   8
ATOM      8  N   UNL A   1      32.468  34.263  27.637  1.00  0.00    -0.352 N 
ATOM      9  O   UNL A   1      32.632  36.037  29.027  1.00  0.00    -0.269 OA
ATOM     10  C   UNL A   1      33.030  34.925  28.701  1.00  0.00     0.251 C 
ATOM     11  H   UNL A   1      31.861  34.801  27.078  1.00  0.00     0.163 HD
BRANCH  10  12
ATOM     12  C   UNL A   1      34.105  34.258  29.457  1.00  0.00     0.039 A 
ATOM     13  C   UNL A   1      35.419  34.376  29.011  1.00  0.00     0.014 A 
ATOM     14  C   UNL A   1      33.801  33.467  30.567  1.00  0.00     0.014 A 
ATOM     15  C   UNL A   1      36.384  33.530  29.517  1.00  0.00     0.010 A 
ATOM     16  C   UNL A   1      34.822  32.744  31.192  1.00  0.00     0.010 A 
ATOM     17  C   UNL A   1      36.116  32.747  30.651  1.00  0.00    -0.014 A 
BRANCH  17  18
ATOM     18  C   UNL A   1      37.260  32.045  31.283  1.00  0.00     0.031 A 
ATOM     19  C   UNL A   1      38.037  30.984  30.564  1.00  0.00     0.074 A 
ATOM     20  C   UNL A   1      37.633  32.458  32.511  1.00  0.00     0.049 A 
ATOM     21  N   UNL A   1      39.099  30.333  30.969  1.00  0.00    -0.248 NA
ATOM     22  C   UNL A   1      37.568  30.588  29.227  1.00  0.00     0.031 C 
ATOM     23  C   UNL A   1      36.928  33.472  33.306  1.00  0.00     0.029 A 
ATOM     24  N   UNL A   1      38.708  32.124  33.288  1.00  0.00    -0.354 N 
ATOM     25  C   UNL A   1      39.418  29.447  29.948  1.00  0.00     0.074 A 
ATOM     26  C   UNL A   1      38.417  29.617  28.916  1.00  0.00     0.031 C 
ATOM     27  C   UNL A   1      37.634  33.740  34.409  1.00  0.00     0.029 A 
ATOM     28  C   UNL A   1      38.778  32.841  34.458  1.00  0.00     0.049 A 
ATOM     29  H   UNL A   1      39.367  31.438  33.035  1.00  0.00     0.167 HD
ATOM     30  C   UNL A   1      40.459  28.581  29.883  1.00  0.00     0.037 A 
ATOM     31  C   UNL A   1      39.648  32.765  35.478  1.00  0.00     0.037 A 
ATOM     32  C   UNL A   1      41.447  28.426  30.923  1.00  0.00     0.049 A 
ATOM     33  C   UNL A   1      40.769  31.774  35.384  1.00  0.00     0.074 A 
ATOM     34  C   UNL A   1      42.541  27.579  30.954  1.00  0.00     0.029 A 
ATOM     35  N   UNL A   1      41.462  29.137  32.115  1.00  0.00    -0.354 N 
ATOM     36  N   UNL A   1      41.065  30.953  34.407  1.00  0.00    -0.248 NA
ATOM     37  C   UNL A   1      41.674  31.697  36.536  1.00  0.00     0.031 C 
ATOM     38  C   UNL A   1      43.187  27.739  32.185  1.00  0.00     0.029 A 
ATOM     39  C   UNL A   1      42.534  28.732  32.897  1.00  0.00     0.049 A 
ATOM     40  H   UNL A   1      40.807  29.827  32.370  1.00  0.00     0.167 HD
ATOM     41  C   UNL A   1      42.196  30.266  34.821  1.00  0.00     0.074 A 
ATOM     42  C   UNL A   1      42.555  30.800  36.118  1.00  0.00     0.031 C 
ATOM     43  C   UNL A   1      42.869  29.272  34.191  1.00  0.00     0.037 A 
BRANCH  30  44
ATOM     44  C   UNL A   1      40.582  27.721  28.658  1.00  0.00     0.064 A 
ATOM     45  C   UNL A   1      41.398  28.092  27.578  1.00  0.00     0.173 A 
ATOM     46  C   UNL A   1      39.934  26.478  28.589  1.00  0.00     0.173 A 
ATOM     47  F   UNL A   1      42.031  29.274  27.584  1.00  0.00    -0.203 F 
ATOM     48  C   UNL A   1      41.548  27.257  26.471  1.00  0.00     0.198 A 
ATOM     49  C   UNL A   1      40.109  25.634  27.495  1.00  0.00     0.198 A 
ATOM     50  F   UNL A   1      39.145  26.071  29.595  1.00  0.00    -0.203 F 
ATOM     51  F   UNL A   1      42.304  27.650  25.436  1.00  0.00    -0.200 F 
ATOM     52  C   UNL A   1      40.912  26.025  26.435  1.00  0.00     0.200 A 
ATOM     53  F   UNL A   1      39.506  24.438  27.470  1.00  0.00    -0.200 F 
ATOM     54  F   UNL A   1      41.070  25.218  25.378  1.00  0.00    -0.200 F 
ENDBRANCH  30  44
BRANCH  31  55
ATOM     55  C   UNL A   1      39.459  33.616  36.683  1.00  0.00     0.064 A 
ATOM     56  C   UNL A   1      40.021  34.895  36.768  1.00  0.00     0.173 A 
ATOM     57  C   UNL A   1      38.713  33.158  37.781  1.00  0.00     0.173 A 
ATOM     58  F   UNL A   1      40.752  35.376  35.752  1.00  0.00    -0.203 F 
ATOM     59  C   UNL A   1      39.872  35.670  37.918  1.00  0.00     0.198 A 
ATOM     60  C   UNL A   1      38.528  33.949  38.910  1.00  0.00     0.198 A 
ATOM     61  F   UNL A   1      38.143  31.943  37.747  1.00  0.00    -0.203 F 
ATOM     62  F   UNL A   1      40.472  36.865  37.998  1.00  0.00    -0.200 F 
ATOM     63  C   UNL A   1      39.121  35.200  38.984  1.00  0.00     0.200 A 
ATOM     64  F   UNL A   1      37.778  33.498  39.925  1.00  0.00    -0.200 F 
ATOM     65  F   UNL A   1      38.975  35.947  40.086  1.00  0.00    -0.200 F 
ENDBRANCH  31  55
BRANCH  43  66
ATOM     66  C   UNL A   1      44.073  28.724  34.901  1.00  0.00     0.064 A 
ATOM     67  C   UNL A   1      45.351  29.274  34.714  1.00  0.00     0.173 A 
ATOM     68  C   UNL A   1      43.950  27.627  35.765  1.00  0.00     0.173 A 
ATOM     69  F   UNL A   1      45.525  30.313  33.882  1.00  0.00    -0.203 F 
ATOM     70  C   UNL A   1      46.467  28.716  35.330  1.00  0.00     0.198 A 
ATOM     71  C   UNL A   1      45.064  27.095  36.410  1.00  0.00     0.198 A 
ATOM     72  F   UNL A   1      42.751  27.067  35.984  1.00  0.00    -0.203 F 
ATOM     73  F   UNL A   1      47.687  29.210  35.076  1.00  0.00    -0.200 F 
ATOM     74  C   UNL A   1      46.321  27.630  36.180  1.00  0.00     0.200 A 
ATOM     75  F   UNL A   1      44.919  26.056  37.244  1.00  0.00    -0.200 F 
ATOM     76  F   UNL A   1      47.397  27.089  36.768  1.00  0.00    -0.200 F 
ENDBRANCH  43  66
ENDBRANCH  17  18
ENDBRANCH  10  12
ENDBRANCH   7   8
ENDBRANCH   6   7
ENDBRANCH   5   6
ENDBRANCH   1   5
BRANCH   2  77
ATOM     77  C   UNL A   1      32.099  27.952  25.749  1.00  0.00     0.066 A 
ATOM     78  C   UNL A   1      33.297  27.254  25.611  1.00  0.00     0.036 A 
ATOM     79  C   UNL A   1      31.274  27.973  24.652  1.00  0.00     0.072 A 
ATOM     80  C   UNL A   1      33.729  26.714  24.333  1.00  0.00     0.043 A 
ATOM     81  C   UNL A   1      31.931  28.268  23.497  1.00  0.00     0.066 A 
ATOM     82  Cl  UNL A   1      34.710  24.504  23.853  1.00  0.00    -0.084 Cl
ATOM     83  C   UNL A   1      33.213  27.744  23.365  1.00  0.00     0.043 A 
ATOM     84  Cl  UNL A   1      31.153  29.067  22.194  1.00  0.00    -0.082 Cl
BRANCH  79  85
ATOM     85  N   UNL A   1      30.150  27.111  24.662  1.00  0.00    -0.330 N 
ATOM     86  H   UNL A   1      29.284  27.576  24.599  1.00  0.00     0.169 HD
BRANCH  85  87
ATOM     87  C   UNL A   1      30.054  25.761  24.745  1.00  0.00     0.177 C 
ATOM     88  S   UNL A   1      29.991  24.902  23.306  1.00  0.00    -0.040 S 
BRANCH  87  89
ATOM     89  N   UNL A   1      29.958  25.014  25.912  1.00  0.00    -0.299 N 
ATOM     90  C   UNL A   1      30.337  23.832  26.594  1.00  0.00     0.257 C 
ATOM     91  H   UNL A   1      29.382  25.523  26.528  1.00  0.00     0.172 HD
ATOM     92  O   UNL A   1      29.663  23.409  27.530  1.00  0.00    -0.269 OA
BRANCH  90  93
ATOM     93  C   UNL A   1      31.512  23.048  26.194  1.00  0.00     0.047 A 
ATOM     94  C   UNL A   1      33.154  23.543  26.869  1.00  0.00     0.014 A 
ATOM     95  C   UNL A   1      31.300  21.452  25.366  1.00  0.00     0.099 A 
ATOM     96  C   UNL A   1      34.521  22.318  26.866  1.00  0.00     0.008 A 
ATOM     97  C   UNL A   1      32.710  20.320  25.212  1.00  0.00     0.270 A 
ATOM     98  C   UNL A   1      34.302  20.711  26.029  1.00  0.00     0.085 A 
BRANCH  97  99
ATOM     99  N   UNL A   1      32.530  19.056  24.525  1.00  0.00     0.062 N 
ATOM    100  O   UNL A   1      32.163  18.098  25.214  1.00  0.00    -0.258 OA
ATOM    101  O   UNL A   1      32.682  19.057  23.299  1.00  0.00    -0.258 OA
ENDBRANCH  97  99
ENDBRANCH  90  93
ENDBRANCH  87  89
ENDBRANCH  85  87
ENDBRANCH  79  85
ENDBRANCH   2  77
TORSDOF 15
ENDMDL
MODEL 3
REMARK VINA RESULT:     -13.3      1.290      2.192
REMARK SMILES O=C(NCCCNC(=O)c1cc(Cl)cc(Cl)c1NC(=S)NC(=O)c1cccc([N+](=O)[O-])c1)c1ccc(-c2c3nc(c(-c4c(F)c(F)c(F)c(F)c4F)c4ccc([nH]4)c(-c4c(F)c(F)c(F)c(F)c4F)c4nc(c(-c5c(F)c(F)c(F)c(F)c5F)c5ccc2[nH]5)C=C4)C=C3)cc1
REMARK SMILES IDX 7 1 8 2 9 3 6 5 5 6 4 7 3 8 1 9 2 10 33 12 34 13 95 14 35 15
REMARK SMILES IDX 94 16 36 17 37 18 38 19 88 20 39 21 93 22 87 23 89 24 40 25
REMARK SMILES IDX 92 26 86 27 85 28 41 30 73 31 53 32 72 33 54 34 57 35 71 36
REMARK SMILES IDX 90 37 55 38 56 39 70 41 91 42 58 43 42 44 43 45 51 46 44 47
REMARK SMILES IDX 45 48 49 49 52 50 46 51 47 52 50 53 48 54 74 55 75 56 83 57
REMARK SMILES IDX 76 58 77 59 81 60 84 61 78 62 79 63 82 64 80 65 59 66 60 67
REMARK SMILES IDX 68 68 61 69 62 70 66 71 69 72 63 73 64 74 67 75 65 76 10 77
REMARK SMILES IDX 11 78 17 79 12 80 15 81 13 82 14 83 16 84 18 85 19 87 20 88
REMARK SMILES IDX 21 89 22 90 23 92 24 93 25 94 32 95 26 96 28 97 27 98 29 99
REMARK SMILES IDX 30 100 31 101
REMARK H PARENT 7 4 3 11 89 29 57 40 18 86 21 91
REMARK Flexibility Score: inf
ROOT
ATOM      1  N   UNL A   1      31.900  29.912  27.185  1.00  0.00    -0.352 N 
ATOM      2  C   UNL A   1      31.641  28.564  27.040  1.00  0.00     0.253 C 
ATOM      3  O   UNL A   1      31.517  27.817  28.000  1.00  0.00    -0.269 OA
ATOM      4  H   UNL A   1      32.227  30.185  28.073  1.00  0.00     0.163 HD
ENDROOT
BRANCH   1   5
ATOM      5  C   UNL A   1      31.757  30.995  26.205  1.00  0.00     0.118 C 
BRANCH   5   6
ATOM      6  C   UNL A   1      31.424  32.311  26.876  1.00  0.00     0.042 C 
BRANCH   6   7
ATOM      7  C   UNL A   1      32.672  33.001  27.379  1.00  0.00     0.118 C 
BRANCH   7   8
ATOM      8  N   UNL A   1      32.430  34.398  27.736  1.00  0.00    -0.352 N 
ATOM      9  O   UNL A   1      32.528  36.247  29.031  1.00  0.00    -0.269 OA
ATOM     10  C   UNL A   1      32.981  35.143  28.750  1.00  0.00     0.251 C 
ATOM     11  H   UNL A   1      31.779  34.871  27.169  1.00  0.00     0.163 HD
BRANCH  10  12
ATOM     12  C   UNL A   1      34.112  34.577  29.506  1.00  0.00     0.039 A 
ATOM     13  C   UNL A   1      35.389  34.631  28.954  1.00  0.00     0.014 A 
ATOM     14  C   UNL A   1      33.894  33.939  30.729  1.00  0.00     0.014 A 
ATOM     15  C   UNL A   1      36.394  33.856  29.495  1.00  0.00     0.010 A 
ATOM     16  C   UNL A   1      34.961  33.301  31.367  1.00  0.00     0.010 A 
ATOM     17  C   UNL A   1      36.213  33.228  30.738  1.00  0.00    -0.014 A 
BRANCH  17  18
ATOM     18  C   UNL A   1      37.404  32.611  31.372  1.00  0.00     0.031 A 
ATOM     19  C   UNL A   1      37.845  32.973  32.758  1.00  0.00     0.074 A 
ATOM     20  C   UNL A   1      38.034  31.639  30.682  1.00  0.00     0.049 A 
ATOM     21  N   UNL A   1      38.827  32.468  33.461  1.00  0.00    -0.248 NA
ATOM     22  C   UNL A   1      37.106  34.043  33.446  1.00  0.00     0.031 C 
ATOM     23  C   UNL A   1      37.694  31.225  29.314  1.00  0.00     0.029 A 
ATOM     24  N   UNL A   1      39.050  30.793  31.035  1.00  0.00    -0.354 N 
ATOM     25  C   UNL A   1      38.833  33.160  34.665  1.00  0.00     0.074 A 
ATOM     26  C   UNL A   1      37.778  34.148  34.586  1.00  0.00     0.031 C 
ATOM     27  C   UNL A   1      38.422  30.154  28.981  1.00  0.00     0.029 A 
ATOM     28  C   UNL A   1      39.356  29.873  30.061  1.00  0.00     0.049 A 
ATOM     29  H   UNL A   1      39.515  30.839  31.901  1.00  0.00     0.167 HD
ATOM     30  C   UNL A   1      39.643  32.976  35.735  1.00  0.00     0.037 A 
ATOM     31  C   UNL A   1      40.306  28.925  30.024  1.00  0.00     0.037 A 
ATOM     32  C   UNL A   1      40.690  31.985  35.795  1.00  0.00     0.049 A 
ATOM     33  C   UNL A   1      41.203  28.770  31.215  1.00  0.00     0.074 A 
ATOM     34  C   UNL A   1      41.565  31.715  36.834  1.00  0.00     0.029 A 
ATOM     35  N   UNL A   1      41.003  31.099  34.773  1.00  0.00    -0.354 N 
ATOM     36  N   UNL A   1      41.187  29.424  32.352  1.00  0.00    -0.248 NA
ATOM     37  C   UNL A   1      42.251  27.749  31.118  1.00  0.00     0.031 C 
ATOM     38  C   UNL A   1      42.439  30.703  36.421  1.00  0.00     0.029 A 
ATOM     39  C   UNL A   1      42.070  30.296  35.150  1.00  0.00     0.049 A 
ATOM     40  H   UNL A   1      40.537  31.048  33.907  1.00  0.00     0.167 HD
ATOM     41  C   UNL A   1      42.218  28.888  33.109  1.00  0.00     0.074 A 
ATOM     42  C   UNL A   1      42.807  27.828  32.318  1.00  0.00     0.031 C 
ATOM     43  C   UNL A   1      42.647  29.251  34.342  1.00  0.00     0.037 A 
BRANCH  30  44
ATOM     44  C   UNL A   1      39.445  33.867  36.929  1.00  0.00     0.064 A 
ATOM     45  C   UNL A   1      38.693  33.454  38.039  1.00  0.00     0.173 A 
ATOM     46  C   UNL A   1      40.073  35.120  36.996  1.00  0.00     0.173 A 
ATOM     47  F   UNL A   1      38.060  32.271  38.025  1.00  0.00    -0.203 F 
ATOM     48  C   UNL A   1      38.565  34.269  39.163  1.00  0.00     0.198 A 
ATOM     49  C   UNL A   1      39.967  35.919  38.132  1.00  0.00     0.198 A 
ATOM     50  F   UNL A   1      40.808  35.564  35.965  1.00  0.00    -0.203 F 
ATOM     51  F   UNL A   1      37.810  33.867  40.196  1.00  0.00    -0.200 F 
ATOM     52  C   UNL A   1      39.210  35.495  39.213  1.00  0.00     0.200 A 
ATOM     53  F   UNL A   1      40.604  37.097  38.184  1.00  0.00    -0.200 F 
ATOM     54  F   UNL A   1      39.099  36.269  40.301  1.00  0.00    -0.200 F 
ENDBRANCH  30  44
BRANCH  31  55
ATOM     55  C   UNL A   1      40.480  28.094  28.804  1.00  0.00     0.064 A 
ATOM     56  C   UNL A   1      41.282  28.520  27.738  1.00  0.00     0.173 A 
ATOM     57  C   UNL A   1      39.836  26.852  28.678  1.00  0.00     0.173 A 
ATOM     58  F   UNL A   1      41.910  29.703  27.803  1.00  0.00    -0.203 F 
ATOM     59  C   UNL A   1      41.407  27.752  26.581  1.00  0.00     0.198 A 
ATOM     60  C   UNL A   1      39.996  26.067  27.541  1.00  0.00     0.198 A 
ATOM     61  F   UNL A   1      39.065  26.391  29.674  1.00  0.00    -0.203 F 
ATOM     62  F   UNL A   1      42.130  28.212  25.552  1.00  0.00    -0.200 F 
ATOM     63  C   UNL A   1      40.770  26.524  26.487  1.00  0.00     0.200 A 
ATOM     64  F   UNL A   1      39.399  24.869  27.468  1.00  0.00    -0.200 F 
ATOM     65  F   UNL A   1      40.894  25.785  25.376  1.00  0.00    -0.200 F 
ENDBRANCH  31  55
BRANCH  43  66
ATOM     66  C   UNL A   1      43.797  28.468  34.908  1.00  0.00     0.064 A 
ATOM     67  C   UNL A   1      43.595  27.297  35.653  1.00  0.00     0.173 A 
ATOM     68  C   UNL A   1      45.116  28.905  34.715  1.00  0.00     0.173 A 
ATOM     69  F   UNL A   1      42.351  26.848  35.882  1.00  0.00    -0.203 F 
ATOM     70  C   UNL A   1      44.668  26.618  36.224  1.00  0.00     0.198 A 
ATOM     71  C   UNL A   1      46.190  28.202  35.255  1.00  0.00     0.198 A 
ATOM     72  F   UNL A   1      45.366  30.015  34.005  1.00  0.00    -0.203 F 
ATOM     73  F   UNL A   1      44.444  25.545  36.995  1.00  0.00    -0.200 F 
ATOM     74  C   UNL A   1      45.964  27.068  36.020  1.00  0.00     0.200 A 
ATOM     75  F   UNL A   1      47.441  28.629  35.044  1.00  0.00    -0.200 F 
ATOM     76  F   UNL A   1      46.995  26.417  36.575  1.00  0.00    -0.200 F 
ENDBRANCH  43  66
ENDBRANCH  17  18
ENDBRANCH  10  12
ENDBRANCH   7   8
ENDBRANCH   6   7
ENDBRANCH   5   6
ENDBRANCH   1   5
BRANCH   2  77
ATOM     77  C   UNL A   1      31.524  28.040  25.676  1.00  0.00     0.066 A 
ATOM     78  C   UNL A   1      32.300  28.611  24.669  1.00  0.00     0.036 A 
ATOM     79  C   UNL A   1      30.732  26.979  25.310  1.00  0.00     0.072 A 
ATOM     80  C   UNL A   1      32.163  28.217  23.276  1.00  0.00     0.043 A 
ATOM     81  C   UNL A   1      30.033  27.207  24.164  1.00  0.00     0.066 A 
ATOM     82  Cl  UNL A   1      33.940  27.770  21.626  1.00  0.00    -0.084 Cl
ATOM     83  C   UNL A   1      30.690  27.929  23.174  1.00  0.00     0.043 A 
ATOM     84  Cl  UNL A   1      28.509  26.474  23.876  1.00  0.00    -0.082 Cl
BRANCH  79  85
ATOM     85  N   UNL A   1      31.177  25.680  25.658  1.00  0.00    -0.330 N 
ATOM     86  H   UNL A   1      30.649  25.249  26.368  1.00  0.00     0.169 HD
BRANCH  85  87
ATOM     87  C   UNL A   1      32.201  24.925  25.186  1.00  0.00     0.177 C 
ATOM     88  S   UNL A   1      33.225  24.223  26.314  1.00  0.00    -0.040 S 
BRANCH  87  89
ATOM     89  N   UNL A   1      32.515  24.709  23.851  1.00  0.00    -0.299 N 
ATOM     90  C   UNL A   1      33.299  23.980  22.924  1.00  0.00     0.257 C 
ATOM     91  H   UNL A   1      31.953  25.323  23.324  1.00  0.00     0.172 HD
ATOM     92  O   UNL A   1      33.507  24.425  21.798  1.00  0.00    -0.269 OA
BRANCH  90  93
ATOM     93  C   UNL A   1      33.924  22.699  23.273  1.00  0.00     0.047 A 
ATOM     94  C   UNL A   1      35.683  22.714  23.822  1.00  0.00     0.014 A 
ATOM     95  C   UNL A   1      32.902  21.221  23.500  1.00  0.00     0.099 A 
ATOM     96  C   UNL A   1      36.328  21.284  24.777  1.00  0.00     0.008 A 
ATOM     97  C   UNL A   1      33.607  19.747  24.288  1.00  0.00     0.270 A 
ATOM     98  C   UNL A   1      35.293  19.798  25.001  1.00  0.00     0.085 A 
BRANCH  97  99
ATOM     99  N   UNL A   1      32.781  18.565  24.441  1.00  0.00     0.062 N 
ATOM    100  O   UNL A   1      32.834  17.729  23.533  1.00  0.00    -0.258 OA
ATOM    101  O   UNL A   1      32.153  18.453  25.499  1.00  0.00    -0.258 OA
ENDBRANCH  97  99
ENDBRANCH  90  93
ENDBRANCH  87  89
ENDBRANCH  85  87
ENDBRANCH  79  85
ENDBRANCH   2  77
TORSDOF 15
ENDMDL
