MODEL 1
REMARK VINA RESULT:     -13.3      0.000      0.000
REMARK SMILES Cc1ccc(S(=O)(=O)n2cc(C(=O)C(=O)NCC(=O)NCC(=O)NCCCNC(=O)c3ccc(-c4c5nc(c(-c6c(F)c(F)c(F)c(F)c6F)c6ccc([nH]6)c(-c6c(F)c(F)c(F)c(F)c6F)c6nc(c(-c7c(F)c(F)c(F)c(F)c7F)c7ccc4[nH]7)C=C6)C=C5)cc3)c3ccccc32)cc1
REMARK SMILES IDX 22 1 23 2 24 3 21 5 20 6 18 7 19 8 17 10 16 11 14 12 15 13
REMARK SMILES IDX 12 15 13 16 11 17 9 18 10 19 99 20 94 21 98 22 95 23 97 24
REMARK SMILES IDX 96 25 6 26 7 27 8 28 5 29 1 30 2 31 3 32 101 33 4 34 100 35
REMARK SMILES IDX 25 36 26 37 27 38 28 39 29 40 30 42 31 43 32 44 93 45 33 46
REMARK SMILES IDX 92 47 34 48 35 49 36 50 86 51 37 52 91 53 85 54 87 55 38 56
REMARK SMILES IDX 90 57 84 58 83 59 39 61 71 62 51 63 70 64 52 65 55 66 69 67
REMARK SMILES IDX 88 68 53 69 54 70 68 72 89 73 56 74 40 75 41 76 49 77 42 78
REMARK SMILES IDX 43 79 47 80 50 81 44 82 45 83 48 84 46 85 72 86 73 87 81 88
REMARK SMILES IDX 74 89 75 90 79 91 82 92 76 93 77 94 80 95 78 96 57 97 58 98
REMARK SMILES IDX 66 99 59 100 60 101 64 102 67 103 61 104 62 105 65 106
REMARK SMILES IDX 63 107
REMARK H PARENT 24 4 20 9 16 14 28 41 87 60 55 71
REMARK Flexibility Score: inf
ROOT
ATOM      1  C   UNL A   1      33.061  31.293  27.304  1.00  0.00     0.239 C 
ATOM      2  O   UNL A   1      31.985  30.695  27.252  1.00  0.00    -0.273 OA
ATOM      3  N   UNL A   1      33.044  32.622  27.640  1.00  0.00    -0.355 N 
ATOM      4  H   UNL A   1      32.164  33.064  27.629  1.00  0.00     0.163 HD
ENDROOT
BRANCH   1   5
ATOM      5  C   UNL A   1      34.402  30.550  27.117  1.00  0.00     0.216 C 
BRANCH   5   6
ATOM      6  N   UNL A   1      34.230  29.115  26.951  1.00  0.00    -0.346 N 
ATOM      7  C   UNL A   1      33.714  28.362  25.943  1.00  0.00     0.239 C 
ATOM      8  O   UNL A   1      33.624  27.147  26.145  1.00  0.00    -0.273 OA
ATOM      9  H   UNL A   1      34.549  28.585  27.717  1.00  0.00     0.164 HD
BRANCH   7  10
ATOM     10  C   UNL A   1      33.271  28.954  24.595  1.00  0.00     0.216 C 
BRANCH  10  11
ATOM     11  N   UNL A   1      31.927  29.531  24.558  1.00  0.00    -0.340 N 
ATOM     12  C   UNL A   1      30.821  29.226  23.787  1.00  0.00     0.292 C 
ATOM     13  O   UNL A   1      29.826  29.937  23.871  1.00  0.00    -0.265 OA
ATOM     14  H   UNL A   1      31.786  30.267  25.196  1.00  0.00     0.164 HD
BRANCH  12  15
ATOM     15  C   UNL A   1      30.847  28.035  22.810  1.00  0.00     0.252 C 
ATOM     16  O   UNL A   1      30.417  28.235  21.676  1.00  0.00    -0.283 OA
BRANCH  15  17
ATOM     17  C   UNL A   1      31.345  26.702  23.167  1.00  0.00     0.054 A 
ATOM     18  N   UNL A   1      32.396  24.732  23.221  1.00  0.00    -0.240 N 
ATOM     19  C   UNL A   1      32.269  25.905  22.512  1.00  0.00     0.117 A 
ATOM     20  C   UNL A   1      31.583  24.727  24.335  1.00  0.00     0.065 A 
ATOM     21  C   UNL A   1      30.914  25.957  24.321  1.00  0.00     0.012 A 
ATOM     22  C   UNL A   1      31.336  23.766  25.332  1.00  0.00     0.028 A 
ATOM     23  C   UNL A   1      29.982  26.229  25.347  1.00  0.00     0.011 A 
ATOM     24  C   UNL A   1      30.384  24.056  26.315  1.00  0.00     0.002 A 
ATOM     25  C   UNL A   1      29.718  25.274  26.328  1.00  0.00     0.001 A 
BRANCH  18  26
ATOM     26  S   UNL A   1      33.349  23.408  22.719  1.00  0.00     0.268 S 
ATOM     27  O   UNL A   1      33.670  23.673  21.335  1.00  0.00    -0.201 OA
ATOM     28  O   UNL A   1      32.613  22.219  23.126  1.00  0.00    -0.201 OA
BRANCH  26  29
ATOM     29  C   UNL A   1      34.862  23.437  23.647  1.00  0.00     0.088 A 
ATOM     30  C   UNL A   1      38.333  23.431  26.192  1.00  0.00     0.044 C 
ATOM     31  C   UNL A   1      37.131  23.444  25.293  1.00  0.00    -0.051 A 
ATOM     32  C   UNL A   1      35.995  24.179  25.654  1.00  0.00     0.005 A 
ATOM     33  C   UNL A   1      37.129  22.731  24.088  1.00  0.00     0.005 A 
ATOM     34  C   UNL A   1      34.861  24.171  24.838  1.00  0.00     0.022 A 
ATOM     35  C   UNL A   1      36.004  22.735  23.258  1.00  0.00     0.022 A 
ENDBRANCH  26  29
ENDBRANCH  18  26
ENDBRANCH  15  17
ENDBRANCH  12  15
ENDBRANCH  10  11
ENDBRANCH   7  10
ENDBRANCH   5   6
ENDBRANCH   1   5
BRANCH   3  36
ATOM     36  C   UNL A   1      34.173  33.444  28.010  1.00  0.00     0.117 C 
BRANCH  36  37
ATOM     37  C   UNL A   1      33.774  34.803  28.558  1.00  0.00     0.042 C 
BRANCH  37  38
ATOM     38  C   UNL A   1      33.268  34.710  29.977  1.00  0.00     0.118 C 
BRANCH  38  39
ATOM     39  N   UNL A   1      34.178  35.269  30.970  1.00  0.00    -0.352 N 
ATOM     40  C   UNL A   1      35.155  34.644  31.726  1.00  0.00     0.251 C 
ATOM     41  H   UNL A   1      34.084  36.236  31.124  1.00  0.00     0.163 HD
ATOM     42  O   UNL A   1      35.683  35.253  32.652  1.00  0.00    -0.269 OA
BRANCH  40  43
ATOM     43  C   UNL A   1      35.716  33.341  31.285  1.00  0.00     0.039 A 
ATOM     44  C   UNL A   1      35.744  32.329  32.257  1.00  0.00     0.014 A 
ATOM     45  C   UNL A   1      36.590  33.296  30.213  1.00  0.00     0.014 A 
ATOM     46  C   UNL A   1      36.857  31.507  32.339  1.00  0.00     0.010 A 
ATOM     47  C   UNL A   1      37.784  32.672  30.420  1.00  0.00     0.010 A 
ATOM     48  C   UNL A   1      37.923  31.811  31.509  1.00  0.00    -0.014 A 
BRANCH  48  49
ATOM     49  C   UNL A   1      39.233  31.219  31.583  1.00  0.00     0.031 A 
ATOM     50  C   UNL A   1      39.417  29.987  30.800  1.00  0.00     0.074 A 
ATOM     51  C   UNL A   1      40.226  31.973  32.101  1.00  0.00     0.049 A 
ATOM     52  N   UNL A   1      40.423  29.207  30.921  1.00  0.00    -0.248 NA
ATOM     53  C   UNL A   1      38.451  29.517  29.802  1.00  0.00     0.031 C 
ATOM     54  C   UNL A   1      41.668  31.821  31.943  1.00  0.00     0.029 A 
ATOM     55  N   UNL A   1      40.099  32.993  33.063  1.00  0.00    -0.354 N 
ATOM     56  C   UNL A   1      40.411  28.350  29.842  1.00  0.00     0.074 A 
ATOM     57  C   UNL A   1      39.127  28.524  29.218  1.00  0.00     0.031 C 
ATOM     58  C   UNL A   1      42.284  32.430  32.975  1.00  0.00     0.029 A 
ATOM     59  C   UNL A   1      41.241  32.862  33.890  1.00  0.00     0.049 A 
ATOM     60  H   UNL A   1      39.373  33.652  33.143  1.00  0.00     0.167 HD
ATOM     61  C   UNL A   1      41.572  27.713  29.534  1.00  0.00     0.037 A 
ATOM     62  C   UNL A   1      41.099  32.420  35.175  1.00  0.00     0.037 A 
ATOM     63  C   UNL A   1      42.585  28.046  30.529  1.00  0.00     0.049 A 
ATOM     64  C   UNL A   1      41.768  31.080  35.386  1.00  0.00     0.074 A 
ATOM     65  C   UNL A   1      43.565  29.026  30.566  1.00  0.00     0.029 A 
ATOM     66  N   UNL A   1      42.374  27.648  31.842  1.00  0.00    -0.354 N 
ATOM     67  N   UNL A   1      41.952  30.197  34.439  1.00  0.00    -0.248 NA
ATOM     68  C   UNL A   1      42.357  30.669  36.655  1.00  0.00     0.031 C 
ATOM     69  C   UNL A   1      43.911  29.244  31.926  1.00  0.00     0.029 A 
ATOM     70  C   UNL A   1      43.148  28.393  32.709  1.00  0.00     0.049 A 
ATOM     71  H   UNL A   1      41.756  26.933  32.118  1.00  0.00     0.167 HD
ATOM     72  C   UNL A   1      42.708  29.158  34.923  1.00  0.00     0.074 A 
ATOM     73  C   UNL A   1      42.926  29.498  36.316  1.00  0.00     0.031 C 
ATOM     74  C   UNL A   1      43.123  28.117  34.134  1.00  0.00     0.037 A 
BRANCH  61  75
ATOM     75  C   UNL A   1      41.867  27.017  28.235  1.00  0.00     0.064 A 
ATOM     76  C   UNL A   1      42.100  27.774  27.066  1.00  0.00     0.173 A 
ATOM     77  C   UNL A   1      41.937  25.623  28.069  1.00  0.00     0.173 A 
ATOM     78  F   UNL A   1      42.084  29.113  27.082  1.00  0.00    -0.203 F 
ATOM     79  C   UNL A   1      42.347  27.185  25.826  1.00  0.00     0.198 A 
ATOM     80  C   UNL A   1      42.146  25.032  26.817  1.00  0.00     0.198 A 
ATOM     81  F   UNL A   1      41.850  24.790  29.113  1.00  0.00    -0.203 F 
ATOM     82  F   UNL A   1      42.570  27.961  24.757  1.00  0.00    -0.200 F 
ATOM     83  C   UNL A   1      42.356  25.813  25.696  1.00  0.00     0.200 A 
ATOM     84  F   UNL A   1      42.153  23.696  26.704  1.00  0.00    -0.200 F 
ATOM     85  F   UNL A   1      42.581  25.247  24.504  1.00  0.00    -0.200 F 
ENDBRANCH  61  75
BRANCH  62  86
ATOM     86  C   UNL A   1      39.820  32.909  35.780  1.00  0.00     0.064 A 
ATOM     87  C   UNL A   1      38.862  31.922  36.103  1.00  0.00     0.173 A 
ATOM     88  C   UNL A   1      39.748  34.121  36.476  1.00  0.00     0.173 A 
ATOM     89  F   UNL A   1      38.865  30.750  35.444  1.00  0.00    -0.203 F 
ATOM     90  C   UNL A   1      38.027  32.054  37.210  1.00  0.00     0.198 A 
ATOM     91  C   UNL A   1      38.868  34.269  37.556  1.00  0.00     0.198 A 
ATOM     92  F   UNL A   1      40.613  35.110  36.212  1.00  0.00    -0.203 F 
ATOM     93  F   UNL A   1      37.271  31.019  37.607  1.00  0.00    -0.200 F 
ATOM     94  C   UNL A   1      38.061  33.215  37.961  1.00  0.00     0.200 A 
ATOM     95  F   UNL A   1      38.884  35.398  38.279  1.00  0.00    -0.200 F 
ATOM     96  F   UNL A   1      37.353  33.301  39.096  1.00  0.00    -0.200 F 
ENDBRANCH  62  86
BRANCH  74  97
ATOM     97  C   UNL A   1      43.636  26.764  34.597  1.00  0.00     0.064 A 
ATOM     98  C   UNL A   1      44.987  26.467  34.820  1.00  0.00     0.173 A 
ATOM     99  C   UNL A   1      42.727  25.748  35.006  1.00  0.00     0.173 A 
ATOM    100  F   UNL A   1      45.951  27.369  34.608  1.00  0.00    -0.203 F 
ATOM    101  C   UNL A   1      45.400  25.238  35.343  1.00  0.00     0.198 A 
ATOM    102  C   UNL A   1      43.138  24.564  35.612  1.00  0.00     0.198 A 
ATOM    103  F   UNL A   1      41.399  25.876  34.868  1.00  0.00    -0.203 F 
ATOM    104  F   UNL A   1      46.711  24.986  35.475  1.00  0.00    -0.200 F 
ATOM    105  C   UNL A   1      44.479  24.297  35.758  1.00  0.00     0.200 A 
ATOM    106  F   UNL A   1      42.222  23.700  36.073  1.00  0.00    -0.200 F 
ATOM    107  F   UNL A   1      44.880  23.149  36.316  1.00  0.00    -0.200 F 
ENDBRANCH  74  97
ENDBRANCH  48  49
ENDBRANCH  40  43
ENDBRANCH  38  39
ENDBRANCH  37  38
ENDBRANCH  36  37
ENDBRANCH   3  36
TORSDOF 17
ENDMDL
MODEL 2
REMARK VINA RESULT:     -13.2      2.413      3.616
REMARK SMILES Cc1ccc(S(=O)(=O)n2cc(C(=O)C(=O)NCC(=O)NCC(=O)NCCCNC(=O)c3ccc(-c4c5nc(c(-c6c(F)c(F)c(F)c(F)c6F)c6ccc([nH]6)c(-c6c(F)c(F)c(F)c(F)c6F)c6nc(c(-c7c(F)c(F)c(F)c(F)c7F)c7ccc4[nH]7)C=C6)C=C5)cc3)c3ccccc32)cc1
REMARK SMILES IDX 22 1 23 2 24 3 21 5 20 6 18 7 19 8 17 10 16 11 14 12 15 13
REMARK SMILES IDX 12 15 13 16 11 17 9 18 10 19 99 20 94 21 98 22 95 23 97 24
REMARK SMILES IDX 96 25 6 26 7 27 8 28 5 29 1 30 2 31 3 32 101 33 4 34 100 35
REMARK SMILES IDX 25 36 26 37 27 38 28 39 29 40 30 42 31 43 32 44 93 45 33 46
REMARK SMILES IDX 92 47 34 48 35 49 36 50 86 51 37 52 91 53 85 54 87 55 38 56
REMARK SMILES IDX 90 57 84 58 83 59 39 61 71 62 51 63 70 64 52 65 55 66 69 67
REMARK SMILES IDX 88 68 53 69 54 70 68 72 89 73 56 74 40 75 41 76 49 77 42 78
REMARK SMILES IDX 43 79 47 80 50 81 44 82 45 83 48 84 46 85 72 86 73 87 81 88
REMARK SMILES IDX 74 89 75 90 79 91 82 92 76 93 77 94 80 95 78 96 57 97 58 98
REMARK SMILES IDX 66 99 59 100 60 101 64 102 67 103 61 104 62 105 65 106
REMARK SMILES IDX 63 107
REMARK H PARENT 24 4 20 9 16 14 28 41 87 60 55 71
REMARK Flexibility Score: inf
ROOT
ATOM      1  C   UNL A   1      32.405  28.434  27.280  1.00  0.00     0.239 C 
ATOM      2  O   UNL A   1      31.412  27.899  27.777  1.00  0.00    -0.273 OA
ATOM      3  N   UNL A   1      32.677  29.732  27.625  1.00  0.00    -0.355 N 
ATOM      4  H   UNL A   1      31.961  30.220  28.093  1.00  0.00     0.163 HD
ENDROOT
BRANCH   1   5
ATOM      5  C   UNL A   1      33.384  27.637  26.390  1.00  0.00     0.216 C 
BRANCH   5   6
ATOM      6  N   UNL A   1      33.552  28.228  25.071  1.00  0.00    -0.346 N 
ATOM      7  C   UNL A   1      32.692  28.867  24.235  1.00  0.00     0.239 C 
ATOM      8  O   UNL A   1      33.125  29.179  23.121  1.00  0.00    -0.273 OA
ATOM      9  H   UNL A   1      34.466  28.148  24.714  1.00  0.00     0.164 HD
BRANCH   7  10
ATOM     10  C   UNL A   1      31.248  29.221  24.626  1.00  0.00     0.216 C 
BRANCH  10  11
ATOM     11  N   UNL A   1      30.301  29.370  23.521  1.00  0.00    -0.340 N 
ATOM     12  C   UNL A   1      29.374  28.495  22.986  1.00  0.00     0.292 C 
ATOM     13  O   UNL A   1      28.762  28.825  21.975  1.00  0.00    -0.265 OA
ATOM     14  H   UNL A   1      30.329  30.250  23.080  1.00  0.00     0.164 HD
BRANCH  12  15
ATOM     15  C   UNL A   1      29.136  27.114  23.624  1.00  0.00     0.252 C 
ATOM     16  O   UNL A   1      27.971  26.804  23.866  1.00  0.00    -0.283 OA
BRANCH  15  17
ATOM     17  C   UNL A   1      30.213  26.175  23.956  1.00  0.00     0.054 A 
ATOM     18  N   UNL A   1      31.610  24.762  24.978  1.00  0.00    -0.240 N 
ATOM     19  C   UNL A   1      30.480  25.529  25.152  1.00  0.00     0.117 A 
ATOM     20  C   UNL A   1      32.101  24.876  23.695  1.00  0.00     0.065 A 
ATOM     21  C   UNL A   1      31.238  25.758  23.034  1.00  0.00     0.012 A 
ATOM     22  C   UNL A   1      33.228  24.330  23.052  1.00  0.00     0.028 A 
ATOM     23  C   UNL A   1      31.510  26.086  21.687  1.00  0.00     0.011 A 
ATOM     24  C   UNL A   1      33.484  24.700  21.729  1.00  0.00     0.002 A 
ATOM     25  C   UNL A   1      32.635  25.564  21.051  1.00  0.00     0.001 A 
BRANCH  18  26
ATOM     26  S   UNL A   1      32.369  23.879  26.225  1.00  0.00     0.268 S 
ATOM     27  O   UNL A   1      31.349  23.690  27.232  1.00  0.00    -0.201 OA
ATOM     28  O   UNL A   1      33.610  24.587  26.507  1.00  0.00    -0.201 OA
BRANCH  26  29
ATOM     29  C   UNL A   1      32.804  22.283  25.582  1.00  0.00     0.088 A 
ATOM     30  C   UNL A   1      34.049  18.359  24.326  1.00  0.00     0.044 C 
ATOM     31  C   UNL A   1      33.613  19.733  24.746  1.00  0.00    -0.051 A 
ATOM     32  C   UNL A   1      34.556  20.651  25.225  1.00  0.00     0.005 A 
ATOM     33  C   UNL A   1      32.268  20.115  24.664  1.00  0.00     0.005 A 
ATOM     34  C   UNL A   1      34.153  21.920  25.648  1.00  0.00     0.022 A 
ATOM     35  C   UNL A   1      31.863  21.390  25.068  1.00  0.00     0.022 A 
ENDBRANCH  26  29
ENDBRANCH  18  26
ENDBRANCH  15  17
ENDBRANCH  12  15
ENDBRANCH  10  11
ENDBRANCH   7  10
ENDBRANCH   5   6
ENDBRANCH   1   5
BRANCH   3  36
ATOM     36  C   UNL A   1      33.900  30.463  27.379  1.00  0.00     0.117 C 
BRANCH  36  37
ATOM     37  C   UNL A   1      33.774  31.953  27.646  1.00  0.00     0.042 C 
BRANCH  37  38
ATOM     38  C   UNL A   1      35.111  32.582  27.953  1.00  0.00     0.118 C 
BRANCH  38  39
ATOM     39  N   UNL A   1      35.407  32.683  29.378  1.00  0.00    -0.352 N 
ATOM     40  C   UNL A   1      35.904  31.728  30.248  1.00  0.00     0.251 C 
ATOM     41  H   UNL A   1      35.227  33.562  29.780  1.00  0.00     0.163 HD
ATOM     42  O   UNL A   1      35.898  31.950  31.455  1.00  0.00    -0.269 OA
BRANCH  40  43
ATOM     43  C   UNL A   1      36.639  30.551  29.718  1.00  0.00     0.039 A 
ATOM     44  C   UNL A   1      36.728  29.448  30.582  1.00  0.00     0.014 A 
ATOM     45  C   UNL A   1      37.574  30.720  28.711  1.00  0.00     0.014 A 
ATOM     46  C   UNL A   1      37.922  28.750  30.658  1.00  0.00     0.010 A 
ATOM     47  C   UNL A   1      38.819  30.212  28.939  1.00  0.00     0.010 A 
ATOM     48  C   UNL A   1      38.993  29.258  29.942  1.00  0.00    -0.014 A 
BRANCH  48  49
ATOM     49  C   UNL A   1      40.357  28.809  30.049  1.00  0.00     0.031 A 
ATOM     50  C   UNL A   1      40.639  27.493  29.455  1.00  0.00     0.074 A 
ATOM     51  C   UNL A   1      41.285  29.725  30.402  1.00  0.00     0.049 A 
ATOM     52  N   UNL A   1      41.720  26.839  29.650  1.00  0.00    -0.248 NA
ATOM     53  C   UNL A   1      39.696  26.784  28.584  1.00  0.00     0.031 C 
ATOM     54  C   UNL A   1      42.729  29.684  30.206  1.00  0.00     0.029 A 
ATOM     55  N   UNL A   1      41.084  30.865  31.201  1.00  0.00    -0.354 N 
ATOM     56  C   UNL A   1      41.763  25.826  28.717  1.00  0.00     0.074 A 
ATOM     57  C   UNL A   1      40.450  25.780  28.130  1.00  0.00     0.031 C 
ATOM     58  C   UNL A   1      43.311  30.502  31.105  1.00  0.00     0.029 A 
ATOM     59  C   UNL A   1      42.257  30.972  31.988  1.00  0.00     0.049 A 
ATOM     60  H   UNL A   1      40.300  31.459  31.211  1.00  0.00     0.167 HD
ATOM     61  C   UNL A   1      42.971  25.260  28.459  1.00  0.00     0.037 A 
ATOM     62  C   UNL A   1      42.196  30.725  33.331  1.00  0.00     0.037 A 
ATOM     63  C   UNL A   1      43.975  25.838  29.347  1.00  0.00     0.049 A 
ATOM     64  C   UNL A   1      43.000  29.503  33.715  1.00  0.00     0.074 A 
ATOM     65  C   UNL A   1      44.853  26.898  29.192  1.00  0.00     0.029 A 
ATOM     66  N   UNL A   1      43.841  25.631  30.714  1.00  0.00    -0.354 N 
ATOM     67  N   UNL A   1      43.243  28.504  32.906  1.00  0.00    -0.248 NA
ATOM     68  C   UNL A   1      43.663  29.352  35.005  1.00  0.00     0.031 C 
ATOM     69  C   UNL A   1      45.214  27.357  30.485  1.00  0.00     0.029 A 
ATOM     70  C   UNL A   1      44.562  26.571  31.421  1.00  0.00     0.049 A 
ATOM     71  H   UNL A   1      43.305  24.913  31.122  1.00  0.00     0.167 HD
ATOM     72  C   UNL A   1      44.112  27.628  33.510  1.00  0.00     0.074 A 
ATOM     73  C   UNL A   1      44.335  28.201  34.824  1.00  0.00     0.031 C 
ATOM     74  C   UNL A   1      44.605  26.521  32.872  1.00  0.00     0.037 A 
BRANCH  61  75
ATOM     75  C   UNL A   1      43.296  24.400  27.271  1.00  0.00     0.064 A 
ATOM     76  C   UNL A   1      42.730  23.112  27.154  1.00  0.00     0.173 A 
ATOM     77  C   UNL A   1      44.148  24.776  26.216  1.00  0.00     0.173 A 
ATOM     78  F   UNL A   1      41.886  22.631  28.076  1.00  0.00    -0.203 F 
ATOM     79  C   UNL A   1      43.019  22.257  26.091  1.00  0.00     0.198 A 
ATOM     80  C   UNL A   1      44.468  23.903  25.170  1.00  0.00     0.198 A 
ATOM     81  F   UNL A   1      44.661  26.011  26.141  1.00  0.00    -0.203 F 
ATOM     82  F   UNL A   1      42.440  21.050  26.036  1.00  0.00    -0.200 F 
ATOM     83  C   UNL A   1      43.900  22.645  25.105  1.00  0.00     0.200 A 
ATOM     84  F   UNL A   1      45.326  24.293  24.217  1.00  0.00    -0.200 F 
ATOM     85  F   UNL A   1      44.188  21.820  24.090  1.00  0.00    -0.200 F 
ENDBRANCH  61  75
BRANCH  62  86
ATOM     86  C   UNL A   1      40.893  31.181  33.908  1.00  0.00     0.064 A 
ATOM     87  C   UNL A   1      40.750  32.572  34.112  1.00  0.00     0.173 A 
ATOM     88  C   UNL A   1      39.718  30.433  33.763  1.00  0.00     0.173 A 
ATOM     89  F   UNL A   1      41.842  33.334  34.289  1.00  0.00    -0.203 F 
ATOM     90  C   UNL A   1      39.520  33.207  33.955  1.00  0.00     0.198 A 
ATOM     91  C   UNL A   1      38.477  31.072  33.659  1.00  0.00     0.198 A 
ATOM     92  F   UNL A   1      39.775  29.106  33.582  1.00  0.00    -0.203 F 
ATOM     93  F   UNL A   1      39.452  34.546  33.958  1.00  0.00    -0.200 F 
ATOM     94  C   UNL A   1      38.389  32.458  33.688  1.00  0.00     0.200 A 
ATOM     95  F   UNL A   1      37.373  30.350  33.416  1.00  0.00    -0.200 F 
ATOM     96  F   UNL A   1      37.228  33.069  33.413  1.00  0.00    -0.200 F 
ENDBRANCH  62  86
BRANCH  74  97
ATOM     97  C   UNL A   1      45.262  25.310  33.513  1.00  0.00     0.064 A 
ATOM     98  C   UNL A   1      46.645  25.090  33.548  1.00  0.00     0.173 A 
ATOM     99  C   UNL A   1      44.493  24.395  34.287  1.00  0.00     0.173 A 
ATOM    100  F   UNL A   1      47.509  25.938  32.978  1.00  0.00    -0.203 F 
ATOM    101  C   UNL A   1      47.208  24.012  34.238  1.00  0.00     0.198 A 
ATOM    102  C   UNL A   1      45.066  23.380  35.047  1.00  0.00     0.198 A 
ATOM    103  F   UNL A   1      43.156  24.469  34.365  1.00  0.00    -0.203 F 
ATOM    104  F   UNL A   1      48.533  23.815  34.184  1.00  0.00    -0.200 F 
ATOM    105  C   UNL A   1      46.424  23.172  35.004  1.00  0.00     0.200 A 
ATOM    106  F   UNL A   1      44.291  22.625  35.839  1.00  0.00    -0.200 F 
ATOM    107  F   UNL A   1      46.977  22.180  35.713  1.00  0.00    -0.200 F 
ENDBRANCH  74  97
ENDBRANCH  48  49
ENDBRANCH  40  43
ENDBRANCH  38  39
ENDBRANCH  37  38
ENDBRANCH  36  37
ENDBRANCH   3  36
TORSDOF 17
ENDMDL
MODEL 3
REMARK VINA RESULT:     -12.3      3.552      9.063
REMARK SMILES Cc1ccc(S(=O)(=O)n2cc(C(=O)C(=O)NCC(=O)NCC(=O)NCCCNC(=O)c3ccc(-c4c5nc(c(-c6c(F)c(F)c(F)c(F)c6F)c6ccc([nH]6)c(-c6c(F)c(F)c(F)c(F)c6F)c6nc(c(-c7c(F)c(F)c(F)c(F)c7F)c7ccc4[nH]7)C=C6)C=C5)cc3)c3ccccc32)cc1
REMARK SMILES IDX 22 1 23 2 24 3 21 5 20 6 18 7 19 8 17 10 16 11 14 12 15 13
REMARK SMILES IDX 12 15 13 16 11 17 9 18 10 19 99 20 94 21 98 22 95 23 97 24
REMARK SMILES IDX 96 25 6 26 7 27 8 28 5 29 1 30 2 31 3 32 101 33 4 34 100 35
REMARK SMILES IDX 25 36 26 37 27 38 28 39 29 40 30 42 31 43 32 44 93 45 33 46
REMARK SMILES IDX 92 47 34 48 35 49 36 50 86 51 37 52 91 53 85 54 87 55 38 56
REMARK SMILES IDX 90 57 84 58 83 59 39 61 71 62 51 63 70 64 52 65 55 66 69 67
REMARK SMILES IDX 88 68 53 69 54 70 68 72 89 73 56 74 40 75 41 76 49 77 42 78
REMARK SMILES IDX 43 79 47 80 50 81 44 82 45 83 48 84 46 85 72 86 73 87 81 88
REMARK SMILES IDX 74 89 75 90 79 91 82 92 76 93 77 94 80 95 78 96 57 97 58 98
REMARK SMILES IDX 66 99 59 100 60 101 64 102 67 103 61 104 62 105 65 106
REMARK SMILES IDX 63 107
REMARK H PARENT 24 4 20 9 16 14 28 41 87 60 55 71
REMARK Flexibility Score: inf
ROOT
ATOM      1  C   UNL A   1      44.038  22.955  25.812  1.00  0.00     0.239 C 
ATOM      2  O   UNL A   1      45.170  22.465  25.807  1.00  0.00    -0.273 OA
ATOM      3  N   UNL A   1      43.913  24.282  26.130  1.00  0.00    -0.355 N 
ATOM      4  H   UNL A   1      44.705  24.714  26.524  1.00  0.00     0.163 HD
ENDROOT
BRANCH   1   5
ATOM      5  C   UNL A   1      42.809  22.139  25.356  1.00  0.00     0.216 C 
BRANCH   5   6
ATOM      6  N   UNL A   1      42.264  21.305  26.416  1.00  0.00    -0.346 N 
ATOM      7  C   UNL A   1      41.043  21.259  27.013  1.00  0.00     0.239 C 
ATOM      8  O   UNL A   1      40.917  20.482  27.965  1.00  0.00    -0.273 OA
ATOM      9  H   UNL A   1      42.903  20.645  26.770  1.00  0.00     0.164 HD
BRANCH   7  10
ATOM     10  C   UNL A   1      39.847  22.104  26.545  1.00  0.00     0.216 C 
BRANCH  10  11
ATOM     11  N   UNL A   1      38.836  21.403  25.754  1.00  0.00    -0.340 N 
ATOM     12  C   UNL A   1      37.582  21.792  25.319  1.00  0.00     0.292 C 
ATOM     13  O   UNL A   1      36.872  20.970  24.750  1.00  0.00    -0.265 OA
ATOM     14  H   UNL A   1      39.095  20.493  25.482  1.00  0.00     0.164 HD
BRANCH  12  15
ATOM     15  C   UNL A   1      37.070  23.221  25.575  1.00  0.00     0.252 C 
ATOM     16  O   UNL A   1      37.846  24.003  26.120  1.00  0.00    -0.283 OA
BRANCH  15  17
ATOM     17  C   UNL A   1      35.724  23.679  25.213  1.00  0.00     0.054 A 
ATOM     18  N   UNL A   1      33.958  24.639  24.237  1.00  0.00    -0.240 N 
ATOM     19  C   UNL A   1      35.320  24.460  24.143  1.00  0.00     0.117 A 
ATOM     20  C   UNL A   1      33.442  23.992  25.340  1.00  0.00     0.065 A 
ATOM     21  C   UNL A   1      34.534  23.381  25.967  1.00  0.00     0.012 A 
ATOM     22  C   UNL A   1      32.143  23.905  25.876  1.00  0.00     0.028 A 
ATOM     23  C   UNL A   1      34.309  22.653  27.157  1.00  0.00     0.011 A 
ATOM     24  C   UNL A   1      31.962  23.203  27.071  1.00  0.00     0.002 A 
ATOM     25  C   UNL A   1      33.028  22.579  27.703  1.00  0.00     0.001 A 
BRANCH  18  26
ATOM     26  S   UNL A   1      33.047  25.630  23.189  1.00  0.00     0.268 S 
ATOM     27  O   UNL A   1      31.785  24.947  23.020  1.00  0.00    -0.201 OA
ATOM     28  O   UNL A   1      33.924  25.919  22.062  1.00  0.00    -0.201 OA
BRANCH  26  29
ATOM     29  C   UNL A   1      32.731  27.165  24.021  1.00  0.00     0.088 A 
ATOM     30  C   UNL A   1      31.633  30.760  26.118  1.00  0.00     0.044 C 
ATOM     31  C   UNL A   1      32.028  29.516  25.377  1.00  0.00    -0.051 A 
ATOM     32  C   UNL A   1      31.177  28.982  24.402  1.00  0.00     0.005 A 
ATOM     33  C   UNL A   1      33.245  28.877  25.645  1.00  0.00     0.005 A 
ATOM     34  C   UNL A   1      31.522  27.807  23.730  1.00  0.00     0.022 A 
ATOM     35  C   UNL A   1      33.605  27.712  24.962  1.00  0.00     0.022 A 
ENDBRANCH  26  29
ENDBRANCH  18  26
ENDBRANCH  15  17
ENDBRANCH  12  15
ENDBRANCH  10  11
ENDBRANCH   7  10
ENDBRANCH   5   6
ENDBRANCH   1   5
BRANCH   3  36
ATOM     36  C   UNL A   1      42.747  25.118  25.950  1.00  0.00     0.117 C 
BRANCH  36  37
ATOM     37  C   UNL A   1      42.241  25.732  27.243  1.00  0.00     0.042 C 
BRANCH  37  38
ATOM     38  C   UNL A   1      40.739  25.875  27.246  1.00  0.00     0.118 C 
BRANCH  38  39
ATOM     39  N   UNL A   1      40.267  27.188  26.824  1.00  0.00    -0.352 N 
ATOM     40  C   UNL A   1      40.050  28.333  27.570  1.00  0.00     0.251 C 
ATOM     41  H   UNL A   1      40.074  27.272  25.862  1.00  0.00     0.163 HD
ATOM     42  O   UNL A   1      39.461  29.283  27.062  1.00  0.00    -0.269 OA
BRANCH  40  43
ATOM     43  C   UNL A   1      40.714  28.498  28.888  1.00  0.00     0.039 A 
ATOM     44  C   UNL A   1      39.961  28.104  30.005  1.00  0.00     0.014 A 
ATOM     45  C   UNL A   1      41.737  29.420  29.032  1.00  0.00     0.014 A 
ATOM     46  C   UNL A   1      39.995  28.887  31.148  1.00  0.00     0.010 A 
ATOM     47  C   UNL A   1      41.606  30.328  30.041  1.00  0.00     0.010 A 
ATOM     48  C   UNL A   1      40.703  30.075  31.073  1.00  0.00    -0.014 A 
BRANCH  48  49
ATOM     49  C   UNL A   1      40.692  31.117  32.067  1.00  0.00     0.031 A 
ATOM     50  C   UNL A   1      41.617  30.927  33.195  1.00  0.00     0.074 A 
ATOM     51  C   UNL A   1      40.078  32.275  31.744  1.00  0.00     0.049 A 
ATOM     52  N   UNL A   1      41.585  31.618  34.270  1.00  0.00    -0.248 NA
ATOM     53  C   UNL A   1      42.672  29.908  33.207  1.00  0.00     0.031 C 
ATOM     54  C   UNL A   1      40.243  33.595  32.342  1.00  0.00     0.029 A 
ATOM     55  N   UNL A   1      39.001  32.441  30.854  1.00  0.00    -0.354 N 
ATOM     56  C   UNL A   1      42.759  31.379  34.949  1.00  0.00     0.074 A 
ATOM     57  C   UNL A   1      43.367  30.251  34.295  1.00  0.00     0.031 C 
ATOM     58  C   UNL A   1      39.140  34.326  32.089  1.00  0.00     0.029 A 
ATOM     59  C   UNL A   1      38.187  33.438  31.444  1.00  0.00     0.049 A 
ATOM     60  H   UNL A   1      38.846  31.966  30.006  1.00  0.00     0.167 HD
ATOM     61  C   UNL A   1      43.134  32.283  35.893  1.00  0.00     0.037 A 
ATOM     62  C   UNL A   1      36.966  33.100  31.957  1.00  0.00     0.037 A 
ATOM     63  C   UNL A   1      42.098  33.302  36.024  1.00  0.00     0.049 A 
ATOM     64  C   UNL A   1      36.914  33.287  33.457  1.00  0.00     0.074 A 
ATOM     65  C   UNL A   1      41.934  34.544  35.431  1.00  0.00     0.029 A 
ATOM     66  N   UNL A   1      40.845  32.911  36.476  1.00  0.00    -0.354 N 
ATOM     67  N   UNL A   1      37.961  33.218  34.239  1.00  0.00    -0.248 NA
ATOM     68  C   UNL A   1      35.700  33.650  34.178  1.00  0.00     0.031 C 
ATOM     69  C   UNL A   1      40.556  34.877  35.493  1.00  0.00     0.029 A 
ATOM     70  C   UNL A   1      39.888  33.844  36.129  1.00  0.00     0.049 A 
ATOM     71  H   UNL A   1      40.662  32.082  36.975  1.00  0.00     0.167 HD
ATOM     72  C   UNL A   1      37.601  33.573  35.516  1.00  0.00     0.074 A 
ATOM     73  C   UNL A   1      36.175  33.824  35.424  1.00  0.00     0.031 C 
ATOM     74  C   UNL A   1      38.507  33.664  36.539  1.00  0.00     0.037 A 
BRANCH  61  75
ATOM     75  C   UNL A   1      44.505  32.397  36.496  1.00  0.00     0.064 A 
ATOM     76  C   UNL A   1      44.933  31.458  37.461  1.00  0.00     0.173 A 
ATOM     77  C   UNL A   1      45.444  33.393  36.175  1.00  0.00     0.173 A 
ATOM     78  F   UNL A   1      44.149  30.443  37.847  1.00  0.00    -0.203 F 
ATOM     79  C   UNL A   1      46.181  31.530  38.079  1.00  0.00     0.198 A 
ATOM     80  C   UNL A   1      46.681  33.488  36.824  1.00  0.00     0.198 A 
ATOM     81  F   UNL A   1      45.215  34.278  35.196  1.00  0.00    -0.203 F 
ATOM     82  F   UNL A   1      46.529  30.601  38.979  1.00  0.00    -0.200 F 
ATOM     83  C   UNL A   1      47.051  32.554  37.772  1.00  0.00     0.200 A 
ATOM     84  F   UNL A   1      47.519  34.489  36.516  1.00  0.00    -0.200 F 
ATOM     85  F   UNL A   1      48.245  32.631  38.375  1.00  0.00    -0.200 F 
ENDBRANCH  61  75
BRANCH  62  86
ATOM     86  C   UNL A   1      36.316  32.022  31.146  1.00  0.00     0.064 A 
ATOM     87  C   UNL A   1      35.793  32.410  29.893  1.00  0.00     0.173 A 
ATOM     88  C   UNL A   1      36.651  30.672  31.310  1.00  0.00     0.173 A 
ATOM     89  F   UNL A   1      35.427  33.687  29.690  1.00  0.00    -0.203 F 
ATOM     90  C   UNL A   1      35.814  31.548  28.798  1.00  0.00     0.198 A 
ATOM     91  C   UNL A   1      36.620  29.796  30.218  1.00  0.00     0.198 A 
ATOM     92  F   UNL A   1      37.138  30.228  32.477  1.00  0.00    -0.203 F 
ATOM     93  F   UNL A   1      35.497  32.006  27.578  1.00  0.00    -0.200 F 
ATOM     94  C   UNL A   1      36.267  30.251  28.954  1.00  0.00     0.200 A 
ATOM     95  F   UNL A   1      37.042  28.532  30.365  1.00  0.00    -0.200 F 
ATOM     96  F   UNL A   1      36.407  29.456  27.884  1.00  0.00    -0.200 F 
ENDBRANCH  62  86
BRANCH  74  97
ATOM     97  C   UNL A   1      38.208  33.686  38.029  1.00  0.00     0.064 A 
ATOM     98  C   UNL A   1      37.698  32.596  38.747  1.00  0.00     0.173 A 
ATOM     99  C   UNL A   1      38.606  34.794  38.829  1.00  0.00     0.173 A 
ATOM    100  F   UNL A   1      37.401  31.436  38.151  1.00  0.00    -0.203 F 
ATOM    101  C   UNL A   1      37.535  32.633  40.135  1.00  0.00     0.198 A 
ATOM    102  C   UNL A   1      38.528  34.790  40.219  1.00  0.00     0.198 A 
ATOM    103  F   UNL A   1      39.119  35.914  38.300  1.00  0.00    -0.203 F 
ATOM    104  F   UNL A   1      36.982  31.583  40.760  1.00  0.00    -0.200 F 
ATOM    105  C   UNL A   1      37.968  33.717  40.872  1.00  0.00     0.200 A 
ATOM    106  F   UNL A   1      39.022  35.822  40.916  1.00  0.00    -0.200 F 
ATOM    107  F   UNL A   1      37.867  33.719  42.207  1.00  0.00    -0.200 F 
ENDBRANCH  74  97
ENDBRANCH  48  49
ENDBRANCH  40  43
ENDBRANCH  38  39
ENDBRANCH  37  38
ENDBRANCH  36  37
ENDBRANCH   3  36
TORSDOF 17
ENDMDL
