MODEL 1
REMARK VINA RESULT:     -14.8      0.000      0.000
REMARK SMILES CC1=Nc2c(c(C)nn2-c2ccc(F)cc2)[C@H](c2ccc(C(=O)NCCCNC(=O)c3ccc(-c4c5nc(c(-c6c(F)c(F)c(F)c(F)c6F)c6ccc([nH]6)c(-c6c(F)c(F)c(F)c(F)c6F)c6nc(c(-c7c(F)c(F)c(F)c(F)c7F)c7ccc4[nH]7)C=C6)C=C5)cc3)cc2)S1
REMARK SMILES IDX 26 1 25 2 24 3 22 4 23 5 21 7 18 8 19 9 95 10 20 11 94 12
REMARK SMILES IDX 17 13 1 14 2 15 3 16 96 17 4 18 5 19 9 20 6 21 8 22 7 23
REMARK SMILES IDX 10 24 11 25 16 26 12 27 15 28 13 29 14 30 27 31 28 32 29 33
REMARK SMILES IDX 30 35 31 36 32 37 93 38 33 39 92 40 34 41 35 42 36 43 86 44
REMARK SMILES IDX 37 45 91 46 85 47 87 48 38 49 90 50 84 51 83 52 39 54 71 55
REMARK SMILES IDX 51 56 70 57 52 58 55 59 69 60 88 61 53 62 54 63 68 65 89 66
REMARK SMILES IDX 56 67 40 68 41 69 49 70 42 71 43 72 47 73 50 74 44 75 45 76
REMARK SMILES IDX 48 77 46 78 72 79 73 80 81 81 74 82 75 83 79 84 82 85 76 86
REMARK SMILES IDX 77 87 80 88 78 89 57 90 58 91 66 92 59 93 60 94 64 95 67 96
REMARK SMILES IDX 61 97 62 98 65 99 63 100
REMARK H PARENT 24 6 28 34 87 53 55 64
REMARK Flexibility Score: inf
ROOT
ATOM      1  C   UNL A   1      37.140  21.792  24.924  1.00  0.00     0.042 C 
ENDROOT
BRANCH   1   2
ATOM      2  C   UNL A   1      35.995  21.377  25.857  1.00  0.00     0.118 C 
BRANCH   2   3
ATOM      3  N   UNL A   1      35.234  20.259  25.320  1.00  0.00    -0.352 N 
ATOM      4  C   UNL A   1      34.037  20.224  24.646  1.00  0.00     0.251 C 
ATOM      5  O   UNL A   1      33.644  19.145  24.206  1.00  0.00    -0.269 OA
ATOM      6  H   UNL A   1      35.649  19.378  25.462  1.00  0.00     0.163 HD
BRANCH   4   7
ATOM      7  C   UNL A   1      33.243  21.451  24.384  1.00  0.00     0.039 A 
ATOM      8  C   UNL A   1      31.854  23.863  23.849  1.00  0.00    -0.030 A 
ATOM      9  C   UNL A   1      33.129  23.621  23.303  1.00  0.00     0.006 A 
ATOM     10  C   UNL A   1      31.277  22.853  24.633  1.00  0.00     0.006 A 
ATOM     11  C   UNL A   1      33.807  22.425  23.554  1.00  0.00     0.014 A 
ATOM     12  C   UNL A   1      31.959  21.660  24.885  1.00  0.00     0.014 A 
BRANCH   8  13
ATOM     13  C   UNL A   1      31.128  25.158  23.513  1.00  0.00     0.119 C 
ATOM     14  C   UNL A   1      33.935  27.598  21.671  1.00  0.00     0.075 C 
ATOM     15  C   UNL A   1      32.891  27.131  22.653  1.00  0.00     0.074 C 
ATOM     16  N   UNL A   1      32.937  27.603  23.858  1.00  0.00    -0.227 NA
ATOM     17  S   UNL A   1      31.735  25.976  22.001  1.00  0.00    -0.098 SA
ATOM     18  C   UNL A   1      32.065  27.122  24.775  1.00  0.00     0.161 A 
ATOM     19  C   UNL A   1      31.254  26.012  24.716  1.00  0.00     0.038 A 
ATOM     20  N   UNL A   1      31.928  27.634  26.056  1.00  0.00    -0.215 N 
ATOM     21  C   UNL A   1      30.668  25.916  26.004  1.00  0.00     0.067 A 
ATOM     22  N   UNL A   1      31.163  26.835  26.842  1.00  0.00    -0.171 NA
ATOM     23  C   UNL A   1      29.669  24.936  26.501  1.00  0.00     0.069 C 
BRANCH  20  24
ATOM     24  C   UNL A   1      32.479  28.836  26.557  1.00  0.00     0.067 A 
ATOM     25  C   UNL A   1      31.778  30.042  26.398  1.00  0.00     0.031 A 
ATOM     26  C   UNL A   1      33.723  28.813  27.199  1.00  0.00     0.031 A 
ATOM     27  C   UNL A   1      32.331  31.228  26.876  1.00  0.00     0.041 A 
ATOM     28  C   UNL A   1      34.292  30.013  27.626  1.00  0.00     0.041 A 
ATOM     29  C   UNL A   1      33.590  31.206  27.467  1.00  0.00     0.123 A 
ATOM     30  F   UNL A   1      34.136  32.354  27.887  1.00  0.00    -0.207 F 
ENDBRANCH  20  24
ENDBRANCH   8  13
ENDBRANCH   4   7
ENDBRANCH   2   3
ENDBRANCH   1   2
BRANCH   1  31
ATOM     31  C   UNL A   1      38.174  22.655  25.624  1.00  0.00     0.118 C 
BRANCH  31  32
ATOM     32  N   UNL A   1      39.074  21.875  26.474  1.00  0.00    -0.352 N 
ATOM     33  C   UNL A   1      40.177  22.312  27.187  1.00  0.00     0.251 C 
ATOM     34  H   UNL A   1      38.868  20.915  26.550  1.00  0.00     0.163 HD
ATOM     35  O   UNL A   1      41.035  21.533  27.563  1.00  0.00    -0.269 OA
BRANCH  33  36
ATOM     36  C   UNL A   1      40.293  23.752  27.476  1.00  0.00     0.039 A 
ATOM     37  C   UNL A   1      39.193  24.608  27.387  1.00  0.00     0.014 A 
ATOM     38  C   UNL A   1      41.532  24.225  27.893  1.00  0.00     0.014 A 
ATOM     39  C   UNL A   1      39.340  25.928  27.803  1.00  0.00     0.010 A 
ATOM     40  C   UNL A   1      41.617  25.449  28.495  1.00  0.00     0.010 A 
ATOM     41  C   UNL A   1      40.555  26.334  28.379  1.00  0.00    -0.014 A 
BRANCH  41  42
ATOM     42  C   UNL A   1      40.718  27.667  28.943  1.00  0.00     0.031 A 
ATOM     43  C   UNL A   1      41.857  28.449  28.391  1.00  0.00     0.074 A 
ATOM     44  C   UNL A   1      39.788  28.237  29.740  1.00  0.00     0.049 A 
ATOM     45  N   UNL A   1      42.898  28.878  29.024  1.00  0.00    -0.248 NA
ATOM     46  C   UNL A   1      41.900  28.690  26.939  1.00  0.00     0.031 C 
ATOM     47  C   UNL A   1      38.463  27.738  30.126  1.00  0.00     0.029 A 
ATOM     48  N   UNL A   1      39.809  29.471  30.305  1.00  0.00    -0.354 N 
ATOM     49  C   UNL A   1      43.654  29.583  28.094  1.00  0.00     0.074 A 
ATOM     50  C   UNL A   1      43.071  29.313  26.803  1.00  0.00     0.031 C 
ATOM     51  C   UNL A   1      37.729  28.746  30.646  1.00  0.00     0.029 A 
ATOM     52  C   UNL A   1      38.586  29.904  30.798  1.00  0.00     0.049 A 
ATOM     53  H   UNL A   1      40.627  30.016  30.360  1.00  0.00     0.167 HD
ATOM     54  C   UNL A   1      44.583  30.501  28.480  1.00  0.00     0.037 A 
ATOM     55  C   UNL A   1      38.306  31.146  31.266  1.00  0.00     0.037 A 
ATOM     56  C   UNL A   1      44.941  30.339  29.865  1.00  0.00     0.049 A 
ATOM     57  C   UNL A   1      39.607  31.772  31.621  1.00  0.00     0.074 A 
ATOM     58  C   UNL A   1      45.494  29.299  30.590  1.00  0.00     0.029 A 
ATOM     59  N   UNL A   1      44.356  31.162  30.795  1.00  0.00    -0.354 N 
ATOM     60  N   UNL A   1      40.371  31.353  32.594  1.00  0.00    -0.248 NA
ATOM     61  C   UNL A   1      40.275  32.552  30.589  1.00  0.00     0.031 C 
ATOM     62  C   UNL A   1      44.760  29.276  31.812  1.00  0.00     0.029 A 
ATOM     63  C   UNL A   1      43.872  30.353  31.796  1.00  0.00     0.049 A 
ATOM     64  H   UNL A   1      44.293  32.144  30.754  1.00  0.00     0.167 HD
ATOM     65  C   UNL A   1      41.661  31.445  32.093  1.00  0.00     0.074 A 
ATOM     66  C   UNL A   1      41.544  32.254  30.881  1.00  0.00     0.031 C 
ATOM     67  C   UNL A   1      42.657  30.620  32.532  1.00  0.00     0.037 A 
BRANCH  54  68
ATOM     68  C   UNL A   1      44.939  31.723  27.682  1.00  0.00     0.064 A 
ATOM     69  C   UNL A   1      44.155  32.897  27.685  1.00  0.00     0.173 A 
ATOM     70  C   UNL A   1      46.214  31.841  27.099  1.00  0.00     0.173 A 
ATOM     71  F   UNL A   1      42.984  32.961  28.331  1.00  0.00    -0.203 F 
ATOM     72  C   UNL A   1      44.596  34.090  27.118  1.00  0.00     0.198 A 
ATOM     73  C   UNL A   1      46.676  33.056  26.581  1.00  0.00     0.198 A 
ATOM     74  F   UNL A   1      47.058  30.800  27.087  1.00  0.00    -0.203 F 
ATOM     75  F   UNL A   1      43.804  35.171  27.159  1.00  0.00    -0.200 F 
ATOM     76  C   UNL A   1      45.865  34.177  26.586  1.00  0.00     0.200 A 
ATOM     77  F   UNL A   1      47.932  33.151  26.126  1.00  0.00    -0.200 F 
ATOM     78  F   UNL A   1      46.320  35.350  26.127  1.00  0.00    -0.200 F 
ENDBRANCH  54  68
BRANCH  55  79
ATOM     79  C   UNL A   1      37.062  31.933  31.077  1.00  0.00     0.064 A 
ATOM     80  C   UNL A   1      36.881  32.773  29.960  1.00  0.00     0.173 A 
ATOM     81  C   UNL A   1      36.155  32.102  32.136  1.00  0.00     0.173 A 
ATOM     82  F   UNL A   1      37.730  32.737  28.923  1.00  0.00    -0.203 F 
ATOM     83  C   UNL A   1      35.880  33.746  29.923  1.00  0.00     0.198 A 
ATOM     84  C   UNL A   1      35.157  33.082  32.100  1.00  0.00     0.198 A 
ATOM     85  F   UNL A   1      36.278  31.368  33.251  1.00  0.00    -0.203 F 
ATOM     86  F   UNL A   1      35.789  34.566  28.866  1.00  0.00    -0.200 F 
ATOM     87  C   UNL A   1      35.030  33.912  30.999  1.00  0.00     0.200 A 
ATOM     88  F   UNL A   1      34.359  33.261  33.161  1.00  0.00    -0.200 F 
ATOM     89  F   UNL A   1      34.122  34.897  30.994  1.00  0.00    -0.200 F 
ENDBRANCH  55  79
BRANCH  67  90
ATOM     90  C   UNL A   1      42.388  29.741  33.726  1.00  0.00     0.064 A 
ATOM     91  C   UNL A   1      42.883  30.147  34.974  1.00  0.00     0.173 A 
ATOM     92  C   UNL A   1      41.838  28.448  33.648  1.00  0.00     0.173 A 
ATOM     93  F   UNL A   1      43.466  31.349  35.105  1.00  0.00    -0.203 F 
ATOM     94  C   UNL A   1      42.843  29.302  36.081  1.00  0.00     0.198 A 
ATOM     95  C   UNL A   1      41.766  27.617  34.766  1.00  0.00     0.198 A 
ATOM     96  F   UNL A   1      41.427  27.941  32.481  1.00  0.00    -0.203 F 
ATOM     97  F   UNL A   1      43.388  29.698  37.240  1.00  0.00    -0.200 F 
ATOM     98  C   UNL A   1      42.281  28.041  35.979  1.00  0.00     0.200 A 
ATOM     99  F   UNL A   1      41.238  26.388  34.659  1.00  0.00    -0.200 F 
ATOM    100  F   UNL A   1      42.262  27.223  37.041  1.00  0.00    -0.200 F 
ENDBRANCH  67  90
ENDBRANCH  41  42
ENDBRANCH  33  36
ENDBRANCH  31  32
ENDBRANCH   1  31
TORSDOF 12
ENDMDL
MODEL 2
REMARK VINA RESULT:     -14.8      3.404      8.923
REMARK SMILES CC1=Nc2c(c(C)nn2-c2ccc(F)cc2)[C@H](c2ccc(C(=O)NCCCNC(=O)c3ccc(-c4c5nc(c(-c6c(F)c(F)c(F)c(F)c6F)c6ccc([nH]6)c(-c6c(F)c(F)c(F)c(F)c6F)c6nc(c(-c7c(F)c(F)c(F)c(F)c7F)c7ccc4[nH]7)C=C6)C=C5)cc3)cc2)S1
REMARK SMILES IDX 26 1 25 2 24 3 22 4 23 5 21 7 18 8 19 9 95 10 20 11 94 12
REMARK SMILES IDX 17 13 1 14 2 15 3 16 96 17 4 18 5 19 9 20 6 21 8 22 7 23
REMARK SMILES IDX 10 24 11 25 16 26 12 27 15 28 13 29 14 30 27 31 28 32 29 33
REMARK SMILES IDX 30 35 31 36 32 37 93 38 33 39 92 40 34 41 35 42 36 43 86 44
REMARK SMILES IDX 37 45 91 46 85 47 87 48 38 49 90 50 84 51 83 52 39 54 71 55
REMARK SMILES IDX 51 56 70 57 52 58 55 59 69 60 88 61 53 62 54 63 68 65 89 66
REMARK SMILES IDX 56 67 40 68 41 69 49 70 42 71 43 72 47 73 50 74 44 75 45 76
REMARK SMILES IDX 48 77 46 78 72 79 73 80 81 81 74 82 75 83 79 84 82 85 76 86
REMARK SMILES IDX 77 87 80 88 78 89 57 90 58 91 66 92 59 93 60 94 64 95 67 96
REMARK SMILES IDX 61 97 62 98 65 99 63 100
REMARK H PARENT 24 6 28 34 87 53 55 64
REMARK Flexibility Score: inf
ROOT
ATOM      1  C   UNL A   1      32.921  30.464  27.130  1.00  0.00     0.042 C 
ENDROOT
BRANCH   1   2
ATOM      2  C   UNL A   1      32.912  29.805  25.745  1.00  0.00     0.118 C 
BRANCH   2   3
ATOM      3  N   UNL A   1      31.720  30.153  24.986  1.00  0.00    -0.352 N 
ATOM      4  C   UNL A   1      30.818  29.365  24.312  1.00  0.00     0.251 C 
ATOM      5  O   UNL A   1      29.825  29.899  23.821  1.00  0.00    -0.269 OA
ATOM      6  H   UNL A   1      31.525  31.118  24.951  1.00  0.00     0.163 HD
BRANCH   4   7
ATOM      7  C   UNL A   1      30.977  27.892  24.213  1.00  0.00     0.039 A 
ATOM      8  C   UNL A   1      31.363  25.085  24.148  1.00  0.00    -0.030 A 
ATOM      9  C   UNL A   1      31.505  25.812  25.345  1.00  0.00     0.006 A 
ATOM     10  C   UNL A   1      30.984  25.791  22.996  1.00  0.00     0.006 A 
ATOM     11  C   UNL A   1      31.300  27.193  25.380  1.00  0.00     0.014 A 
ATOM     12  C   UNL A   1      30.783  27.173  23.034  1.00  0.00     0.014 A 
BRANCH   8  13
ATOM     13  C   UNL A   1      31.549  23.574  24.161  1.00  0.00     0.119 C 
ATOM     14  C   UNL A   1      32.406  22.561  28.094  1.00  0.00     0.075 C 
ATOM     15  C   UNL A   1      32.552  22.683  26.598  1.00  0.00     0.074 C 
ATOM     16  N   UNL A   1      33.750  22.712  26.106  1.00  0.00    -0.227 NA
ATOM     17  S   UNL A   1      31.032  22.778  25.718  1.00  0.00    -0.098 SA
ATOM     18  C   UNL A   1      33.898  22.916  24.775  1.00  0.00     0.161 A 
ATOM     19  C   UNL A   1      32.977  23.343  23.846  1.00  0.00     0.038 A 
ATOM     20  N   UNL A   1      35.112  22.839  24.111  1.00  0.00    -0.215 N 
ATOM     21  C   UNL A   1      33.716  23.511  22.647  1.00  0.00     0.067 A 
ATOM     22  N   UNL A   1      35.025  23.310  22.841  1.00  0.00    -0.171 NA
ATOM     23  C   UNL A   1      33.228  23.910  21.303  1.00  0.00     0.069 C 
BRANCH  20  24
ATOM     24  C   UNL A   1      36.332  22.339  24.620  1.00  0.00     0.067 A 
ATOM     25  C   UNL A   1      36.619  20.969  24.519  1.00  0.00     0.031 A 
ATOM     26  C   UNL A   1      37.239  23.216  25.228  1.00  0.00     0.031 A 
ATOM     27  C   UNL A   1      37.815  20.475  25.038  1.00  0.00     0.041 A 
ATOM     28  C   UNL A   1      38.408  22.703  25.792  1.00  0.00     0.041 A 
ATOM     29  C   UNL A   1      38.687  21.342  25.687  1.00  0.00     0.123 A 
ATOM     30  F   UNL A   1      39.815  20.857  26.221  1.00  0.00    -0.207 F 
ENDBRANCH  20  24
ENDBRANCH   8  13
ENDBRANCH   4   7
ENDBRANCH   2   3
ENDBRANCH   1   2
BRANCH   1  31
ATOM     31  C   UNL A   1      34.297  30.975  27.519  1.00  0.00     0.118 C 
BRANCH  31  32
ATOM     32  N   UNL A   1      34.271  31.789  28.734  1.00  0.00    -0.352 N 
ATOM     33  C   UNL A   1      35.131  31.744  29.818  1.00  0.00     0.251 C 
ATOM     34  H   UNL A   1      33.549  32.454  28.789  1.00  0.00     0.163 HD
ATOM     35  O   UNL A   1      34.812  32.207  30.897  1.00  0.00    -0.269 OA
BRANCH  33  36
ATOM     36  C   UNL A   1      36.449  31.111  29.634  1.00  0.00     0.039 A 
ATOM     37  C   UNL A   1      37.618  31.869  29.533  1.00  0.00     0.014 A 
ATOM     38  C   UNL A   1      36.497  29.722  29.615  1.00  0.00     0.014 A 
ATOM     39  C   UNL A   1      38.842  31.206  29.497  1.00  0.00     0.010 A 
ATOM     40  C   UNL A   1      37.694  29.087  29.793  1.00  0.00     0.010 A 
ATOM     41  C   UNL A   1      38.870  29.810  29.651  1.00  0.00    -0.014 A 
BRANCH  41  42
ATOM     42  C   UNL A   1      40.129  29.084  29.744  1.00  0.00     0.031 A 
ATOM     43  C   UNL A   1      40.658  28.914  31.124  1.00  0.00     0.074 A 
ATOM     44  C   UNL A   1      40.667  28.425  28.695  1.00  0.00     0.049 A 
ATOM     45  N   UNL A   1      41.761  29.379  31.608  1.00  0.00    -0.248 NA
ATOM     46  C   UNL A   1      39.806  28.241  32.120  1.00  0.00     0.031 C 
ATOM     47  C   UNL A   1      40.121  28.220  27.347  1.00  0.00     0.029 A 
ATOM     48  N   UNL A   1      41.813  27.698  28.657  1.00  0.00    -0.354 N 
ATOM     49  C   UNL A   1      41.830  28.926  32.921  1.00  0.00     0.074 A 
ATOM     50  C   UNL A   1      40.541  28.357  33.226  1.00  0.00     0.031 C 
ATOM     51  C   UNL A   1      40.806  27.237  26.722  1.00  0.00     0.029 A 
ATOM     52  C   UNL A   1      41.942  26.877  27.546  1.00  0.00     0.049 A 
ATOM     53  H   UNL A   1      42.497  27.749  29.363  1.00  0.00     0.167 HD
ATOM     54  C   UNL A   1      43.013  28.870  33.594  1.00  0.00     0.037 A 
ATOM     55  C   UNL A   1      42.908  25.946  27.347  1.00  0.00     0.037 A 
ATOM     56  C   UNL A   1      44.021  29.678  32.957  1.00  0.00     0.049 A 
ATOM     57  C   UNL A   1      44.038  26.304  28.245  1.00  0.00     0.074 A 
ATOM     58  C   UNL A   1      44.115  31.026  32.664  1.00  0.00     0.029 A 
ATOM     59  N   UNL A   1      44.939  29.061  32.142  1.00  0.00    -0.354 N 
ATOM     60  N   UNL A   1      44.761  27.382  28.105  1.00  0.00    -0.248 NA
ATOM     61  C   UNL A   1      44.047  25.709  29.574  1.00  0.00     0.031 C 
ATOM     62  C   UNL A   1      44.669  31.076  31.351  1.00  0.00     0.029 A 
ATOM     63  C   UNL A   1      44.961  29.767  30.962  1.00  0.00     0.049 A 
ATOM     64  H   UNL A   1      45.477  28.266  32.359  1.00  0.00     0.167 HD
ATOM     65  C   UNL A   1      44.967  27.838  29.398  1.00  0.00     0.074 A 
ATOM     66  C   UNL A   1      44.564  26.730  30.263  1.00  0.00     0.031 C 
ATOM     67  C   UNL A   1      45.164  29.162  29.665  1.00  0.00     0.037 A 
BRANCH  54  68
ATOM     68  C   UNL A   1      43.330  27.852  34.652  1.00  0.00     0.064 A 
ATOM     69  C   UNL A   1      43.578  26.493  34.361  1.00  0.00     0.173 A 
ATOM     70  C   UNL A   1      43.653  28.266  35.957  1.00  0.00     0.173 A 
ATOM     71  F   UNL A   1      43.450  26.004  33.121  1.00  0.00    -0.203 F 
ATOM     72  C   UNL A   1      44.076  25.605  35.311  1.00  0.00     0.198 A 
ATOM     73  C   UNL A   1      44.207  27.384  36.893  1.00  0.00     0.198 A 
ATOM     74  F   UNL A   1      43.503  29.546  36.324  1.00  0.00    -0.203 F 
ATOM     75  F   UNL A   1      44.294  24.327  34.968  1.00  0.00    -0.200 F 
ATOM     76  C   UNL A   1      44.412  26.055  36.570  1.00  0.00     0.200 A 
ATOM     77  F   UNL A   1      44.592  27.841  38.091  1.00  0.00    -0.200 F 
ATOM     78  F   UNL A   1      44.979  25.219  37.450  1.00  0.00    -0.200 F 
ENDBRANCH  54  68
BRANCH  55  79
ATOM     79  C   UNL A   1      42.767  24.603  26.731  1.00  0.00     0.064 A 
ATOM     80  C   UNL A   1      42.384  23.478  27.489  1.00  0.00     0.173 A 
ATOM     81  C   UNL A   1      43.292  24.343  25.455  1.00  0.00     0.173 A 
ATOM     82  F   UNL A   1      41.931  23.611  28.744  1.00  0.00    -0.203 F 
ATOM     83  C   UNL A   1      42.552  22.175  27.013  1.00  0.00     0.198 A 
ATOM     84  C   UNL A   1      43.466  23.037  24.983  1.00  0.00     0.198 A 
ATOM     85  F   UNL A   1      43.715  25.354  24.682  1.00  0.00    -0.203 F 
ATOM     86  F   UNL A   1      42.233  21.136  27.798  1.00  0.00    -0.200 F 
ATOM     87  C   UNL A   1      43.109  21.955  25.769  1.00  0.00     0.200 A 
ATOM     88  F   UNL A   1      44.039  22.830  23.789  1.00  0.00    -0.200 F 
ATOM     89  F   UNL A   1      43.341  20.704  25.347  1.00  0.00    -0.200 F 
ENDBRANCH  55  79
BRANCH  67  90
ATOM     90  C   UNL A   1      45.363  30.107  28.507  1.00  0.00     0.064 A 
ATOM     91  C   UNL A   1      46.673  30.483  28.176  1.00  0.00     0.173 A 
ATOM     92  C   UNL A   1      44.319  30.787  27.853  1.00  0.00     0.173 A 
ATOM     93  F   UNL A   1      47.714  29.910  28.800  1.00  0.00    -0.203 F 
ATOM     94  C   UNL A   1      46.926  31.494  27.250  1.00  0.00     0.198 A 
ATOM     95  C   UNL A   1      44.575  31.773  26.900  1.00  0.00     0.198 A 
ATOM     96  F   UNL A   1      43.040  30.561  28.172  1.00  0.00    -0.203 F 
ATOM     97  F   UNL A   1      48.189  31.874  27.010  1.00  0.00    -0.200 F 
ATOM     98  C   UNL A   1      45.879  32.134  26.610  1.00  0.00     0.200 A 
ATOM     99  F   UNL A   1      43.557  32.405  26.296  1.00  0.00    -0.200 F 
ATOM    100  F   UNL A   1      46.125  33.119  25.734  1.00  0.00    -0.200 F 
ENDBRANCH  67  90
ENDBRANCH  41  42
ENDBRANCH  33  36
ENDBRANCH  31  32
ENDBRANCH   1  31
TORSDOF 12
ENDMDL
MODEL 3
REMARK VINA RESULT:     -14.3      1.847      2.791
REMARK SMILES CC1=Nc2c(c(C)nn2-c2ccc(F)cc2)[C@H](c2ccc(C(=O)NCCCNC(=O)c3ccc(-c4c5nc(c(-c6c(F)c(F)c(F)c(F)c6F)c6ccc([nH]6)c(-c6c(F)c(F)c(F)c(F)c6F)c6nc(c(-c7c(F)c(F)c(F)c(F)c7F)c7ccc4[nH]7)C=C6)C=C5)cc3)cc2)S1
REMARK SMILES IDX 26 1 25 2 24 3 22 4 23 5 21 7 18 8 19 9 95 10 20 11 94 12
REMARK SMILES IDX 17 13 1 14 2 15 3 16 96 17 4 18 5 19 9 20 6 21 8 22 7 23
REMARK SMILES IDX 10 24 11 25 16 26 12 27 15 28 13 29 14 30 27 31 28 32 29 33
REMARK SMILES IDX 30 35 31 36 32 37 93 38 33 39 92 40 34 41 35 42 36 43 86 44
REMARK SMILES IDX 37 45 91 46 85 47 87 48 38 49 90 50 84 51 83 52 39 54 71 55
REMARK SMILES IDX 51 56 70 57 52 58 55 59 69 60 88 61 53 62 54 63 68 65 89 66
REMARK SMILES IDX 56 67 40 68 41 69 49 70 42 71 43 72 47 73 50 74 44 75 45 76
REMARK SMILES IDX 48 77 46 78 72 79 73 80 81 81 74 82 75 83 79 84 82 85 76 86
REMARK SMILES IDX 77 87 80 88 78 89 57 90 58 91 66 92 59 93 60 94 64 95 67 96
REMARK SMILES IDX 61 97 62 98 65 99 63 100
REMARK H PARENT 24 6 28 34 87 53 55 64
REMARK Flexibility Score: inf
ROOT
ATOM      1  C   UNL A   1      39.917  20.376  26.180  1.00  0.00     0.042 C 
ENDROOT
BRANCH   1   2
ATOM      2  C   UNL A   1      38.718  21.224  25.737  1.00  0.00     0.118 C 
BRANCH   2   3
ATOM      3  N   UNL A   1      38.799  22.585  26.245  1.00  0.00    -0.352 N 
ATOM      4  C   UNL A   1      37.860  23.586  26.296  1.00  0.00     0.251 C 
ATOM      5  O   UNL A   1      38.151  24.635  26.868  1.00  0.00    -0.269 OA
ATOM      6  H   UNL A   1      39.678  22.830  26.616  1.00  0.00     0.163 HD
BRANCH   4   7
ATOM      7  C   UNL A   1      36.494  23.416  25.737  1.00  0.00     0.039 A 
ATOM      8  C   UNL A   1      33.922  23.192  24.569  1.00  0.00    -0.030 A 
ATOM      9  C   UNL A   1      35.014  23.694  23.835  1.00  0.00     0.006 A 
ATOM     10  C   UNL A   1      34.159  22.769  25.886  1.00  0.00     0.006 A 
ATOM     11  C   UNL A   1      36.286  23.789  24.406  1.00  0.00     0.014 A 
ATOM     12  C   UNL A   1      35.430  22.869  26.455  1.00  0.00     0.014 A 
BRANCH   8  13
ATOM     13  C   UNL A   1      32.563  23.060  23.896  1.00  0.00     0.119 C 
ATOM     14  C   UNL A   1      32.902  25.001  20.242  1.00  0.00     0.075 C 
ATOM     15  C   UNL A   1      32.389  24.642  21.613  1.00  0.00     0.074 C 
ATOM     16  N   UNL A   1      31.824  25.574  22.313  1.00  0.00    -0.227 NA
ATOM     17  S   UNL A   1      32.644  22.965  22.077  1.00  0.00    -0.098 SA
ATOM     18  C   UNL A   1      31.442  25.291  23.581  1.00  0.00     0.161 A 
ATOM     19  C   UNL A   1      31.765  24.212  24.373  1.00  0.00     0.038 A 
ATOM     20  N   UNL A   1      30.716  26.157  24.383  1.00  0.00    -0.215 N 
ATOM     21  C   UNL A   1      31.205  24.508  25.642  1.00  0.00     0.067 A 
ATOM     22  N   UNL A   1      30.666  25.733  25.671  1.00  0.00    -0.171 NA
ATOM     23  C   UNL A   1      31.199  23.677  26.872  1.00  0.00     0.069 C 
BRANCH  20  24
ATOM     24  C   UNL A   1      30.070  27.349  23.983  1.00  0.00     0.067 A 
ATOM     25  C   UNL A   1      28.743  27.304  23.528  1.00  0.00     0.031 A 
ATOM     26  C   UNL A   1      30.765  28.564  24.038  1.00  0.00     0.031 A 
ATOM     27  C   UNL A   1      28.115  28.477  23.117  1.00  0.00     0.041 A 
ATOM     28  C   UNL A   1      30.144  29.725  23.574  1.00  0.00     0.041 A 
ATOM     29  C   UNL A   1      28.827  29.672  23.125  1.00  0.00     0.123 A 
ATOM     30  F   UNL A   1      28.233  30.790  22.689  1.00  0.00    -0.207 F 
ENDBRANCH  20  24
ENDBRANCH   8  13
ENDBRANCH   4   7
ENDBRANCH   2   3
ENDBRANCH   1   2
BRANCH   1  31
ATOM     31  C   UNL A   1      40.993  21.203  26.860  1.00  0.00     0.118 C 
BRANCH  31  32
ATOM     32  N   UNL A   1      42.125  21.486  25.978  1.00  0.00    -0.352 N 
ATOM     33  C   UNL A   1      42.665  22.715  25.638  1.00  0.00     0.251 C 
ATOM     34  H   UNL A   1      42.560  20.701  25.573  1.00  0.00     0.163 HD
ATOM     35  O   UNL A   1      43.358  22.847  24.646  1.00  0.00    -0.269 OA
BRANCH  33  36
ATOM     36  C   UNL A   1      42.372  23.868  26.508  1.00  0.00     0.039 A 
ATOM     37  C   UNL A   1      43.012  24.039  27.738  1.00  0.00     0.014 A 
ATOM     38  C   UNL A   1      41.468  24.813  26.038  1.00  0.00     0.014 A 
ATOM     39  C   UNL A   1      42.790  25.216  28.446  1.00  0.00     0.010 A 
ATOM     40  C   UNL A   1      41.418  26.046  26.625  1.00  0.00     0.010 A 
ATOM     41  C   UNL A   1      42.006  26.228  27.868  1.00  0.00    -0.014 A 
BRANCH  41  42
ATOM     42  C   UNL A   1      41.846  27.524  28.512  1.00  0.00     0.031 A 
ATOM     43  C   UNL A   1      42.870  28.540  28.146  1.00  0.00     0.074 A 
ATOM     44  C   UNL A   1      40.741  27.854  29.214  1.00  0.00     0.049 A 
ATOM     45  N   UNL A   1      43.731  29.106  28.924  1.00  0.00    -0.248 NA
ATOM     46  C   UNL A   1      43.029  28.888  26.724  1.00  0.00     0.031 C 
ATOM     47  C   UNL A   1      39.500  27.093  29.407  1.00  0.00     0.029 A 
ATOM     48  N   UNL A   1      40.461  29.027  29.837  1.00  0.00    -0.354 N 
ATOM     49  C   UNL A   1      44.439  30.003  28.131  1.00  0.00     0.074 A 
ATOM     50  C   UNL A   1      44.068  29.724  26.766  1.00  0.00     0.031 C 
ATOM     51  C   UNL A   1      38.533  27.909  29.880  1.00  0.00     0.029 A 
ATOM     52  C   UNL A   1      39.130  29.191  30.195  1.00  0.00     0.049 A 
ATOM     53  H   UNL A   1      41.148  29.708  30.021  1.00  0.00     0.167 HD
ATOM     54  C   UNL A   1      45.125  31.046  28.674  1.00  0.00     0.037 A 
ATOM     55  C   UNL A   1      38.567  30.323  30.685  1.00  0.00     0.037 A 
ATOM     56  C   UNL A   1      45.349  30.853  30.083  1.00  0.00     0.049 A 
ATOM     57  C   UNL A   1      39.675  31.151  31.230  1.00  0.00     0.074 A 
ATOM     58  C   UNL A   1      46.005  29.883  30.820  1.00  0.00     0.029 A 
ATOM     59  N   UNL A   1      44.515  31.486  30.973  1.00  0.00    -0.354 N 
ATOM     60  N   UNL A   1      40.390  30.811  32.268  1.00  0.00    -0.248 NA
ATOM     61  C   UNL A   1      40.294  32.113  30.329  1.00  0.00     0.031 C 
ATOM     62  C   UNL A   1      45.155  29.638  31.938  1.00  0.00     0.029 A 
ATOM     63  C   UNL A   1      44.085  30.531  31.865  1.00  0.00     0.049 A 
ATOM     64  H   UNL A   1      44.271  32.440  30.973  1.00  0.00     0.167 HD
ATOM     65  C   UNL A   1      41.687  31.174  31.938  1.00  0.00     0.074 A 
ATOM     66  C   UNL A   1      41.555  32.033  30.762  1.00  0.00     0.031 C 
ATOM     67  C   UNL A   1      42.766  30.517  32.456  1.00  0.00     0.037 A 
BRANCH  54  68
ATOM     68  C   UNL A   1      45.329  32.366  27.988  1.00  0.00     0.064 A 
ATOM     69  C   UNL A   1      46.528  32.712  27.327  1.00  0.00     0.173 A 
ATOM     70  C   UNL A   1      44.234  33.216  27.749  1.00  0.00     0.173 A 
ATOM     71  F   UNL A   1      47.603  31.912  27.354  1.00  0.00    -0.203 F 
ATOM     72  C   UNL A   1      46.637  33.839  26.518  1.00  0.00     0.198 A 
ATOM     73  C   UNL A   1      44.330  34.317  26.890  1.00  0.00     0.198 A 
ATOM     74  F   UNL A   1      43.035  32.953  28.288  1.00  0.00    -0.203 F 
ATOM     75  F   UNL A   1      47.803  34.108  25.915  1.00  0.00    -0.200 F 
ATOM     76  C   UNL A   1      45.532  34.630  26.280  1.00  0.00     0.200 A 
ATOM     77  F   UNL A   1      43.239  35.041  26.612  1.00  0.00    -0.200 F 
ATOM     78  F   UNL A   1      45.616  35.658  25.427  1.00  0.00    -0.200 F 
ENDBRANCH  54  68
BRANCH  55  79
ATOM     79  C   UNL A   1      37.225  30.880  30.382  1.00  0.00     0.064 A 
ATOM     80  C   UNL A   1      36.888  31.337  29.092  1.00  0.00     0.173 A 
ATOM     81  C   UNL A   1      36.351  31.246  31.419  1.00  0.00     0.173 A 
ATOM     82  F   UNL A   1      37.688  31.098  28.043  1.00  0.00    -0.203 F 
ATOM     83  C   UNL A   1      35.769  32.141  28.862  1.00  0.00     0.198 A 
ATOM     84  C   UNL A   1      35.235  32.057  31.188  1.00  0.00     0.198 A 
ATOM     85  F   UNL A   1      36.617  30.883  32.682  1.00  0.00    -0.203 F 
ATOM     86  F   UNL A   1      35.528  32.606  27.628  1.00  0.00    -0.200 F 
ATOM     87  C   UNL A   1      34.954  32.516  29.912  1.00  0.00     0.200 A 
ATOM     88  F   UNL A   1      34.468  32.445  32.216  1.00  0.00    -0.200 F 
ATOM     89  F   UNL A   1      33.927  33.350  29.703  1.00  0.00    -0.200 F 
ENDBRANCH  55  79
BRANCH  67  90
ATOM     90  C   UNL A   1      42.537  29.520  33.563  1.00  0.00     0.064 A 
ATOM     91  C   UNL A   1      42.699  29.950  34.888  1.00  0.00     0.173 A 
ATOM     92  C   UNL A   1      42.357  28.140  33.358  1.00  0.00     0.173 A 
ATOM     93  F   UNL A   1      42.926  31.247  35.149  1.00  0.00    -0.203 F 
ATOM     94  C   UNL A   1      42.694  29.049  35.950  1.00  0.00     0.198 A 
ATOM     95  C   UNL A   1      42.315  27.243  34.425  1.00  0.00     0.198 A 
ATOM     96  F   UNL A   1      42.287  27.627  32.125  1.00  0.00    -0.203 F 
ATOM     97  F   UNL A   1      42.920  29.488  37.196  1.00  0.00    -0.200 F 
ATOM     98  C   UNL A   1      42.497  27.698  35.720  1.00  0.00     0.200 A 
ATOM     99  F   UNL A   1      42.144  25.932  34.197  1.00  0.00    -0.200 F 
ATOM    100  F   UNL A   1      42.512  26.831  36.742  1.00  0.00    -0.200 F 
ENDBRANCH  67  90
ENDBRANCH  41  42
ENDBRANCH  33  36
ENDBRANCH  31  32
ENDBRANCH   1  31
TORSDOF 12
ENDMDL
