MODEL 1
REMARK VINA RESULT:     -11.7      0.000      0.000
REMARK SMILES CC[C@](C)(NC(=O)NCc1ccco1)C(=O)NCCCNC(=O)c1ccc(-c2c3nc(c(-c4c(F)c(F)c(F)c(F)c4F)c4ccc([nH]4)c(-c4c(F)c(F)c(F)c(F)c4F)c4nc(c(-c5c(F)c(F)c(F)c(F)c5F)c5ccc2[nH]5)C=C4)C=C3)cc1
REMARK SMILES IDX 18 1 17 2 15 3 16 4 3 6 4 7 2 8 1 9 5 10 6 11 7 13 8 14 9 16
REMARK SMILES IDX 10 17 11 18 14 19 12 20 13 21 19 22 20 23 21 24 22 25 23 27
REMARK SMILES IDX 24 28 25 29 86 30 26 31 85 32 27 33 28 34 29 35 79 36 30 37
REMARK SMILES IDX 84 38 78 39 80 40 31 41 83 42 77 43 76 44 32 46 64 47 44 48
REMARK SMILES IDX 63 49 45 50 48 51 62 52 81 53 46 54 47 55 61 57 82 58 49 59
REMARK SMILES IDX 33 60 34 61 42 62 35 63 36 64 40 65 43 66 37 67 38 68 41 69
REMARK SMILES IDX 39 70 65 71 66 72 74 73 67 74 68 75 72 76 75 77 69 78 70 79
REMARK SMILES IDX 73 80 71 81 50 82 51 83 59 84 52 85 53 86 57 87 60 88 54 89
REMARK SMILES IDX 55 90 58 91 56 92
REMARK H PARENT 17 5 5 12 8 15 21 26 80 45 48 56
REMARK Flexibility Score: inf
ROOT
ATOM      1  C   UNL A   1      36.942  21.409  24.824  1.00  0.00     0.117 C 
ENDROOT
BRANCH   1   2
ATOM      2  N   UNL A   1      36.280  21.950  26.001  1.00  0.00    -0.354 N 
ATOM      3  C   UNL A   1      35.072  22.556  26.220  1.00  0.00     0.245 C 
ATOM      4  O   UNL A   1      34.602  22.471  27.361  1.00  0.00    -0.272 OA
ATOM      5  H   UNL A   1      36.820  21.862  26.820  1.00  0.00     0.163 HD
BRANCH   3   6
ATOM      6  C   UNL A   1      34.259  23.237  25.092  1.00  0.00     0.117 C 
ATOM      7  C   UNL A   1      34.464  22.609  23.699  1.00  0.00     0.045 C 
BRANCH   6   8
ATOM      8  C   UNL A   1      34.739  24.727  25.035  1.00  0.00     0.035 C 
ATOM      9  C   UNL A   1      33.707  25.763  25.484  1.00  0.00     0.007 C 
ENDBRANCH   6   8
BRANCH   6  10
ATOM     10  N   UNL A   1      32.823  23.171  25.419  1.00  0.00    -0.324 N 
ATOM     11  C   UNL A   1      31.933  22.193  25.610  1.00  0.00     0.316 C 
ATOM     12  H   UNL A   1      32.423  24.064  25.524  1.00  0.00     0.166 HD
ATOM     13  O   UNL A   1      30.754  22.544  25.733  1.00  0.00    -0.249 OA
ATOM     14  N   UNL A   1      32.181  20.891  25.759  1.00  0.00    -0.331 N 
ATOM     15  H   UNL A   1      31.398  20.425  26.131  1.00  0.00     0.165 HD
BRANCH  14  16
ATOM     16  C   UNL A   1      33.278  19.960  25.531  1.00  0.00     0.193 C 
BRANCH  16  17
ATOM     17  C   UNL A   1      33.029  19.095  24.338  1.00  0.00     0.122 A 
ATOM     18  C   UNL A   1      32.282  19.237  23.183  1.00  0.00     0.047 A 
ATOM     19  O   UNL A   1      33.709  17.909  24.280  1.00  0.00    -0.467 OA
ATOM     20  C   UNL A   1      32.515  18.077  22.398  1.00  0.00     0.042 A 
ATOM     21  C   UNL A   1      33.391  17.300  23.113  1.00  0.00     0.195 A 
ENDBRANCH  16  17
ENDBRANCH  14  16
ENDBRANCH   6  10
ENDBRANCH   3   6
ENDBRANCH   1   2
BRANCH   1  22
ATOM     22  C   UNL A   1      37.856  20.192  24.971  1.00  0.00     0.042 C 
BRANCH  22  23
ATOM     23  C   UNL A   1      38.970  20.226  26.008  1.00  0.00     0.118 C 
BRANCH  23  24
ATOM     24  N   UNL A   1      39.986  19.204  25.829  1.00  0.00    -0.352 N 
ATOM     25  C   UNL A   1      41.354  19.291  25.964  1.00  0.00     0.251 C 
ATOM     26  H   UNL A   1      39.646  18.316  25.574  1.00  0.00     0.163 HD
ATOM     27  O   UNL A   1      42.055  18.314  25.761  1.00  0.00    -0.269 OA
BRANCH  25  28
ATOM     28  C   UNL A   1      41.989  20.585  26.312  1.00  0.00     0.039 A 
ATOM     29  C   UNL A   1      42.316  21.462  25.274  1.00  0.00     0.014 A 
ATOM     30  C   UNL A   1      42.276  20.931  27.635  1.00  0.00     0.014 A 
ATOM     31  C   UNL A   1      42.858  22.718  25.563  1.00  0.00     0.010 A 
ATOM     32  C   UNL A   1      42.785  22.200  27.926  1.00  0.00     0.010 A 
ATOM     33  C   UNL A   1      43.062  23.114  26.894  1.00  0.00    -0.014 A 
BRANCH  33  34
ATOM     34  C   UNL A   1      43.505  24.496  27.222  1.00  0.00     0.031 A 
ATOM     35  C   UNL A   1      42.538  25.507  27.768  1.00  0.00     0.074 A 
ATOM     36  C   UNL A   1      44.779  24.860  26.969  1.00  0.00     0.049 A 
ATOM     37  N   UNL A   1      42.727  26.778  28.030  1.00  0.00    -0.248 NA
ATOM     38  C   UNL A   1      41.176  25.032  28.044  1.00  0.00     0.031 C 
ATOM     39  C   UNL A   1      45.813  23.981  26.422  1.00  0.00     0.029 A 
ATOM     40  N   UNL A   1      45.415  26.069  27.119  1.00  0.00    -0.354 N 
ATOM     41  C   UNL A   1      41.508  27.256  28.492  1.00  0.00     0.074 A 
ATOM     42  C   UNL A   1      40.577  26.147  28.443  1.00  0.00     0.031 C 
ATOM     43  C   UNL A   1      46.953  24.676  26.286  1.00  0.00     0.029 A 
ATOM     44  C   UNL A   1      46.722  26.059  26.696  1.00  0.00     0.049 A 
ATOM     45  H   UNL A   1      44.976  26.866  27.494  1.00  0.00     0.167 HD
ATOM     46  C   UNL A   1      41.200  28.502  28.927  1.00  0.00     0.037 A 
ATOM     47  C   UNL A   1      47.629  27.053  26.627  1.00  0.00     0.037 A 
ATOM     48  C   UNL A   1      42.128  29.602  28.983  1.00  0.00     0.049 A 
ATOM     49  C   UNL A   1      47.249  28.436  27.082  1.00  0.00     0.074 A 
ATOM     50  C   UNL A   1      41.914  30.888  29.452  1.00  0.00     0.029 A 
ATOM     51  N   UNL A   1      43.445  29.550  28.554  1.00  0.00    -0.354 N 
ATOM     52  N   UNL A   1      46.109  28.862  27.567  1.00  0.00    -0.248 NA
ATOM     53  C   UNL A   1      48.283  29.478  26.980  1.00  0.00     0.031 C 
ATOM     54  C   UNL A   1      43.087  31.626  29.260  1.00  0.00     0.029 A 
ATOM     55  C   UNL A   1      44.048  30.786  28.723  1.00  0.00     0.049 A 
ATOM     56  H   UNL A   1      43.888  28.751  28.183  1.00  0.00     0.167 HD
ATOM     57  C   UNL A   1      46.296  30.206  27.860  1.00  0.00     0.074 A 
ATOM     58  C   UNL A   1      47.662  30.526  27.503  1.00  0.00     0.031 C 
ATOM     59  C   UNL A   1      45.414  31.092  28.382  1.00  0.00     0.037 A 
BRANCH  46  60
ATOM     60  C   UNL A   1      39.788  28.753  29.371  1.00  0.00     0.064 A 
ATOM     61  C   UNL A   1      39.394  28.574  30.705  1.00  0.00     0.173 A 
ATOM     62  C   UNL A   1      38.829  29.229  28.462  1.00  0.00     0.173 A 
ATOM     63  F   UNL A   1      40.270  28.115  31.612  1.00  0.00    -0.203 F 
ATOM     64  C   UNL A   1      38.087  28.837  31.109  1.00  0.00     0.198 A 
ATOM     65  C   UNL A   1      37.532  29.519  28.875  1.00  0.00     0.198 A 
ATOM     66  F   UNL A   1      39.156  29.428  27.176  1.00  0.00    -0.203 F 
ATOM     67  F   UNL A   1      37.723  28.618  32.379  1.00  0.00    -0.200 F 
ATOM     68  C   UNL A   1      37.159  29.315  30.195  1.00  0.00     0.200 A 
ATOM     69  F   UNL A   1      36.640  29.994  27.994  1.00  0.00    -0.200 F 
ATOM     70  F   UNL A   1      35.903  29.575  30.586  1.00  0.00    -0.200 F 
ENDBRANCH  46  60
BRANCH  47  71
ATOM     71  C   UNL A   1      48.995  26.774  26.111  1.00  0.00     0.064 A 
ATOM     72  C   UNL A   1      49.309  26.981  24.760  1.00  0.00     0.173 A 
ATOM     73  C   UNL A   1      50.009  26.291  26.951  1.00  0.00     0.173 A 
ATOM     74  F   UNL A   1      48.366  27.418  23.913  1.00  0.00    -0.203 F 
ATOM     75  C   UNL A   1      50.581  26.699  24.267  1.00  0.00     0.198 A 
ATOM     76  C   UNL A   1      51.288  26.036  26.461  1.00  0.00     0.198 A 
ATOM     77  F   UNL A   1      49.759  26.077  28.251  1.00  0.00    -0.203 F 
ATOM     78  F   UNL A   1      50.842  26.863  22.962  1.00  0.00    -0.200 F 
ATOM     79  C   UNL A   1      51.571  26.233  25.118  1.00  0.00     0.200 A 
ATOM     80  F   UNL A   1      52.245  25.598  27.291  1.00  0.00    -0.200 F 
ATOM     81  F   UNL A   1      52.796  25.965  24.643  1.00  0.00    -0.200 F 
ENDBRANCH  47  71
BRANCH  59  82
ATOM     82  C   UNL A   1      45.904  32.486  28.651  1.00  0.00     0.064 A 
ATOM     83  C   UNL A   1      46.524  32.830  29.862  1.00  0.00     0.173 A 
ATOM     84  C   UNL A   1      45.806  33.473  27.659  1.00  0.00     0.173 A 
ATOM     85  F   UNL A   1      46.628  31.925  30.848  1.00  0.00    -0.203 F 
ATOM     86  C   UNL A   1      47.016  34.115  30.072  1.00  0.00     0.198 A 
ATOM     87  C   UNL A   1      46.323  34.749  27.863  1.00  0.00     0.198 A 
ATOM     88  F   UNL A   1      45.226  33.194  26.483  1.00  0.00    -0.203 F 
ATOM     89  F   UNL A   1      47.574  34.432  31.249  1.00  0.00    -0.200 F 
ATOM     90  C   UNL A   1      46.924  35.070  29.071  1.00  0.00     0.200 A 
ATOM     91  F   UNL A   1      46.245  35.666  26.890  1.00  0.00    -0.200 F 
ATOM     92  F   UNL A   1      47.411  36.303  29.271  1.00  0.00    -0.200 F 
ENDBRANCH  59  82
ENDBRANCH  33  34
ENDBRANCH  25  28
ENDBRANCH  23  24
ENDBRANCH  22  23
ENDBRANCH   1  22
TORSDOF 14
ENDMDL
MODEL 2
REMARK VINA RESULT:     -11.7      0.127      1.625
REMARK SMILES CC[C@](C)(NC(=O)NCc1ccco1)C(=O)NCCCNC(=O)c1ccc(-c2c3nc(c(-c4c(F)c(F)c(F)c(F)c4F)c4ccc([nH]4)c(-c4c(F)c(F)c(F)c(F)c4F)c4nc(c(-c5c(F)c(F)c(F)c(F)c5F)c5ccc2[nH]5)C=C4)C=C3)cc1
REMARK SMILES IDX 18 1 17 2 15 3 16 4 3 6 4 7 2 8 1 9 5 10 6 11 7 13 8 14 9 16
REMARK SMILES IDX 10 17 11 18 14 19 12 20 13 21 19 22 20 23 21 24 22 25 23 27
REMARK SMILES IDX 24 28 25 29 86 30 26 31 85 32 27 33 28 34 29 35 79 36 30 37
REMARK SMILES IDX 84 38 78 39 80 40 31 41 83 42 77 43 76 44 32 46 64 47 44 48
REMARK SMILES IDX 63 49 45 50 48 51 62 52 81 53 46 54 47 55 61 57 82 58 49 59
REMARK SMILES IDX 33 60 34 61 42 62 35 63 36 64 40 65 43 66 37 67 38 68 41 69
REMARK SMILES IDX 39 70 65 71 66 72 74 73 67 74 68 75 72 76 75 77 69 78 70 79
REMARK SMILES IDX 73 80 71 81 50 82 51 83 59 84 52 85 53 86 57 87 60 88 54 89
REMARK SMILES IDX 55 90 58 91 56 92
REMARK H PARENT 17 5 5 12 8 15 21 26 80 45 48 56
REMARK Flexibility Score: inf
ROOT
ATOM      1  C   UNL A   1      36.695  21.000  24.800  1.00  0.00     0.117 C 
ENDROOT
BRANCH   1   2
ATOM      2  N   UNL A   1      36.169  21.683  25.972  1.00  0.00    -0.354 N 
ATOM      3  C   UNL A   1      35.059  22.448  26.210  1.00  0.00     0.245 C 
ATOM      4  O   UNL A   1      34.644  22.485  27.374  1.00  0.00    -0.272 OA
ATOM      5  H   UNL A   1      36.738  21.570  26.768  1.00  0.00     0.163 HD
BRANCH   3   6
ATOM      6  C   UNL A   1      34.278  23.165  25.082  1.00  0.00     0.117 C 
ATOM      7  C   UNL A   1      34.485  22.553  23.682  1.00  0.00     0.045 C 
BRANCH   6   8
ATOM      8  C   UNL A   1      34.795  24.643  25.053  1.00  0.00     0.035 C 
ATOM      9  C   UNL A   1      33.886  25.668  25.733  1.00  0.00     0.007 C 
ENDBRANCH   6   8
BRANCH   6  10
ATOM     10  N   UNL A   1      32.837  23.131  25.391  1.00  0.00    -0.324 N 
ATOM     11  C   UNL A   1      31.926  22.172  25.583  1.00  0.00     0.316 C 
ATOM     12  H   UNL A   1      32.453  24.033  25.478  1.00  0.00     0.166 HD
ATOM     13  O   UNL A   1      30.752  22.547  25.685  1.00  0.00    -0.249 OA
ATOM     14  N   UNL A   1      32.148  20.869  25.753  1.00  0.00    -0.331 N 
ATOM     15  H   UNL A   1      31.351  20.422  26.121  1.00  0.00     0.165 HD
BRANCH  14  16
ATOM     16  C   UNL A   1      33.229  19.913  25.553  1.00  0.00     0.193 C 
BRANCH  16  17
ATOM     17  C   UNL A   1      33.002  19.067  24.342  1.00  0.00     0.122 A 
ATOM     18  C   UNL A   1      32.278  19.228  23.175  1.00  0.00     0.047 A 
ATOM     19  O   UNL A   1      33.680  17.881  24.280  1.00  0.00    -0.467 OA
ATOM     20  C   UNL A   1      32.523  18.078  22.377  1.00  0.00     0.042 A 
ATOM     21  C   UNL A   1      33.383  17.289  23.099  1.00  0.00     0.195 A 
ENDBRANCH  16  17
ENDBRANCH  14  16
ENDBRANCH   6  10
ENDBRANCH   3   6
ENDBRANCH   1   2
BRANCH   1  22
ATOM     22  C   UNL A   1      37.771  19.928  24.976  1.00  0.00     0.042 C 
BRANCH  22  23
ATOM     23  C   UNL A   1      39.023  20.263  25.775  1.00  0.00     0.118 C 
BRANCH  23  24
ATOM     24  N   UNL A   1      40.018  19.206  25.799  1.00  0.00    -0.352 N 
ATOM     25  C   UNL A   1      41.361  19.269  26.098  1.00  0.00     0.251 C 
ATOM     26  H   UNL A   1      39.682  18.309  25.569  1.00  0.00     0.163 HD
ATOM     27  O   UNL A   1      42.048  18.263  26.057  1.00  0.00    -0.269 OA
BRANCH  25  28
ATOM     28  C   UNL A   1      41.992  20.570  26.428  1.00  0.00     0.039 A 
ATOM     29  C   UNL A   1      42.368  21.410  25.374  1.00  0.00     0.014 A 
ATOM     30  C   UNL A   1      42.228  20.959  27.749  1.00  0.00     0.014 A 
ATOM     31  C   UNL A   1      42.907  22.671  25.643  1.00  0.00     0.010 A 
ATOM     32  C   UNL A   1      42.735  22.235  28.018  1.00  0.00     0.010 A 
ATOM     33  C   UNL A   1      43.061  23.110  26.968  1.00  0.00    -0.014 A 
BRANCH  33  34
ATOM     34  C   UNL A   1      43.501  24.501  27.267  1.00  0.00     0.031 A 
ATOM     35  C   UNL A   1      42.534  25.519  27.798  1.00  0.00     0.074 A 
ATOM     36  C   UNL A   1      44.771  24.864  26.999  1.00  0.00     0.049 A 
ATOM     37  N   UNL A   1      42.720  26.795  28.034  1.00  0.00    -0.248 NA
ATOM     38  C   UNL A   1      41.174  25.045  28.091  1.00  0.00     0.031 C 
ATOM     39  C   UNL A   1      45.805  23.978  26.462  1.00  0.00     0.029 A 
ATOM     40  N   UNL A   1      45.405  26.077  27.122  1.00  0.00    -0.354 N 
ATOM     41  C   UNL A   1      41.502  27.277  28.494  1.00  0.00     0.074 A 
ATOM     42  C   UNL A   1      40.574  26.165  28.472  1.00  0.00     0.031 C 
ATOM     43  C   UNL A   1      46.943  24.673  26.307  1.00  0.00     0.029 A 
ATOM     44  C   UNL A   1      46.710  26.063  26.692  1.00  0.00     0.049 A 
ATOM     45  H   UNL A   1      44.965  26.880  27.484  1.00  0.00     0.167 HD
ATOM     46  C   UNL A   1      41.191  28.531  28.907  1.00  0.00     0.037 A 
ATOM     47  C   UNL A   1      47.612  27.059  26.599  1.00  0.00     0.037 A 
ATOM     48  C   UNL A   1      42.117  29.635  28.938  1.00  0.00     0.049 A 
ATOM     49  C   UNL A   1      47.230  28.449  27.029  1.00  0.00     0.074 A 
ATOM     50  C   UNL A   1      41.901  30.928  29.382  1.00  0.00     0.029 A 
ATOM     51  N   UNL A   1      43.431  29.578  28.501  1.00  0.00    -0.354 N 
ATOM     52  N   UNL A   1      46.092  28.881  27.513  1.00  0.00    -0.248 NA
ATOM     53  C   UNL A   1      48.260  29.492  26.901  1.00  0.00     0.031 C 
ATOM     54  C   UNL A   1      43.070  31.666  29.170  1.00  0.00     0.029 A 
ATOM     55  C   UNL A   1      44.031  30.820  28.643  1.00  0.00     0.049 A 
ATOM     56  H   UNL A   1      43.875  28.775  28.143  1.00  0.00     0.167 HD
ATOM     57  C   UNL A   1      46.276  30.231  27.779  1.00  0.00     0.074 A 
ATOM     58  C   UNL A   1      47.639  30.548  27.408  1.00  0.00     0.031 C 
ATOM     59  C   UNL A   1      45.394  31.124  28.289  1.00  0.00     0.037 A 
BRANCH  46  60
ATOM     60  C   UNL A   1      39.781  28.786  29.354  1.00  0.00     0.064 A 
ATOM     61  C   UNL A   1      39.393  28.620  30.692  1.00  0.00     0.173 A 
ATOM     62  C   UNL A   1      38.819  29.253  28.445  1.00  0.00     0.173 A 
ATOM     63  F   UNL A   1      40.273  28.170  31.600  1.00  0.00    -0.203 F 
ATOM     64  C   UNL A   1      38.087  28.886  31.098  1.00  0.00     0.198 A 
ATOM     65  C   UNL A   1      37.523  29.545  28.860  1.00  0.00     0.198 A 
ATOM     66  F   UNL A   1      39.141  29.439  27.156  1.00  0.00    -0.203 F 
ATOM     67  F   UNL A   1      37.729  28.679  32.372  1.00  0.00    -0.200 F 
ATOM     68  C   UNL A   1      37.156  29.355  30.184  1.00  0.00     0.200 A 
ATOM     69  F   UNL A   1      36.628  30.012  27.979  1.00  0.00    -0.200 F 
ATOM     70  F   UNL A   1      35.902  29.618  30.578  1.00  0.00    -0.200 F 
ENDBRANCH  46  60
BRANCH  47  71
ATOM     71  C   UNL A   1      48.977  26.775  26.080  1.00  0.00     0.064 A 
ATOM     72  C   UNL A   1      49.983  26.293  26.928  1.00  0.00     0.173 A 
ATOM     73  C   UNL A   1      49.303  26.985  24.732  1.00  0.00     0.173 A 
ATOM     74  F   UNL A   1      49.725  26.100  28.230  1.00  0.00    -0.203 F 
ATOM     75  C   UNL A   1      51.268  26.046  26.451  1.00  0.00     0.198 A 
ATOM     76  C   UNL A   1      50.582  26.712  24.251  1.00  0.00     0.198 A 
ATOM     77  F   UNL A   1      48.376  27.445  23.880  1.00  0.00    -0.203 F 
ATOM     78  F   UNL A   1      52.224  25.629  27.293  1.00  0.00    -0.200 F 
ATOM     79  C   UNL A   1      51.565  26.251  25.113  1.00  0.00     0.200 A 
ATOM     80  F   UNL A   1      50.861  26.899  22.954  1.00  0.00    -0.200 F 
ATOM     81  F   UNL A   1      52.802  26.011  24.654  1.00  0.00    -0.200 F 
ENDBRANCH  47  71
BRANCH  59  82
ATOM     82  C   UNL A   1      45.881  32.524  28.528  1.00  0.00     0.064 A 
ATOM     83  C   UNL A   1      45.720  33.535  27.569  1.00  0.00     0.173 A 
ATOM     84  C   UNL A   1      46.460  32.870  29.758  1.00  0.00     0.173 A 
ATOM     85  F   UNL A   1      45.187  33.251  26.371  1.00  0.00    -0.203 F 
ATOM     86  C   UNL A   1      46.135  34.839  27.830  1.00  0.00     0.198 A 
ATOM     87  C   UNL A   1      46.848  34.180  30.025  1.00  0.00     0.198 A 
ATOM     88  F   UNL A   1      46.632  31.941  30.710  1.00  0.00    -0.203 F 
ATOM     89  F   UNL A   1      46.003  35.782  26.887  1.00  0.00    -0.200 F 
ATOM     90  C   UNL A   1      46.689  35.162  29.059  1.00  0.00     0.200 A 
ATOM     91  F   UNL A   1      47.371  34.493  31.219  1.00  0.00    -0.200 F 
ATOM     92  F   UNL A   1      47.073  36.421  29.313  1.00  0.00    -0.200 F 
ENDBRANCH  59  82
ENDBRANCH  33  34
ENDBRANCH  25  28
ENDBRANCH  23  24
ENDBRANCH  22  23
ENDBRANCH   1  22
TORSDOF 14
ENDMDL
MODEL 3
REMARK VINA RESULT:     -11.5      6.179     11.541
REMARK SMILES CC[C@](C)(NC(=O)NCc1ccco1)C(=O)NCCCNC(=O)c1ccc(-c2c3nc(c(-c4c(F)c(F)c(F)c(F)c4F)c4ccc([nH]4)c(-c4c(F)c(F)c(F)c(F)c4F)c4nc(c(-c5c(F)c(F)c(F)c(F)c5F)c5ccc2[nH]5)C=C4)C=C3)cc1
REMARK SMILES IDX 18 1 17 2 15 3 16 4 3 6 4 7 2 8 1 9 5 10 6 11 7 13 8 14 9 16
REMARK SMILES IDX 10 17 11 18 14 19 12 20 13 21 19 22 20 23 21 24 22 25 23 27
REMARK SMILES IDX 24 28 25 29 86 30 26 31 85 32 27 33 28 34 29 35 79 36 30 37
REMARK SMILES IDX 84 38 78 39 80 40 31 41 83 42 77 43 76 44 32 46 64 47 44 48
REMARK SMILES IDX 63 49 45 50 48 51 62 52 81 53 46 54 47 55 61 57 82 58 49 59
REMARK SMILES IDX 33 60 34 61 42 62 35 63 36 64 40 65 43 66 37 67 38 68 41 69
REMARK SMILES IDX 39 70 65 71 66 72 74 73 67 74 68 75 72 76 75 77 69 78 70 79
REMARK SMILES IDX 73 80 71 81 50 82 51 83 59 84 52 85 53 86 57 87 60 88 54 89
REMARK SMILES IDX 55 90 58 91 56 92
REMARK H PARENT 17 5 5 12 8 15 21 26 80 45 48 56
REMARK Flexibility Score: inf
ROOT
ATOM      1  C   UNL A   1      32.014  30.126  26.382  1.00  0.00     0.117 C 
ENDROOT
BRANCH   1   2
ATOM      2  N   UNL A   1      33.107  29.765  25.494  1.00  0.00    -0.354 N 
ATOM      3  C   UNL A   1      33.347  28.705  24.661  1.00  0.00     0.245 C 
ATOM      4  O   UNL A   1      34.107  28.904  23.706  1.00  0.00    -0.272 OA
ATOM      5  H   UNL A   1      33.835  30.429  25.491  1.00  0.00     0.163 HD
BRANCH   3   6
ATOM      6  C   UNL A   1      32.640  27.337  24.821  1.00  0.00     0.117 C 
ATOM      7  C   UNL A   1      31.342  27.390  25.651  1.00  0.00     0.045 C 
BRANCH   6   8
ATOM      8  C   UNL A   1      33.654  26.395  25.554  1.00  0.00     0.035 C 
ATOM      9  C   UNL A   1      33.122  25.002  25.897  1.00  0.00     0.007 C 
ENDBRANCH   6   8
BRANCH   6  10
ATOM     10  N   UNL A   1      32.311  26.801  23.487  1.00  0.00    -0.324 N 
ATOM     11  C   UNL A   1      31.480  27.147  22.499  1.00  0.00     0.316 C 
ATOM     12  H   UNL A   1      32.830  25.992  23.272  1.00  0.00     0.166 HD
ATOM     13  O   UNL A   1      31.380  26.344  21.564  1.00  0.00    -0.249 OA
ATOM     14  N   UNL A   1      30.808  28.291  22.372  1.00  0.00    -0.331 N 
ATOM     15  H   UNL A   1      30.473  28.400  21.453  1.00  0.00     0.165 HD
BRANCH  14  16
ATOM     16  C   UNL A   1      30.425  29.426  23.200  1.00  0.00     0.193 C 
BRANCH  16  17
ATOM     17  C   UNL A   1      29.312  30.211  22.584  1.00  0.00     0.122 A 
ATOM     18  C   UNL A   1      28.461  31.199  23.042  1.00  0.00     0.047 A 
ATOM     19  O   UNL A   1      29.068  29.999  21.256  1.00  0.00    -0.467 OA
ATOM     20  C   UNL A   1      27.657  31.593  21.939  1.00  0.00     0.042 A 
ATOM     21  C   UNL A   1      28.068  30.830  20.875  1.00  0.00     0.195 A 
ENDBRANCH  16  17
ENDBRANCH  14  16
ENDBRANCH   6  10
ENDBRANCH   3   6
ENDBRANCH   1   2
BRANCH   1  22
ATOM     22  C   UNL A   1      31.727  31.602  26.657  1.00  0.00     0.042 C 
BRANCH  22  23
ATOM     23  C   UNL A   1      32.876  32.514  27.065  1.00  0.00     0.118 C 
BRANCH  23  24
ATOM     24  N   UNL A   1      32.463  33.827  27.528  1.00  0.00    -0.352 N 
ATOM     25  C   UNL A   1      33.028  34.640  28.485  1.00  0.00     0.251 C 
ATOM     26  H   UNL A   1      31.658  34.191  27.092  1.00  0.00     0.163 HD
ATOM     27  O   UNL A   1      32.528  35.720  28.748  1.00  0.00    -0.269 OA
BRANCH  25  28
ATOM     28  C   UNL A   1      34.224  34.188  29.236  1.00  0.00     0.039 A 
ATOM     29  C   UNL A   1      34.031  33.411  30.383  1.00  0.00     0.014 A 
ATOM     30  C   UNL A   1      35.518  34.532  28.835  1.00  0.00     0.014 A 
ATOM     31  C   UNL A   1      35.133  32.912  31.084  1.00  0.00     0.010 A 
ATOM     32  C   UNL A   1      36.620  34.003  29.516  1.00  0.00     0.010 A 
ATOM     33  C   UNL A   1      36.437  33.172  30.635  1.00  0.00    -0.014 A 
BRANCH  33  34
ATOM     34  C   UNL A   1      37.613  32.533  31.287  1.00  0.00     0.031 A 
ATOM     35  C   UNL A   1      38.341  31.399  30.625  1.00  0.00     0.074 A 
ATOM     36  C   UNL A   1      37.989  32.939  32.516  1.00  0.00     0.049 A 
ATOM     37  N   UNL A   1      39.329  30.668  31.082  1.00  0.00    -0.248 NA
ATOM     38  C   UNL A   1      37.892  31.027  29.276  1.00  0.00     0.031 C 
ATOM     39  C   UNL A   1      37.355  34.016  33.278  1.00  0.00     0.029 A 
ATOM     40  N   UNL A   1      38.983  32.483  33.349  1.00  0.00    -0.354 N 
ATOM     41  C   UNL A   1      39.614  29.747  30.083  1.00  0.00     0.074 A 
ATOM     42  C   UNL A   1      38.673  29.988  29.009  1.00  0.00     0.031 C 
ATOM     43  C   UNL A   1      37.975  34.141  34.462  1.00  0.00     0.029 A 
ATOM     44  C   UNL A   1      39.023  33.128  34.562  1.00  0.00     0.049 A 
ATOM     45  H   UNL A   1      39.606  31.764  33.101  1.00  0.00     0.167 HD
ATOM     46  C   UNL A   1      40.580  28.796  30.062  1.00  0.00     0.037 A 
ATOM     47  C   UNL A   1      39.801  32.917  35.642  1.00  0.00     0.037 A 
ATOM     48  C   UNL A   1      41.522  28.562  31.127  1.00  0.00     0.049 A 
ATOM     49  C   UNL A   1      40.840  31.830  35.605  1.00  0.00     0.074 A 
ATOM     50  C   UNL A   1      42.562  27.650  31.172  1.00  0.00     0.029 A 
ATOM     51  N   UNL A   1      41.535  29.242  32.335  1.00  0.00    -0.354 N 
ATOM     52  N   UNL A   1      41.136  31.001  34.634  1.00  0.00    -0.248 NA
ATOM     53  C   UNL A   1      41.657  31.649  36.815  1.00  0.00     0.031 C 
ATOM     54  C   UNL A   1      43.174  27.744  32.427  1.00  0.00     0.029 A 
ATOM     55  C   UNL A   1      42.549  28.751  33.143  1.00  0.00     0.049 A 
ATOM     56  H   UNL A   1      40.915  29.966  32.584  1.00  0.00     0.167 HD
ATOM     57  C   UNL A   1      42.190  30.227  35.099  1.00  0.00     0.074 A 
ATOM     58  C   UNL A   1      42.487  30.686  36.439  1.00  0.00     0.031 C 
ATOM     59  C   UNL A   1      42.852  29.227  34.469  1.00  0.00     0.037 A 
BRANCH  46  60
ATOM     60  C   UNL A   1      40.665  27.920  28.846  1.00  0.00     0.064 A 
ATOM     61  C   UNL A   1      39.889  26.758  28.721  1.00  0.00     0.173 A 
ATOM     62  C   UNL A   1      41.493  28.274  27.769  1.00  0.00     0.173 A 
ATOM     63  F   UNL A   1      39.085  26.372  29.723  1.00  0.00    -0.203 F 
ATOM     64  C   UNL A   1      39.958  25.969  27.575  1.00  0.00     0.198 A 
ATOM     65  C   UNL A   1      41.539  27.499  26.614  1.00  0.00     0.198 A 
ATOM     66  F   UNL A   1      42.248  29.382  27.832  1.00  0.00    -0.203 F 
ATOM     67  F   UNL A   1      39.240  24.841  27.496  1.00  0.00    -0.200 F 
ATOM     68  C   UNL A   1      40.777  26.344  26.520  1.00  0.00     0.200 A 
ATOM     69  F   UNL A   1      42.320  27.871  25.589  1.00  0.00    -0.200 F 
ATOM     70  F   UNL A   1      40.838  25.588  25.415  1.00  0.00    -0.200 F 
ENDBRANCH  46  60
BRANCH  47  71
ATOM     71  C   UNL A   1      39.631  33.762  36.853  1.00  0.00     0.064 A 
ATOM     72  C   UNL A   1      38.808  33.347  37.910  1.00  0.00     0.173 A 
ATOM     73  C   UNL A   1      40.278  35.000  36.976  1.00  0.00     0.173 A 
ATOM     74  F   UNL A   1      38.148  32.182  37.827  1.00  0.00    -0.203 F 
ATOM     75  C   UNL A   1      38.627  34.145  39.037  1.00  0.00     0.198 A 
ATOM     76  C   UNL A   1      40.118  35.785  38.117  1.00  0.00     0.198 A 
ATOM     77  F   UNL A   1      41.076  35.442  35.993  1.00  0.00    -0.203 F 
ATOM     78  F   UNL A   1      37.800  33.746  40.012  1.00  0.00    -0.200 F 
ATOM     79  C   UNL A   1      39.286  35.361  39.142  1.00  0.00     0.200 A 
ATOM     80  F   UNL A   1      40.767  36.953  38.219  1.00  0.00    -0.200 F 
ATOM     81  F   UNL A   1      39.115  36.127  40.228  1.00  0.00    -0.200 F 
ENDBRANCH  47  71
BRANCH  59  82
ATOM     82  C   UNL A   1      44.001  28.588  35.193  1.00  0.00     0.064 A 
ATOM     83  C   UNL A   1      43.826  27.455  36.002  1.00  0.00     0.173 A 
ATOM     84  C   UNL A   1      45.304  29.080  35.025  1.00  0.00     0.173 A 
ATOM     85  F   UNL A   1      42.598  26.956  36.207  1.00  0.00    -0.203 F 
ATOM     86  C   UNL A   1      44.913  26.849  36.626  1.00  0.00     0.198 A 
ATOM     87  C   UNL A   1      46.391  28.455  35.628  1.00  0.00     0.198 A 
ATOM     88  F   UNL A   1      45.525  30.159  34.258  1.00  0.00    -0.203 F 
ATOM     89  F   UNL A   1      44.719  25.788  37.422  1.00  0.00    -0.200 F 
ATOM     90  C   UNL A   1      46.194  27.342  36.431  1.00  0.00     0.200 A 
ATOM     91  F   UNL A   1      47.630  28.926  35.428  1.00  0.00    -0.200 F 
ATOM     92  F   UNL A   1      47.240  26.747  37.021  1.00  0.00    -0.200 F 
ENDBRANCH  59  82
ENDBRANCH  33  34
ENDBRANCH  25  28
ENDBRANCH  23  24
ENDBRANCH  22  23
ENDBRANCH   1  22
TORSDOF 14
ENDMDL
