MODEL 1
REMARK VINA RESULT:     -13.4      0.000      0.000
REMARK SMILES Nc1nc2ccccc2nc1N1CCCC[C@@H]1C(=O)NCCCNC(=O)c1ccc(-c2c3nc(c(-c4c(F)c(F)c(F)c(F)c4F)c4ccc([nH]4)c(-c4c(F)c(F)c(F)c(F)c4F)c4nc(c(-c5c(F)c(F)c(F)c(F)c5F)c5ccc2[nH]5)C=C4)C=C3)cc1
REMARK SMILES IDX 22 1 21 2 20 3 18 4 19 5 17 7 12 8 13 9 14 10 16 11 15 12
REMARK SMILES IDX 11 13 2 14 3 15 4 16 10 17 5 18 9 19 6 20 8 21 7 22 1 23
REMARK SMILES IDX 23 26 24 27 25 28 26 30 27 31 28 32 89 33 29 34 88 35 30 36
REMARK SMILES IDX 31 37 32 38 82 39 33 40 87 41 81 42 83 43 34 44 86 45 80 46
REMARK SMILES IDX 79 47 35 49 67 50 47 51 66 52 48 53 51 54 65 55 84 56 49 57
REMARK SMILES IDX 50 58 64 60 85 61 52 62 36 63 37 64 45 65 38 66 39 67 43 68
REMARK SMILES IDX 46 69 40 70 41 71 44 72 42 73 68 74 69 75 77 76 70 77 71 78
REMARK SMILES IDX 75 79 78 80 72 81 73 82 76 83 74 84 53 85 54 86 62 87 55 88
REMARK SMILES IDX 56 89 60 90 63 91 57 92 58 93 61 94 59 95
REMARK H PARENT 20 6 1 24 1 25 24 29 83 48 51 59
REMARK Flexibility Score: inf
ROOT
ATOM      1  C   UNL A   1      32.771  29.709  25.376  1.00  0.00     0.042 C 
ENDROOT
BRANCH   1   2
ATOM      2  C   UNL A   1      33.786  28.582  25.413  1.00  0.00     0.117 C 
BRANCH   2   3
ATOM      3  N   UNL A   1      33.283  27.407  26.104  1.00  0.00    -0.354 N 
ATOM      4  C   UNL A   1      33.169  26.115  25.678  1.00  0.00     0.242 C 
ATOM      5  O   UNL A   1      32.654  25.312  26.465  1.00  0.00    -0.273 OA
ATOM      6  H   UNL A   1      32.976  27.569  27.025  1.00  0.00     0.163 HD
BRANCH   4   7
ATOM      7  C   UNL A   1      33.546  25.676  24.245  1.00  0.00     0.173 C 
ATOM      8  N   UNL A   1      32.497  25.801  23.206  1.00  0.00    -0.342 N 
ATOM      9  C   UNL A   1      32.730  25.188  21.906  1.00  0.00     0.119 C 
ATOM     10  C   UNL A   1      33.113  23.723  22.076  1.00  0.00     0.022 C 
ATOM     11  C   UNL A   1      34.070  24.227  24.337  1.00  0.00     0.035 C 
ATOM     12  C   UNL A   1      34.335  23.592  22.977  1.00  0.00     0.004 C 
BRANCH   8  13
ATOM     13  C   UNL A   1      31.329  26.525  23.347  1.00  0.00     0.172 A 
ATOM     14  C   UNL A   1      30.133  26.011  23.902  1.00  0.00     0.167 A 
ATOM     15  N   UNL A   1      28.959  26.673  23.819  1.00  0.00    -0.226 NA
ATOM     16  C   UNL A   1      28.973  27.863  23.192  1.00  0.00     0.091 A 
ATOM     17  N   UNL A   1      31.344  27.771  22.812  1.00  0.00    -0.225 NA
ATOM     18  C   UNL A   1      27.783  28.550  22.990  1.00  0.00     0.031 A 
ATOM     19  C   UNL A   1      30.174  28.420  22.702  1.00  0.00     0.091 A 
ATOM     20  C   UNL A   1      27.752  29.764  22.298  1.00  0.00     0.002 A 
ATOM     21  C   UNL A   1      30.137  29.635  22.030  1.00  0.00     0.031 A 
ATOM     22  C   UNL A   1      28.934  30.308  21.815  1.00  0.00     0.002 A 
BRANCH  14  23
ATOM     23  N   UNL A   1      30.069  24.770  24.514  1.00  0.00    -0.381 N 
ATOM     24  H   UNL A   1      30.737  24.523  25.195  1.00  0.00     0.158 HD
ATOM     25  H   UNL A   1      29.359  24.136  24.269  1.00  0.00     0.158 HD
ENDBRANCH  14  23
ENDBRANCH   8  13
ENDBRANCH   4   7
ENDBRANCH   2   3
ENDBRANCH   1   2
BRANCH   1  26
ATOM     26  C   UNL A   1      32.313  30.149  26.756  1.00  0.00     0.118 C 
BRANCH  26  27
ATOM     27  N   UNL A   1      32.284  31.600  26.918  1.00  0.00    -0.352 N 
ATOM     28  C   UNL A   1      33.216  32.444  27.476  1.00  0.00     0.251 C 
ATOM     29  H   UNL A   1      31.474  32.042  26.575  1.00  0.00     0.163 HD
ATOM     30  O   UNL A   1      32.953  33.628  27.661  1.00  0.00    -0.269 OA
BRANCH  28  31
ATOM     31  C   UNL A   1      34.526  31.906  27.900  1.00  0.00     0.039 A 
ATOM     32  C   UNL A   1      34.651  30.572  28.284  1.00  0.00     0.014 A 
ATOM     33  C   UNL A   1      35.629  32.762  27.964  1.00  0.00     0.014 A 
ATOM     34  C   UNL A   1      35.801  30.155  28.942  1.00  0.00     0.010 A 
ATOM     35  C   UNL A   1      36.825  32.306  28.524  1.00  0.00     0.010 A 
ATOM     36  C   UNL A   1      36.899  31.019  29.078  1.00  0.00    -0.014 A 
BRANCH  36  37
ATOM     37  C   UNL A   1      38.099  30.558  29.822  1.00  0.00     0.031 A 
ATOM     38  C   UNL A   1      38.315  30.959  31.257  1.00  0.00     0.074 A 
ATOM     39  C   UNL A   1      38.959  29.711  29.224  1.00  0.00     0.049 A 
ATOM     40  N   UNL A   1      39.306  30.655  32.060  1.00  0.00    -0.248 NA
ATOM     41  C   UNL A   1      37.290  31.814  31.877  1.00  0.00     0.031 C 
ATOM     42  C   UNL A   1      38.842  29.229  27.846  1.00  0.00     0.029 A 
ATOM     43  N   UNL A   1      40.079  29.081  29.702  1.00  0.00    -0.354 N 
ATOM     44  C   UNL A   1      39.038  31.300  33.260  1.00  0.00     0.074 A 
ATOM     45  C   UNL A   1      37.802  32.030  33.081  1.00  0.00     0.031 C 
ATOM     46  C   UNL A   1      39.807  28.329  27.612  1.00  0.00     0.029 A 
ATOM     47  C   UNL A   1      40.655  28.227  28.795  1.00  0.00     0.049 A 
ATOM     48  H   UNL A   1      40.436  29.227  30.608  1.00  0.00     0.167 HD
ATOM     49  C   UNL A   1      39.752  31.274  34.410  1.00  0.00     0.037 A 
ATOM     50  C   UNL A   1      41.754  27.456  28.897  1.00  0.00     0.037 A 
ATOM     51  C   UNL A   1      40.963  30.518  34.599  1.00  0.00     0.049 A 
ATOM     52  C   UNL A   1      42.545  27.475  30.171  1.00  0.00     0.074 A 
ATOM     53  C   UNL A   1      41.756  30.426  35.730  1.00  0.00     0.029 A 
ATOM     54  N   UNL A   1      41.549  29.714  33.633  1.00  0.00    -0.354 N 
ATOM     55  N   UNL A   1      42.297  28.115  31.286  1.00  0.00    -0.248 NA
ATOM     56  C   UNL A   1      43.780  26.680  30.194  1.00  0.00     0.031 C 
ATOM     57  C   UNL A   1      42.838  29.590  35.439  1.00  0.00     0.029 A 
ATOM     58  C   UNL A   1      42.700  29.131  34.139  1.00  0.00     0.049 A 
ATOM     59  H   UNL A   1      41.199  29.577  32.723  1.00  0.00     0.167 HD
ATOM     60  C   UNL A   1      43.338  27.798  32.146  1.00  0.00     0.074 A 
ATOM     61  C   UNL A   1      44.210  26.889  31.432  1.00  0.00     0.031 C 
ATOM     62  C   UNL A   1      43.556  28.231  33.411  1.00  0.00     0.037 A 
BRANCH  49  63
ATOM     63  C   UNL A   1      39.254  32.093  35.565  1.00  0.00     0.064 A 
ATOM     64  C   UNL A   1      38.434  31.540  36.559  1.00  0.00     0.173 A 
ATOM     65  C   UNL A   1      39.662  33.427  35.718  1.00  0.00     0.173 A 
ATOM     66  F   UNL A   1      38.006  30.273  36.452  1.00  0.00    -0.203 F 
ATOM     67  C   UNL A   1      38.031  32.296  37.657  1.00  0.00     0.198 A 
ATOM     68  C   UNL A   1      39.278  34.172  36.830  1.00  0.00     0.198 A 
ATOM     69  F   UNL A   1      40.452  34.002  34.798  1.00  0.00    -0.203 F 
ATOM     70  F   UNL A   1      37.225  31.755  38.581  1.00  0.00    -0.200 F 
ATOM     71  C   UNL A   1      38.461  33.608  37.796  1.00  0.00     0.200 A 
ATOM     72  F   UNL A   1      39.703  35.436  36.968  1.00  0.00    -0.200 F 
ATOM     73  F   UNL A   1      38.085  34.327  38.862  1.00  0.00    -0.200 F 
ENDBRANCH  49  63
BRANCH  50  74
ATOM     74  C   UNL A   1      42.160  26.605  27.750  1.00  0.00     0.064 A 
ATOM     75  C   UNL A   1      43.122  27.047  26.833  1.00  0.00     0.173 A 
ATOM     76  C   UNL A   1      41.620  25.324  27.566  1.00  0.00     0.173 A 
ATOM     77  F   UNL A   1      43.651  28.274  26.957  1.00  0.00    -0.203 F 
ATOM     78  C   UNL A   1      43.529  26.239  25.774  1.00  0.00     0.198 A 
ATOM     79  C   UNL A   1      42.047  24.507  26.523  1.00  0.00     0.198 A 
ATOM     80  F   UNL A   1      40.697  24.855  28.419  1.00  0.00    -0.203 F 
ATOM     81  F   UNL A   1      44.432  26.695  24.896  1.00  0.00    -0.200 F 
ATOM     82  C   UNL A   1      42.999  24.967  25.626  1.00  0.00     0.200 A 
ATOM     83  F   UNL A   1      41.544  23.271  26.393  1.00  0.00    -0.200 F 
ATOM     84  F   UNL A   1      43.403  24.183  24.616  1.00  0.00    -0.200 F 
ENDBRANCH  50  74
BRANCH  62  85
ATOM     85  C   UNL A   1      44.780  27.718  34.109  1.00  0.00     0.064 A 
ATOM     86  C   UNL A   1      45.987  28.430  34.076  1.00  0.00     0.173 A 
ATOM     87  C   UNL A   1      44.729  26.535  34.859  1.00  0.00     0.173 A 
ATOM     88  F   UNL A   1      46.085  29.560  33.360  1.00  0.00    -0.203 F 
ATOM     89  C   UNL A   1      47.108  27.965  34.758  1.00  0.00     0.198 A 
ATOM     90  C   UNL A   1      45.845  26.085  35.558  1.00  0.00     0.198 A 
ATOM     91  F   UNL A   1      43.594  25.823  34.924  1.00  0.00    -0.203 F 
ATOM     92  F   UNL A   1      48.262  28.642  34.686  1.00  0.00    -0.200 F 
ATOM     93  C   UNL A   1      47.034  26.798  35.504  1.00  0.00     0.200 A 
ATOM     94  F   UNL A   1      45.770  24.963  36.288  1.00  0.00    -0.200 F 
ATOM     95  F   UNL A   1      48.111  26.357  36.167  1.00  0.00    -0.200 F 
ENDBRANCH  62  85
ENDBRANCH  36  37
ENDBRANCH  28  31
ENDBRANCH  26  27
ENDBRANCH   1  26
TORSDOF 12
ENDMDL
MODEL 2
REMARK VINA RESULT:     -13.4      0.110      1.596
REMARK SMILES Nc1nc2ccccc2nc1N1CCCC[C@@H]1C(=O)NCCCNC(=O)c1ccc(-c2c3nc(c(-c4c(F)c(F)c(F)c(F)c4F)c4ccc([nH]4)c(-c4c(F)c(F)c(F)c(F)c4F)c4nc(c(-c5c(F)c(F)c(F)c(F)c5F)c5ccc2[nH]5)C=C4)C=C3)cc1
REMARK SMILES IDX 22 1 21 2 20 3 18 4 19 5 17 7 12 8 13 9 14 10 16 11 15 12
REMARK SMILES IDX 11 13 2 14 3 15 4 16 10 17 5 18 9 19 6 20 8 21 7 22 1 23
REMARK SMILES IDX 23 26 24 27 25 28 26 30 27 31 28 32 89 33 29 34 88 35 30 36
REMARK SMILES IDX 31 37 32 38 82 39 33 40 87 41 81 42 83 43 34 44 86 45 80 46
REMARK SMILES IDX 79 47 35 49 67 50 47 51 66 52 48 53 51 54 65 55 84 56 49 57
REMARK SMILES IDX 50 58 64 60 85 61 52 62 36 63 37 64 45 65 38 66 39 67 43 68
REMARK SMILES IDX 46 69 40 70 41 71 44 72 42 73 68 74 69 75 77 76 70 77 71 78
REMARK SMILES IDX 75 79 78 80 72 81 73 82 76 83 74 84 53 85 54 86 62 87 55 88
REMARK SMILES IDX 56 89 60 90 63 91 57 92 58 93 61 94 59 95
REMARK H PARENT 20 6 1 24 1 25 24 29 83 48 51 59
REMARK Flexibility Score: inf
ROOT
ATOM      1  C   UNL A   1      32.928  29.699  25.349  1.00  0.00     0.042 C 
ENDROOT
BRANCH   1   2
ATOM      2  C   UNL A   1      33.905  28.539  25.396  1.00  0.00     0.117 C 
BRANCH   2   3
ATOM      3  N   UNL A   1      33.362  27.387  26.095  1.00  0.00    -0.354 N 
ATOM      4  C   UNL A   1      33.204  26.096  25.680  1.00  0.00     0.242 C 
ATOM      5  O   UNL A   1      32.662  25.317  26.472  1.00  0.00    -0.273 OA
ATOM      6  H   UNL A   1      33.060  27.566  27.015  1.00  0.00     0.163 HD
BRANCH   4   7
ATOM      7  C   UNL A   1      33.567  25.634  24.250  1.00  0.00     0.173 C 
ATOM      8  N   UNL A   1      32.511  25.749  23.218  1.00  0.00    -0.342 N 
ATOM      9  C   UNL A   1      32.730  25.116  21.925  1.00  0.00     0.119 C 
ATOM     10  C   UNL A   1      33.106  23.652  22.114  1.00  0.00     0.022 C 
ATOM     11  C   UNL A   1      34.083  24.183  24.359  1.00  0.00     0.035 C 
ATOM     12  C   UNL A   1      34.334  23.527  23.007  1.00  0.00     0.004 C 
BRANCH   8  13
ATOM     13  C   UNL A   1      31.349  26.483  23.357  1.00  0.00     0.172 A 
ATOM     14  C   UNL A   1      30.147  25.977  23.909  1.00  0.00     0.167 A 
ATOM     15  N   UNL A   1      28.979  26.649  23.824  1.00  0.00    -0.226 NA
ATOM     16  C   UNL A   1      29.004  27.839  23.199  1.00  0.00     0.091 A 
ATOM     17  N   UNL A   1      31.374  27.729  22.824  1.00  0.00    -0.225 NA
ATOM     18  C   UNL A   1      27.819  28.537  22.994  1.00  0.00     0.031 A 
ATOM     19  C   UNL A   1      30.210  28.387  22.712  1.00  0.00     0.091 A 
ATOM     20  C   UNL A   1      27.799  29.751  22.304  1.00  0.00     0.002 A 
ATOM     21  C   UNL A   1      30.183  29.603  22.041  1.00  0.00     0.031 A 
ATOM     22  C   UNL A   1      28.987  30.286  21.824  1.00  0.00     0.002 A 
BRANCH  14  23
ATOM     23  N   UNL A   1      30.073  24.737  24.519  1.00  0.00    -0.381 N 
ATOM     24  H   UNL A   1      30.342  23.928  24.026  1.00  0.00     0.158 HD
ATOM     25  H   UNL A   1      29.750  24.663  25.446  1.00  0.00     0.158 HD
ENDBRANCH  14  23
ENDBRANCH   8  13
ENDBRANCH   4   7
ENDBRANCH   2   3
ENDBRANCH   1   2
BRANCH   1  26
ATOM     26  C   UNL A   1      32.418  30.110  26.719  1.00  0.00     0.118 C 
BRANCH  26  27
ATOM     27  N   UNL A   1      32.384  31.557  26.911  1.00  0.00    -0.352 N 
ATOM     28  C   UNL A   1      33.305  32.391  27.502  1.00  0.00     0.251 C 
ATOM     29  H   UNL A   1      31.579  32.005  26.565  1.00  0.00     0.163 HD
ATOM     30  O   UNL A   1      33.037  33.571  27.707  1.00  0.00    -0.269 OA
BRANCH  28  31
ATOM     31  C   UNL A   1      34.609  31.846  27.935  1.00  0.00     0.039 A 
ATOM     32  C   UNL A   1      34.718  30.520  28.352  1.00  0.00     0.014 A 
ATOM     33  C   UNL A   1      35.724  32.689  27.977  1.00  0.00     0.014 A 
ATOM     34  C   UNL A   1      35.864  30.104  29.017  1.00  0.00     0.010 A 
ATOM     35  C   UNL A   1      36.915  32.231  28.546  1.00  0.00     0.010 A 
ATOM     36  C   UNL A   1      36.974  30.956  29.130  1.00  0.00    -0.014 A 
BRANCH  36  37
ATOM     37  C   UNL A   1      38.169  30.498  29.883  1.00  0.00     0.031 A 
ATOM     38  C   UNL A   1      38.381  30.910  31.315  1.00  0.00     0.074 A 
ATOM     39  C   UNL A   1      39.028  29.643  29.295  1.00  0.00     0.049 A 
ATOM     40  N   UNL A   1      39.368  30.610  32.125  1.00  0.00    -0.248 NA
ATOM     41  C   UNL A   1      37.356  31.774  31.924  1.00  0.00     0.031 C 
ATOM     42  C   UNL A   1      38.915  29.150  27.921  1.00  0.00     0.029 A 
ATOM     43  N   UNL A   1      40.145  29.014  29.783  1.00  0.00    -0.354 N 
ATOM     44  C   UNL A   1      39.097  31.266  33.318  1.00  0.00     0.074 A 
ATOM     45  C   UNL A   1      37.864  31.999  33.127  1.00  0.00     0.031 C 
ATOM     46  C   UNL A   1      39.878  28.244  27.699  1.00  0.00     0.029 A 
ATOM     47  C   UNL A   1      40.721  28.149  28.886  1.00  0.00     0.049 A 
ATOM     48  H   UNL A   1      40.498  29.165  30.689  1.00  0.00     0.167 HD
ATOM     49  C   UNL A   1      39.807  31.247  34.471  1.00  0.00     0.037 A 
ATOM     50  C   UNL A   1      41.816  27.375  28.998  1.00  0.00     0.037 A 
ATOM     51  C   UNL A   1      41.015  30.489  34.671  1.00  0.00     0.049 A 
ATOM     52  C   UNL A   1      42.603  27.403  30.275  1.00  0.00     0.074 A 
ATOM     53  C   UNL A   1      41.802  30.403  35.806  1.00  0.00     0.029 A 
ATOM     54  N   UNL A   1      41.601  29.674  33.714  1.00  0.00    -0.354 N 
ATOM     55  N   UNL A   1      42.353  28.053  31.384  1.00  0.00    -0.248 NA
ATOM     56  C   UNL A   1      43.835  26.604  30.309  1.00  0.00     0.031 C 
ATOM     57  C   UNL A   1      42.883  29.561  35.525  1.00  0.00     0.029 A 
ATOM     58  C   UNL A   1      42.748  29.092  34.229  1.00  0.00     0.049 A 
ATOM     59  H   UNL A   1      41.254  29.531  32.803  1.00  0.00     0.167 HD
ATOM     60  C   UNL A   1      43.389  27.740  32.250  1.00  0.00     0.074 A 
ATOM     61  C   UNL A   1      44.261  26.821  31.547  1.00  0.00     0.031 C 
ATOM     62  C   UNL A   1      43.604  28.183  33.512  1.00  0.00     0.037 A 
BRANCH  49  63
ATOM     63  C   UNL A   1      39.307  32.078  35.617  1.00  0.00     0.064 A 
ATOM     64  C   UNL A   1      38.460  31.543  36.598  1.00  0.00     0.173 A 
ATOM     65  C   UNL A   1      39.740  33.403  35.775  1.00  0.00     0.173 A 
ATOM     66  F   UNL A   1      38.007  30.285  36.485  1.00  0.00    -0.203 F 
ATOM     67  C   UNL A   1      38.055  32.308  37.689  1.00  0.00     0.198 A 
ATOM     68  C   UNL A   1      39.353  34.157  36.880  1.00  0.00     0.198 A 
ATOM     69  F   UNL A   1      40.557  33.961  34.868  1.00  0.00    -0.203 F 
ATOM     70  F   UNL A   1      37.222  31.785  38.600  1.00  0.00    -0.200 F 
ATOM     71  C   UNL A   1      38.509  33.611  37.834  1.00  0.00     0.200 A 
ATOM     72  F   UNL A   1      39.803  35.412  37.025  1.00  0.00    -0.200 F 
ATOM     73  F   UNL A   1      38.131  34.339  38.893  1.00  0.00    -0.200 F 
ENDBRANCH  49  63
BRANCH  50  74
ATOM     74  C   UNL A   1      42.224  26.514  27.860  1.00  0.00     0.064 A 
ATOM     75  C   UNL A   1      41.664  25.242  27.686  1.00  0.00     0.173 A 
ATOM     76  C   UNL A   1      43.153  26.957  26.907  1.00  0.00     0.173 A 
ATOM     77  F   UNL A   1      40.787  24.768  28.583  1.00  0.00    -0.203 F 
ATOM     78  C   UNL A   1      42.020  24.443  26.601  1.00  0.00     0.198 A 
ATOM     79  C   UNL A   1      43.487  26.169  25.808  1.00  0.00     0.198 A 
ATOM     80  F   UNL A   1      43.714  28.169  27.029  1.00  0.00    -0.203 F 
ATOM     81  F   UNL A   1      41.490  23.220  26.471  1.00  0.00    -0.200 F 
ATOM     82  C   UNL A   1      42.923  24.912  25.659  1.00  0.00     0.200 A 
ATOM     83  F   UNL A   1      44.348  26.632  24.892  1.00  0.00    -0.200 F 
ATOM     84  F   UNL A   1      43.253  24.149  24.606  1.00  0.00    -0.200 F 
ENDBRANCH  50  74
BRANCH  62  85
ATOM     85  C   UNL A   1      44.823  27.672  34.219  1.00  0.00     0.064 A 
ATOM     86  C   UNL A   1      44.792  26.476  34.950  1.00  0.00     0.173 A 
ATOM     87  C   UNL A   1      46.043  28.356  34.121  1.00  0.00     0.173 A 
ATOM     88  F   UNL A   1      43.644  25.795  35.082  1.00  0.00    -0.203 F 
ATOM     89  C   UNL A   1      45.939  25.990  35.572  1.00  0.00     0.198 A 
ATOM     90  C   UNL A   1      47.192  27.856  34.724  1.00  0.00     0.198 A 
ATOM     91  F   UNL A   1      46.122  29.502  33.428  1.00  0.00    -0.203 F 
ATOM     92  F   UNL A   1      45.880  24.863  36.294  1.00  0.00    -0.200 F 
ATOM     93  C   UNL A   1      47.138  26.676  35.453  1.00  0.00     0.200 A 
ATOM     94  F   UNL A   1      48.354  28.513  34.600  1.00  0.00    -0.200 F 
ATOM     95  F   UNL A   1      48.244  26.203  36.044  1.00  0.00    -0.200 F 
ENDBRANCH  62  85
ENDBRANCH  36  37
ENDBRANCH  28  31
ENDBRANCH  26  27
ENDBRANCH   1  26
TORSDOF 12
ENDMDL
MODEL 3
REMARK VINA RESULT:     -13.3      0.187      1.141
REMARK SMILES Nc1nc2ccccc2nc1N1CCCC[C@@H]1C(=O)NCCCNC(=O)c1ccc(-c2c3nc(c(-c4c(F)c(F)c(F)c(F)c4F)c4ccc([nH]4)c(-c4c(F)c(F)c(F)c(F)c4F)c4nc(c(-c5c(F)c(F)c(F)c(F)c5F)c5ccc2[nH]5)C=C4)C=C3)cc1
REMARK SMILES IDX 22 1 21 2 20 3 18 4 19 5 17 7 12 8 13 9 14 10 16 11 15 12
REMARK SMILES IDX 11 13 2 14 3 15 4 16 10 17 5 18 9 19 6 20 8 21 7 22 1 23
REMARK SMILES IDX 23 26 24 27 25 28 26 30 27 31 28 32 89 33 29 34 88 35 30 36
REMARK SMILES IDX 31 37 32 38 82 39 33 40 87 41 81 42 83 43 34 44 86 45 80 46
REMARK SMILES IDX 79 47 35 49 67 50 47 51 66 52 48 53 51 54 65 55 84 56 49 57
REMARK SMILES IDX 50 58 64 60 85 61 52 62 36 63 37 64 45 65 38 66 39 67 43 68
REMARK SMILES IDX 46 69 40 70 41 71 44 72 42 73 68 74 69 75 77 76 70 77 71 78
REMARK SMILES IDX 75 79 78 80 72 81 73 82 76 83 74 84 53 85 54 86 62 87 55 88
REMARK SMILES IDX 56 89 60 90 63 91 57 92 58 93 61 94 59 95
REMARK H PARENT 20 6 1 24 1 25 24 29 83 48 51 59
REMARK Flexibility Score: inf
ROOT
ATOM      1  C   UNL A   1      32.813  29.770  25.477  1.00  0.00     0.042 C 
ENDROOT
BRANCH   1   2
ATOM      2  C   UNL A   1      33.786  28.605  25.485  1.00  0.00     0.117 C 
BRANCH   2   3
ATOM      3  N   UNL A   1      33.242  27.436  26.153  1.00  0.00    -0.354 N 
ATOM      4  C   UNL A   1      33.104  26.151  25.711  1.00  0.00     0.242 C 
ATOM      5  O   UNL A   1      32.555  25.352  26.479  1.00  0.00    -0.273 OA
ATOM      6  H   UNL A   1      32.923  27.594  27.071  1.00  0.00     0.163 HD
BRANCH   4   7
ATOM      7  C   UNL A   1      33.495  25.719  24.280  1.00  0.00     0.173 C 
ATOM      8  N   UNL A   1      32.456  25.845  23.231  1.00  0.00    -0.342 N 
ATOM      9  C   UNL A   1      32.703  25.238  21.931  1.00  0.00     0.119 C 
ATOM     10  C   UNL A   1      33.088  23.774  22.099  1.00  0.00     0.022 C 
ATOM     11  C   UNL A   1      34.022  24.271  24.370  1.00  0.00     0.035 C 
ATOM     12  C   UNL A   1      34.302  23.643  23.011  1.00  0.00     0.004 C 
BRANCH   8  13
ATOM     13  C   UNL A   1      31.284  26.566  23.364  1.00  0.00     0.172 A 
ATOM     14  C   UNL A   1      30.083  26.044  23.902  1.00  0.00     0.167 A 
ATOM     15  N   UNL A   1      28.909  26.704  23.811  1.00  0.00    -0.226 NA
ATOM     16  C   UNL A   1      28.927  27.899  23.193  1.00  0.00     0.091 A 
ATOM     17  N   UNL A   1      31.302  27.815  22.839  1.00  0.00    -0.225 NA
ATOM     18  C   UNL A   1      27.737  28.585  22.981  1.00  0.00     0.031 A 
ATOM     19  C   UNL A   1      30.132  28.462  22.720  1.00  0.00     0.091 A 
ATOM     20  C   UNL A   1      27.711  29.803  22.298  1.00  0.00     0.002 A 
ATOM     21  C   UNL A   1      30.099  29.682  22.056  1.00  0.00     0.031 A 
ATOM     22  C   UNL A   1      28.897  30.354  21.833  1.00  0.00     0.002 A 
BRANCH  14  23
ATOM     23  N   UNL A   1      30.016  24.799  24.504  1.00  0.00    -0.381 N 
ATOM     24  H   UNL A   1      30.184  24.711  25.471  1.00  0.00     0.158 HD
ATOM     25  H   UNL A   1      29.800  24.004  23.967  1.00  0.00     0.158 HD
ENDBRANCH  14  23
ENDBRANCH   8  13
ENDBRANCH   4   7
ENDBRANCH   2   3
ENDBRANCH   1   2
BRANCH   1  26
ATOM     26  C   UNL A   1      32.414  30.229  26.869  1.00  0.00     0.118 C 
BRANCH  26  27
ATOM     27  N   UNL A   1      32.428  31.681  27.022  1.00  0.00    -0.352 N 
ATOM     28  C   UNL A   1      33.390  32.502  27.563  1.00  0.00     0.251 C 
ATOM     29  H   UNL A   1      31.626  32.143  26.688  1.00  0.00     0.163 HD
ATOM     30  O   UNL A   1      33.162  33.694  27.745  1.00  0.00    -0.269 OA
BRANCH  28  31
ATOM     31  C   UNL A   1      34.690  31.930  27.973  1.00  0.00     0.039 A 
ATOM     32  C   UNL A   1      34.782  30.598  28.374  1.00  0.00     0.014 A 
ATOM     33  C   UNL A   1      35.820  32.753  28.006  1.00  0.00     0.014 A 
ATOM     34  C   UNL A   1      35.930  30.155  29.018  1.00  0.00     0.010 A 
ATOM     35  C   UNL A   1      37.010  32.269  28.554  1.00  0.00     0.010 A 
ATOM     36  C   UNL A   1      37.056  30.988  29.124  1.00  0.00    -0.014 A 
BRANCH  36  37
ATOM     37  C   UNL A   1      38.254  30.501  29.855  1.00  0.00     0.031 A 
ATOM     38  C   UNL A   1      38.494  30.896  31.288  1.00  0.00     0.074 A 
ATOM     39  C   UNL A   1      39.088  29.637  29.247  1.00  0.00     0.049 A 
ATOM     40  N   UNL A   1      39.487  30.571  32.080  1.00  0.00    -0.248 NA
ATOM     41  C   UNL A   1      37.494  31.773  31.919  1.00  0.00     0.031 C 
ATOM     42  C   UNL A   1      38.946  29.158  27.870  1.00  0.00     0.029 A 
ATOM     43  N   UNL A   1      40.200  28.983  29.713  1.00  0.00    -0.354 N 
ATOM     44  C   UNL A   1      39.246  31.221  33.283  1.00  0.00     0.074 A 
ATOM     45  C   UNL A   1      38.023  31.977  33.117  1.00  0.00     0.031 C 
ATOM     46  C   UNL A   1      39.889  28.237  27.626  1.00  0.00     0.029 A 
ATOM     47  C   UNL A   1      40.748  28.116  28.799  1.00  0.00     0.049 A 
ATOM     48  H   UNL A   1      40.569  29.119  30.615  1.00  0.00     0.167 HD
ATOM     49  C   UNL A   1      39.972  31.179  34.425  1.00  0.00     0.037 A 
ATOM     50  C   UNL A   1      41.830  27.322  28.888  1.00  0.00     0.037 A 
ATOM     51  C   UNL A   1      41.168  30.397  34.600  1.00  0.00     0.049 A 
ATOM     52  C   UNL A   1      42.636  27.324  30.154  1.00  0.00     0.074 A 
ATOM     53  C   UNL A   1      41.971  30.287  35.722  1.00  0.00     0.029 A 
ATOM     54  N   UNL A   1      41.726  29.581  33.627  1.00  0.00    -0.354 N 
ATOM     55  N   UNL A   1      42.414  27.968  31.272  1.00  0.00    -0.248 NA
ATOM     56  C   UNL A   1      43.854  26.502  30.163  1.00  0.00     0.031 C 
ATOM     57  C   UNL A   1      43.033  29.429  35.418  1.00  0.00     0.029 A 
ATOM     58  C   UNL A   1      42.870  28.974  34.120  1.00  0.00     0.049 A 
ATOM     59  H   UNL A   1      41.363  29.452  32.721  1.00  0.00     0.167 HD
ATOM     60  C   UNL A   1      43.457  27.629  32.120  1.00  0.00     0.074 A 
ATOM     61  C   UNL A   1      44.302  26.701  31.396  1.00  0.00     0.031 C 
ATOM     62  C   UNL A   1      43.699  28.056  33.383  1.00  0.00     0.037 A 
BRANCH  49  63
ATOM     63  C   UNL A   1      39.504  32.008  35.585  1.00  0.00     0.064 A 
ATOM     64  C   UNL A   1      39.917  33.338  35.752  1.00  0.00     0.173 A 
ATOM     65  C   UNL A   1      38.574  31.490  36.499  1.00  0.00     0.173 A 
ATOM     66  F   UNL A   1      40.814  33.876  34.912  1.00  0.00    -0.203 F 
ATOM     67  C   UNL A   1      39.425  34.115  36.798  1.00  0.00     0.198 A 
ATOM     68  C   UNL A   1      38.066  32.277  37.530  1.00  0.00     0.198 A 
ATOM     69  F   UNL A   1      38.141  30.225  36.380  1.00  0.00    -0.203 F 
ATOM     70  F   UNL A   1      39.855  35.374  36.954  1.00  0.00    -0.200 F 
ATOM     71  C   UNL A   1      38.493  33.586  37.680  1.00  0.00     0.200 A 
ATOM     72  F   UNL A   1      37.157  31.768  38.374  1.00  0.00    -0.200 F 
ATOM     73  F   UNL A   1      38.010  34.341  38.676  1.00  0.00    -0.200 F 
ENDBRANCH  49  63
BRANCH  50  74
ATOM     74  C   UNL A   1      42.205  26.464  27.737  1.00  0.00     0.064 A 
ATOM     75  C   UNL A   1      43.190  26.872  26.828  1.00  0.00     0.173 A 
ATOM     76  C   UNL A   1      41.613  25.208  27.541  1.00  0.00     0.173 A 
ATOM     77  F   UNL A   1      43.769  28.074  26.964  1.00  0.00    -0.203 F 
ATOM     78  C   UNL A   1      43.567  26.055  25.764  1.00  0.00     0.198 A 
ATOM     79  C   UNL A   1      42.010  24.381  26.493  1.00  0.00     0.198 A 
ATOM     80  F   UNL A   1      40.666  24.772  28.386  1.00  0.00    -0.203 F 
ATOM     81  F   UNL A   1      44.493  26.478  24.893  1.00  0.00    -0.200 F 
ATOM     82  C   UNL A   1      42.984  24.807  25.604  1.00  0.00     0.200 A 
ATOM     83  F   UNL A   1      41.456  23.169  26.351  1.00  0.00    -0.200 F 
ATOM     84  F   UNL A   1      43.360  24.015  24.589  1.00  0.00    -0.200 F 
ENDBRANCH  50  74
BRANCH  62  85
ATOM     85  C   UNL A   1      44.919  27.517  34.067  1.00  0.00     0.064 A 
ATOM     86  C   UNL A   1      46.140  28.204  34.022  1.00  0.00     0.173 A 
ATOM     87  C   UNL A   1      44.852  26.334  34.816  1.00  0.00     0.173 A 
ATOM     88  F   UNL A   1      46.254  29.332  33.307  1.00  0.00    -0.203 F 
ATOM     89  C   UNL A   1      47.258  27.714  34.691  1.00  0.00     0.198 A 
ATOM     90  C   UNL A   1      45.965  25.860  35.503  1.00  0.00     0.198 A 
ATOM     91  F   UNL A   1      43.703  25.646  34.892  1.00  0.00    -0.203 F 
ATOM     92  F   UNL A   1      48.425  28.367  34.607  1.00  0.00    -0.200 F 
ATOM     93  C   UNL A   1      47.168  26.548  35.436  1.00  0.00     0.200 A 
ATOM     94  F   UNL A   1      45.874  24.739  36.232  1.00  0.00    -0.200 F 
ATOM     95  F   UNL A   1      48.243  26.083  36.088  1.00  0.00    -0.200 F 
ENDBRANCH  62  85
ENDBRANCH  36  37
ENDBRANCH  28  31
ENDBRANCH  26  27
ENDBRANCH   1  26
TORSDOF 12
ENDMDL
