MODEL 1
REMARK VINA RESULT:     -12.8      0.000      0.000
REMARK SMILES Cc1cc(=O)n(CC(=O)NCCCNC(=O)c2ccc(-c3c4nc(c(-c5c(F)c(F)c(F)c(F)c5F)c5ccc([nH]5)c(-c5c(F)c(F)c(F)c(F)c5F)c5nc(c(-c6c(F)c(F)c(F)c(F)c6F)c6ccc3[nH]6)C=C5)C=C4)cc2)c(N2CCC(C)CC2)n1
REMARK SMILES IDX 12 1 11 2 10 3 8 4 9 5 7 7 6 8 1 9 2 10 3 11 88 12 4 13
REMARK SMILES IDX 80 14 5 15 81 16 82 17 87 18 83 19 86 20 84 21 85 22 13 23
REMARK SMILES IDX 14 24 15 25 16 27 17 28 18 29 79 30 19 31 78 32 20 33 21 34
REMARK SMILES IDX 22 35 72 36 23 37 77 38 71 39 73 40 24 41 76 42 70 43 69 44
REMARK SMILES IDX 25 46 57 47 37 48 56 49 38 50 41 51 55 52 74 53 39 54 40 55
REMARK SMILES IDX 54 57 75 58 42 59 26 60 27 61 35 62 28 63 29 64 33 65 36 66
REMARK SMILES IDX 30 67 31 68 34 69 32 70 58 71 59 72 67 73 60 74 61 75 65 76
REMARK SMILES IDX 68 77 62 78 63 79 66 80 64 81 43 82 44 83 52 84 45 85 46 86
REMARK SMILES IDX 50 87 53 88 47 89 48 90 51 91 49 92
REMARK H PARENT 10 6 14 26 73 45 41 56
REMARK Flexibility Score: inf
ROOT
ATOM      1  C   UNL A   1      31.848  28.610  26.416  1.00  0.00     0.042 C 
ENDROOT
BRANCH   1   2
ATOM      2  C   UNL A   1      32.544  27.281  26.669  1.00  0.00     0.117 C 
BRANCH   2   3
ATOM      3  N   UNL A   1      31.617  26.187  26.851  1.00  0.00    -0.354 N 
ATOM      4  C   UNL A   1      31.825  24.853  26.647  1.00  0.00     0.240 C 
ATOM      5  O   UNL A   1      31.021  24.079  27.177  1.00  0.00    -0.273 OA
ATOM      6  H   UNL A   1      30.718  26.437  27.162  1.00  0.00     0.163 HD
BRANCH   4   7
ATOM      7  C   UNL A   1      33.089  24.331  25.945  1.00  0.00     0.229 C 
BRANCH   7   8
ATOM      8  N   UNL A   1      32.991  22.956  25.454  1.00  0.00    -0.269 N 
ATOM      9  C   UNL A   1      32.500  18.938  24.304  1.00  0.00     0.067 C 
ATOM     10  C   UNL A   1      32.710  20.354  24.760  1.00  0.00     0.047 A 
ATOM     11  C   UNL A   1      33.365  20.608  25.895  1.00  0.00     0.095 A 
ATOM     12  N   UNL A   1      32.248  21.331  23.921  1.00  0.00    -0.220 NA
ATOM     13  C   UNL A   1      33.543  22.004  26.293  1.00  0.00     0.255 A 
ATOM     14  C   UNL A   1      32.424  22.585  24.236  1.00  0.00     0.209 A 
ATOM     15  O   UNL A   1      34.143  22.245  27.337  1.00  0.00    -0.269 OA
BRANCH  14  16
ATOM     16  N   UNL A   1      32.007  23.540  23.323  1.00  0.00    -0.342 N 
ATOM     17  C   UNL A   1      32.995  24.319  22.566  1.00  0.00     0.120 C 
ATOM     18  C   UNL A   1      30.621  24.012  23.264  1.00  0.00     0.120 C 
ATOM     19  C   UNL A   1      32.883  25.814  22.824  1.00  0.00     0.025 C 
ATOM     20  C   UNL A   1      30.520  25.514  23.526  1.00  0.00     0.025 C 
ATOM     21  C   UNL A   1      31.449  26.293  22.589  1.00  0.00    -0.011 C 
ATOM     22  C   UNL A   1      31.329  27.798  22.796  1.00  0.00     0.008 C 
ENDBRANCH  14  16
ENDBRANCH   7   8
ENDBRANCH   4   7
ENDBRANCH   2   3
ENDBRANCH   1   2
BRANCH   1  23
ATOM     23  C   UNL A   1      32.763  29.674  25.825  1.00  0.00     0.118 C 
BRANCH  23  24
ATOM     24  N   UNL A   1      32.468  31.016  26.318  1.00  0.00    -0.352 N 
ATOM     25  C   UNL A   1      33.154  31.809  27.205  1.00  0.00     0.251 C 
ATOM     26  H   UNL A   1      31.645  31.417  25.956  1.00  0.00     0.163 HD
ATOM     27  O   UNL A   1      32.648  32.856  27.602  1.00  0.00    -0.269 OA
BRANCH  25  28
ATOM     28  C   UNL A   1      34.480  31.394  27.716  1.00  0.00     0.039 A 
ATOM     29  C   UNL A   1      34.740  30.062  28.038  1.00  0.00     0.014 A 
ATOM     30  C   UNL A   1      35.479  32.359  27.880  1.00  0.00     0.014 A 
ATOM     31  C   UNL A   1      35.917  29.730  28.698  1.00  0.00     0.010 A 
ATOM     32  C   UNL A   1      36.703  32.005  28.458  1.00  0.00     0.010 A 
ATOM     33  C   UNL A   1      36.909  30.699  28.926  1.00  0.00    -0.014 A 
BRANCH  33  34
ATOM     34  C   UNL A   1      38.132  30.318  29.680  1.00  0.00     0.031 A 
ATOM     35  C   UNL A   1      38.331  30.777  31.100  1.00  0.00     0.074 A 
ATOM     36  C   UNL A   1      39.025  29.489  29.109  1.00  0.00     0.049 A 
ATOM     37  N   UNL A   1      39.304  30.490  31.930  1.00  0.00    -0.248 NA
ATOM     38  C   UNL A   1      37.312  31.676  31.666  1.00  0.00     0.031 C 
ATOM     39  C   UNL A   1      38.937  28.973  27.741  1.00  0.00     0.029 A 
ATOM     40  N   UNL A   1      40.159  28.903  29.613  1.00  0.00    -0.354 N 
ATOM     41  C   UNL A   1      39.023  31.183  33.100  1.00  0.00     0.074 A 
ATOM     42  C   UNL A   1      37.808  31.931  32.869  1.00  0.00     0.031 C 
ATOM     43  C   UNL A   1      39.933  28.099  27.537  1.00  0.00     0.029 A 
ATOM     44  C   UNL A   1      40.764  28.036  28.736  1.00  0.00     0.049 A 
ATOM     45  H   UNL A   1      40.506  29.087  30.516  1.00  0.00     0.167 HD
ATOM     46  C   UNL A   1      39.708  31.180  34.268  1.00  0.00     0.037 A 
ATOM     47  C   UNL A   1      41.866  27.276  28.879  1.00  0.00     0.037 A 
ATOM     48  C   UNL A   1      40.897  30.407  34.512  1.00  0.00     0.049 A 
ATOM     49  C   UNL A   1      42.623  27.316  30.175  1.00  0.00     0.074 A 
ATOM     50  C   UNL A   1      41.639  30.311  35.676  1.00  0.00     0.029 A 
ATOM     51  N   UNL A   1      41.515  29.592  33.575  1.00  0.00    -0.354 N 
ATOM     52  N   UNL A   1      42.337  27.965  31.277  1.00  0.00    -0.248 NA
ATOM     53  C   UNL A   1      43.863  26.530  30.245  1.00  0.00     0.031 C 
ATOM     54  C   UNL A   1      42.728  29.470  35.433  1.00  0.00     0.029 A 
ATOM     55  C   UNL A   1      42.643  29.009  34.129  1.00  0.00     0.049 A 
ATOM     56  H   UNL A   1      41.199  29.449  32.653  1.00  0.00     0.167 HD
ATOM     57  C   UNL A   1      43.355  27.664  32.171  1.00  0.00     0.074 A 
ATOM     58  C   UNL A   1      44.254  26.755  31.492  1.00  0.00     0.031 C 
ATOM     59  C   UNL A   1      43.531  28.110  33.437  1.00  0.00     0.037 A 
BRANCH  46  60
ATOM     60  C   UNL A   1      39.194  32.039  35.386  1.00  0.00     0.064 A 
ATOM     61  C   UNL A   1      38.399  31.509  36.413  1.00  0.00     0.173 A 
ATOM     62  C   UNL A   1      39.565  33.390  35.472  1.00  0.00     0.173 A 
ATOM     63  F   UNL A   1      38.009  30.226  36.372  1.00  0.00    -0.203 F 
ATOM     64  C   UNL A   1      37.983  32.304  37.478  1.00  0.00     0.198 A 
ATOM     65  C   UNL A   1      39.167  34.175  36.551  1.00  0.00     0.198 A 
ATOM     66  F   UNL A   1      40.330  33.943  34.520  1.00  0.00    -0.203 F 
ATOM     67  F   UNL A   1      37.200  31.784  38.433  1.00  0.00    -0.200 F 
ATOM     68  C   UNL A   1      38.374  33.633  37.551  1.00  0.00     0.200 A 
ATOM     69  F   UNL A   1      39.557  35.456  36.626  1.00  0.00    -0.200 F 
ATOM     70  F   UNL A   1      37.985  34.392  38.585  1.00  0.00    -0.200 F 
ENDBRANCH  46  60
BRANCH  47  71
ATOM     71  C   UNL A   1      42.308  26.409  27.756  1.00  0.00     0.064 A 
ATOM     72  C   UNL A   1      41.756  25.134  27.573  1.00  0.00     0.173 A 
ATOM     73  C   UNL A   1      43.263  26.849  26.828  1.00  0.00     0.173 A 
ATOM     74  F   UNL A   1      40.855  24.661  28.446  1.00  0.00    -0.203 F 
ATOM     75  C   UNL A   1      42.146  24.331  26.502  1.00  0.00     0.198 A 
ATOM     76  C   UNL A   1      43.631  26.056  25.744  1.00  0.00     0.198 A 
ATOM     77  F   UNL A   1      43.818  28.062  26.961  1.00  0.00    -0.203 F 
ATOM     78  F   UNL A   1      41.623  23.104  26.363  1.00  0.00    -0.200 F 
ATOM     79  C   UNL A   1      43.075  24.796  25.584  1.00  0.00     0.200 A 
ATOM     80  F   UNL A   1      44.517  26.517  24.851  1.00  0.00    -0.200 F 
ATOM     81  F   UNL A   1      43.437  24.030  24.546  1.00  0.00    -0.200 F 
ENDBRANCH  47  71
BRANCH  59  82
ATOM     82  C   UNL A   1      44.742  27.630  34.178  1.00  0.00     0.064 A 
ATOM     83  C   UNL A   1      45.934  28.367  34.177  1.00  0.00     0.173 A 
ATOM     84  C   UNL A   1      44.686  26.464  34.959  1.00  0.00     0.173 A 
ATOM     85  F   UNL A   1      46.037  29.480  33.436  1.00  0.00    -0.203 F 
ATOM     86  C   UNL A   1      47.031  27.952  34.925  1.00  0.00     0.198 A 
ATOM     87  C   UNL A   1      45.778  26.065  35.724  1.00  0.00     0.198 A 
ATOM     88  F   UNL A   1      43.565  25.729  34.997  1.00  0.00    -0.203 F 
ATOM     89  F   UNL A   1      48.170  28.658  34.890  1.00  0.00    -0.200 F 
ATOM     90  C   UNL A   1      46.949  26.808  35.706  1.00  0.00     0.200 A 
ATOM     91  F   UNL A   1      45.694  24.967  36.488  1.00  0.00    -0.200 F 
ATOM     92  F   UNL A   1      48.002  26.419  36.438  1.00  0.00    -0.200 F 
ENDBRANCH  59  82
ENDBRANCH  33  34
ENDBRANCH  25  28
ENDBRANCH  23  24
ENDBRANCH   1  23
TORSDOF 12
ENDMDL
MODEL 2
REMARK VINA RESULT:     -12.8      0.174      1.611
REMARK SMILES Cc1cc(=O)n(CC(=O)NCCCNC(=O)c2ccc(-c3c4nc(c(-c5c(F)c(F)c(F)c(F)c5F)c5ccc([nH]5)c(-c5c(F)c(F)c(F)c(F)c5F)c5nc(c(-c6c(F)c(F)c(F)c(F)c6F)c6ccc3[nH]6)C=C5)C=C4)cc2)c(N2CCC(C)CC2)n1
REMARK SMILES IDX 12 1 11 2 10 3 8 4 9 5 7 7 6 8 1 9 2 10 3 11 88 12 4 13
REMARK SMILES IDX 80 14 5 15 81 16 82 17 87 18 83 19 86 20 84 21 85 22 13 23
REMARK SMILES IDX 14 24 15 25 16 27 17 28 18 29 79 30 19 31 78 32 20 33 21 34
REMARK SMILES IDX 22 35 72 36 23 37 77 38 71 39 73 40 24 41 76 42 70 43 69 44
REMARK SMILES IDX 25 46 57 47 37 48 56 49 38 50 41 51 55 52 74 53 39 54 40 55
REMARK SMILES IDX 54 57 75 58 42 59 26 60 27 61 35 62 28 63 29 64 33 65 36 66
REMARK SMILES IDX 30 67 31 68 34 69 32 70 58 71 59 72 67 73 60 74 61 75 65 76
REMARK SMILES IDX 68 77 62 78 63 79 66 80 64 81 43 82 44 83 52 84 45 85 46 86
REMARK SMILES IDX 50 87 53 88 47 89 48 90 51 91 49 92
REMARK H PARENT 10 6 14 26 73 45 41 56
REMARK Flexibility Score: inf
ROOT
ATOM      1  C   UNL A   1      31.809  28.614  26.467  1.00  0.00     0.042 C 
ENDROOT
BRANCH   1   2
ATOM      2  C   UNL A   1      32.499  27.281  26.714  1.00  0.00     0.117 C 
BRANCH   2   3
ATOM      3  N   UNL A   1      31.568  26.186  26.862  1.00  0.00    -0.354 N 
ATOM      4  C   UNL A   1      31.773  24.856  26.627  1.00  0.00     0.240 C 
ATOM      5  O   UNL A   1      30.964  24.072  27.132  1.00  0.00    -0.273 OA
ATOM      6  H   UNL A   1      30.666  26.430  27.171  1.00  0.00     0.163 HD
BRANCH   4   7
ATOM      7  C   UNL A   1      33.042  24.348  25.924  1.00  0.00     0.229 C 
BRANCH   7   8
ATOM      8  N   UNL A   1      32.958  22.972  25.432  1.00  0.00    -0.269 N 
ATOM      9  C   UNL A   1      32.509  18.950  24.281  1.00  0.00     0.067 C 
ATOM     10  C   UNL A   1      32.705  20.367  24.737  1.00  0.00     0.047 A 
ATOM     11  C   UNL A   1      33.363  20.628  25.868  1.00  0.00     0.095 A 
ATOM     12  N   UNL A   1      32.225  21.340  23.902  1.00  0.00    -0.220 NA
ATOM     13  C   UNL A   1      33.527  22.026  26.266  1.00  0.00     0.255 A 
ATOM     14  C   UNL A   1      32.388  22.596  24.217  1.00  0.00     0.209 A 
ATOM     15  O   UNL A   1      34.131  22.273  27.307  1.00  0.00    -0.269 OA
BRANCH  14  16
ATOM     16  N   UNL A   1      31.954  23.546  23.307  1.00  0.00    -0.342 N 
ATOM     17  C   UNL A   1      32.927  24.341  22.549  1.00  0.00     0.120 C 
ATOM     18  C   UNL A   1      30.561  23.998  23.255  1.00  0.00     0.120 C 
ATOM     19  C   UNL A   1      32.795  25.834  22.810  1.00  0.00     0.025 C 
ATOM     20  C   UNL A   1      30.439  25.498  23.520  1.00  0.00     0.025 C 
ATOM     21  C   UNL A   1      31.353  26.292  22.581  1.00  0.00    -0.011 C 
ATOM     22  C   UNL A   1      31.212  27.795  22.792  1.00  0.00     0.008 C 
ENDBRANCH  14  16
ENDBRANCH   7   8
ENDBRANCH   4   7
ENDBRANCH   2   3
ENDBRANCH   1   2
BRANCH   1  23
ATOM     23  C   UNL A   1      32.727  29.674  25.871  1.00  0.00     0.118 C 
BRANCH  23  24
ATOM     24  N   UNL A   1      32.433  31.019  26.357  1.00  0.00    -0.352 N 
ATOM     25  C   UNL A   1      33.128  31.821  27.230  1.00  0.00     0.251 C 
ATOM     26  H   UNL A   1      31.605  31.415  26.003  1.00  0.00     0.163 HD
ATOM     27  O   UNL A   1      32.624  32.870  27.625  1.00  0.00    -0.269 OA
BRANCH  25  28
ATOM     28  C   UNL A   1      34.461  31.414  27.728  1.00  0.00     0.039 A 
ATOM     29  C   UNL A   1      34.732  30.084  28.050  1.00  0.00     0.014 A 
ATOM     30  C   UNL A   1      35.457  32.385  27.879  1.00  0.00     0.014 A 
ATOM     31  C   UNL A   1      35.917  29.760  28.698  1.00  0.00     0.010 A 
ATOM     32  C   UNL A   1      36.688  32.038  28.445  1.00  0.00     0.010 A 
ATOM     33  C   UNL A   1      36.906  30.734  28.914  1.00  0.00    -0.014 A 
BRANCH  33  34
ATOM     34  C   UNL A   1      38.139  30.362  29.655  1.00  0.00     0.031 A 
ATOM     35  C   UNL A   1      38.337  30.798  31.083  1.00  0.00     0.074 A 
ATOM     36  C   UNL A   1      39.044  29.558  29.066  1.00  0.00     0.049 A 
ATOM     37  N   UNL A   1      39.318  30.514  31.904  1.00  0.00    -0.248 NA
ATOM     38  C   UNL A   1      37.305  31.669  31.669  1.00  0.00     0.031 C 
ATOM     39  C   UNL A   1      38.959  29.066  27.690  1.00  0.00     0.029 A 
ATOM     40  N   UNL A   1      40.191  28.984  29.555  1.00  0.00    -0.354 N 
ATOM     41  C   UNL A   1      39.031  31.181  33.087  1.00  0.00     0.074 A 
ATOM     42  C   UNL A   1      37.801  31.911  32.875  1.00  0.00     0.031 C 
ATOM     43  C   UNL A   1      39.970  28.213  27.466  1.00  0.00     0.029 A 
ATOM     44  C   UNL A   1      40.807  28.143  28.659  1.00  0.00     0.049 A 
ATOM     45  H   UNL A   1      40.538  29.158  30.459  1.00  0.00     0.167 HD
ATOM     46  C   UNL A   1      39.720  31.169  34.252  1.00  0.00     0.037 A 
ATOM     47  C   UNL A   1      41.923  27.401  28.784  1.00  0.00     0.037 A 
ATOM     48  C   UNL A   1      40.924  30.412  34.477  1.00  0.00     0.049 A 
ATOM     49  C   UNL A   1      42.684  27.431  30.078  1.00  0.00     0.074 A 
ATOM     50  C   UNL A   1      41.672  30.309  35.636  1.00  0.00     0.029 A 
ATOM     51  N   UNL A   1      41.552  29.625  33.523  1.00  0.00    -0.354 N 
ATOM     52  N   UNL A   1      42.392  28.054  31.193  1.00  0.00    -0.248 NA
ATOM     53  C   UNL A   1      43.938  26.666  30.128  1.00  0.00     0.031 C 
ATOM     54  C   UNL A   1      42.775  29.491  35.373  1.00  0.00     0.029 A 
ATOM     55  C   UNL A   1      42.693  29.053  34.061  1.00  0.00     0.049 A 
ATOM     56  H   UNL A   1      41.234  29.494  32.600  1.00  0.00     0.167 HD
ATOM     57  C   UNL A   1      43.419  27.756  32.077  1.00  0.00     0.074 A 
ATOM     58  C   UNL A   1      44.331  26.874  31.377  1.00  0.00     0.031 C 
ATOM     59  C   UNL A   1      43.592  28.182  33.350  1.00  0.00     0.037 A 
BRANCH  46  60
ATOM     60  C   UNL A   1      39.196  31.998  35.388  1.00  0.00     0.064 A 
ATOM     61  C   UNL A   1      38.395  31.441  36.395  1.00  0.00     0.173 A 
ATOM     62  C   UNL A   1      39.564  33.347  35.510  1.00  0.00     0.173 A 
ATOM     63  F   UNL A   1      38.008  30.159  36.318  1.00  0.00    -0.203 F 
ATOM     64  C   UNL A   1      37.969  32.208  37.476  1.00  0.00     0.198 A 
ATOM     65  C   UNL A   1      39.157  34.104  36.605  1.00  0.00     0.198 A 
ATOM     66  F   UNL A   1      40.336  33.926  34.578  1.00  0.00    -0.203 F 
ATOM     67  F   UNL A   1      37.180  31.663  38.412  1.00  0.00    -0.200 F 
ATOM     68  C   UNL A   1      38.357  33.536  37.585  1.00  0.00     0.200 A 
ATOM     69  F   UNL A   1      39.543  35.383  36.716  1.00  0.00    -0.200 F 
ATOM     70  F   UNL A   1      37.960  34.268  38.636  1.00  0.00    -0.200 F 
ENDBRANCH  46  60
BRANCH  47  71
ATOM     71  C   UNL A   1      42.374  26.561  27.645  1.00  0.00     0.064 A 
ATOM     72  C   UNL A   1      43.345  27.028  26.748  1.00  0.00     0.173 A 
ATOM     73  C   UNL A   1      41.870  25.268  27.449  1.00  0.00     0.173 A 
ATOM     74  F   UNL A   1      43.842  28.265  26.882  1.00  0.00    -0.203 F 
ATOM     75  C   UNL A   1      43.793  26.229  25.697  1.00  0.00     0.198 A 
ATOM     76  C   UNL A   1      42.337  24.461  26.415  1.00  0.00     0.198 A 
ATOM     77  F   UNL A   1      40.940  24.777  28.282  1.00  0.00    -0.203 F 
ATOM     78  F   UNL A   1      44.703  26.708  24.837  1.00  0.00    -0.200 F 
ATOM     79  C   UNL A   1      43.296  24.945  25.537  1.00  0.00     0.200 A 
ATOM     80  F   UNL A   1      41.867  23.215  26.274  1.00  0.00    -0.200 F 
ATOM     81  F   UNL A   1      43.740  24.172  24.536  1.00  0.00    -0.200 F 
ENDBRANCH  47  71
BRANCH  59  82
ATOM     82  C   UNL A   1      44.815  27.710  34.077  1.00  0.00     0.064 A 
ATOM     83  C   UNL A   1      44.819  26.499  34.784  1.00  0.00     0.173 A 
ATOM     84  C   UNL A   1      46.015  28.434  34.002  1.00  0.00     0.173 A 
ATOM     85  F   UNL A   1      43.692  25.779  34.893  1.00  0.00    -0.203 F 
ATOM     86  C   UNL A   1      45.978  26.032  35.395  1.00  0.00     0.198 A 
ATOM     87  C   UNL A   1      47.178  27.953  34.596  1.00  0.00     0.198 A 
ATOM     88  F   UNL A   1      46.063  29.596  33.333  1.00  0.00    -0.203 F 
ATOM     89  F   UNL A   1      45.953  24.885  36.087  1.00  0.00    -0.200 F 
ATOM     90  C   UNL A   1      47.158  26.754  35.293  1.00  0.00     0.200 A 
ATOM     91  F   UNL A   1      48.321  28.644  34.485  1.00  0.00    -0.200 F 
ATOM     92  F   UNL A   1      48.277  26.294  35.869  1.00  0.00    -0.200 F 
ENDBRANCH  59  82
ENDBRANCH  33  34
ENDBRANCH  25  28
ENDBRANCH  23  24
ENDBRANCH   1  23
TORSDOF 12
ENDMDL
MODEL 3
REMARK VINA RESULT:     -12.7      0.998      2.187
REMARK SMILES Cc1cc(=O)n(CC(=O)NCCCNC(=O)c2ccc(-c3c4nc(c(-c5c(F)c(F)c(F)c(F)c5F)c5ccc([nH]5)c(-c5c(F)c(F)c(F)c(F)c5F)c5nc(c(-c6c(F)c(F)c(F)c(F)c6F)c6ccc3[nH]6)C=C5)C=C4)cc2)c(N2CCC(C)CC2)n1
REMARK SMILES IDX 12 1 11 2 10 3 8 4 9 5 7 7 6 8 1 9 2 10 3 11 88 12 4 13
REMARK SMILES IDX 80 14 5 15 81 16 82 17 87 18 83 19 86 20 84 21 85 22 13 23
REMARK SMILES IDX 14 24 15 25 16 27 17 28 18 29 79 30 19 31 78 32 20 33 21 34
REMARK SMILES IDX 22 35 72 36 23 37 77 38 71 39 73 40 24 41 76 42 70 43 69 44
REMARK SMILES IDX 25 46 57 47 37 48 56 49 38 50 41 51 55 52 74 53 39 54 40 55
REMARK SMILES IDX 54 57 75 58 42 59 26 60 27 61 35 62 28 63 29 64 33 65 36 66
REMARK SMILES IDX 30 67 31 68 34 69 32 70 58 71 59 72 67 73 60 74 61 75 65 76
REMARK SMILES IDX 68 77 62 78 63 79 66 80 64 81 43 82 44 83 52 84 45 85 46 86
REMARK SMILES IDX 50 87 53 88 47 89 48 90 51 91 49 92
REMARK H PARENT 10 6 14 26 73 45 41 56
REMARK Flexibility Score: inf
ROOT
ATOM      1  C   UNL A   1      31.584  28.138  26.910  1.00  0.00     0.042 C 
ENDROOT
BRANCH   1   2
ATOM      2  C   UNL A   1      31.159  26.952  26.058  1.00  0.00     0.117 C 
BRANCH   2   3
ATOM      3  N   UNL A   1      31.065  25.723  26.813  1.00  0.00    -0.354 N 
ATOM      4  C   UNL A   1      31.597  24.501  26.519  1.00  0.00     0.240 C 
ATOM      5  O   UNL A   1      31.678  23.693  27.450  1.00  0.00    -0.273 OA
ATOM      6  H   UNL A   1      30.547  25.775  27.648  1.00  0.00     0.163 HD
BRANCH   4   7
ATOM      7  C   UNL A   1      32.226  24.203  25.149  1.00  0.00     0.229 C 
BRANCH   7   8
ATOM      8  N   UNL A   1      33.617  23.750  25.201  1.00  0.00    -0.269 N 
ATOM      9  C   UNL A   1      37.628  22.568  25.669  1.00  0.00     0.067 C 
ATOM     10  C   UNL A   1      36.215  23.047  25.498  1.00  0.00     0.047 A 
ATOM     11  C   UNL A   1      35.944  24.353  25.466  1.00  0.00     0.095 A 
ATOM     12  N   UNL A   1      35.268  22.076  25.323  1.00  0.00    -0.220 NA
ATOM     13  C   UNL A   1      34.551  24.767  25.295  1.00  0.00     0.255 A 
ATOM     14  C   UNL A   1      34.022  22.419  25.135  1.00  0.00     0.209 A 
ATOM     15  O   UNL A   1      34.294  25.967  25.266  1.00  0.00    -0.269 OA
BRANCH  14  16
ATOM     16  N   UNL A   1      33.110  21.406  24.888  1.00  0.00    -0.342 N 
ATOM     17  C   UNL A   1      33.228  20.119  25.585  1.00  0.00     0.120 C 
ATOM     18  C   UNL A   1      32.180  21.451  23.756  1.00  0.00     0.120 C 
ATOM     19  C   UNL A   1      33.425  18.952  24.629  1.00  0.00     0.025 C 
ATOM     20  C   UNL A   1      32.388  20.275  22.802  1.00  0.00     0.025 C 
ATOM     21  C   UNL A   1      32.331  18.945  23.559  1.00  0.00    -0.011 C 
ATOM     22  C   UNL A   1      32.486  17.753  22.621  1.00  0.00     0.008 C 
ENDBRANCH  14  16
ENDBRANCH   7   8
ENDBRANCH   4   7
ENDBRANCH   2   3
ENDBRANCH   1   2
BRANCH   1  23
ATOM     23  C   UNL A   1      32.607  29.040  26.232  1.00  0.00     0.118 C 
BRANCH  23  24
ATOM     24  N   UNL A   1      32.369  30.459  26.483  1.00  0.00    -0.352 N 
ATOM     25  C   UNL A   1      33.124  31.381  27.167  1.00  0.00     0.251 C 
ATOM     26  H   UNL A   1      31.534  30.812  26.099  1.00  0.00     0.163 HD
ATOM     27  O   UNL A   1      32.664  32.498  27.390  1.00  0.00    -0.269 OA
BRANCH  25  28
ATOM     28  C   UNL A   1      34.469  31.026  27.672  1.00  0.00     0.039 A 
ATOM     29  C   UNL A   1      34.785  29.711  28.012  1.00  0.00     0.014 A 
ATOM     30  C   UNL A   1      35.431  32.032  27.811  1.00  0.00     0.014 A 
ATOM     31  C   UNL A   1      35.980  29.436  28.666  1.00  0.00     0.010 A 
ATOM     32  C   UNL A   1      36.673  31.736  28.383  1.00  0.00     0.010 A 
ATOM     33  C   UNL A   1      36.934  30.446  28.869  1.00  0.00    -0.014 A 
BRANCH  33  34
ATOM     34  C   UNL A   1      38.178  30.127  29.617  1.00  0.00     0.031 A 
ATOM     35  C   UNL A   1      38.376  30.622  31.025  1.00  0.00     0.074 A 
ATOM     36  C   UNL A   1      39.095  29.317  29.053  1.00  0.00     0.049 A 
ATOM     37  N   UNL A   1      39.367  30.388  31.850  1.00  0.00    -0.248 NA
ATOM     38  C   UNL A   1      37.331  31.496  31.583  1.00  0.00     0.031 C 
ATOM     39  C   UNL A   1      39.012  28.770  27.698  1.00  0.00     0.029 A 
ATOM     40  N   UNL A   1      40.255  28.784  29.557  1.00  0.00    -0.354 N 
ATOM     41  C   UNL A   1      39.073  31.096  33.009  1.00  0.00     0.074 A 
ATOM     42  C   UNL A   1      37.829  31.794  32.775  1.00  0.00     0.031 C 
ATOM     43  C   UNL A   1      40.037  27.928  27.502  1.00  0.00     0.029 A 
ATOM     44  C   UNL A   1      40.882  27.921  28.692  1.00  0.00     0.049 A 
ATOM     45  H   UNL A   1      40.604  29.000  30.452  1.00  0.00     0.167 HD
ATOM     46  C   UNL A   1      39.769  31.142  34.169  1.00  0.00     0.037 A 
ATOM     47  C   UNL A   1      42.012  27.205  28.838  1.00  0.00     0.037 A 
ATOM     48  C   UNL A   1      40.988  30.418  34.415  1.00  0.00     0.049 A 
ATOM     49  C   UNL A   1      42.780  27.299  30.125  1.00  0.00     0.074 A 
ATOM     50  C   UNL A   1      41.745  30.373  35.573  1.00  0.00     0.029 A 
ATOM     51  N   UNL A   1      41.626  29.606  33.489  1.00  0.00    -0.354 N 
ATOM     52  N   UNL A   1      42.483  27.961  31.216  1.00  0.00    -0.248 NA
ATOM     53  C   UNL A   1      44.049  26.561  30.197  1.00  0.00     0.031 C 
ATOM     54  C   UNL A   1      42.862  29.567  35.335  1.00  0.00     0.029 A 
ATOM     55  C   UNL A   1      42.780  29.076  34.042  1.00  0.00     0.049 A 
ATOM     56  H   UNL A   1      41.306  29.432  32.574  1.00  0.00     0.167 HD
ATOM     57  C   UNL A   1      43.520  27.716  32.105  1.00  0.00     0.074 A 
ATOM     58  C   UNL A   1      44.444  26.825  31.435  1.00  0.00     0.031 C 
ATOM     59  C   UNL A   1      43.692  28.195  33.360  1.00  0.00     0.037 A 
BRANCH  46  60
ATOM     60  C   UNL A   1      39.236  32.005  35.274  1.00  0.00     0.064 A 
ATOM     61  C   UNL A   1      38.441  31.476  36.301  1.00  0.00     0.173 A 
ATOM     62  C   UNL A   1      39.589  33.362  35.348  1.00  0.00     0.173 A 
ATOM     63  F   UNL A   1      38.069  30.188  36.270  1.00  0.00    -0.203 F 
ATOM     64  C   UNL A   1      38.007  32.276  37.354  1.00  0.00     0.198 A 
ATOM     65  C   UNL A   1      39.173  34.153  36.416  1.00  0.00     0.198 A 
ATOM     66  F   UNL A   1      40.354  33.916  34.396  1.00  0.00    -0.203 F 
ATOM     67  F   UNL A   1      37.224  31.756  38.310  1.00  0.00    -0.200 F 
ATOM     68  C   UNL A   1      38.380  33.611  37.416  1.00  0.00     0.200 A 
ATOM     69  F   UNL A   1      39.545  35.439  36.481  1.00  0.00    -0.200 F 
ATOM     70  F   UNL A   1      37.974  34.375  38.440  1.00  0.00    -0.200 F 
ENDBRANCH  46  60
BRANCH  47  71
ATOM     71  C   UNL A   1      42.473  26.330  27.730  1.00  0.00     0.064 A 
ATOM     72  C   UNL A   1      41.925  25.053  27.546  1.00  0.00     0.173 A 
ATOM     73  C   UNL A   1      43.443  26.764  26.815  1.00  0.00     0.173 A 
ATOM     74  F   UNL A   1      41.010  24.586  28.407  1.00  0.00    -0.203 F 
ATOM     75  C   UNL A   1      42.334  24.243  26.487  1.00  0.00     0.198 A 
ATOM     76  C   UNL A   1      43.830  25.965  25.742  1.00  0.00     0.198 A 
ATOM     77  F   UNL A   1      43.995  27.979  26.948  1.00  0.00    -0.203 F 
ATOM     78  F   UNL A   1      41.814  23.015  26.348  1.00  0.00    -0.200 F 
ATOM     79  C   UNL A   1      43.278  24.703  25.582  1.00  0.00     0.200 A 
ATOM     80  F   UNL A   1      44.731  26.420  24.861  1.00  0.00    -0.200 F 
ATOM     81  F   UNL A   1      43.658  23.930  24.555  1.00  0.00    -0.200 F 
ENDBRANCH  47  71
BRANCH  59  82
ATOM     82  C   UNL A   1      44.928  27.774  34.097  1.00  0.00     0.064 A 
ATOM     83  C   UNL A   1      46.093  28.552  34.064  1.00  0.00     0.173 A 
ATOM     84  C   UNL A   1      44.922  26.627  34.905  1.00  0.00     0.173 A 
ATOM     85  F   UNL A   1      46.150  29.650  33.296  1.00  0.00    -0.203 F 
ATOM     86  C   UNL A   1      47.213  28.193  34.809  1.00  0.00     0.198 A 
ATOM     87  C   UNL A   1      46.035  26.284  35.666  1.00  0.00     0.198 A 
ATOM     88  F   UNL A   1      43.827  25.854  34.974  1.00  0.00    -0.203 F 
ATOM     89  F   UNL A   1      48.325  28.937  34.743  1.00  0.00    -0.200 F 
ATOM     90  C   UNL A   1      47.180  27.066  35.617  1.00  0.00     0.200 A 
ATOM     91  F   UNL A   1      45.997  25.202  36.456  1.00  0.00    -0.200 F 
ATOM     92  F   UNL A   1      48.253  26.731  36.345  1.00  0.00    -0.200 F 
ENDBRANCH  59  82
ENDBRANCH  33  34
ENDBRANCH  25  28
ENDBRANCH  23  24
ENDBRANCH   1  23
TORSDOF 12
ENDMDL
