MODEL 1
REMARK VINA RESULT:     -12.5      0.000      0.000
REMARK SMILES O=C(NCCCNC(=O)c1cc2ncoc2cn1)c1ccc(-c2c3nc(c(-c4c(F)c(F)c(F)c(F)c4F)c4ccc([nH]4)c(-c4c(F)c(F)c(F)c(F)c4F)c4nc(c(-c5c(F)c(F)c(F)c(F)c5F)c5ccc2[nH]5)C=C4)C=C3)cc1
REMARK SMILES IDX 4 1 3 2 1 3 2 4 19 6 20 7 81 8 21 9 80 10 22 11 23 12 24 13
REMARK SMILES IDX 74 14 25 15 79 16 73 17 75 18 26 19 78 20 72 21 71 22 27 24
REMARK SMILES IDX 59 25 39 26 58 27 40 28 43 29 57 30 76 31 41 32 42 33 56 35
REMARK SMILES IDX 77 36 44 37 28 38 29 39 37 40 30 41 31 42 35 43 38 44 32 45
REMARK SMILES IDX 33 46 36 47 34 48 60 49 61 50 69 51 62 52 63 53 67 54 70 55
REMARK SMILES IDX 64 56 65 57 68 58 66 59 45 60 46 61 54 62 47 63 48 64 52 65
REMARK SMILES IDX 55 66 49 67 50 68 53 69 51 70 5 71 6 72 7 73 8 74 9 76 10 77
REMARK SMILES IDX 11 78 18 79 12 80 17 81 13 82 16 83 14 84 15 85
REMARK H PARENT 3 5 75 23 43 34 7 75
REMARK Flexibility Score: inf
ROOT
ATOM      1  C   UNL A   1      41.233  20.807  27.794  1.00  0.00     0.118 C 
ENDROOT
BRANCH   1   2
ATOM      2  N   UNL A   1      40.344  21.168  26.675  1.00  0.00    -0.352 N 
ATOM      3  O   UNL A   1      38.674  22.394  25.717  1.00  0.00    -0.269 OA
ATOM      4  C   UNL A   1      39.602  22.334  26.501  1.00  0.00     0.251 C 
ATOM      5  H   UNL A   1      40.263  20.498  25.958  1.00  0.00     0.163 HD
BRANCH   4   6
ATOM      6  C   UNL A   1      39.992  23.512  27.298  1.00  0.00     0.039 A 
ATOM      7  C   UNL A   1      41.283  23.747  27.771  1.00  0.00     0.014 A 
ATOM      8  C   UNL A   1      39.001  24.462  27.465  1.00  0.00     0.014 A 
ATOM      9  C   UNL A   1      41.538  24.984  28.360  1.00  0.00     0.010 A 
ATOM     10  C   UNL A   1      39.373  25.756  27.619  1.00  0.00     0.010 A 
ATOM     11  C   UNL A   1      40.561  25.994  28.266  1.00  0.00    -0.014 A 
BRANCH  11  12
ATOM     12  C   UNL A   1      40.737  27.344  28.773  1.00  0.00     0.031 A 
ATOM     13  C   UNL A   1      41.865  28.047  28.135  1.00  0.00     0.074 A 
ATOM     14  C   UNL A   1      39.866  27.949  29.616  1.00  0.00     0.049 A 
ATOM     15  N   UNL A   1      43.022  28.260  28.657  1.00  0.00    -0.248 NA
ATOM     16  C   UNL A   1      41.785  28.354  26.699  1.00  0.00     0.031 C 
ATOM     17  C   UNL A   1      38.559  27.476  30.103  1.00  0.00     0.029 A 
ATOM     18  N   UNL A   1      39.948  29.184  30.187  1.00  0.00    -0.354 N 
ATOM     19  C   UNL A   1      43.745  28.948  27.695  1.00  0.00     0.074 A 
ATOM     20  C   UNL A   1      43.027  28.785  26.458  1.00  0.00     0.031 C 
ATOM     21  C   UNL A   1      37.888  28.486  30.702  1.00  0.00     0.029 A 
ATOM     22  C   UNL A   1      38.781  29.621  30.814  1.00  0.00     0.049 A 
ATOM     23  H   UNL A   1      40.769  29.726  30.159  1.00  0.00     0.167 HD
ATOM     24  C   UNL A   1      44.708  29.828  28.080  1.00  0.00     0.037 A 
ATOM     25  C   UNL A   1      38.580  30.829  31.401  1.00  0.00     0.037 A 
ATOM     26  C   UNL A   1      45.067  29.612  29.464  1.00  0.00     0.049 A 
ATOM     27  C   UNL A   1      39.924  31.371  31.710  1.00  0.00     0.074 A 
ATOM     28  C   UNL A   1      45.610  28.563  30.177  1.00  0.00     0.029 A 
ATOM     29  N   UNL A   1      44.462  30.427  30.389  1.00  0.00    -0.354 N 
ATOM     30  N   UNL A   1      40.729  30.852  32.594  1.00  0.00    -0.248 NA
ATOM     31  C   UNL A   1      40.553  32.213  30.705  1.00  0.00     0.031 C 
ATOM     32  C   UNL A   1      44.935  28.574  31.436  1.00  0.00     0.029 A 
ATOM     33  C   UNL A   1      44.074  29.672  31.464  1.00  0.00     0.049 A 
ATOM     34  H   UNL A   1      44.328  31.399  30.294  1.00  0.00     0.167 HD
ATOM     35  C   UNL A   1      41.983  30.926  32.009  1.00  0.00     0.074 A 
ATOM     36  C   UNL A   1      41.827  31.862  30.896  1.00  0.00     0.031 C 
ATOM     37  C   UNL A   1      42.940  29.997  32.302  1.00  0.00     0.037 A 
BRANCH  24  38
ATOM     38  C   UNL A   1      44.987  31.131  27.374  1.00  0.00     0.064 A 
ATOM     39  C   UNL A   1      46.275  31.353  26.849  1.00  0.00     0.173 A 
ATOM     40  C   UNL A   1      44.159  32.273  27.455  1.00  0.00     0.173 A 
ATOM     41  F   UNL A   1      47.156  30.345  26.754  1.00  0.00    -0.203 F 
ATOM     42  C   UNL A   1      46.721  32.631  26.502  1.00  0.00     0.198 A 
ATOM     43  C   UNL A   1      44.589  33.536  27.058  1.00  0.00     0.198 A 
ATOM     44  F   UNL A   1      42.951  32.246  28.026  1.00  0.00    -0.203 F 
ATOM     45  F   UNL A   1      47.995  32.811  26.130  1.00  0.00    -0.200 F 
ATOM     46  C   UNL A   1      45.880  33.722  26.611  1.00  0.00     0.200 A 
ATOM     47  F   UNL A   1      43.765  34.584  27.198  1.00  0.00    -0.200 F 
ATOM     48  F   UNL A   1      46.321  34.956  26.336  1.00  0.00    -0.200 F 
ENDBRANCH  24  38
BRANCH  25  49
ATOM     49  C   UNL A   1      37.371  31.691  31.402  1.00  0.00     0.064 A 
ATOM     50  C   UNL A   1      36.728  32.022  32.610  1.00  0.00     0.173 A 
ATOM     51  C   UNL A   1      37.024  32.468  30.281  1.00  0.00     0.173 A 
ATOM     52  F   UNL A   1      37.023  31.357  33.736  1.00  0.00    -0.203 F 
ATOM     53  C   UNL A   1      35.839  33.100  32.701  1.00  0.00     0.198 A 
ATOM     54  C   UNL A   1      36.134  33.542  30.373  1.00  0.00     0.198 A 
ATOM     55  F   UNL A   1      37.623  32.269  29.098  1.00  0.00    -0.203 F 
ATOM     56  F   UNL A   1      35.312  33.435  33.888  1.00  0.00    -0.200 F 
ATOM     57  C   UNL A   1      35.557  33.870  31.587  1.00  0.00     0.200 A 
ATOM     58  F   UNL A   1      35.897  34.303  29.296  1.00  0.00    -0.200 F 
ATOM     59  F   UNL A   1      34.770  34.950  31.689  1.00  0.00    -0.200 F 
ENDBRANCH  25  49
BRANCH  37  60
ATOM     60  C   UNL A   1      42.703  29.104  33.493  1.00  0.00     0.064 A 
ATOM     61  C   UNL A   1      41.929  27.929  33.473  1.00  0.00     0.173 A 
ATOM     62  C   UNL A   1      43.413  29.383  34.669  1.00  0.00     0.173 A 
ATOM     63  F   UNL A   1      41.282  27.546  32.366  1.00  0.00    -0.203 F 
ATOM     64  C   UNL A   1      41.855  27.091  34.586  1.00  0.00     0.198 A 
ATOM     65  C   UNL A   1      43.366  28.527  35.765  1.00  0.00     0.198 A 
ATOM     66  F   UNL A   1      44.200  30.467  34.733  1.00  0.00    -0.203 F 
ATOM     67  F   UNL A   1      41.107  25.978  34.545  1.00  0.00    -0.200 F 
ATOM     68  C   UNL A   1      42.582  27.385  35.728  1.00  0.00     0.200 A 
ATOM     69  F   UNL A   1      44.107  28.795  36.849  1.00  0.00    -0.200 F 
ATOM     70  F   UNL A   1      42.549  26.559  36.782  1.00  0.00    -0.200 F 
ENDBRANCH  37  60
ENDBRANCH  11  12
ENDBRANCH   4   6
ENDBRANCH   1   2
BRANCH   1  71
ATOM     71  C   UNL A   1      42.264  19.754  27.447  1.00  0.00     0.042 C 
BRANCH  71  72
ATOM     72  C   UNL A   1      42.319  19.483  25.941  1.00  0.00     0.118 C 
BRANCH  72  73
ATOM     73  N   UNL A   1      43.515  18.751  25.528  1.00  0.00    -0.351 N 
ATOM     74  C   UNL A   1      44.696  19.232  24.999  1.00  0.00     0.269 C 
ATOM     75  H   UNL A   1      43.473  17.775  25.645  1.00  0.00     0.163 HD
ATOM     76  O   UNL A   1      45.544  18.446  24.581  1.00  0.00    -0.268 OA
BRANCH  74  77
ATOM     77  C   UNL A   1      44.908  20.702  24.874  1.00  0.00     0.130 A 
ATOM     78  C   UNL A   1      45.642  21.345  25.866  1.00  0.00     0.066 A 
ATOM     79  N   UNL A   1      44.436  21.291  23.736  1.00  0.00    -0.247 NA
ATOM     80  C   UNL A   1      45.995  22.659  25.566  1.00  0.00     0.113 A 
ATOM     81  C   UNL A   1      44.765  22.576  23.469  1.00  0.00     0.161 A 
ATOM     82  N   UNL A   1      46.776  23.560  26.246  1.00  0.00    -0.216 NA
ATOM     83  C   UNL A   1      45.563  23.231  24.379  1.00  0.00     0.172 A 
ATOM     84  C   UNL A   1      46.795  24.610  25.453  1.00  0.00     0.309 A 
ATOM     85  O   UNL A   1      46.079  24.489  24.301  1.00  0.00    -0.442 OA
ENDBRANCH  74  77
ENDBRANCH  72  73
ENDBRANCH  71  72
ENDBRANCH   1  71
TORSDOF 10
ENDMDL
MODEL 2
REMARK VINA RESULT:     -12.3      1.465      2.193
REMARK SMILES O=C(NCCCNC(=O)c1cc2ncoc2cn1)c1ccc(-c2c3nc(c(-c4c(F)c(F)c(F)c(F)c4F)c4ccc([nH]4)c(-c4c(F)c(F)c(F)c(F)c4F)c4nc(c(-c5c(F)c(F)c(F)c(F)c5F)c5ccc2[nH]5)C=C4)C=C3)cc1
REMARK SMILES IDX 4 1 3 2 1 3 2 4 19 6 20 7 81 8 21 9 80 10 22 11 23 12 24 13
REMARK SMILES IDX 74 14 25 15 79 16 73 17 75 18 26 19 78 20 72 21 71 22 27 24
REMARK SMILES IDX 59 25 39 26 58 27 40 28 43 29 57 30 76 31 41 32 42 33 56 35
REMARK SMILES IDX 77 36 44 37 28 38 29 39 37 40 30 41 31 42 35 43 38 44 32 45
REMARK SMILES IDX 33 46 36 47 34 48 60 49 61 50 69 51 62 52 63 53 67 54 70 55
REMARK SMILES IDX 64 56 65 57 68 58 66 59 45 60 46 61 54 62 47 63 48 64 52 65
REMARK SMILES IDX 55 66 49 67 50 68 53 69 51 70 5 71 6 72 7 73 8 74 9 76 10 77
REMARK SMILES IDX 11 78 18 79 12 80 17 81 13 82 16 83 14 84 15 85
REMARK H PARENT 3 5 75 23 43 34 7 75
REMARK Flexibility Score: inf
ROOT
ATOM      1  C   UNL A   1      42.946  22.392  25.422  1.00  0.00     0.118 C 
ENDROOT
BRANCH   1   2
ATOM      2  N   UNL A   1      41.863  21.737  26.177  1.00  0.00    -0.352 N 
ATOM      3  O   UNL A   1      40.437  21.558  27.950  1.00  0.00    -0.269 OA
ATOM      4  C   UNL A   1      41.071  22.268  27.192  1.00  0.00     0.251 C 
ATOM      5  H   UNL A   1      41.675  20.801  25.932  1.00  0.00     0.163 HD
BRANCH   4   6
ATOM      6  C   UNL A   1      41.016  23.737  27.311  1.00  0.00     0.039 A 
ATOM      7  C   UNL A   1      40.031  24.535  26.732  1.00  0.00     0.014 A 
ATOM      8  C   UNL A   1      41.964  24.293  28.151  1.00  0.00     0.014 A 
ATOM      9  C   UNL A   1      40.011  25.886  27.074  1.00  0.00     0.010 A 
ATOM     10  C   UNL A   1      41.657  25.450  28.787  1.00  0.00     0.010 A 
ATOM     11  C   UNL A   1      40.837  26.330  28.124  1.00  0.00    -0.014 A 
BRANCH  11  12
ATOM     12  C   UNL A   1      40.852  27.695  28.624  1.00  0.00     0.031 A 
ATOM     13  C   UNL A   1      41.961  28.491  28.067  1.00  0.00     0.074 A 
ATOM     14  C   UNL A   1      39.865  28.226  29.386  1.00  0.00     0.049 A 
ATOM     15  N   UNL A   1      43.049  28.809  28.677  1.00  0.00    -0.248 NA
ATOM     16  C   UNL A   1      41.971  28.778  26.625  1.00  0.00     0.031 C 
ATOM     17  C   UNL A   1      38.570  27.642  29.774  1.00  0.00     0.029 A 
ATOM     18  N   UNL A   1      39.792  29.468  29.943  1.00  0.00    -0.354 N 
ATOM     19  C   UNL A   1      43.784  29.551  27.766  1.00  0.00     0.074 A 
ATOM     20  C   UNL A   1      43.185  29.316  26.478  1.00  0.00     0.031 C 
ATOM     21  C   UNL A   1      37.767  28.594  30.303  1.00  0.00     0.029 A 
ATOM     22  C   UNL A   1      38.544  29.804  30.469  1.00  0.00     0.049 A 
ATOM     23  H   UNL A   1      40.562  30.080  29.973  1.00  0.00     0.167 HD
ATOM     24  C   UNL A   1      44.631  30.516  28.214  1.00  0.00     0.037 A 
ATOM     25  C   UNL A   1      38.191  30.994  31.021  1.00  0.00     0.037 A 
ATOM     26  C   UNL A   1      44.895  30.344  29.624  1.00  0.00     0.049 A 
ATOM     27  C   UNL A   1      39.453  31.656  31.427  1.00  0.00     0.074 A 
ATOM     28  C   UNL A   1      45.469  29.353  30.394  1.00  0.00     0.029 A 
ATOM     29  N   UNL A   1      44.148  31.109  30.486  1.00  0.00    -0.354 N 
ATOM     30  N   UNL A   1      40.227  31.217  32.381  1.00  0.00    -0.248 NA
ATOM     31  C   UNL A   1      40.084  32.542  30.463  1.00  0.00     0.031 C 
ATOM     32  C   UNL A   1      44.696  29.313  31.594  1.00  0.00     0.029 A 
ATOM     33  C   UNL A   1      43.743  30.331  31.538  1.00  0.00     0.049 A 
ATOM     34  H   UNL A   1      43.938  32.064  30.367  1.00  0.00     0.167 HD
ATOM     35  C   UNL A   1      41.513  31.397  31.896  1.00  0.00     0.074 A 
ATOM     36  C   UNL A   1      41.365  32.307  30.760  1.00  0.00     0.031 C 
ATOM     37  C   UNL A   1      42.521  30.559  32.278  1.00  0.00     0.037 A 
BRANCH  24  38
ATOM     38  C   UNL A   1      44.851  31.833  27.513  1.00  0.00     0.064 A 
ATOM     39  C   UNL A   1      46.084  32.061  26.870  1.00  0.00     0.173 A 
ATOM     40  C   UNL A   1      44.044  32.978  27.700  1.00  0.00     0.173 A 
ATOM     41  F   UNL A   1      46.944  31.050  26.667  1.00  0.00    -0.203 F 
ATOM     42  C   UNL A   1      46.504  33.343  26.510  1.00  0.00     0.198 A 
ATOM     43  C   UNL A   1      44.444  34.248  27.291  1.00  0.00     0.198 A 
ATOM     44  F   UNL A   1      42.897  32.945  28.385  1.00  0.00    -0.203 F 
ATOM     45  F   UNL A   1      47.737  33.525  26.020  1.00  0.00    -0.200 F 
ATOM     46  C   UNL A   1      45.686  34.437  26.725  1.00  0.00     0.200 A 
ATOM     47  F   UNL A   1      43.646  35.297  27.534  1.00  0.00    -0.200 F 
ATOM     48  F   UNL A   1      46.108  35.673  26.436  1.00  0.00    -0.200 F 
ENDBRANCH  24  38
BRANCH  25  49
ATOM     49  C   UNL A   1      36.915  31.745  30.912  1.00  0.00     0.064 A 
ATOM     50  C   UNL A   1      36.093  31.927  32.040  1.00  0.00     0.173 A 
ATOM     51  C   UNL A   1      36.643  32.572  29.806  1.00  0.00     0.173 A 
ATOM     52  F   UNL A   1      36.302  31.206  33.152  1.00  0.00    -0.203 F 
ATOM     53  C   UNL A   1      35.099  32.914  32.079  1.00  0.00     0.198 A 
ATOM     54  C   UNL A   1      35.649  33.554  29.845  1.00  0.00     0.198 A 
ATOM     55  F   UNL A   1      37.406  32.516  28.706  1.00  0.00    -0.203 F 
ATOM     56  F   UNL A   1      34.394  33.110  33.202  1.00  0.00    -0.200 F 
ATOM     57  C   UNL A   1      34.891  33.738  30.988  1.00  0.00     0.200 A 
ATOM     58  F   UNL A   1      35.481  34.372  28.796  1.00  0.00    -0.200 F 
ATOM     59  F   UNL A   1      33.997  34.735  31.051  1.00  0.00    -0.200 F 
ENDBRANCH  25  49
BRANCH  37  60
ATOM     60  C   UNL A   1      42.267  29.658  33.460  1.00  0.00     0.064 A 
ATOM     61  C   UNL A   1      41.751  28.352  33.375  1.00  0.00     0.173 A 
ATOM     62  C   UNL A   1      42.705  30.093  34.718  1.00  0.00     0.173 A 
ATOM     63  F   UNL A   1      41.384  27.828  32.200  1.00  0.00    -0.203 F 
ATOM     64  C   UNL A   1      41.658  27.536  34.503  1.00  0.00     0.198 A 
ATOM     65  C   UNL A   1      42.644  29.265  35.834  1.00  0.00     0.198 A 
ATOM     66  F   UNL A   1      43.245  31.314  34.852  1.00  0.00    -0.203 F 
ATOM     67  F   UNL A   1      41.158  26.295  34.399  1.00  0.00    -0.200 F 
ATOM     68  C   UNL A   1      42.114  27.989  35.730  1.00  0.00     0.200 A 
ATOM     69  F   UNL A   1      43.129  29.695  37.007  1.00  0.00    -0.200 F 
ATOM     70  F   UNL A   1      42.069  27.191  36.805  1.00  0.00    -0.200 F 
ENDBRANCH  37  60
ENDBRANCH  11  12
ENDBRANCH   4   6
ENDBRANCH   1   2
BRANCH   1  71
ATOM     71  C   UNL A   1      44.107  21.478  25.088  1.00  0.00     0.042 C 
BRANCH  71  72
ATOM     72  C   UNL A   1      45.418  21.969  25.708  1.00  0.00     0.118 C 
BRANCH  72  73
ATOM     73  N   UNL A   1      45.246  22.554  27.036  1.00  0.00    -0.351 N 
ATOM     74  C   UNL A   1      45.651  23.786  27.509  1.00  0.00     0.269 C 
ATOM     75  H   UNL A   1      44.773  21.988  27.688  1.00  0.00     0.163 HD
ATOM     76  O   UNL A   1      45.538  24.050  28.704  1.00  0.00    -0.268 OA
BRANCH  74  77
ATOM     77  C   UNL A   1      46.285  24.764  26.580  1.00  0.00     0.130 A 
ATOM     78  C   UNL A   1      45.465  25.688  25.941  1.00  0.00     0.066 A 
ATOM     79  N   UNL A   1      47.649  24.732  26.501  1.00  0.00    -0.247 NA
ATOM     80  C   UNL A   1      46.145  26.707  25.278  1.00  0.00     0.113 A 
ATOM     81  C   UNL A   1      48.296  25.715  25.832  1.00  0.00     0.161 A 
ATOM     82  N   UNL A   1      45.684  27.823  24.625  1.00  0.00    -0.216 NA
ATOM     83  C   UNL A   1      47.531  26.702  25.253  1.00  0.00     0.172 A 
ATOM     84  C   UNL A   1      46.786  28.439  24.253  1.00  0.00     0.309 A 
ATOM     85  O   UNL A   1      47.950  27.819  24.595  1.00  0.00    -0.442 OA
ENDBRANCH  74  77
ENDBRANCH  72  73
ENDBRANCH  71  72
ENDBRANCH   1  71
TORSDOF 10
ENDMDL
MODEL 3
REMARK VINA RESULT:     -12.3      4.180     11.161
REMARK SMILES O=C(NCCCNC(=O)c1cc2ncoc2cn1)c1ccc(-c2c3nc(c(-c4c(F)c(F)c(F)c(F)c4F)c4ccc([nH]4)c(-c4c(F)c(F)c(F)c(F)c4F)c4nc(c(-c5c(F)c(F)c(F)c(F)c5F)c5ccc2[nH]5)C=C4)C=C3)cc1
REMARK SMILES IDX 4 1 3 2 1 3 2 4 19 6 20 7 81 8 21 9 80 10 22 11 23 12 24 13
REMARK SMILES IDX 74 14 25 15 79 16 73 17 75 18 26 19 78 20 72 21 71 22 27 24
REMARK SMILES IDX 59 25 39 26 58 27 40 28 43 29 57 30 76 31 41 32 42 33 56 35
REMARK SMILES IDX 77 36 44 37 28 38 29 39 37 40 30 41 31 42 35 43 38 44 32 45
REMARK SMILES IDX 33 46 36 47 34 48 60 49 61 50 69 51 62 52 63 53 67 54 70 55
REMARK SMILES IDX 64 56 65 57 68 58 66 59 45 60 46 61 54 62 47 63 48 64 52 65
REMARK SMILES IDX 55 66 49 67 50 68 53 69 51 70 5 71 6 72 7 73 8 74 9 76 10 77
REMARK SMILES IDX 11 78 18 79 12 80 17 81 13 82 16 83 14 84 15 85
REMARK H PARENT 3 5 75 23 43 34 7 75
REMARK Flexibility Score: inf
ROOT
ATOM      1  C   UNL A   1      34.821  32.783  31.131  1.00  0.00     0.118 C 
ENDROOT
BRANCH   1   2
ATOM      2  N   UNL A   1      34.778  33.061  29.684  1.00  0.00    -0.352 N 
ATOM      3  O   UNL A   1      35.724  33.216  27.613  1.00  0.00    -0.269 OA
ATOM      4  C   UNL A   1      35.686  32.674  28.701  1.00  0.00     0.251 C 
ATOM      5  H   UNL A   1      34.007  33.589  29.371  1.00  0.00     0.163 HD
BRANCH   4   6
ATOM      6  C   UNL A   1      36.603  31.564  29.023  1.00  0.00     0.039 A 
ATOM      7  C   UNL A   1      36.363  30.230  28.699  1.00  0.00     0.014 A 
ATOM      8  C   UNL A   1      37.808  31.943  29.585  1.00  0.00     0.014 A 
ATOM      9  C   UNL A   1      37.397  29.319  28.912  1.00  0.00     0.010 A 
ATOM     10  C   UNL A   1      38.892  31.160  29.365  1.00  0.00     0.010 A 
ATOM     11  C   UNL A   1      38.674  29.810  29.241  1.00  0.00    -0.014 A 
BRANCH  11  12
ATOM     12  C   UNL A   1      39.847  28.970  29.415  1.00  0.00     0.031 A 
ATOM     13  C   UNL A   1      40.191  28.761  30.833  1.00  0.00     0.074 A 
ATOM     14  C   UNL A   1      40.460  28.317  28.397  1.00  0.00     0.049 A 
ATOM     15  N   UNL A   1      41.150  29.331  31.475  1.00  0.00    -0.248 NA
ATOM     16  C   UNL A   1      39.252  28.016  31.685  1.00  0.00     0.031 C 
ATOM     17  C   UNL A   1      40.056  28.203  26.986  1.00  0.00     0.029 A 
ATOM     18  N   UNL A   1      41.581  27.543  28.432  1.00  0.00    -0.354 N 
ATOM     19  C   UNL A   1      41.085  28.831  32.765  1.00  0.00     0.074 A 
ATOM     20  C   UNL A   1      39.792  28.210  32.892  1.00  0.00     0.031 C 
ATOM     21  C   UNL A   1      40.782  27.244  26.367  1.00  0.00     0.029 A 
ATOM     22  C   UNL A   1      41.826  26.809  27.271  1.00  0.00     0.049 A 
ATOM     23  H   UNL A   1      42.174  27.506  29.217  1.00  0.00     0.167 HD
ATOM     24  C   UNL A   1      42.223  28.723  33.502  1.00  0.00     0.037 A 
ATOM     25  C   UNL A   1      42.834  25.922  27.071  1.00  0.00     0.037 A 
ATOM     26  C   UNL A   1      43.281  29.516  32.918  1.00  0.00     0.049 A 
ATOM     27  C   UNL A   1      43.884  26.252  28.064  1.00  0.00     0.074 A 
ATOM     28  C   UNL A   1      43.464  30.860  32.663  1.00  0.00     0.029 A 
ATOM     29  N   UNL A   1      44.172  28.852  32.112  1.00  0.00    -0.354 N 
ATOM     30  N   UNL A   1      44.581  27.353  28.041  1.00  0.00    -0.248 NA
ATOM     31  C   UNL A   1      43.832  25.566  29.344  1.00  0.00     0.031 C 
ATOM     32  C   UNL A   1      44.144  30.916  31.409  1.00  0.00     0.029 A 
ATOM     33  C   UNL A   1      44.417  29.610  30.998  1.00  0.00     0.049 A 
ATOM     34  H   UNL A   1      44.571  27.972  32.303  1.00  0.00     0.167 HD
ATOM     35  C   UNL A   1      44.676  27.732  29.371  1.00  0.00     0.074 A 
ATOM     36  C   UNL A   1      44.287  26.544  30.132  1.00  0.00     0.031 C 
ATOM     37  C   UNL A   1      44.772  29.051  29.711  1.00  0.00     0.037 A 
BRANCH  24  38
ATOM     38  C   UNL A   1      42.505  27.586  34.452  1.00  0.00     0.064 A 
ATOM     39  C   UNL A   1      43.024  26.383  33.934  1.00  0.00     0.173 A 
ATOM     40  C   UNL A   1      42.013  27.515  35.775  1.00  0.00     0.173 A 
ATOM     41  F   UNL A   1      43.491  26.327  32.678  1.00  0.00    -0.203 F 
ATOM     42  C   UNL A   1      42.984  25.190  34.658  1.00  0.00     0.198 A 
ATOM     43  C   UNL A   1      42.025  26.335  36.514  1.00  0.00     0.198 A 
ATOM     44  F   UNL A   1      41.395  28.541  36.369  1.00  0.00    -0.203 F 
ATOM     45  F   UNL A   1      43.370  24.046  34.076  1.00  0.00    -0.200 F 
ATOM     46  C   UNL A   1      42.481  25.164  35.946  1.00  0.00     0.200 A 
ATOM     47  F   UNL A   1      41.507  26.328  37.750  1.00  0.00    -0.200 F 
ATOM     48  F   UNL A   1      42.387  24.013  36.621  1.00  0.00    -0.200 F 
ENDBRANCH  24  38
BRANCH  25  49
ATOM     49  C   UNL A   1      42.824  24.625  26.348  1.00  0.00     0.064 A 
ATOM     50  C   UNL A   1      43.670  24.413  25.243  1.00  0.00     0.173 A 
ATOM     51  C   UNL A   1      42.244  23.474  26.915  1.00  0.00     0.173 A 
ATOM     52  F   UNL A   1      44.292  25.449  24.661  1.00  0.00    -0.203 F 
ATOM     53  C   UNL A   1      43.964  23.126  24.774  1.00  0.00     0.198 A 
ATOM     54  C   UNL A   1      42.535  22.191  26.444  1.00  0.00     0.198 A 
ATOM     55  F   UNL A   1      41.469  23.565  28.006  1.00  0.00    -0.203 F 
ATOM     56  F   UNL A   1      44.841  22.963  23.773  1.00  0.00    -0.200 F 
ATOM     57  C   UNL A   1      43.410  22.016  25.387  1.00  0.00     0.200 A 
ATOM     58  F   UNL A   1      42.023  21.121  27.068  1.00  0.00    -0.200 F 
ATOM     59  F   UNL A   1      43.752  20.781  24.992  1.00  0.00    -0.200 F 
ENDBRANCH  25  49
BRANCH  37  60
ATOM     60  C   UNL A   1      45.088  30.032  28.611  1.00  0.00     0.064 A 
ATOM     61  C   UNL A   1      44.128  30.668  27.803  1.00  0.00     0.173 A 
ATOM     62  C   UNL A   1      46.419  30.450  28.473  1.00  0.00     0.173 A 
ATOM     63  F   UNL A   1      42.826  30.386  27.926  1.00  0.00    -0.203 F 
ATOM     64  C   UNL A   1      44.492  31.655  26.887  1.00  0.00     0.198 A 
ATOM     65  C   UNL A   1      46.774  31.460  27.584  1.00  0.00     0.198 A 
ATOM     66  F   UNL A   1      47.373  29.909  29.246  1.00  0.00    -0.203 F 
ATOM     67  F   UNL A   1      43.558  32.244  26.123  1.00  0.00    -0.200 F 
ATOM     68  C   UNL A   1      45.813  32.058  26.785  1.00  0.00     0.200 A 
ATOM     69  F   UNL A   1      48.047  31.874  27.524  1.00  0.00    -0.200 F 
ATOM     70  F   UNL A   1      46.158  33.038  25.939  1.00  0.00    -0.200 F 
ENDBRANCH  37  60
ENDBRANCH  11  12
ENDBRANCH   4   6
ENDBRANCH   1   2
BRANCH   1  71
ATOM     71  C   UNL A   1      34.267  33.900  31.991  1.00  0.00     0.042 C 
BRANCH  71  72
ATOM     72  C   UNL A   1      35.358  34.568  32.831  1.00  0.00     0.118 C 
BRANCH  72  73
ATOM     73  N   UNL A   1      36.626  34.719  32.119  1.00  0.00    -0.351 N 
ATOM     74  C   UNL A   1      37.875  34.231  32.444  1.00  0.00     0.269 C 
ATOM     75  H   UNL A   1      36.582  35.243  31.287  1.00  0.00     0.163 HD
ATOM     76  O   UNL A   1      38.857  34.579  31.791  1.00  0.00    -0.268 OA
BRANCH  74  77
ATOM     77  C   UNL A   1      38.038  33.339  33.626  1.00  0.00     0.130 A 
ATOM     78  C   UNL A   1      38.052  33.921  34.890  1.00  0.00     0.066 A 
ATOM     79  N   UNL A   1      38.068  31.996  33.376  1.00  0.00    -0.247 NA
ATOM     80  C   UNL A   1      37.973  33.016  35.946  1.00  0.00     0.113 A 
ATOM     81  C   UNL A   1      38.016  31.128  34.413  1.00  0.00     0.161 A 
ATOM     82  N   UNL A   1      37.874  33.218  37.300  1.00  0.00    -0.216 NA
ATOM     83  C   UNL A   1      37.943  31.656  35.682  1.00  0.00     0.172 A 
ATOM     84  C   UNL A   1      37.776  31.999  37.786  1.00  0.00     0.309 A 
ATOM     85  O   UNL A   1      37.813  30.994  36.866  1.00  0.00    -0.442 OA
ENDBRANCH  74  77
ENDBRANCH  72  73
ENDBRANCH  71  72
ENDBRANCH   1  71
TORSDOF 10
ENDMDL
