MODEL 1
REMARK VINA RESULT:     -14.1      0.000      0.000
REMARK SMILES O=C(NCCCNC(=O)c1ccc(-n2cc(CSc3nc4ccccc4c(=O)n3-c3ccc(Br)cc3)nn2)cc1)c1ccc(-c2c3nc(c(-c4c(F)c(F)c(F)c(F)c4F)c4ccc([nH]4)c(-c4c(F)c(F)c(F)c(F)c4F)c4nc(c(-c5c(F)c(F)c(F)c(F)c5F)c5ccc2[nH]5)C=C4)C=C3)cc1
REMARK SMILES IDX 7 1 8 2 9 3 6 5 5 6 4 7 3 8 1 9 2 10 41 12 42 13 103 14
REMARK SMILES IDX 43 15 102 16 44 17 45 18 46 19 96 20 47 21 101 22 95 23
REMARK SMILES IDX 97 24 48 25 100 26 94 27 93 28 49 30 81 31 61 32 80 33 62 34
REMARK SMILES IDX 65 35 79 36 98 37 63 38 64 39 78 41 99 42 66 43 50 44 51 45
REMARK SMILES IDX 59 46 52 47 53 48 57 49 60 50 54 51 55 52 58 53 56 54 82 55
REMARK SMILES IDX 83 56 91 57 84 58 85 59 89 60 92 61 86 62 87 63 90 64 88 65
REMARK SMILES IDX 67 66 68 67 76 68 69 69 70 70 74 71 77 72 71 73 72 74 75 75
REMARK SMILES IDX 73 76 10 77 11 78 40 79 12 80 39 81 13 82 14 83 15 84 38 85
REMARK SMILES IDX 16 86 37 87 17 88 18 89 19 90 20 91 29 92 21 93 27 94 22 95
REMARK SMILES IDX 26 96 28 97 23 98 25 99 24 100 30 101 31 102 36 103 32 104
REMARK SMILES IDX 35 105 33 106 34 107
REMARK H PARENT 7 4 3 11 97 29 65 40
REMARK Flexibility Score: inf
ROOT
ATOM      1  N   UNL A   1      30.563  30.606  24.706  1.00  0.00    -0.352 N 
ATOM      2  C   UNL A   1      30.239  29.695  23.730  1.00  0.00     0.251 C 
ATOM      3  O   UNL A   1      29.198  29.829  23.101  1.00  0.00    -0.269 OA
ATOM      4  H   UNL A   1      29.856  31.264  24.899  1.00  0.00     0.163 HD
ENDROOT
BRANCH   1   5
ATOM      5  C   UNL A   1      31.768  30.764  25.502  1.00  0.00     0.118 C 
BRANCH   5   6
ATOM      6  C   UNL A   1      31.912  29.709  26.598  1.00  0.00     0.042 C 
BRANCH   6   7
ATOM      7  C   UNL A   1      33.264  29.691  27.305  1.00  0.00     0.118 C 
BRANCH   7   8
ATOM      8  N   UNL A   1      33.615  30.908  28.008  1.00  0.00    -0.352 N 
ATOM      9  O   UNL A   1      34.701  32.655  28.809  1.00  0.00    -0.269 OA
ATOM     10  C   UNL A   1      34.783  31.488  28.417  1.00  0.00     0.251 C 
ATOM     11  H   UNL A   1      32.825  31.445  28.248  1.00  0.00     0.163 HD
BRANCH  10  12
ATOM     12  C   UNL A   1      36.098  30.802  28.510  1.00  0.00     0.039 A 
ATOM     13  C   UNL A   1      36.346  29.452  28.257  1.00  0.00     0.014 A 
ATOM     14  C   UNL A   1      37.171  31.620  28.918  1.00  0.00     0.014 A 
ATOM     15  C   UNL A   1      37.612  28.914  28.498  1.00  0.00     0.010 A 
ATOM     16  C   UNL A   1      38.433  31.092  29.152  1.00  0.00     0.010 A 
ATOM     17  C   UNL A   1      38.645  29.729  28.976  1.00  0.00    -0.014 A 
BRANCH  17  18
ATOM     18  C   UNL A   1      39.986  29.169  29.128  1.00  0.00     0.031 A 
ATOM     19  C   UNL A   1      40.431  29.007  30.545  1.00  0.00     0.074 A 
ATOM     20  C   UNL A   1      40.698  28.658  28.101  1.00  0.00     0.049 A 
ATOM     21  N   UNL A   1      41.472  29.516  31.121  1.00  0.00    -0.248 NA
ATOM     22  C   UNL A   1      39.554  28.258  31.462  1.00  0.00     0.031 C 
ATOM     23  C   UNL A   1      40.263  28.465  26.715  1.00  0.00     0.029 A 
ATOM     24  N   UNL A   1      41.945  28.101  28.103  1.00  0.00    -0.354 N 
ATOM     25  C   UNL A   1      41.472  29.027  32.428  1.00  0.00     0.074 A 
ATOM     26  C   UNL A   1      40.206  28.371  32.619  1.00  0.00     0.031 C 
ATOM     27  C   UNL A   1      41.131  27.643  26.081  1.00  0.00     0.029 A 
ATOM     28  C   UNL A   1      42.246  27.354  26.969  1.00  0.00     0.049 A 
ATOM     29  H   UNL A   1      42.579  28.219  28.848  1.00  0.00     0.167 HD
ATOM     30  C   UNL A   1      42.603  29.021  33.188  1.00  0.00     0.037 A 
ATOM     31  C   UNL A   1      43.299  26.514  26.799  1.00  0.00     0.037 A 
ATOM     32  C   UNL A   1      43.594  29.916  32.659  1.00  0.00     0.049 A 
ATOM     33  C   UNL A   1      44.315  26.855  27.824  1.00  0.00     0.074 A 
ATOM     34  C   UNL A   1      43.669  31.280  32.453  1.00  0.00     0.029 A 
ATOM     35  N   UNL A   1      44.619  29.374  31.925  1.00  0.00    -0.354 N 
ATOM     36  N   UNL A   1      45.004  27.959  27.829  1.00  0.00    -0.248 NA
ATOM     37  C   UNL A   1      44.247  26.152  29.097  1.00  0.00     0.031 C 
ATOM     38  C   UNL A   1      44.402  31.428  31.240  1.00  0.00     0.029 A 
ATOM     39  C   UNL A   1      44.780  30.155  30.813  1.00  0.00     0.049 A 
ATOM     40  H   UNL A   1      45.141  28.573  32.157  1.00  0.00     0.167 HD
ATOM     41  C   UNL A   1      45.070  28.321  29.165  1.00  0.00     0.074 A 
ATOM     42  C   UNL A   1      44.664  27.129  29.905  1.00  0.00     0.031 C 
ATOM     43  C   UNL A   1      45.170  29.632  29.529  1.00  0.00     0.037 A 
BRANCH  30  44
ATOM     44  C   UNL A   1      42.963  27.948  34.188  1.00  0.00     0.064 A 
ATOM     45  C   UNL A   1      43.153  28.305  35.540  1.00  0.00     0.173 A 
ATOM     46  C   UNL A   1      43.446  26.673  33.823  1.00  0.00     0.173 A 
ATOM     47  F   UNL A   1      42.745  29.499  35.997  1.00  0.00    -0.203 F 
ATOM     48  C   UNL A   1      43.856  27.487  36.429  1.00  0.00     0.198 A 
ATOM     49  C   UNL A   1      44.101  25.838  34.728  1.00  0.00     0.198 A 
ATOM     50  F   UNL A   1      43.412  26.234  32.560  1.00  0.00    -0.203 F 
ATOM     51  F   UNL A   1      44.132  27.928  37.664  1.00  0.00    -0.200 F 
ATOM     52  C   UNL A   1      44.338  26.258  36.019  1.00  0.00     0.200 A 
ATOM     53  F   UNL A   1      44.578  24.657  34.305  1.00  0.00    -0.200 F 
ATOM     54  F   UNL A   1      45.073  25.503  36.845  1.00  0.00    -0.200 F 
ENDBRANCH  30  44
BRANCH  31  55
ATOM     55  C   UNL A   1      43.366  25.241  26.036  1.00  0.00     0.064 A 
ATOM     56  C   UNL A   1      44.433  24.968  25.160  1.00  0.00     0.173 A 
ATOM     57  C   UNL A   1      42.545  24.148  26.373  1.00  0.00     0.173 A 
ATOM     58  F   UNL A   1      45.296  25.940  24.825  1.00  0.00    -0.203 F 
ATOM     59  C   UNL A   1      44.676  23.679  24.674  1.00  0.00     0.198 A 
ATOM     60  C   UNL A   1      42.785  22.863  25.882  1.00  0.00     0.198 A 
ATOM     61  F   UNL A   1      41.553  24.284  27.264  1.00  0.00    -0.203 F 
ATOM     62  F   UNL A   1      45.740  23.446  23.892  1.00  0.00    -0.200 F 
ATOM     63  C   UNL A   1      43.858  22.625  25.044  1.00  0.00     0.200 A 
ATOM     64  F   UNL A   1      42.008  21.845  26.280  1.00  0.00    -0.200 F 
ATOM     65  F   UNL A   1      44.126  21.378  24.631  1.00  0.00    -0.200 F 
ENDBRANCH  31  55
BRANCH  43  66
ATOM     66  C   UNL A   1      45.485  30.635  28.456  1.00  0.00     0.064 A 
ATOM     67  C   UNL A   1      44.521  31.226  27.620  1.00  0.00     0.173 A 
ATOM     68  C   UNL A   1      46.796  31.119  28.372  1.00  0.00     0.173 A 
ATOM     69  F   UNL A   1      43.228  30.890  27.710  1.00  0.00    -0.203 F 
ATOM     70  C   UNL A   1      44.869  32.225  26.713  1.00  0.00     0.198 A 
ATOM     71  C   UNL A   1      47.133  32.143  27.493  1.00  0.00     0.198 A 
ATOM     72  F   UNL A   1      47.745  30.630  29.186  1.00  0.00    -0.203 F 
ATOM     73  F   UNL A   1      43.934  32.765  25.917  1.00  0.00    -0.200 F 
ATOM     74  C   UNL A   1      46.172  32.688  26.656  1.00  0.00     0.200 A 
ATOM     75  F   UNL A   1      48.385  32.623  27.479  1.00  0.00    -0.200 F 
ATOM     76  F   UNL A   1      46.499  33.679  25.815  1.00  0.00    -0.200 F 
ENDBRANCH  43  66
ENDBRANCH  17  18
ENDBRANCH  10  12
ENDBRANCH   7   8
ENDBRANCH   6   7
ENDBRANCH   5   6
ENDBRANCH   1   5
BRANCH   2  77
ATOM     77  C   UNL A   1      31.140  28.566  23.414  1.00  0.00     0.039 A 
ATOM     78  C   UNL A   1      30.724  27.272  23.748  1.00  0.00     0.016 A 
ATOM     79  C   UNL A   1      32.416  28.774  22.882  1.00  0.00     0.016 A 
ATOM     80  C   UNL A   1      31.556  26.179  23.497  1.00  0.00     0.029 A 
ATOM     81  C   UNL A   1      33.259  27.686  22.644  1.00  0.00     0.029 A 
ATOM     82  C   UNL A   1      32.833  26.386  22.961  1.00  0.00     0.066 A 
BRANCH  82  83
ATOM     83  N   UNL A   1      33.713  25.285  22.835  1.00  0.00    -0.220 N 
ATOM     84  C   UNL A   1      34.843  25.034  23.569  1.00  0.00     0.141 A 
ATOM     85  N   UNL A   1      33.510  24.261  21.972  1.00  0.00    -0.062 NA
ATOM     86  C   UNL A   1      35.227  23.757  23.223  1.00  0.00     0.093 A 
ATOM     87  N   UNL A   1      34.436  23.334  22.193  1.00  0.00    -0.134 NA
BRANCH  86  88
ATOM     88  C   UNL A   1      36.401  22.994  23.691  1.00  0.00     0.138 C 
BRANCH  88  89
ATOM     89  S   UNL A   1      36.314  21.876  25.092  1.00  0.00    -0.081 SA
BRANCH  89  90
ATOM     90  C   UNL A   1      35.109  20.625  24.919  1.00  0.00     0.176 A 
ATOM     91  N   UNL A   1      35.648  19.440  24.926  1.00  0.00    -0.223 NA
ATOM     92  N   UNL A   1      33.733  20.794  24.814  1.00  0.00    -0.255 N 
ATOM     93  C   UNL A   1      34.830  18.326  24.714  1.00  0.00     0.079 A 
ATOM     94  C   UNL A   1      33.097  19.852  23.989  1.00  0.00     0.266 A 
ATOM     95  C   UNL A   1      35.267  17.040  25.038  1.00  0.00     0.029 A 
ATOM     96  C   UNL A   1      33.604  18.474  24.087  1.00  0.00     0.066 A 
ATOM     97  O   UNL A   1      32.171  20.077  23.214  1.00  0.00    -0.268 OA
ATOM     98  C   UNL A   1      34.505  15.923  24.673  1.00  0.00     0.002 A 
ATOM     99  C   UNL A   1      32.857  17.368  23.664  1.00  0.00     0.016 A 
ATOM    100  C   UNL A   1      33.320  16.086  23.953  1.00  0.00     0.001 A 
BRANCH  92 101
ATOM    101  C   UNL A   1      32.916  21.807  25.456  1.00  0.00     0.051 A 
ATOM    102  C   UNL A   1      31.507  21.722  25.406  1.00  0.00     0.028 A 
ATOM    103  C   UNL A   1      33.423  22.880  26.197  1.00  0.00     0.028 A 
ATOM    104  C   UNL A   1      30.675  22.756  25.847  1.00  0.00     0.018 A 
ATOM    105  C   UNL A   1      32.609  23.958  26.583  1.00  0.00     0.018 A 
ATOM    106  C   UNL A   1      31.239  23.907  26.365  1.00  0.00     0.018 A 
ATOM    107  Br  UNL A   1      30.157  25.402  26.749  1.00  0.00    -0.051 Br
ENDBRANCH  92 101
ENDBRANCH  89  90
ENDBRANCH  88  89
ENDBRANCH  86  88
ENDBRANCH  82  83
ENDBRANCH   2  77
TORSDOF 15
ENDMDL
MODEL 2
REMARK VINA RESULT:     -14.0      5.726     11.264
REMARK SMILES O=C(NCCCNC(=O)c1ccc(-n2cc(CSc3nc4ccccc4c(=O)n3-c3ccc(Br)cc3)nn2)cc1)c1ccc(-c2c3nc(c(-c4c(F)c(F)c(F)c(F)c4F)c4ccc([nH]4)c(-c4c(F)c(F)c(F)c(F)c4F)c4nc(c(-c5c(F)c(F)c(F)c(F)c5F)c5ccc2[nH]5)C=C4)C=C3)cc1
REMARK SMILES IDX 7 1 8 2 9 3 6 5 5 6 4 7 3 8 1 9 2 10 41 12 42 13 103 14
REMARK SMILES IDX 43 15 102 16 44 17 45 18 46 19 96 20 47 21 101 22 95 23
REMARK SMILES IDX 97 24 48 25 100 26 94 27 93 28 49 30 81 31 61 32 80 33 62 34
REMARK SMILES IDX 65 35 79 36 98 37 63 38 64 39 78 41 99 42 66 43 50 44 51 45
REMARK SMILES IDX 59 46 52 47 53 48 57 49 60 50 54 51 55 52 58 53 56 54 82 55
REMARK SMILES IDX 83 56 91 57 84 58 85 59 89 60 92 61 86 62 87 63 90 64 88 65
REMARK SMILES IDX 67 66 68 67 76 68 69 69 70 70 74 71 77 72 71 73 72 74 75 75
REMARK SMILES IDX 73 76 10 77 11 78 40 79 12 80 39 81 13 82 14 83 15 84 38 85
REMARK SMILES IDX 16 86 37 87 17 88 18 89 19 90 20 91 29 92 21 93 27 94 22 95
REMARK SMILES IDX 26 96 28 97 23 98 25 99 24 100 30 101 31 102 36 103 32 104
REMARK SMILES IDX 35 105 33 106 34 107
REMARK H PARENT 7 4 3 11 97 29 65 40
REMARK Flexibility Score: inf
ROOT
ATOM      1  N   UNL A   1      36.334  32.272  33.435  1.00  0.00    -0.352 N 
ATOM      2  C   UNL A   1      37.569  32.793  33.733  1.00  0.00     0.251 C 
ATOM      3  O   UNL A   1      37.862  33.022  34.899  1.00  0.00    -0.269 OA
ATOM      4  H   UNL A   1      35.719  32.216  34.202  1.00  0.00     0.163 HD
ENDROOT
BRANCH   1   5
ATOM      5  C   UNL A   1      35.778  31.791  32.181  1.00  0.00     0.118 C 
BRANCH   5   6
ATOM      6  C   UNL A   1      34.694  32.703  31.611  1.00  0.00     0.042 C 
BRANCH   6   7
ATOM      7  C   UNL A   1      35.111  33.520  30.391  1.00  0.00     0.118 C 
BRANCH   7   8
ATOM      8  N   UNL A   1      34.671  32.999  29.113  1.00  0.00    -0.352 N 
ATOM      9  O   UNL A   1      34.232  31.678  27.400  1.00  0.00    -0.269 OA
ATOM     10  C   UNL A   1      34.983  31.908  28.352  1.00  0.00     0.251 C 
ATOM     11  H   UNL A   1      33.983  33.566  28.693  1.00  0.00     0.163 HD
BRANCH  10  12
ATOM     12  C   UNL A   1      36.185  31.052  28.527  1.00  0.00     0.039 A 
ATOM     13  C   UNL A   1      36.219  29.658  28.498  1.00  0.00     0.014 A 
ATOM     14  C   UNL A   1      37.385  31.752  28.767  1.00  0.00     0.014 A 
ATOM     15  C   UNL A   1      37.402  28.978  28.796  1.00  0.00     0.010 A 
ATOM     16  C   UNL A   1      38.566  31.082  29.056  1.00  0.00     0.010 A 
ATOM     17  C   UNL A   1      38.566  29.692  29.106  1.00  0.00    -0.014 A 
BRANCH  17  18
ATOM     18  C   UNL A   1      39.816  28.965  29.318  1.00  0.00     0.031 A 
ATOM     19  C   UNL A   1      40.191  28.786  30.753  1.00  0.00     0.074 A 
ATOM     20  C   UNL A   1      40.485  28.335  28.329  1.00  0.00     0.049 A 
ATOM     21  N   UNL A   1      41.272  29.169  31.353  1.00  0.00    -0.248 NA
ATOM     22  C   UNL A   1      39.194  28.185  31.656  1.00  0.00     0.031 C 
ATOM     23  C   UNL A   1      40.072  28.162  26.934  1.00  0.00     0.029 A 
ATOM     24  N   UNL A   1      41.647  27.620  28.388  1.00  0.00    -0.354 N 
ATOM     25  C   UNL A   1      41.166  28.722  32.670  1.00  0.00     0.074 A 
ATOM     26  C   UNL A   1      39.819  28.244  32.832  1.00  0.00     0.031 C 
ATOM     27  C   UNL A   1      40.844  27.216  26.351  1.00  0.00     0.029 A 
ATOM     28  C   UNL A   1      41.882  26.808  27.283  1.00  0.00     0.049 A 
ATOM     29  H   UNL A   1      42.267  27.674  29.151  1.00  0.00     0.167 HD
ATOM     30  C   UNL A   1      42.262  28.589  33.469  1.00  0.00     0.037 A 
ATOM     31  C   UNL A   1      42.819  25.832  27.170  1.00  0.00     0.037 A 
ATOM     32  C   UNL A   1      43.379  29.331  32.953  1.00  0.00     0.049 A 
ATOM     33  C   UNL A   1      43.839  26.065  28.222  1.00  0.00     0.074 A 
ATOM     34  C   UNL A   1      43.639  30.666  32.717  1.00  0.00     0.029 A 
ATOM     35  N   UNL A   1      44.345  28.638  32.269  1.00  0.00    -0.354 N 
ATOM     36  N   UNL A   1      44.667  27.069  28.223  1.00  0.00    -0.248 NA
ATOM     37  C   UNL A   1      43.639  25.414  29.507  1.00  0.00     0.031 C 
ATOM     38  C   UNL A   1      44.423  30.682  31.527  1.00  0.00     0.029 A 
ATOM     39  C   UNL A   1      44.643  29.359  31.145  1.00  0.00     0.049 A 
ATOM     40  H   UNL A   1      44.748  27.782  32.538  1.00  0.00     0.167 HD
ATOM     41  C   UNL A   1      44.738  27.457  29.553  1.00  0.00     0.074 A 
ATOM     42  C   UNL A   1      44.156  26.350  30.306  1.00  0.00     0.031 C 
ATOM     43  C   UNL A   1      45.001  28.753  29.888  1.00  0.00     0.037 A 
BRANCH  30  44
ATOM     44  C   UNL A   1      42.445  27.506  34.506  1.00  0.00     0.064 A 
ATOM     45  C   UNL A   1      42.964  26.256  34.109  1.00  0.00     0.173 A 
ATOM     46  C   UNL A   1      41.833  27.533  35.778  1.00  0.00     0.173 A 
ATOM     47  F   UNL A   1      43.556  26.109  32.914  1.00  0.00    -0.203 F 
ATOM     48  C   UNL A   1      42.796  25.105  34.884  1.00  0.00     0.198 A 
ATOM     49  C   UNL A   1      41.715  26.393  36.572  1.00  0.00     0.198 A 
ATOM     50  F   UNL A   1      41.223  28.626  36.251  1.00  0.00    -0.203 F 
ATOM     51  F   UNL A   1      43.183  23.916  34.403  1.00  0.00    -0.200 F 
ATOM     52  C   UNL A   1      42.163  25.173  36.112  1.00  0.00     0.200 A 
ATOM     53  F   UNL A   1      41.081  26.476  37.751  1.00  0.00    -0.200 F 
ATOM     54  F   UNL A   1      41.937  24.063  36.825  1.00  0.00    -0.200 F 
ENDBRANCH  30  44
BRANCH  31  55
ATOM     55  C   UNL A   1      42.741  24.540  26.441  1.00  0.00     0.064 A 
ATOM     56  C   UNL A   1      43.603  24.254  25.366  1.00  0.00     0.173 A 
ATOM     57  C   UNL A   1      42.024  23.450  26.969  1.00  0.00     0.173 A 
ATOM     58  F   UNL A   1      44.363  25.223  24.833  1.00  0.00    -0.203 F 
ATOM     59  C   UNL A   1      43.756  22.953  24.870  1.00  0.00     0.198 A 
ATOM     60  C   UNL A   1      42.172  22.154  26.469  1.00  0.00     0.198 A 
ATOM     61  F   UNL A   1      41.240  23.601  28.045  1.00  0.00    -0.203 F 
ATOM     62  F   UNL A   1      44.634  22.709  23.888  1.00  0.00    -0.200 F 
ATOM     63  C   UNL A   1      43.048  21.903  25.430  1.00  0.00     0.200 A 
ATOM     64  F   UNL A   1      41.510  21.141  27.046  1.00  0.00    -0.200 F 
ATOM     65  F   UNL A   1      43.239  20.648  24.999  1.00  0.00    -0.200 F 
ENDBRANCH  31  55
BRANCH  43  66
ATOM     66  C   UNL A   1      45.478  29.675  28.803  1.00  0.00     0.064 A 
ATOM     67  C   UNL A   1      44.627  30.381  27.934  1.00  0.00     0.173 A 
ATOM     68  C   UNL A   1      46.848  29.961  28.739  1.00  0.00     0.173 A 
ATOM     69  F   UNL A   1      43.298  30.239  28.002  1.00  0.00    -0.203 F 
ATOM     70  C   UNL A   1      45.135  31.298  27.015  1.00  0.00     0.198 A 
ATOM     71  C   UNL A   1      47.347  30.905  27.848  1.00  0.00     0.198 A 
ATOM     72  F   UNL A   1      47.700  29.358  29.583  1.00  0.00    -0.203 F 
ATOM     73  F   UNL A   1      44.304  31.951  26.189  1.00  0.00    -0.200 F 
ATOM     74  C   UNL A   1      46.493  31.565  26.979  1.00  0.00     0.200 A 
ATOM     75  F   UNL A   1      48.655  31.197  27.852  1.00  0.00    -0.200 F 
ATOM     76  F   UNL A   1      46.977  32.479  26.126  1.00  0.00    -0.200 F 
ENDBRANCH  43  66
ENDBRANCH  17  18
ENDBRANCH  10  12
ENDBRANCH   7   8
ENDBRANCH   6   7
ENDBRANCH   5   6
ENDBRANCH   1   5
BRANCH   2  77
ATOM     77  C   UNL A   1      38.560  33.061  32.669  1.00  0.00     0.039 A 
ATOM     78  C   UNL A   1      39.689  32.238  32.592  1.00  0.00     0.016 A 
ATOM     79  C   UNL A   1      38.436  34.160  31.814  1.00  0.00     0.016 A 
ATOM     80  C   UNL A   1      40.667  32.474  31.623  1.00  0.00     0.029 A 
ATOM     81  C   UNL A   1      39.419  34.410  30.853  1.00  0.00     0.029 A 
ATOM     82  C   UNL A   1      40.543  33.571  30.763  1.00  0.00     0.066 A 
BRANCH  82  83
ATOM     83  N   UNL A   1      41.603  33.874  29.876  1.00  0.00    -0.220 N 
ATOM     84  C   UNL A   1      41.761  35.011  29.126  1.00  0.00     0.141 A 
ATOM     85  N   UNL A   1      42.675  33.069  29.690  1.00  0.00    -0.062 NA
ATOM     86  C   UNL A   1      43.032  34.927  28.601  1.00  0.00     0.093 A 
ATOM     87  N   UNL A   1      43.543  33.697  28.903  1.00  0.00    -0.134 NA
BRANCH  86  88
ATOM     88  C   UNL A   1      43.712  35.870  27.690  1.00  0.00     0.138 C 
BRANCH  88  89
ATOM     89  S   UNL A   1      42.949  37.407  27.167  1.00  0.00    -0.081 SA
BRANCH  89  90
ATOM     90  C   UNL A   1      43.069  38.688  28.348  1.00  0.00     0.176 A 
ATOM     91  N   UNL A   1      43.671  38.285  29.429  1.00  0.00    -0.223 NA
ATOM     92  N   UNL A   1      42.632  40.000  28.209  1.00  0.00    -0.255 N 
ATOM     93  C   UNL A   1      43.778  39.165  30.510  1.00  0.00     0.079 A 
ATOM     94  C   UNL A   1      42.159  40.579  29.398  1.00  0.00     0.266 A 
ATOM     95  C   UNL A   1      44.683  38.927  31.546  1.00  0.00     0.029 A 
ATOM     96  C   UNL A   1      42.914  40.243  30.615  1.00  0.00     0.066 A 
ATOM     97  O   UNL A   1      41.192  41.329  29.503  1.00  0.00    -0.268 OA
ATOM     98  C   UNL A   1      44.666  39.726  32.696  1.00  0.00     0.002 A 
ATOM     99  C   UNL A   1      42.844  41.017  31.779  1.00  0.00     0.016 A 
ATOM    100  C   UNL A   1      43.722  40.747  32.828  1.00  0.00     0.001 A 
BRANCH  92 101
ATOM    101  C   UNL A   1      42.622  40.806  27.002  1.00  0.00     0.051 A 
ATOM    102  C   UNL A   1      41.516  40.761  26.125  1.00  0.00     0.028 A 
ATOM    103  C   UNL A   1      43.634  41.702  26.641  1.00  0.00     0.028 A 
ATOM    104  C   UNL A   1      41.528  41.373  24.868  1.00  0.00     0.018 A 
ATOM    105  C   UNL A   1      43.694  42.266  25.356  1.00  0.00     0.018 A 
ATOM    106  C   UNL A   1      42.655  42.061  24.458  1.00  0.00     0.018 A 
ATOM    107  Br  UNL A   1      42.788  42.693  22.687  1.00  0.00    -0.051 Br
ENDBRANCH  92 101
ENDBRANCH  89  90
ENDBRANCH  88  89
ENDBRANCH  86  88
ENDBRANCH  82  83
ENDBRANCH   2  77
TORSDOF 15
ENDMDL
MODEL 3
REMARK VINA RESULT:     -13.9      3.066      6.075
REMARK SMILES O=C(NCCCNC(=O)c1ccc(-n2cc(CSc3nc4ccccc4c(=O)n3-c3ccc(Br)cc3)nn2)cc1)c1ccc(-c2c3nc(c(-c4c(F)c(F)c(F)c(F)c4F)c4ccc([nH]4)c(-c4c(F)c(F)c(F)c(F)c4F)c4nc(c(-c5c(F)c(F)c(F)c(F)c5F)c5ccc2[nH]5)C=C4)C=C3)cc1
REMARK SMILES IDX 7 1 8 2 9 3 6 5 5 6 4 7 3 8 1 9 2 10 41 12 42 13 103 14
REMARK SMILES IDX 43 15 102 16 44 17 45 18 46 19 96 20 47 21 101 22 95 23
REMARK SMILES IDX 97 24 48 25 100 26 94 27 93 28 49 30 81 31 61 32 80 33 62 34
REMARK SMILES IDX 65 35 79 36 98 37 63 38 64 39 78 41 99 42 66 43 50 44 51 45
REMARK SMILES IDX 59 46 52 47 53 48 57 49 60 50 54 51 55 52 58 53 56 54 82 55
REMARK SMILES IDX 83 56 91 57 84 58 85 59 89 60 92 61 86 62 87 63 90 64 88 65
REMARK SMILES IDX 67 66 68 67 76 68 69 69 70 70 74 71 77 72 71 73 72 74 75 75
REMARK SMILES IDX 73 76 10 77 11 78 40 79 12 80 39 81 13 82 14 83 15 84 38 85
REMARK SMILES IDX 16 86 37 87 17 88 18 89 19 90 20 91 29 92 21 93 27 94 22 95
REMARK SMILES IDX 26 96 28 97 23 98 25 99 24 100 30 101 31 102 36 103 32 104
REMARK SMILES IDX 35 105 33 106 34 107
REMARK H PARENT 7 4 3 11 97 29 65 40
REMARK Flexibility Score: inf
ROOT
ATOM      1  N   UNL A   1      37.167  34.459  34.228  1.00  0.00    -0.352 N 
ATOM      2  C   UNL A   1      35.991  34.608  33.533  1.00  0.00     0.251 C 
ATOM      3  O   UNL A   1      35.146  35.394  33.940  1.00  0.00    -0.269 OA
ATOM      4  H   UNL A   1      37.197  34.941  35.086  1.00  0.00     0.163 HD
ENDROOT
BRANCH   1   5
ATOM      5  C   UNL A   1      38.374  33.713  33.913  1.00  0.00     0.118 C 
BRANCH   5   6
ATOM      6  C   UNL A   1      39.625  34.587  33.847  1.00  0.00     0.042 C 
BRANCH   6   7
ATOM      7  C   UNL A   1      40.443  34.449  32.566  1.00  0.00     0.118 C 
BRANCH   7   8
ATOM      8  N   UNL A   1      39.678  34.447  31.336  1.00  0.00    -0.352 N 
ATOM      9  O   UNL A   1      38.456  33.839  29.601  1.00  0.00    -0.269 OA
ATOM     10  C   UNL A   1      39.302  33.495  30.430  1.00  0.00     0.251 C 
ATOM     11  H   UNL A   1      39.351  35.344  31.096  1.00  0.00     0.163 HD
BRANCH  10  12
ATOM     12  C   UNL A   1      39.892  32.136  30.316  1.00  0.00     0.039 A 
ATOM     13  C   UNL A   1      39.198  30.926  30.363  1.00  0.00     0.014 A 
ATOM     14  C   UNL A   1      41.294  32.104  30.171  1.00  0.00     0.014 A 
ATOM     15  C   UNL A   1      39.895  29.716  30.361  1.00  0.00     0.010 A 
ATOM     16  C   UNL A   1      41.991  30.904  30.161  1.00  0.00     0.010 A 
ATOM     17  C   UNL A   1      41.293  29.709  30.293  1.00  0.00    -0.014 A 
BRANCH  17  18
ATOM     18  C   UNL A   1      41.998  28.432  30.193  1.00  0.00     0.031 A 
ATOM     19  C   UNL A   1      42.549  27.927  31.486  1.00  0.00     0.074 A 
ATOM     20  C   UNL A   1      41.994  27.668  29.080  1.00  0.00     0.049 A 
ATOM     21  N   UNL A   1      43.777  27.643  31.777  1.00  0.00    -0.248 NA
ATOM     22  C   UNL A   1      41.627  27.813  32.630  1.00  0.00     0.031 C 
ATOM     23  C   UNL A   1      41.239  27.885  27.843  1.00  0.00     0.029 A 
ATOM     24  N   UNL A   1      42.596  26.462  28.855  1.00  0.00    -0.354 N 
ATOM     25  C   UNL A   1      43.766  27.164  33.088  1.00  0.00     0.074 A 
ATOM     26  C   UNL A   1      42.447  27.416  33.604  1.00  0.00     0.031 C 
ATOM     27  C   UNL A   1      41.250  26.752  27.104  1.00  0.00     0.029 A 
ATOM     28  C   UNL A   1      42.113  25.774  27.747  1.00  0.00     0.049 A 
ATOM     29  H   UNL A   1      43.313  26.110  29.431  1.00  0.00     0.167 HD
ATOM     30  C   UNL A   1      44.787  26.408  33.581  1.00  0.00     0.037 A 
ATOM     31  C   UNL A   1      42.356  24.478  27.419  1.00  0.00     0.037 A 
ATOM     32  C   UNL A   1      45.970  26.538  32.776  1.00  0.00     0.049 A 
ATOM     33  C   UNL A   1      43.561  24.045  28.167  1.00  0.00     0.074 A 
ATOM     34  C   UNL A   1      46.819  27.577  32.449  1.00  0.00     0.029 A 
ATOM     35  N   UNL A   1      46.249  25.535  31.883  1.00  0.00    -0.354 N 
ATOM     36  N   UNL A   1      44.763  24.487  27.930  1.00  0.00    -0.248 NA
ATOM     37  C   UNL A   1      43.360  23.443  29.476  1.00  0.00     0.031 C 
ATOM     38  C   UNL A   1      47.196  27.330  31.097  1.00  0.00     0.029 A 
ATOM     39  C   UNL A   1      46.606  26.129  30.703  1.00  0.00     0.049 A 
ATOM     40  H   UNL A   1      46.203  24.568  32.060  1.00  0.00     0.167 HD
ATOM     41  C   UNL A   1      45.331  24.633  29.186  1.00  0.00     0.074 A 
ATOM     42  C   UNL A   1      44.455  23.893  30.091  1.00  0.00     0.031 C 
ATOM     43  C   UNL A   1      46.294  25.572  29.411  1.00  0.00     0.037 A 
BRANCH  30  44
ATOM     44  C   UNL A   1      44.621  25.271  34.561  1.00  0.00     0.064 A 
ATOM     45  C   UNL A   1      45.191  25.385  35.847  1.00  0.00     0.173 A 
ATOM     46  C   UNL A   1      44.223  23.970  34.187  1.00  0.00     0.173 A 
ATOM     47  F   UNL A   1      45.617  26.573  36.304  1.00  0.00    -0.203 F 
ATOM     48  C   UNL A   1      45.430  24.268  36.652  1.00  0.00     0.198 A 
ATOM     49  C   UNL A   1      44.416  22.865  35.015  1.00  0.00     0.198 A 
ATOM     50  F   UNL A   1      43.745  23.696  32.967  1.00  0.00    -0.203 F 
ATOM     51  F   UNL A   1      46.099  24.408  37.804  1.00  0.00    -0.200 F 
ATOM     52  C   UNL A   1      45.050  23.006  36.230  1.00  0.00     0.200 A 
ATOM     53  F   UNL A   1      44.058  21.648  34.580  1.00  0.00    -0.200 F 
ATOM     54  F   UNL A   1      45.341  21.926  36.965  1.00  0.00    -0.200 F 
ENDBRANCH  30  44
BRANCH  31  55
ATOM     55  C   UNL A   1      41.454  23.494  26.766  1.00  0.00     0.064 A 
ATOM     56  C   UNL A   1      41.934  22.252  26.313  1.00  0.00     0.173 A 
ATOM     57  C   UNL A   1      40.055  23.630  26.841  1.00  0.00     0.173 A 
ATOM     58  F   UNL A   1      43.254  22.017  26.258  1.00  0.00    -0.203 F 
ATOM     59  C   UNL A   1      41.068  21.204  25.980  1.00  0.00     0.198 A 
ATOM     60  C   UNL A   1      39.191  22.586  26.502  1.00  0.00     0.198 A 
ATOM     61  F   UNL A   1      39.499  24.744  27.338  1.00  0.00    -0.203 F 
ATOM     62  F   UNL A   1      41.564  20.014  25.613  1.00  0.00    -0.200 F 
ATOM     63  C   UNL A   1      39.697  21.369  26.086  1.00  0.00     0.200 A 
ATOM     64  F   UNL A   1      37.868  22.747  26.647  1.00  0.00    -0.200 F 
ATOM     65  F   UNL A   1      38.867  20.348  25.829  1.00  0.00    -0.200 F 
ENDBRANCH  31  55
BRANCH  43  66
ATOM     66  C   UNL A   1      46.911  26.244  28.217  1.00  0.00     0.064 A 
ATOM     67  C   UNL A   1      47.988  25.716  27.484  1.00  0.00     0.173 A 
ATOM     68  C   UNL A   1      46.289  27.394  27.715  1.00  0.00     0.173 A 
ATOM     69  F   UNL A   1      48.572  24.566  27.842  1.00  0.00    -0.203 F 
ATOM     70  C   UNL A   1      48.447  26.342  26.326  1.00  0.00     0.198 A 
ATOM     71  C   UNL A   1      46.723  27.994  26.538  1.00  0.00     0.198 A 
ATOM     72  F   UNL A   1      45.221  27.908  28.344  1.00  0.00    -0.203 F 
ATOM     73  F   UNL A   1      49.484  25.827  25.649  1.00  0.00    -0.200 F 
ATOM     74  C   UNL A   1      47.809  27.475  25.850  1.00  0.00     0.200 A 
ATOM     75  F   UNL A   1      46.070  29.059  26.054  1.00  0.00    -0.200 F 
ATOM     76  F   UNL A   1      48.220  28.052  24.712  1.00  0.00    -0.200 F 
ENDBRANCH  43  66
ENDBRANCH  17  18
ENDBRANCH  10  12
ENDBRANCH   7   8
ENDBRANCH   6   7
ENDBRANCH   5   6
ENDBRANCH   1   5
BRANCH   2  77
ATOM     77  C   UNL A   1      35.740  33.849  32.290  1.00  0.00     0.039 A 
ATOM     78  C   UNL A   1      35.178  34.525  31.202  1.00  0.00     0.016 A 
ATOM     79  C   UNL A   1      35.964  32.471  32.216  1.00  0.00     0.016 A 
ATOM     80  C   UNL A   1      34.893  33.841  30.019  1.00  0.00     0.029 A 
ATOM     81  C   UNL A   1      35.667  31.778  31.040  1.00  0.00     0.029 A 
ATOM     82  C   UNL A   1      35.120  32.462  29.941  1.00  0.00     0.066 A 
BRANCH  82  83
ATOM     83  N   UNL A   1      34.706  31.759  28.785  1.00  0.00    -0.220 N 
ATOM     84  C   UNL A   1      35.133  30.526  28.363  1.00  0.00     0.141 A 
ATOM     85  N   UNL A   1      33.749  32.209  27.940  1.00  0.00    -0.062 NA
ATOM     86  C   UNL A   1      34.294  30.187  27.323  1.00  0.00     0.093 A 
ATOM     87  N   UNL A   1      33.503  31.263  27.039  1.00  0.00    -0.134 NA
BRANCH  86  88
ATOM     88  C   UNL A   1      34.323  28.974  26.481  1.00  0.00     0.138 C 
BRANCH  88  89
ATOM     89  S   UNL A   1      33.110  27.664  26.657  1.00  0.00    -0.081 SA
BRANCH  89  90
ATOM     90  C   UNL A   1      33.293  26.377  25.491  1.00  0.00     0.176 A 
ATOM     91  N   UNL A   1      33.919  25.356  26.003  1.00  0.00    -0.223 NA
ATOM     92  N   UNL A   1      32.829  26.359  24.181  1.00  0.00    -0.255 N 
ATOM     93  C   UNL A   1      34.222  24.269  25.178  1.00  0.00     0.079 A 
ATOM     94  C   UNL A   1      33.659  25.666  23.284  1.00  0.00     0.266 A 
ATOM     95  C   UNL A   1      34.577  23.032  25.719  1.00  0.00     0.029 A 
ATOM     96  C   UNL A   1      34.267  24.431  23.803  1.00  0.00     0.066 A 
ATOM     97  O   UNL A   1      33.911  25.996  22.128  1.00  0.00    -0.268 OA
ATOM     98  C   UNL A   1      35.033  22.002  24.887  1.00  0.00     0.002 A 
ATOM     99  C   UNL A   1      34.774  23.434  22.962  1.00  0.00     0.016 A 
ATOM    100  C   UNL A   1      35.167  22.215  23.514  1.00  0.00     0.001 A 
BRANCH  92 101
ATOM    101  C   UNL A   1      31.612  26.958  23.666  1.00  0.00     0.051 A 
ATOM    102  C   UNL A   1      31.672  28.124  22.874  1.00  0.00     0.028 A 
ATOM    103  C   UNL A   1      30.330  26.428  23.851  1.00  0.00     0.028 A 
ATOM    104  C   UNL A   1      30.530  28.842  22.503  1.00  0.00     0.018 A 
ATOM    105  C   UNL A   1      29.176  27.169  23.548  1.00  0.00     0.018 A 
ATOM    106  C   UNL A   1      29.287  28.398  22.912  1.00  0.00     0.018 A 
ATOM    107  Br  UNL A   1      27.759  29.465  22.628  1.00  0.00    -0.051 Br
ENDBRANCH  92 101
ENDBRANCH  89  90
ENDBRANCH  88  89
ENDBRANCH  86  88
ENDBRANCH  82  83
ENDBRANCH   2  77
TORSDOF 15
ENDMDL
