MODEL 1
REMARK VINA RESULT:     -12.8      0.000      0.000
REMARK SMILES Cc1nsc(N(C)S(=O)(=O)c2cn[nH]c2C)c1C(=O)NCCCNC(=O)c1ccc(-c2c3nc(c(-c4c(F)c(F)c(F)c(F)c4F)c4ccc([nH]4)c(-c4c(F)c(F)c(F)c(F)c4F)c4nc(c(-c5c(F)c(F)c(F)c(F)c5F)c5ccc2[nH]5)C=C4)C=C3)cc1
REMARK SMILES IDX 21 1 20 2 18 3 19 4 17 6 1 7 2 8 3 9 4 10 5 11 6 12 7 13
REMARK SMILES IDX 8 14 9 15 10 16 11 17 12 18 15 19 13 20 14 21 16 22 22 24
REMARK SMILES IDX 23 25 24 26 25 27 26 29 27 30 28 31 89 32 29 33 88 34 30 35
REMARK SMILES IDX 31 36 32 37 82 38 33 39 87 40 81 41 83 42 34 43 86 44 80 45
REMARK SMILES IDX 79 46 35 48 67 49 47 50 66 51 48 52 51 53 65 54 84 55 49 56
REMARK SMILES IDX 50 57 64 59 85 60 52 61 36 62 37 63 45 64 38 65 39 66 43 67
REMARK SMILES IDX 46 68 40 69 41 70 44 71 42 72 68 73 69 74 77 75 70 76 71 77
REMARK SMILES IDX 75 78 78 79 72 80 73 81 76 82 74 83 53 84 54 85 62 86 55 87
REMARK SMILES IDX 56 88 60 89 63 90 57 91 58 92 61 93 59 94
REMARK H PARENT 20 5 14 23 24 28 83 47 51 58
REMARK Flexibility Score: inf
ROOT
ATOM      1  C   UNL A   1      37.907  23.240  26.010  1.00  0.00     0.118 C 
ENDROOT
BRANCH   1   2
ATOM      2  N   UNL A   1      37.252  23.654  24.780  1.00  0.00    -0.352 N 
ATOM      3  C   UNL A   1      36.486  22.899  23.915  1.00  0.00     0.256 C 
ATOM      4  O   UNL A   1      36.877  22.861  22.751  1.00  0.00    -0.269 OA
ATOM      5  H   UNL A   1      37.371  24.599  24.531  1.00  0.00     0.163 HD
BRANCH   3   6
ATOM      6  C   UNL A   1      35.249  22.237  24.340  1.00  0.00     0.098 A 
ATOM      7  C   UNL A   1      36.196  19.798  24.954  1.00  0.00     0.069 C 
ATOM      8  C   UNL A   1      35.147  20.846  24.811  1.00  0.00     0.066 A 
ATOM      9  N   UNL A   1      33.932  20.409  25.126  1.00  0.00    -0.195 NA
ATOM     10  S   UNL A   1      32.845  21.579  24.852  1.00  0.00    -0.017 S 
ATOM     11  C   UNL A   1      33.939  22.763  24.200  1.00  0.00     0.138 A 
BRANCH  11  12
ATOM     12  N   UNL A   1      33.348  24.029  23.703  1.00  0.00    -0.258 N 
ATOM     13  C   UNL A   1      33.189  24.186  22.231  1.00  0.00     0.165 C 
BRANCH  12  14
ATOM     14  S   UNL A   1      33.582  25.469  24.561  1.00  0.00     0.268 S 
ATOM     15  O   UNL A   1      34.682  25.282  25.496  1.00  0.00    -0.201 OA
ATOM     16  O   UNL A   1      33.510  26.561  23.621  1.00  0.00    -0.201 OA
BRANCH  14  17
ATOM     17  C   UNL A   1      32.282  25.890  25.628  1.00  0.00     0.128 A 
ATOM     18  C   UNL A   1      31.026  25.290  25.803  1.00  0.00     0.157 A 
ATOM     19  C   UNL A   1      32.263  26.985  26.479  1.00  0.00     0.053 A 
ATOM     20  N   UNL A   1      30.239  25.981  26.635  1.00  0.00    -0.183 NA
ATOM     21  N   UNL A   1      31.009  27.012  27.021  1.00  0.00    -0.281 N 
ATOM     22  C   UNL A   1      33.286  28.005  26.804  1.00  0.00     0.067 C 
ATOM     23  H   UNL A   1      30.699  27.718  27.634  1.00  0.00     0.190 HD
ENDBRANCH  14  17
ENDBRANCH  12  14
ENDBRANCH  11  12
ENDBRANCH   3   6
ENDBRANCH   1   2
BRANCH   1  24
ATOM     24  C   UNL A   1      38.861  22.048  25.792  1.00  0.00     0.042 C 
BRANCH  24  25
ATOM     25  C   UNL A   1      40.032  22.008  26.756  1.00  0.00     0.118 C 
BRANCH  25  26
ATOM     26  N   UNL A   1      41.321  22.177  26.087  1.00  0.00    -0.352 N 
ATOM     27  C   UNL A   1      42.032  23.342  25.869  1.00  0.00     0.251 C 
ATOM     28  H   UNL A   1      41.737  21.353  25.746  1.00  0.00     0.163 HD
ATOM     29  O   UNL A   1      42.905  23.391  25.011  1.00  0.00    -0.269 OA
BRANCH  27  30
ATOM     30  C   UNL A   1      41.709  24.531  26.673  1.00  0.00     0.039 A 
ATOM     31  C   UNL A   1      42.255  24.715  27.946  1.00  0.00     0.014 A 
ATOM     32  C   UNL A   1      40.889  25.500  26.105  1.00  0.00     0.014 A 
ATOM     33  C   UNL A   1      42.038  25.927  28.594  1.00  0.00     0.010 A 
ATOM     34  C   UNL A   1      40.848  26.756  26.649  1.00  0.00     0.010 A 
ATOM     35  C   UNL A   1      41.361  26.959  27.922  1.00  0.00    -0.014 A 
BRANCH  35  36
ATOM     36  C   UNL A   1      41.278  28.296  28.500  1.00  0.00     0.031 A 
ATOM     37  C   UNL A   1      42.379  29.196  28.076  1.00  0.00     0.074 A 
ATOM     38  C   UNL A   1      40.211  28.749  29.195  1.00  0.00     0.049 A 
ATOM     39  N   UNL A   1      43.379  29.593  28.790  1.00  0.00    -0.248 NA
ATOM     40  C   UNL A   1      42.477  29.576  26.657  1.00  0.00     0.031 C 
ATOM     41  C   UNL A   1      38.913  28.085  29.381  1.00  0.00     0.029 A 
ATOM     42  N   UNL A   1      40.020  29.952  29.810  1.00  0.00    -0.354 N 
ATOM     43  C   UNL A   1      44.090  30.477  27.983  1.00  0.00     0.074 A 
ATOM     44  C   UNL A   1      43.626  30.257  26.640  1.00  0.00     0.031 C 
ATOM     45  C   UNL A   1      38.005  28.975  29.837  1.00  0.00     0.029 A 
ATOM     46  C   UNL A   1      38.702  30.202  30.173  1.00  0.00     0.049 A 
ATOM     47  H   UNL A   1      40.753  30.588  29.982  1.00  0.00     0.167 HD
ATOM     48  C   UNL A   1      44.746  31.527  28.550  1.00  0.00     0.037 A 
ATOM     49  C   UNL A   1      38.209  31.332  30.730  1.00  0.00     0.037 A 
ATOM     50  C   UNL A   1      44.822  31.359  29.980  1.00  0.00     0.049 A 
ATOM     51  C   UNL A   1      39.336  32.038  31.374  1.00  0.00     0.074 A 
ATOM     52  C   UNL A   1      45.577  30.634  30.875  1.00  0.00     0.029 A 
ATOM     53  N   UNL A   1      43.685  31.755  30.633  1.00  0.00    -0.354 N 
ATOM     54  N   UNL A   1      39.978  31.571  32.408  1.00  0.00    -0.248 NA
ATOM     55  C   UNL A   1      39.998  33.126  30.663  1.00  0.00     0.031 C 
ATOM     56  C   UNL A   1      44.788  30.511  32.059  1.00  0.00     0.029 A 
ATOM     57  C   UNL A   1      43.591  31.195  31.877  1.00  0.00     0.049 A 
ATOM     58  H   UNL A   1      43.016  32.368  30.252  1.00  0.00     0.167 HD
ATOM     59  C   UNL A   1      41.276  31.991  32.215  1.00  0.00     0.074 A 
ATOM     60  C   UNL A   1      41.195  33.082  31.252  1.00  0.00     0.031 C 
ATOM     61  C   UNL A   1      42.325  31.199  32.573  1.00  0.00     0.037 A 
BRANCH  48  62
ATOM     62  C   UNL A   1      44.859  32.918  27.952  1.00  0.00     0.064 A 
ATOM     63  C   UNL A   1      46.128  33.371  27.529  1.00  0.00     0.173 A 
ATOM     64  C   UNL A   1      43.874  33.921  28.080  1.00  0.00     0.173 A 
ATOM     65  F   UNL A   1      47.148  32.511  27.384  1.00  0.00    -0.203 F 
ATOM     66  C   UNL A   1      46.405  34.728  27.330  1.00  0.00     0.198 A 
ATOM     67  C   UNL A   1      44.142  35.268  27.832  1.00  0.00     0.198 A 
ATOM     68  F   UNL A   1      42.652  33.668  28.558  1.00  0.00    -0.203 F 
ATOM     69  F   UNL A   1      47.655  35.119  27.049  1.00  0.00    -0.200 F 
ATOM     70  C   UNL A   1      45.413  35.676  27.489  1.00  0.00     0.200 A 
ATOM     71  F   UNL A   1      43.171  36.175  28.015  1.00  0.00    -0.200 F 
ATOM     72  F   UNL A   1      45.687  36.981  27.359  1.00  0.00    -0.200 F 
ENDBRANCH  48  62
BRANCH  49  73
ATOM     73  C   UNL A   1      36.874  31.947  30.577  1.00  0.00     0.064 A 
ATOM     74  C   UNL A   1      35.944  31.930  31.627  1.00  0.00     0.173 A 
ATOM     75  C   UNL A   1      36.605  32.826  29.510  1.00  0.00     0.173 A 
ATOM     76  F   UNL A   1      36.143  31.137  32.691  1.00  0.00    -0.203 F 
ATOM     77  C   UNL A   1      34.836  32.782  31.638  1.00  0.00     0.198 A 
ATOM     78  C   UNL A   1      35.497  33.674  29.520  1.00  0.00     0.198 A 
ATOM     79  F   UNL A   1      37.466  32.947  28.489  1.00  0.00    -0.203 F 
ATOM     80  F   UNL A   1      34.009  32.789  32.693  1.00  0.00    -0.200 F 
ATOM     81  C   UNL A   1      34.624  33.666  30.593  1.00  0.00     0.200 A 
ATOM     82  F   UNL A   1      35.316  34.546  28.518  1.00  0.00    -0.200 F 
ATOM     83  F   UNL A   1      33.605  34.536  30.639  1.00  0.00    -0.200 F 
ENDBRANCH  49  73
BRANCH  61  84
ATOM     84  C   UNL A   1      42.090  30.183  33.644  1.00  0.00     0.064 A 
ATOM     85  C   UNL A   1      41.684  28.859  33.417  1.00  0.00     0.173 A 
ATOM     86  C   UNL A   1      42.352  30.564  34.966  1.00  0.00     0.173 A 
ATOM     87  F   UNL A   1      41.479  28.404  32.174  1.00  0.00    -0.203 F 
ATOM     88  C   UNL A   1      41.514  27.968  34.476  1.00  0.00     0.198 A 
ATOM     89  C   UNL A   1      42.216  29.665  36.018  1.00  0.00     0.198 A 
ATOM     90  F   UNL A   1      42.775  31.809  35.234  1.00  0.00    -0.203 F 
ATOM     91  F   UNL A   1      41.105  26.713  34.242  1.00  0.00    -0.200 F 
ATOM     92  C   UNL A   1      41.787  28.371  35.774  1.00  0.00     0.200 A 
ATOM     93  F   UNL A   1      42.517  30.051  37.265  1.00  0.00    -0.200 F 
ATOM     94  F   UNL A   1      41.653  27.508  36.791  1.00  0.00    -0.200 F 
ENDBRANCH  61  84
ENDBRANCH  35  36
ENDBRANCH  27  30
ENDBRANCH  25  26
ENDBRANCH  24  25
ENDBRANCH   1  24
TORSDOF 13
ENDMDL
MODEL 2
REMARK VINA RESULT:     -12.7      1.284      1.410
REMARK SMILES Cc1nsc(N(C)S(=O)(=O)c2cn[nH]c2C)c1C(=O)NCCCNC(=O)c1ccc(-c2c3nc(c(-c4c(F)c(F)c(F)c(F)c4F)c4ccc([nH]4)c(-c4c(F)c(F)c(F)c(F)c4F)c4nc(c(-c5c(F)c(F)c(F)c(F)c5F)c5ccc2[nH]5)C=C4)C=C3)cc1
REMARK SMILES IDX 21 1 20 2 18 3 19 4 17 6 1 7 2 8 3 9 4 10 5 11 6 12 7 13
REMARK SMILES IDX 8 14 9 15 10 16 11 17 12 18 15 19 13 20 14 21 16 22 22 24
REMARK SMILES IDX 23 25 24 26 25 27 26 29 27 30 28 31 89 32 29 33 88 34 30 35
REMARK SMILES IDX 31 36 32 37 82 38 33 39 87 40 81 41 83 42 34 43 86 44 80 45
REMARK SMILES IDX 79 46 35 48 67 49 47 50 66 51 48 52 51 53 65 54 84 55 49 56
REMARK SMILES IDX 50 57 64 59 85 60 52 61 36 62 37 63 45 64 38 65 39 66 43 67
REMARK SMILES IDX 46 68 40 69 41 70 44 71 42 72 68 73 69 74 77 75 70 76 71 77
REMARK SMILES IDX 75 78 78 79 72 80 73 81 76 82 74 83 53 84 54 85 62 86 55 87
REMARK SMILES IDX 56 88 60 89 63 90 57 91 58 92 61 93 59 94
REMARK H PARENT 20 5 14 23 24 28 83 47 51 58
REMARK Flexibility Score: inf
ROOT
ATOM      1  C   UNL A   1      37.528  23.234  25.942  1.00  0.00     0.118 C 
ENDROOT
BRANCH   1   2
ATOM      2  N   UNL A   1      36.904  23.775  24.746  1.00  0.00    -0.352 N 
ATOM      3  C   UNL A   1      35.913  23.218  23.963  1.00  0.00     0.256 C 
ATOM      4  O   UNL A   1      36.194  23.063  22.778  1.00  0.00    -0.269 OA
ATOM      5  H   UNL A   1      37.232  24.656  24.455  1.00  0.00     0.163 HD
BRANCH   3   6
ATOM      6  C   UNL A   1      34.587  22.890  24.496  1.00  0.00     0.098 A 
ATOM      7  C   UNL A   1      34.851  20.238  24.842  1.00  0.00     0.069 C 
ATOM      8  C   UNL A   1      34.137  21.545  24.891  1.00  0.00     0.066 A 
ATOM      9  N   UNL A   1      32.887  21.436  25.326  1.00  0.00    -0.195 NA
ATOM     10  S   UNL A   1      32.159  22.883  25.257  1.00  0.00    -0.017 S 
ATOM     11  C   UNL A   1      33.476  23.771  24.549  1.00  0.00     0.138 A 
BRANCH  11  12
ATOM     12  N   UNL A   1      33.227  25.191  24.205  1.00  0.00    -0.258 N 
ATOM     13  C   UNL A   1      32.783  26.099  25.298  1.00  0.00     0.165 C 
BRANCH  12  14
ATOM     14  S   UNL A   1      32.683  25.606  22.656  1.00  0.00     0.268 S 
ATOM     15  O   UNL A   1      33.834  25.723  21.774  1.00  0.00    -0.201 OA
ATOM     16  O   UNL A   1      31.529  24.793  22.360  1.00  0.00    -0.201 OA
BRANCH  14  17
ATOM     17  C   UNL A   1      31.987  27.189  22.540  1.00  0.00     0.128 A 
ATOM     18  C   UNL A   1      30.652  27.578  22.356  1.00  0.00     0.157 A 
ATOM     19  C   UNL A   1      32.695  28.382  22.553  1.00  0.00     0.053 A 
ATOM     20  N   UNL A   1      30.521  28.899  22.188  1.00  0.00    -0.183 NA
ATOM     21  N   UNL A   1      31.777  29.362  22.299  1.00  0.00    -0.281 N 
ATOM     22  C   UNL A   1      34.132  28.678  22.752  1.00  0.00     0.067 C 
ATOM     23  H   UNL A   1      32.013  30.313  22.206  1.00  0.00     0.190 HD
ENDBRANCH  14  17
ENDBRANCH  12  14
ENDBRANCH  11  12
ENDBRANCH   3   6
ENDBRANCH   1   2
BRANCH   1  24
ATOM     24  C   UNL A   1      38.602  22.178  25.614  1.00  0.00     0.042 C 
BRANCH  24  25
ATOM     25  C   UNL A   1      39.686  22.049  26.669  1.00  0.00     0.118 C 
BRANCH  25  26
ATOM     26  N   UNL A   1      41.033  22.129  26.108  1.00  0.00    -0.352 N 
ATOM     27  C   UNL A   1      41.838  23.241  25.953  1.00  0.00     0.251 C 
ATOM     28  H   UNL A   1      41.419  21.277  25.799  1.00  0.00     0.163 HD
ATOM     29  O   UNL A   1      42.779  23.230  25.169  1.00  0.00    -0.269 OA
BRANCH  27  30
ATOM     30  C   UNL A   1      41.533  24.452  26.732  1.00  0.00     0.039 A 
ATOM     31  C   UNL A   1      42.066  24.645  28.009  1.00  0.00     0.014 A 
ATOM     32  C   UNL A   1      40.743  25.429  26.138  1.00  0.00     0.014 A 
ATOM     33  C   UNL A   1      41.870  25.873  28.634  1.00  0.00     0.010 A 
ATOM     34  C   UNL A   1      40.724  26.695  26.660  1.00  0.00     0.010 A 
ATOM     35  C   UNL A   1      41.225  26.908  27.935  1.00  0.00    -0.014 A 
BRANCH  35  36
ATOM     36  C   UNL A   1      41.166  28.256  28.489  1.00  0.00     0.031 A 
ATOM     37  C   UNL A   1      42.269  29.136  28.031  1.00  0.00     0.074 A 
ATOM     38  C   UNL A   1      40.116  28.733  29.193  1.00  0.00     0.049 A 
ATOM     39  N   UNL A   1      43.285  29.535  28.720  1.00  0.00    -0.248 NA
ATOM     40  C   UNL A   1      42.347  29.489  26.603  1.00  0.00     0.031 C 
ATOM     41  C   UNL A   1      38.814  28.088  29.414  1.00  0.00     0.029 A 
ATOM     42  N   UNL A   1      39.948  29.950  29.789  1.00  0.00    -0.354 N 
ATOM     43  C   UNL A   1      43.991  30.396  27.885  1.00  0.00     0.074 A 
ATOM     44  C   UNL A   1      43.503  30.156  26.554  1.00  0.00     0.031 C 
ATOM     45  C   UNL A   1      37.924  28.996  29.868  1.00  0.00     0.029 A 
ATOM     46  C   UNL A   1      38.639  30.221  30.169  1.00  0.00     0.049 A 
ATOM     47  H   UNL A   1      40.690  30.581  29.937  1.00  0.00     0.167 HD
ATOM     48  C   UNL A   1      44.668  31.450  28.421  1.00  0.00     0.037 A 
ATOM     49  C   UNL A   1      38.167  31.366  30.712  1.00  0.00     0.037 A 
ATOM     50  C   UNL A   1      44.766  31.307  29.853  1.00  0.00     0.049 A 
ATOM     51  C   UNL A   1      39.312  32.072  31.325  1.00  0.00     0.074 A 
ATOM     52  C   UNL A   1      45.529  30.591  30.748  1.00  0.00     0.029 A 
ATOM     53  N   UNL A   1      43.645  31.728  30.517  1.00  0.00    -0.354 N 
ATOM     54  N   UNL A   1      39.966  31.617  32.357  1.00  0.00    -0.248 NA
ATOM     55  C   UNL A   1      39.974  33.139  30.582  1.00  0.00     0.031 C 
ATOM     56  C   UNL A   1      44.759  30.498  31.948  1.00  0.00     0.029 A 
ATOM     57  C   UNL A   1      43.565  31.192  31.773  1.00  0.00     0.049 A 
ATOM     58  H   UNL A   1      42.976  32.341  30.136  1.00  0.00     0.167 HD
ATOM     59  C   UNL A   1      41.265  32.020  32.134  1.00  0.00     0.074 A 
ATOM     60  C   UNL A   1      41.180  33.093  31.153  1.00  0.00     0.031 C 
ATOM     61  C   UNL A   1      42.312  31.223  32.490  1.00  0.00     0.037 A 
BRANCH  48  62
ATOM     62  C   UNL A   1      44.786  32.828  27.796  1.00  0.00     0.064 A 
ATOM     63  C   UNL A   1      46.027  33.217  27.244  1.00  0.00     0.173 A 
ATOM     64  C   UNL A   1      43.866  33.878  28.006  1.00  0.00     0.173 A 
ATOM     65  F   UNL A   1      46.987  32.308  27.012  1.00  0.00    -0.203 F 
ATOM     66  C   UNL A   1      46.345  34.557  27.000  1.00  0.00     0.198 A 
ATOM     67  C   UNL A   1      44.169  35.208  27.714  1.00  0.00     0.198 A 
ATOM     68  F   UNL A   1      42.686  33.688  28.604  1.00  0.00    -0.203 F 
ATOM     69  F   UNL A   1      47.578  34.886  26.592  1.00  0.00    -0.200 F 
ATOM     70  C   UNL A   1      45.418  35.552  27.242  1.00  0.00     0.200 A 
ATOM     71  F   UNL A   1      43.265  36.162  27.977  1.00  0.00    -0.200 F 
ATOM     72  F   UNL A   1      45.738  36.842  27.068  1.00  0.00    -0.200 F 
ENDBRANCH  48  62
BRANCH  49  73
ATOM     73  C   UNL A   1      36.836  31.993  30.570  1.00  0.00     0.064 A 
ATOM     74  C   UNL A   1      35.909  31.970  31.623  1.00  0.00     0.173 A 
ATOM     75  C   UNL A   1      36.571  32.886  29.514  1.00  0.00     0.173 A 
ATOM     76  F   UNL A   1      36.105  31.164  32.677  1.00  0.00    -0.203 F 
ATOM     77  C   UNL A   1      34.807  32.830  31.646  1.00  0.00     0.198 A 
ATOM     78  C   UNL A   1      35.469  33.742  29.537  1.00  0.00     0.198 A 
ATOM     79  F   UNL A   1      37.430  33.012  28.492  1.00  0.00    -0.203 F 
ATOM     80  F   UNL A   1      33.983  32.832  32.703  1.00  0.00    -0.200 F 
ATOM     81  C   UNL A   1      34.599  33.728  30.612  1.00  0.00     0.200 A 
ATOM     82  F   UNL A   1      35.292  34.627  28.545  1.00  0.00    -0.200 F 
ATOM     83  F   UNL A   1      33.587  34.604  30.671  1.00  0.00    -0.200 F 
ENDBRANCH  49  73
BRANCH  61  84
ATOM     84  C   UNL A   1      42.084  30.229  33.583  1.00  0.00     0.064 A 
ATOM     85  C   UNL A   1      41.685  28.898  33.386  1.00  0.00     0.173 A 
ATOM     86  C   UNL A   1      42.346  30.641  34.896  1.00  0.00     0.173 A 
ATOM     87  F   UNL A   1      41.480  28.415  32.154  1.00  0.00    -0.203 F 
ATOM     88  C   UNL A   1      41.522  28.030  34.465  1.00  0.00     0.198 A 
ATOM     89  C   UNL A   1      42.217  29.764  35.968  1.00  0.00     0.198 A 
ATOM     90  F   UNL A   1      42.763  31.894  35.136  1.00  0.00    -0.203 F 
ATOM     91  F   UNL A   1      41.119  26.768  34.260  1.00  0.00    -0.200 F 
ATOM     92  C   UNL A   1      41.795  28.464  35.754  1.00  0.00     0.200 A 
ATOM     93  F   UNL A   1      42.518  30.180  37.205  1.00  0.00    -0.200 F 
ATOM     94  F   UNL A   1      41.667  27.622  36.789  1.00  0.00    -0.200 F 
ENDBRANCH  61  84
ENDBRANCH  35  36
ENDBRANCH  27  30
ENDBRANCH  25  26
ENDBRANCH  24  25
ENDBRANCH   1  24
TORSDOF 13
ENDMDL
MODEL 3
REMARK VINA RESULT:     -12.4      3.273      9.003
REMARK SMILES Cc1nsc(N(C)S(=O)(=O)c2cn[nH]c2C)c1C(=O)NCCCNC(=O)c1ccc(-c2c3nc(c(-c4c(F)c(F)c(F)c(F)c4F)c4ccc([nH]4)c(-c4c(F)c(F)c(F)c(F)c4F)c4nc(c(-c5c(F)c(F)c(F)c(F)c5F)c5ccc2[nH]5)C=C4)C=C3)cc1
REMARK SMILES IDX 21 1 20 2 18 3 19 4 17 6 1 7 2 8 3 9 4 10 5 11 6 12 7 13
REMARK SMILES IDX 8 14 9 15 10 16 11 17 12 18 15 19 13 20 14 21 16 22 22 24
REMARK SMILES IDX 23 25 24 26 25 27 26 29 27 30 28 31 89 32 29 33 88 34 30 35
REMARK SMILES IDX 31 36 32 37 82 38 33 39 87 40 81 41 83 42 34 43 86 44 80 45
REMARK SMILES IDX 79 46 35 48 67 49 47 50 66 51 48 52 51 53 65 54 84 55 49 56
REMARK SMILES IDX 50 57 64 59 85 60 52 61 36 62 37 63 45 64 38 65 39 66 43 67
REMARK SMILES IDX 46 68 40 69 41 70 44 71 42 72 68 73 69 74 77 75 70 76 71 77
REMARK SMILES IDX 75 78 78 79 72 80 73 81 76 82 74 83 53 84 54 85 62 86 55 87
REMARK SMILES IDX 56 88 60 89 63 90 57 91 58 92 61 93 59 94
REMARK H PARENT 20 5 14 23 24 28 83 47 51 58
REMARK Flexibility Score: inf
ROOT
ATOM      1  C   UNL A   1      32.790  29.574  26.093  1.00  0.00     0.118 C 
ENDROOT
BRANCH   1   2
ATOM      2  N   UNL A   1      32.516  28.208  26.506  1.00  0.00    -0.352 N 
ATOM      3  C   UNL A   1      31.573  27.330  26.010  1.00  0.00     0.256 C 
ATOM      4  O   UNL A   1      30.772  26.890  26.831  1.00  0.00    -0.269 OA
ATOM      5  H   UNL A   1      33.079  27.862  27.236  1.00  0.00     0.163 HD
BRANCH   3   6
ATOM      6  C   UNL A   1      31.565  26.899  24.610  1.00  0.00     0.098 A 
ATOM      7  C   UNL A   1      30.298  28.979  23.474  1.00  0.00     0.069 C 
ATOM      8  C   UNL A   1      30.993  27.662  23.487  1.00  0.00     0.066 A 
ATOM      9  N   UNL A   1      31.053  27.095  22.287  1.00  0.00    -0.195 NA
ATOM     10  S   UNL A   1      31.738  25.631  22.410  1.00  0.00    -0.017 S 
ATOM     11  C   UNL A   1      31.941  25.615  24.137  1.00  0.00     0.138 A 
BRANCH  11  12
ATOM     12  N   UNL A   1      32.476  24.373  24.743  1.00  0.00    -0.258 N 
ATOM     13  C   UNL A   1      31.498  23.406  25.315  1.00  0.00     0.165 C 
BRANCH  12  14
ATOM     14  S   UNL A   1      34.001  24.376  25.478  1.00  0.00     0.268 S 
ATOM     15  O   UNL A   1      34.402  25.755  25.714  1.00  0.00    -0.201 OA
ATOM     16  O   UNL A   1      34.002  23.358  26.500  1.00  0.00    -0.201 OA
BRANCH  14  17
ATOM     17  C   UNL A   1      35.287  23.803  24.467  1.00  0.00     0.128 A 
ATOM     18  C   UNL A   1      35.259  23.348  23.140  1.00  0.00     0.157 A 
ATOM     19  C   UNL A   1      36.608  23.645  24.858  1.00  0.00     0.053 A 
ATOM     20  N   UNL A   1      36.442  22.866  22.739  1.00  0.00    -0.183 NA
ATOM     21  N   UNL A   1      37.239  23.047  23.805  1.00  0.00    -0.281 N 
ATOM     22  C   UNL A   1      37.314  23.974  26.118  1.00  0.00     0.067 C 
ATOM     23  H   UNL A   1      38.185  22.773  23.824  1.00  0.00     0.190 HD
ENDBRANCH  14  17
ENDBRANCH  12  14
ENDBRANCH  11  12
ENDBRANCH   3   6
ENDBRANCH   1   2
BRANCH   1  24
ATOM     24  C   UNL A   1      32.866  30.543  27.290  1.00  0.00     0.042 C 
BRANCH  24  25
ATOM     25  C   UNL A   1      34.245  31.131  27.524  1.00  0.00     0.118 C 
BRANCH  25  26
ATOM     26  N   UNL A   1      34.317  31.937  28.742  1.00  0.00    -0.352 N 
ATOM     27  C   UNL A   1      35.202  31.826  29.798  1.00  0.00     0.251 C 
ATOM     28  H   UNL A   1      33.647  32.653  28.820  1.00  0.00     0.163 HD
ATOM     29  O   UNL A   1      34.941  32.321  30.887  1.00  0.00    -0.269 OA
BRANCH  27  30
ATOM     30  C   UNL A   1      36.456  31.083  29.598  1.00  0.00     0.039 A 
ATOM     31  C   UNL A   1      37.678  31.748  29.467  1.00  0.00     0.014 A 
ATOM     32  C   UNL A   1      36.400  29.694  29.601  1.00  0.00     0.014 A 
ATOM     33  C   UNL A   1      38.846  30.992  29.436  1.00  0.00     0.010 A 
ATOM     34  C   UNL A   1      37.549  28.970  29.775  1.00  0.00     0.010 A 
ATOM     35  C   UNL A   1      38.775  29.601  29.627  1.00  0.00    -0.014 A 
BRANCH  35  36
ATOM     36  C   UNL A   1      39.989  28.808  29.781  1.00  0.00     0.031 A 
ATOM     37  C   UNL A   1      40.426  28.660  31.191  1.00  0.00     0.074 A 
ATOM     38  C   UNL A   1      40.562  28.108  28.777  1.00  0.00     0.049 A 
ATOM     39  N   UNL A   1      41.436  29.230  31.758  1.00  0.00    -0.248 NA
ATOM     40  C   UNL A   1      39.561  27.922  32.127  1.00  0.00     0.031 C 
ATOM     41  C   UNL A   1      40.035  27.883  27.424  1.00  0.00     0.029 A 
ATOM     42  N   UNL A   1      41.703  27.360  28.779  1.00  0.00    -0.354 N 
ATOM     43  C   UNL A   1      41.478  28.721  33.053  1.00  0.00     0.074 A 
ATOM     44  C   UNL A   1      40.198  28.109  33.286  1.00  0.00     0.031 C 
ATOM     45  C   UNL A   1      40.711  26.875  26.831  1.00  0.00     0.029 A 
ATOM     46  C   UNL A   1      41.843  26.533  27.670  1.00  0.00     0.049 A 
ATOM     47  H   UNL A   1      42.370  27.401  29.503  1.00  0.00     0.167 HD
ATOM     48  C   UNL A   1      42.678  28.567  33.677  1.00  0.00     0.037 A 
ATOM     49  C   UNL A   1      42.829  25.637  27.438  1.00  0.00     0.037 A 
ATOM     50  C   UNL A   1      43.714  29.259  32.951  1.00  0.00     0.049 A 
ATOM     51  C   UNL A   1      43.993  26.036  28.257  1.00  0.00     0.074 A 
ATOM     52  C   UNL A   1      44.156  30.556  32.809  1.00  0.00     0.029 A 
ATOM     53  N   UNL A   1      44.206  28.543  31.893  1.00  0.00    -0.354 N 
ATOM     54  N   UNL A   1      44.670  27.133  28.055  1.00  0.00    -0.248 NA
ATOM     55  C   UNL A   1      44.219  25.387  29.544  1.00  0.00     0.031 C 
ATOM     56  C   UNL A   1      44.836  30.613  31.554  1.00  0.00     0.029 A 
ATOM     57  C   UNL A   1      44.830  29.347  30.979  1.00  0.00     0.049 A 
ATOM     58  H   UNL A   1      44.119  27.566  31.800  1.00  0.00     0.167 HD
ATOM     59  C   UNL A   1      45.050  27.530  29.319  1.00  0.00     0.074 A 
ATOM     60  C   UNL A   1      44.917  26.345  30.158  1.00  0.00     0.031 C 
ATOM     61  C   UNL A   1      45.098  28.851  29.649  1.00  0.00     0.037 A 
BRANCH  48  62
ATOM     62  C   UNL A   1      43.049  27.417  34.597  1.00  0.00     0.064 A 
ATOM     63  C   UNL A   1      43.181  27.673  35.980  1.00  0.00     0.173 A 
ATOM     64  C   UNL A   1      43.591  26.190  34.158  1.00  0.00     0.173 A 
ATOM     65  F   UNL A   1      42.716  28.814  36.511  1.00  0.00    -0.203 F 
ATOM     66  C   UNL A   1      43.872  26.806  36.833  1.00  0.00     0.198 A 
ATOM     67  C   UNL A   1      44.236  25.305  35.022  1.00  0.00     0.198 A 
ATOM     68  F   UNL A   1      43.628  25.844  32.867  1.00  0.00    -0.203 F 
ATOM     69  F   UNL A   1      44.077  27.152  38.112  1.00  0.00    -0.200 F 
ATOM     70  C   UNL A   1      44.405  25.626  36.352  1.00  0.00     0.200 A 
ATOM     71  F   UNL A   1      44.766  24.176  34.531  1.00  0.00    -0.200 F 
ATOM     72  F   UNL A   1      45.119  24.822  37.151  1.00  0.00    -0.200 F 
ENDBRANCH  48  62
BRANCH  49  73
ATOM     73  C   UNL A   1      42.776  24.349  26.716  1.00  0.00     0.064 A 
ATOM     74  C   UNL A   1      43.347  24.209  25.442  1.00  0.00     0.173 A 
ATOM     75  C   UNL A   1      42.436  23.160  27.390  1.00  0.00     0.173 A 
ATOM     76  F   UNL A   1      43.721  25.294  24.748  1.00  0.00    -0.203 F 
ATOM     77  C   UNL A   1      43.614  22.951  24.894  1.00  0.00     0.198 A 
ATOM     78  C   UNL A   1      42.700  21.905  26.840  1.00  0.00     0.198 A 
ATOM     79  F   UNL A   1      41.933  23.197  28.632  1.00  0.00    -0.203 F 
ATOM     80  F   UNL A   1      44.228  22.856  23.707  1.00  0.00    -0.200 F 
ATOM     81  C   UNL A   1      43.307  21.801  25.602  1.00  0.00     0.200 A 
ATOM     82  F   UNL A   1      42.425  20.798  27.545  1.00  0.00    -0.200 F 
ATOM     83  F   UNL A   1      43.632  20.597  25.110  1.00  0.00    -0.200 F 
ENDBRANCH  49  73
BRANCH  61  84
ATOM     84  C   UNL A   1      45.289  29.834  28.540  1.00  0.00     0.064 A 
ATOM     85  C   UNL A   1      44.249  30.470  27.845  1.00  0.00     0.173 A 
ATOM     86  C   UNL A   1      46.603  30.191  28.211  1.00  0.00     0.173 A 
ATOM     87  F   UNL A   1      42.967  30.229  28.149  1.00  0.00    -0.203 F 
ATOM     88  C   UNL A   1      44.520  31.397  26.839  1.00  0.00     0.198 A 
ATOM     89  C   UNL A   1      46.871  31.141  27.232  1.00  0.00     0.198 A 
ATOM     90  F   UNL A   1      47.634  29.637  28.869  1.00  0.00    -0.203 F 
ATOM     91  F   UNL A   1      43.513  31.979  26.171  1.00  0.00    -0.200 F 
ATOM     92  C   UNL A   1      45.830  31.736  26.539  1.00  0.00     0.200 A 
ATOM     93  F   UNL A   1      48.138  31.490  26.974  1.00  0.00    -0.200 F 
ATOM     94  F   UNL A   1      46.091  32.648  25.593  1.00  0.00    -0.200 F 
ENDBRANCH  61  84
ENDBRANCH  35  36
ENDBRANCH  27  30
ENDBRANCH  25  26
ENDBRANCH  24  25
ENDBRANCH   1  24
TORSDOF 13
ENDMDL
