MODEL 1
REMARK VINA RESULT:     -10.6      0.000      0.000
REMARK SMILES COC(=O)[C@@H]1CN(C(=O)OC(C)(C)C)C[C@@H]1C(=O)NCCCNC(=O)c1ccc(-c2c3nc(c(-c4c(F)c(F)c(F)c(F)c4F)c4ccc([nH]4)c(-c4c(F)c(F)c(F)c(F)c4F)c4nc(c(-c5c(F)c(F)c(F)c(F)c5F)c5ccc2[nH]5)C=C4)C=C3)cc1
REMARK SMILES IDX 20 1 19 2 17 3 18 4 16 6 5 7 6 8 7 9 15 10 3 11 4 12 2 13
REMARK SMILES IDX 1 14 8 15 9 16 10 17 11 18 12 19 13 20 14 21 21 22 22 23
REMARK SMILES IDX 23 24 24 25 25 27 26 28 27 29 88 30 28 31 87 32 29 33 30 34
REMARK SMILES IDX 31 35 81 36 32 37 86 38 80 39 82 40 33 41 85 42 79 43 78 44
REMARK SMILES IDX 34 46 66 47 46 48 65 49 47 50 50 51 64 52 83 53 48 54 49 55
REMARK SMILES IDX 63 57 84 58 51 59 35 60 36 61 44 62 37 63 38 64 42 65 45 66
REMARK SMILES IDX 39 67 40 68 43 69 41 70 67 71 68 72 76 73 69 74 70 75 74 76
REMARK SMILES IDX 77 77 71 78 72 79 75 80 73 81 52 82 53 83 61 84 54 85 55 86
REMARK SMILES IDX 59 87 62 88 56 89 57 90 60 91 58 92
REMARK H PARENT 19 5 23 26 82 45 50 56
REMARK Flexibility Score: inf
ROOT
ATOM      1  C   UNL A   1      34.422  22.652  25.114  1.00  0.00     0.117 C 
ENDROOT
BRANCH   1   2
ATOM      2  N   UNL A   1      34.304  23.465  23.910  1.00  0.00    -0.356 N 
ATOM      3  C   UNL A   1      33.701  24.667  23.688  1.00  0.00     0.225 C 
ATOM      4  O   UNL A   1      33.679  25.102  22.535  1.00  0.00    -0.275 OA
ATOM      5  H   UNL A   1      34.736  23.076  23.116  1.00  0.00     0.163 HD
BRANCH   3   6
ATOM      6  C   UNL A   1      33.063  25.435  24.830  1.00  0.00     0.114 C 
ATOM      7  C   UNL A   1      31.524  25.311  24.897  1.00  0.00     0.133 C 
ATOM      8  C   UNL A   1      31.016  26.552  24.173  1.00  0.00     0.139 C 
ATOM      9  N   UNL A   1      32.030  27.547  24.451  1.00  0.00    -0.306 N 
ATOM     10  C   UNL A   1      33.324  26.938  24.664  1.00  0.00     0.137 C 
BRANCH   7  11
ATOM     11  C   UNL A   1      30.945  24.028  24.349  1.00  0.00     0.311 C 
ATOM     12  O   UNL A   1      30.452  23.911  23.238  1.00  0.00    -0.252 OA
BRANCH  11  13
ATOM     13  O   UNL A   1      31.175  22.976  25.180  1.00  0.00    -0.469 OA
ATOM     14  C   UNL A   1      30.748  23.223  26.524  1.00  0.00     0.282 C 
ENDBRANCH  11  13
ENDBRANCH   7  11
BRANCH   9  15
ATOM     15  C   UNL A   1      31.869  28.909  24.502  1.00  0.00     0.410 C 
ATOM     16  O   UNL A   1      30.960  29.488  23.915  1.00  0.00    -0.224 OA
BRANCH  15  17
ATOM     17  O   UNL A   1      32.834  29.523  25.233  1.00  0.00    -0.444 OA
BRANCH  17  18
ATOM     18  C   UNL A   1      32.552  29.966  26.588  1.00  0.00     0.106 C 
ATOM     19  C   UNL A   1      31.771  31.286  26.594  1.00  0.00     0.056 C 
ATOM     20  C   UNL A   1      31.841  28.877  27.400  1.00  0.00     0.056 C 
ATOM     21  C   UNL A   1      33.930  30.220  27.223  1.00  0.00     0.056 C 
ENDBRANCH  17  18
ENDBRANCH  15  17
ENDBRANCH   9  15
ENDBRANCH   3   6
ENDBRANCH   1   2
BRANCH   1  22
ATOM     22  C   UNL A   1      35.492  23.140  26.093  1.00  0.00     0.042 C 
BRANCH  22  23
ATOM     23  C   UNL A   1      36.834  23.491  25.459  1.00  0.00     0.118 C 
BRANCH  23  24
ATOM     24  N   UNL A   1      37.881  22.559  25.852  1.00  0.00    -0.352 N 
ATOM     25  C   UNL A   1      39.121  22.796  26.390  1.00  0.00     0.251 C 
ATOM     26  H   UNL A   1      37.666  21.610  25.709  1.00  0.00     0.163 HD
ATOM     27  O   UNL A   1      39.946  21.886  26.419  1.00  0.00    -0.269 OA
BRANCH  25  28
ATOM     28  C   UNL A   1      39.489  24.129  26.921  1.00  0.00     0.039 A 
ATOM     29  C   UNL A   1      39.148  24.439  28.242  1.00  0.00     0.014 A 
ATOM     30  C   UNL A   1      40.111  25.096  26.126  1.00  0.00     0.014 A 
ATOM     31  C   UNL A   1      39.478  25.687  28.777  1.00  0.00     0.010 A 
ATOM     32  C   UNL A   1      40.509  26.313  26.684  1.00  0.00     0.010 A 
ATOM     33  C   UNL A   1      40.195  26.624  28.014  1.00  0.00    -0.014 A 
BRANCH  33  34
ATOM     34  C   UNL A   1      40.629  27.916  28.612  1.00  0.00     0.031 A 
ATOM     35  C   UNL A   1      42.057  28.132  29.035  1.00  0.00     0.074 A 
ATOM     36  C   UNL A   1      39.721  28.895  28.803  1.00  0.00     0.049 A 
ATOM     37  N   UNL A   1      42.607  29.185  29.588  1.00  0.00    -0.248 NA
ATOM     38  C   UNL A   1      42.988  27.011  28.830  1.00  0.00     0.031 C 
ATOM     39  C   UNL A   1      38.296  28.796  28.485  1.00  0.00     0.029 A 
ATOM     40  N   UNL A   1      39.859  30.162  29.317  1.00  0.00    -0.354 N 
ATOM     41  C   UNL A   1      43.942  28.856  29.790  1.00  0.00     0.074 A 
ATOM     42  C   UNL A   1      44.105  27.483  29.362  1.00  0.00     0.031 C 
ATOM     43  C   UNL A   1      37.696  29.958  28.785  1.00  0.00     0.029 A 
ATOM     44  C   UNL A   1      38.683  30.871  29.357  1.00  0.00     0.049 A 
ATOM     45  H   UNL A   1      40.720  30.528  29.626  1.00  0.00     0.167 HD
ATOM     46  C   UNL A   1      44.946  29.635  30.263  1.00  0.00     0.037 A 
ATOM     47  C   UNL A   1      38.422  32.111  29.813  1.00  0.00     0.037 A 
ATOM     48  C   UNL A   1      44.784  31.002  30.688  1.00  0.00     0.049 A 
ATOM     49  C   UNL A   1      39.551  32.945  30.358  1.00  0.00     0.074 A 
ATOM     50  C   UNL A   1      45.747  31.884  31.149  1.00  0.00     0.029 A 
ATOM     51  N   UNL A   1      43.577  31.687  30.709  1.00  0.00    -0.354 N 
ATOM     52  N   UNL A   1      40.820  32.643  30.481  1.00  0.00    -0.248 NA
ATOM     53  C   UNL A   1      39.210  34.299  30.817  1.00  0.00     0.031 C 
ATOM     54  C   UNL A   1      45.115  33.081  31.502  1.00  0.00     0.029 A 
ATOM     55  C   UNL A   1      43.769  32.971  31.198  1.00  0.00     0.049 A 
ATOM     56  H   UNL A   1      42.713  31.317  30.418  1.00  0.00     0.167 HD
ATOM     57  C   UNL A   1      41.432  33.774  31.006  1.00  0.00     0.074 A 
ATOM     58  C   UNL A   1      40.399  34.777  31.153  1.00  0.00     0.031 C 
ATOM     59  C   UNL A   1      42.733  33.963  31.341  1.00  0.00     0.037 A 
BRANCH  46  60
ATOM     60  C   UNL A   1      46.320  29.029  30.338  1.00  0.00     0.064 A 
ATOM     61  C   UNL A   1      46.766  28.363  31.491  1.00  0.00     0.173 A 
ATOM     62  C   UNL A   1      47.182  29.065  29.231  1.00  0.00     0.173 A 
ATOM     63  F   UNL A   1      45.986  28.305  32.581  1.00  0.00    -0.203 F 
ATOM     64  C   UNL A   1      48.031  27.784  31.541  1.00  0.00     0.198 A 
ATOM     65  C   UNL A   1      48.433  28.455  29.274  1.00  0.00     0.198 A 
ATOM     66  F   UNL A   1      46.804  29.679  28.099  1.00  0.00    -0.203 F 
ATOM     67  F   UNL A   1      48.451  27.196  32.671  1.00  0.00    -0.200 F 
ATOM     68  C   UNL A   1      48.860  27.822  30.431  1.00  0.00     0.200 A 
ATOM     69  F   UNL A   1      49.225  28.478  28.194  1.00  0.00    -0.200 F 
ATOM     70  F   UNL A   1      50.072  27.253  30.478  1.00  0.00    -0.200 F 
ENDBRANCH  46  60
BRANCH  47  71
ATOM     71  C   UNL A   1      37.032  32.641  29.774  1.00  0.00     0.064 A 
ATOM     72  C   UNL A   1      36.153  32.456  30.851  1.00  0.00     0.173 A 
ATOM     73  C   UNL A   1      36.550  33.329  28.651  1.00  0.00     0.173 A 
ATOM     74  F   UNL A   1      36.559  31.787  31.940  1.00  0.00    -0.203 F 
ATOM     75  C   UNL A   1      34.836  32.909  30.792  1.00  0.00     0.198 A 
ATOM     76  C   UNL A   1      35.244  33.814  28.609  1.00  0.00     0.198 A 
ATOM     77  F   UNL A   1      37.351  33.540  27.596  1.00  0.00    -0.203 F 
ATOM     78  F   UNL A   1      34.000  32.664  31.810  1.00  0.00    -0.200 F 
ATOM     79  C   UNL A   1      34.385  33.593  29.673  1.00  0.00     0.200 A 
ATOM     80  F   UNL A   1      34.819  34.491  27.533  1.00  0.00    -0.200 F 
ATOM     81  F   UNL A   1      33.119  34.031  29.618  1.00  0.00    -0.200 F 
ENDBRANCH  47  71
BRANCH  59  82
ATOM     82  C   UNL A   1      43.117  35.316  31.870  1.00  0.00     0.064 A 
ATOM     83  C   UNL A   1      42.987  35.644  33.228  1.00  0.00     0.173 A 
ATOM     84  C   UNL A   1      43.640  36.294  31.010  1.00  0.00     0.173 A 
ATOM     85  F   UNL A   1      42.479  34.751  34.092  1.00  0.00    -0.203 F 
ATOM     86  C   UNL A   1      43.329  36.909  33.697  1.00  0.00     0.198 A 
ATOM     87  C   UNL A   1      44.016  37.545  31.488  1.00  0.00     0.198 A 
ATOM     88  F   UNL A   1      43.794  36.031  29.702  1.00  0.00    -0.203 F 
ATOM     89  F   UNL A   1      43.135  37.220  34.986  1.00  0.00    -0.200 F 
ATOM     90  C   UNL A   1      43.850  37.856  32.828  1.00  0.00     0.200 A 
ATOM     91  F   UNL A   1      44.536  38.453  30.649  1.00  0.00    -0.200 F 
ATOM     92  F   UNL A   1      44.181  39.073  33.282  1.00  0.00    -0.200 F 
ENDBRANCH  59  82
ENDBRANCH  33  34
ENDBRANCH  25  28
ENDBRANCH  23  24
ENDBRANCH  22  23
ENDBRANCH   1  22
TORSDOF 15
ENDMDL
MODEL 2
REMARK VINA RESULT:     -10.6      0.825      1.890
REMARK SMILES COC(=O)[C@@H]1CN(C(=O)OC(C)(C)C)C[C@@H]1C(=O)NCCCNC(=O)c1ccc(-c2c3nc(c(-c4c(F)c(F)c(F)c(F)c4F)c4ccc([nH]4)c(-c4c(F)c(F)c(F)c(F)c4F)c4nc(c(-c5c(F)c(F)c(F)c(F)c5F)c5ccc2[nH]5)C=C4)C=C3)cc1
REMARK SMILES IDX 20 1 19 2 17 3 18 4 16 6 5 7 6 8 7 9 15 10 3 11 4 12 2 13
REMARK SMILES IDX 1 14 8 15 9 16 10 17 11 18 12 19 13 20 14 21 21 22 22 23
REMARK SMILES IDX 23 24 24 25 25 27 26 28 27 29 88 30 28 31 87 32 29 33 30 34
REMARK SMILES IDX 31 35 81 36 32 37 86 38 80 39 82 40 33 41 85 42 79 43 78 44
REMARK SMILES IDX 34 46 66 47 46 48 65 49 47 50 50 51 64 52 83 53 48 54 49 55
REMARK SMILES IDX 63 57 84 58 51 59 35 60 36 61 44 62 37 63 38 64 42 65 45 66
REMARK SMILES IDX 39 67 40 68 43 69 41 70 67 71 68 72 76 73 69 74 70 75 74 76
REMARK SMILES IDX 77 77 71 78 72 79 75 80 73 81 52 82 53 83 61 84 54 85 55 86
REMARK SMILES IDX 59 87 62 88 56 89 57 90 60 91 58 92
REMARK H PARENT 19 5 23 26 82 45 50 56
REMARK Flexibility Score: inf
ROOT
ATOM      1  C   UNL A   1      35.032  22.359  24.451  1.00  0.00     0.117 C 
ENDROOT
BRANCH   1   2
ATOM      2  N   UNL A   1      33.771  22.762  23.841  1.00  0.00    -0.356 N 
ATOM      3  C   UNL A   1      33.013  23.884  23.991  1.00  0.00     0.225 C 
ATOM      4  O   UNL A   1      31.929  23.936  23.407  1.00  0.00    -0.275 OA
ATOM      5  H   UNL A   1      33.402  22.105  23.207  1.00  0.00     0.163 HD
BRANCH   3   6
ATOM      6  C   UNL A   1      33.489  25.027  24.868  1.00  0.00     0.114 C 
ATOM      7  C   UNL A   1      32.790  25.104  26.245  1.00  0.00     0.133 C 
ATOM      8  C   UNL A   1      31.673  26.120  26.041  1.00  0.00     0.139 C 
ATOM      9  N   UNL A   1      32.215  27.031  25.056  1.00  0.00    -0.306 N 
ATOM     10  C   UNL A   1      33.174  26.370  24.198  1.00  0.00     0.137 C 
BRANCH   7  11
ATOM     11  C   UNL A   1      32.301  23.791  26.807  1.00  0.00     0.311 C 
ATOM     12  O   UNL A   1      33.020  22.837  27.065  1.00  0.00    -0.252 OA
BRANCH  11  13
ATOM     13  O   UNL A   1      30.982  23.845  27.137  1.00  0.00    -0.469 OA
ATOM     14  C   UNL A   1      30.223  22.769  26.575  1.00  0.00     0.282 C 
ENDBRANCH  11  13
ENDBRANCH   7  11
BRANCH   9  15
ATOM     15  C   UNL A   1      31.898  28.354  24.880  1.00  0.00     0.410 C 
ATOM     16  O   UNL A   1      30.843  28.717  24.369  1.00  0.00    -0.224 OA
BRANCH  15  17
ATOM     17  O   UNL A   1      32.883  29.189  25.297  1.00  0.00    -0.444 OA
BRANCH  17  18
ATOM     18  C   UNL A   1      33.021  29.507  26.708  1.00  0.00     0.106 C 
ATOM     19  C   UNL A   1      33.396  30.981  26.914  1.00  0.00     0.056 C 
ATOM     20  C   UNL A   1      31.766  29.120  27.499  1.00  0.00     0.056 C 
ATOM     21  C   UNL A   1      34.191  28.641  27.203  1.00  0.00     0.056 C 
ENDBRANCH  17  18
ENDBRANCH  15  17
ENDBRANCH   9  15
ENDBRANCH   3   6
ENDBRANCH   1   2
BRANCH   1  22
ATOM     22  C   UNL A   1      36.245  23.147  23.951  1.00  0.00     0.042 C 
BRANCH  22  23
ATOM     23  C   UNL A   1      37.142  23.713  25.047  1.00  0.00     0.118 C 
BRANCH  23  24
ATOM     24  N   UNL A   1      38.135  22.745  25.490  1.00  0.00    -0.352 N 
ATOM     25  C   UNL A   1      39.320  22.933  26.157  1.00  0.00     0.251 C 
ATOM     26  H   UNL A   1      37.925  21.808  25.276  1.00  0.00     0.163 HD
ATOM     27  O   UNL A   1      40.127  22.009  26.218  1.00  0.00    -0.269 OA
BRANCH  25  28
ATOM     28  C   UNL A   1      39.649  24.231  26.791  1.00  0.00     0.039 A 
ATOM     29  C   UNL A   1      39.228  24.458  28.106  1.00  0.00     0.014 A 
ATOM     30  C   UNL A   1      40.315  25.246  26.097  1.00  0.00     0.014 A 
ATOM     31  C   UNL A   1      39.519  25.671  28.736  1.00  0.00     0.010 A 
ATOM     32  C   UNL A   1      40.673  26.426  26.752  1.00  0.00     0.010 A 
ATOM     33  C   UNL A   1      40.277  26.654  28.077  1.00  0.00    -0.014 A 
BRANCH  33  34
ATOM     34  C   UNL A   1      40.668  27.907  28.780  1.00  0.00     0.031 A 
ATOM     35  C   UNL A   1      42.062  28.088  29.319  1.00  0.00     0.074 A 
ATOM     36  C   UNL A   1      39.751  28.878  28.960  1.00  0.00     0.049 A 
ATOM     37  N   UNL A   1      42.572  29.105  29.970  1.00  0.00    -0.248 NA
ATOM     38  C   UNL A   1      43.003  26.975  29.117  1.00  0.00     0.031 C 
ATOM     39  C   UNL A   1      38.353  28.807  28.533  1.00  0.00     0.029 A 
ATOM     40  N   UNL A   1      39.853  30.113  29.555  1.00  0.00    -0.354 N 
ATOM     41  C   UNL A   1      43.887  28.756  30.250  1.00  0.00     0.074 A 
ATOM     42  C   UNL A   1      44.079  27.409  29.757  1.00  0.00     0.031 C 
ATOM     43  C   UNL A   1      37.735  29.954  28.855  1.00  0.00     0.029 A 
ATOM     44  C   UNL A   1      38.679  30.825  29.550  1.00  0.00     0.049 A 
ATOM     45  H   UNL A   1      40.689  30.454  29.947  1.00  0.00     0.167 HD
ATOM     46  C   UNL A   1      44.855  29.500  30.840  1.00  0.00     0.037 A 
ATOM     47  C   UNL A   1      38.388  32.039  30.057  1.00  0.00     0.037 A 
ATOM     48  C   UNL A   1      44.666  30.841  31.330  1.00  0.00     0.049 A 
ATOM     49  C   UNL A   1      39.475  32.833  30.730  1.00  0.00     0.074 A 
ATOM     50  C   UNL A   1      45.593  31.689  31.912  1.00  0.00     0.029 A 
ATOM     51  N   UNL A   1      43.461  31.532  31.302  1.00  0.00    -0.354 N 
ATOM     52  N   UNL A   1      40.731  32.516  30.929  1.00  0.00    -0.248 NA
ATOM     53  C   UNL A   1      39.104  34.161  31.240  1.00  0.00     0.031 C 
ATOM     54  C   UNL A   1      44.940  32.867  32.286  1.00  0.00     0.029 A 
ATOM     55  C   UNL A   1      43.620  32.784  31.878  1.00  0.00     0.049 A 
ATOM     56  H   UNL A   1      42.620  31.184  30.928  1.00  0.00     0.167 HD
ATOM     57  C   UNL A   1      41.305  33.611  31.561  1.00  0.00     0.074 A 
ATOM     58  C   UNL A   1      40.266  34.611  31.690  1.00  0.00     0.031 C 
ATOM     59  C   UNL A   1      42.578  33.772  32.001  1.00  0.00     0.037 A 
BRANCH  46  60
ATOM     60  C   UNL A   1      46.219  28.882  30.981  1.00  0.00     0.064 A 
ATOM     61  C   UNL A   1      47.195  29.023  29.982  1.00  0.00     0.173 A 
ATOM     62  C   UNL A   1      46.575  28.189  32.148  1.00  0.00     0.173 A 
ATOM     63  F   UNL A   1      46.907  29.670  28.843  1.00  0.00    -0.203 F 
ATOM     64  C   UNL A   1      48.464  28.469  30.134  1.00  0.00     0.198 A 
ATOM     65  C   UNL A   1      47.855  27.665  32.311  1.00  0.00     0.198 A 
ATOM     66  F   UNL A   1      45.685  28.032  33.140  1.00  0.00    -0.203 F 
ATOM     67  F   UNL A   1      49.362  28.577  29.145  1.00  0.00    -0.200 F 
ATOM     68  C   UNL A   1      48.796  27.798  31.301  1.00  0.00     0.200 A 
ATOM     69  F   UNL A   1      48.180  27.033  33.447  1.00  0.00    -0.200 F 
ATOM     70  F   UNL A   1      50.021  27.276  31.450  1.00  0.00    -0.200 F 
ENDBRANCH  46  60
BRANCH  47  71
ATOM     71  C   UNL A   1      37.006  32.580  29.947  1.00  0.00     0.064 A 
ATOM     72  C   UNL A   1      36.579  33.253  28.794  1.00  0.00     0.173 A 
ATOM     73  C   UNL A   1      36.089  32.449  31.001  1.00  0.00     0.173 A 
ATOM     74  F   UNL A   1      37.423  33.423  27.765  1.00  0.00    -0.203 F 
ATOM     75  C   UNL A   1      35.300  33.804  28.712  1.00  0.00     0.198 A 
ATOM     76  C   UNL A   1      34.800  32.967  30.903  1.00  0.00     0.198 A 
ATOM     77  F   UNL A   1      36.443  31.808  32.124  1.00  0.00    -0.203 F 
ATOM     78  F   UNL A   1      34.941  34.496  27.623  1.00  0.00    -0.200 F 
ATOM     79  C   UNL A   1      34.410  33.655  29.765  1.00  0.00     0.200 A 
ATOM     80  F   UNL A   1      33.937  32.805  31.917  1.00  0.00    -0.200 F 
ATOM     81  F   UNL A   1      33.181  34.182  29.685  1.00  0.00    -0.200 F 
ENDBRANCH  47  71
BRANCH  59  82
ATOM     82  C   UNL A   1      42.925  35.091  32.635  1.00  0.00     0.064 A 
ATOM     83  C   UNL A   1      42.730  35.327  34.004  1.00  0.00     0.173 A 
ATOM     84  C   UNL A   1      43.477  36.126  31.865  1.00  0.00     0.173 A 
ATOM     85  F   UNL A   1      42.192  34.377  34.784  1.00  0.00    -0.203 F 
ATOM     86  C   UNL A   1      43.038  36.562  34.570  1.00  0.00     0.198 A 
ATOM     87  C   UNL A   1      43.819  37.345  32.441  1.00  0.00     0.198 A 
ATOM     88  F   UNL A   1      43.693  35.951  30.551  1.00  0.00    -0.203 F 
ATOM     89  F   UNL A   1      42.784  36.785  35.867  1.00  0.00    -0.200 F 
ATOM     90  C   UNL A   1      43.589  37.567  33.789  1.00  0.00     0.200 A 
ATOM     91  F   UNL A   1      44.367  38.310  31.688  1.00  0.00    -0.200 F 
ATOM     92  F   UNL A   1      43.888  38.753  34.336  1.00  0.00    -0.200 F 
ENDBRANCH  59  82
ENDBRANCH  33  34
ENDBRANCH  25  28
ENDBRANCH  23  24
ENDBRANCH  22  23
ENDBRANCH   1  22
TORSDOF 15
ENDMDL
MODEL 3
REMARK VINA RESULT:     -10.6      2.963      4.665
REMARK SMILES COC(=O)[C@@H]1CN(C(=O)OC(C)(C)C)C[C@@H]1C(=O)NCCCNC(=O)c1ccc(-c2c3nc(c(-c4c(F)c(F)c(F)c(F)c4F)c4ccc([nH]4)c(-c4c(F)c(F)c(F)c(F)c4F)c4nc(c(-c5c(F)c(F)c(F)c(F)c5F)c5ccc2[nH]5)C=C4)C=C3)cc1
REMARK SMILES IDX 20 1 19 2 17 3 18 4 16 6 5 7 6 8 7 9 15 10 3 11 4 12 2 13
REMARK SMILES IDX 1 14 8 15 9 16 10 17 11 18 12 19 13 20 14 21 21 22 22 23
REMARK SMILES IDX 23 24 24 25 25 27 26 28 27 29 88 30 28 31 87 32 29 33 30 34
REMARK SMILES IDX 31 35 81 36 32 37 86 38 80 39 82 40 33 41 85 42 79 43 78 44
REMARK SMILES IDX 34 46 66 47 46 48 65 49 47 50 50 51 64 52 83 53 48 54 49 55
REMARK SMILES IDX 63 57 84 58 51 59 35 60 36 61 44 62 37 63 38 64 42 65 45 66
REMARK SMILES IDX 39 67 40 68 43 69 41 70 67 71 68 72 76 73 69 74 70 75 74 76
REMARK SMILES IDX 77 77 71 78 72 79 75 80 73 81 52 82 53 83 61 84 54 85 55 86
REMARK SMILES IDX 59 87 62 88 56 89 57 90 60 91 58 92
REMARK H PARENT 19 5 23 26 82 45 50 56
REMARK Flexibility Score: inf
ROOT
ATOM      1  C   UNL A   1      36.414  20.260  25.049  1.00  0.00     0.117 C 
ENDROOT
BRANCH   1   2
ATOM      2  N   UNL A   1      35.860  21.421  24.366  1.00  0.00    -0.356 N 
ATOM      3  C   UNL A   1      34.700  22.111  24.555  1.00  0.00     0.225 C 
ATOM      4  O   UNL A   1      34.431  23.023  23.771  1.00  0.00    -0.275 OA
ATOM      5  H   UNL A   1      36.425  21.770  23.639  1.00  0.00     0.163 HD
BRANCH   3   6
ATOM      6  C   UNL A   1      33.761  21.750  25.691  1.00  0.00     0.114 C 
ATOM      7  C   UNL A   1      32.471  21.026  25.244  1.00  0.00     0.133 C 
ATOM      8  C   UNL A   1      31.435  22.139  25.139  1.00  0.00     0.139 C 
ATOM      9  N   UNL A   1      31.843  23.082  26.158  1.00  0.00    -0.306 N 
ATOM     10  C   UNL A   1      33.269  23.023  26.391  1.00  0.00     0.137 C 
BRANCH   7  11
ATOM     11  C   UNL A   1      32.584  20.202  23.983  1.00  0.00     0.311 C 
ATOM     12  O   UNL A   1      32.159  20.547  22.891  1.00  0.00    -0.252 OA
BRANCH  11  13
ATOM     13  O   UNL A   1      33.353  19.096  24.171  1.00  0.00    -0.469 OA
ATOM     14  C   UNL A   1      32.831  18.219  25.175  1.00  0.00     0.282 C 
ENDBRANCH  11  13
ENDBRANCH   7  11
BRANCH   9  15
ATOM     15  C   UNL A   1      31.047  23.965  26.843  1.00  0.00     0.410 C 
ATOM     16  O   UNL A   1      29.924  23.668  27.241  1.00  0.00    -0.224 OA
BRANCH  15  17
ATOM     17  O   UNL A   1      31.624  25.184  26.991  1.00  0.00    -0.444 OA
BRANCH  17  18
ATOM     18  C   UNL A   1      31.406  26.219  25.995  1.00  0.00     0.106 C 
ATOM     19  C   UNL A   1      32.608  26.349  25.050  1.00  0.00     0.056 C 
ATOM     20  C   UNL A   1      30.097  25.996  25.227  1.00  0.00     0.056 C 
ATOM     21  C   UNL A   1      31.281  27.527  26.794  1.00  0.00     0.056 C 
ENDBRANCH  17  18
ENDBRANCH  15  17
ENDBRANCH   9  15
ENDBRANCH   3   6
ENDBRANCH   1   2
BRANCH   1  22
ATOM     22  C   UNL A   1      37.896  20.014  24.756  1.00  0.00     0.042 C 
BRANCH  22  23
ATOM     23  C   UNL A   1      38.839  20.295  25.922  1.00  0.00     0.118 C 
BRANCH  23  24
ATOM     24  N   UNL A   1      39.970  19.379  25.939  1.00  0.00    -0.352 N 
ATOM     25  C   UNL A   1      41.313  19.632  26.056  1.00  0.00     0.251 C 
ATOM     26  H   UNL A   1      39.734  18.427  25.854  1.00  0.00     0.163 HD
ATOM     27  O   UNL A   1      42.117  18.738  25.801  1.00  0.00    -0.269 OA
BRANCH  25  28
ATOM     28  C   UNL A   1      41.814  20.965  26.466  1.00  0.00     0.039 A 
ATOM     29  C   UNL A   1      42.011  21.937  25.480  1.00  0.00     0.014 A 
ATOM     30  C   UNL A   1      42.145  21.254  27.794  1.00  0.00     0.014 A 
ATOM     31  C   UNL A   1      42.483  23.205  25.830  1.00  0.00     0.010 A 
ATOM     32  C   UNL A   1      42.542  22.544  28.152  1.00  0.00     0.010 A 
ATOM     33  C   UNL A   1      42.719  23.533  27.175  1.00  0.00    -0.014 A 
BRANCH  33  34
ATOM     34  C   UNL A   1      43.131  24.911  27.558  1.00  0.00     0.031 A 
ATOM     35  C   UNL A   1      44.559  25.362  27.409  1.00  0.00     0.074 A 
ATOM     36  C   UNL A   1      42.215  25.756  28.073  1.00  0.00     0.049 A 
ATOM     37  N   UNL A   1      45.099  26.518  27.707  1.00  0.00    -0.248 NA
ATOM     38  C   UNL A   1      45.514  24.379  26.873  1.00  0.00     0.031 C 
ATOM     39  C   UNL A   1      40.810  25.428  28.317  1.00  0.00     0.029 A 
ATOM     40  N   UNL A   1      42.328  27.060  28.490  1.00  0.00    -0.354 N 
ATOM     41  C   UNL A   1      46.447  26.403  27.392  1.00  0.00     0.074 A 
ATOM     42  C   UNL A   1      46.657  25.044  26.941  1.00  0.00     0.031 C 
ATOM     43  C   UNL A   1      40.186  26.507  28.816  1.00  0.00     0.029 A 
ATOM     44  C   UNL A   1      41.154  27.590  28.968  1.00  0.00     0.049 A 
ATOM     45  H   UNL A   1      43.171  27.568  28.449  1.00  0.00     0.167 HD
ATOM     46  C   UNL A   1      47.415  27.350  27.446  1.00  0.00     0.037 A 
ATOM     47  C   UNL A   1      40.887  28.805  29.483  1.00  0.00     0.037 A 
ATOM     48  C   UNL A   1      47.206  28.703  27.894  1.00  0.00     0.049 A 
ATOM     49  C   UNL A   1      41.987  29.830  29.556  1.00  0.00     0.074 A 
ATOM     50  C   UNL A   1      48.116  29.745  27.953  1.00  0.00     0.029 A 
ATOM     51  N   UNL A   1      46.000  29.203  28.366  1.00  0.00    -0.354 N 
ATOM     52  N   UNL A   1      43.241  29.727  29.192  1.00  0.00    -0.248 NA
ATOM     53  C   UNL A   1      41.628  31.147  30.103  1.00  0.00     0.031 C 
ATOM     54  C   UNL A   1      47.477  30.857  28.512  1.00  0.00     0.029 A 
ATOM     55  C   UNL A   1      46.151  30.531  28.740  1.00  0.00     0.049 A 
ATOM     56  H   UNL A   1      45.161  28.692  28.426  1.00  0.00     0.167 HD
ATOM     57  C   UNL A   1      43.814  30.967  29.441  1.00  0.00     0.074 A 
ATOM     58  C   UNL A   1      42.763  31.815  29.962  1.00  0.00     0.031 C 
ATOM     59  C   UNL A   1      45.098  31.366  29.259  1.00  0.00     0.037 A 
BRANCH  46  60
ATOM     60  C   UNL A   1      48.797  26.959  27.000  1.00  0.00     0.064 A 
ATOM     61  C   UNL A   1      49.191  27.063  25.656  1.00  0.00     0.173 A 
ATOM     62  C   UNL A   1      49.756  26.528  27.930  1.00  0.00     0.173 A 
ATOM     63  F   UNL A   1      48.313  27.464  24.724  1.00  0.00    -0.203 F 
ATOM     64  C   UNL A   1      50.481  26.723  25.258  1.00  0.00     0.198 A 
ATOM     65  C   UNL A   1      51.055  26.221  27.533  1.00  0.00     0.198 A 
ATOM     66  F   UNL A   1      49.438  26.419  29.229  1.00  0.00    -0.203 F 
ATOM     67  F   UNL A   1      50.818  26.786  23.962  1.00  0.00    -0.200 F 
ATOM     68  C   UNL A   1      51.414  26.310  26.196  1.00  0.00     0.200 A 
ATOM     69  F   UNL A   1      51.960  25.839  28.444  1.00  0.00    -0.200 F 
ATOM     70  F   UNL A   1      52.659  25.995  25.813  1.00  0.00    -0.200 F 
ENDBRANCH  46  60
BRANCH  47  71
ATOM     71  C   UNL A   1      39.516  29.122  29.969  1.00  0.00     0.064 A 
ATOM     72  C   UNL A   1      38.557  29.691  29.119  1.00  0.00     0.173 A 
ATOM     73  C   UNL A   1      39.145  28.880  31.301  1.00  0.00     0.173 A 
ATOM     74  F   UNL A   1      38.868  29.961  27.843  1.00  0.00    -0.203 F 
ATOM     75  C   UNL A   1      37.290  30.034  29.590  1.00  0.00     0.198 A 
ATOM     76  C   UNL A   1      37.866  29.189  31.760  1.00  0.00     0.198 A 
ATOM     77  F   UNL A   1      40.022  28.332  32.154  1.00  0.00    -0.203 F 
ATOM     78  F   UNL A   1      36.414  30.632  28.772  1.00  0.00    -0.200 F 
ATOM     79  C   UNL A   1      36.944  29.777  30.908  1.00  0.00     0.200 A 
ATOM     80  F   UNL A   1      37.531  28.923  33.030  1.00  0.00    -0.200 F 
ATOM     81  F   UNL A   1      35.726  30.105  31.359  1.00  0.00    -0.200 F 
ENDBRANCH  47  71
BRANCH  59  82
ATOM     82  C   UNL A   1      45.429  32.794  29.596  1.00  0.00     0.064 A 
ATOM     83  C   UNL A   1      46.000  33.149  30.828  1.00  0.00     0.173 A 
ATOM     84  C   UNL A   1      45.186  33.818  28.668  1.00  0.00     0.173 A 
ATOM     85  F   UNL A   1      46.239  32.210  31.757  1.00  0.00    -0.203 F 
ATOM     86  C   UNL A   1      46.281  34.478  31.131  1.00  0.00     0.198 A 
ATOM     87  C   UNL A   1      45.503  35.141  28.960  1.00  0.00     0.198 A 
ATOM     88  F   UNL A   1      44.649  33.534  27.472  1.00  0.00    -0.203 F 
ATOM     89  F   UNL A   1      46.768  34.800  32.338  1.00  0.00    -0.200 F 
ATOM     90  C   UNL A   1      46.039  35.472  30.195  1.00  0.00     0.200 A 
ATOM     91  F   UNL A   1      45.284  36.099  28.047  1.00  0.00    -0.200 F 
ATOM     92  F   UNL A   1      46.313  36.751  30.488  1.00  0.00    -0.200 F 
ENDBRANCH  59  82
ENDBRANCH  33  34
ENDBRANCH  25  28
ENDBRANCH  23  24
ENDBRANCH  22  23
ENDBRANCH   1  22
TORSDOF 15
ENDMDL
