MODEL 1
REMARK VINA RESULT:     -12.8      0.000      0.000
REMARK SMILES O=C(NCCCNC(=O)c1cc(=O)[nH]c2ccc(C(F)(F)F)cc12)c1ccc(-c2c3nc(c(-c4c(F)c(F)c(F)c(F)c4F)c4ccc([nH]4)c(-c4c(F)c(F)c(F)c(F)c4F)c4nc(c(-c5c(F)c(F)c(F)c(F)c5F)c5ccc2[nH]5)C=C4)C=C3)cc1
REMARK SMILES IDX 4 1 3 2 1 3 2 4 25 6 26 7 87 8 27 9 86 10 28 11 29 12 30 13
REMARK SMILES IDX 80 14 31 15 85 16 79 17 81 18 32 19 84 20 78 21 77 22 33 24
REMARK SMILES IDX 65 25 45 26 64 27 46 28 49 29 63 30 82 31 47 32 48 33 62 35
REMARK SMILES IDX 83 36 50 37 34 38 35 39 43 40 36 41 37 42 41 43 44 44 38 45
REMARK SMILES IDX 39 46 42 47 40 48 66 49 67 50 75 51 68 52 69 53 73 54 76 55
REMARK SMILES IDX 70 56 71 57 74 58 72 59 51 60 52 61 60 62 53 63 54 64 58 65
REMARK SMILES IDX 61 66 55 67 56 68 59 69 57 70 5 71 6 72 7 73 8 74 9 76 10 77
REMARK SMILES IDX 11 78 24 79 12 80 15 81 23 82 13 83 14 84 16 85 18 86 17 88
REMARK SMILES IDX 19 89 20 90 21 91 22 92
REMARK H PARENT 3 5 81 23 49 34 7 75 14 87
REMARK Flexibility Score: inf
ROOT
ATOM      1  C   UNL A   1      32.621  32.518  26.678  1.00  0.00     0.118 C 
ENDROOT
BRANCH   1   2
ATOM      2  N   UNL A   1      32.396  33.818  27.298  1.00  0.00    -0.352 N 
ATOM      3  O   UNL A   1      32.555  35.453  28.838  1.00  0.00    -0.269 OA
ATOM      4  C   UNL A   1      33.012  34.411  28.373  1.00  0.00     0.251 C 
ATOM      5  H   UNL A   1      31.689  34.359  26.878  1.00  0.00     0.163 HD
BRANCH   4   6
ATOM      6  C   UNL A   1      34.205  33.796  28.992  1.00  0.00     0.039 A 
ATOM      7  C   UNL A   1      34.085  32.697  29.842  1.00  0.00     0.014 A 
ATOM      8  C   UNL A   1      35.472  34.307  28.691  1.00  0.00     0.014 A 
ATOM      9  C   UNL A   1      35.199  32.222  30.523  1.00  0.00     0.010 A 
ATOM     10  C   UNL A   1      36.608  33.756  29.293  1.00  0.00     0.010 A 
ATOM     11  C   UNL A   1      36.477  32.730  30.240  1.00  0.00    -0.014 A 
BRANCH  11  12
ATOM     12  C   UNL A   1      37.661  32.116  30.894  1.00  0.00     0.031 A 
ATOM     13  C   UNL A   1      38.065  32.492  32.290  1.00  0.00     0.074 A 
ATOM     14  C   UNL A   1      38.352  31.178  30.218  1.00  0.00     0.049 A 
ATOM     15  N   UNL A   1      39.061  32.038  33.011  1.00  0.00    -0.248 NA
ATOM     16  C   UNL A   1      37.255  33.516  32.968  1.00  0.00     0.031 C 
ATOM     17  C   UNL A   1      38.055  30.735  28.853  1.00  0.00     0.029 A 
ATOM     18  N   UNL A   1      39.429  30.413  30.585  1.00  0.00    -0.354 N 
ATOM     19  C   UNL A   1      39.006  32.726  34.216  1.00  0.00     0.074 A 
ATOM     20  C   UNL A   1      37.898  33.653  34.121  1.00  0.00     0.031 C 
ATOM     21  C   UNL A   1      38.892  29.743  28.519  1.00  0.00     0.029 A 
ATOM     22  C   UNL A   1      39.830  29.530  29.614  1.00  0.00     0.049 A 
ATOM     23  H   UNL A   1      39.872  30.490  31.461  1.00  0.00     0.167 HD
ATOM     24  C   UNL A   1      39.803  32.587  35.303  1.00  0.00     0.037 A 
ATOM     25  C   UNL A   1      40.852  28.655  29.595  1.00  0.00     0.037 A 
ATOM     26  C   UNL A   1      40.900  31.656  35.392  1.00  0.00     0.049 A 
ATOM     27  C   UNL A   1      41.745  28.557  30.799  1.00  0.00     0.074 A 
ATOM     28  C   UNL A   1      41.751  31.424  36.459  1.00  0.00     0.029 A 
ATOM     29  N   UNL A   1      41.303  30.807  34.371  1.00  0.00    -0.354 N 
ATOM     30  N   UNL A   1      41.664  29.193  31.942  1.00  0.00    -0.248 NA
ATOM     31  C   UNL A   1      42.873  27.622  30.707  1.00  0.00     0.031 C 
ATOM     32  C   UNL A   1      42.698  30.472  36.066  1.00  0.00     0.029 A 
ATOM     33  C   UNL A   1      42.404  30.067  34.774  1.00  0.00     0.049 A 
ATOM     34  H   UNL A   1      40.869  30.739  33.489  1.00  0.00     0.167 HD
ATOM     35  C   UNL A   1      42.717  28.722  32.713  1.00  0.00     0.074 A 
ATOM     36  C   UNL A   1      43.409  27.731  31.914  1.00  0.00     0.031 C 
ATOM     37  C   UNL A   1      43.080  29.082  33.968  1.00  0.00     0.037 A 
BRANCH  24  38
ATOM     38  C   UNL A   1      39.534  33.475  36.486  1.00  0.00     0.064 A 
ATOM     39  C   UNL A   1      38.711  33.063  37.545  1.00  0.00     0.173 A 
ATOM     40  C   UNL A   1      40.151  34.731  36.587  1.00  0.00     0.173 A 
ATOM     41  F   UNL A   1      38.089  31.876  37.496  1.00  0.00    -0.203 F 
ATOM     42  C   UNL A   1      38.499  33.886  38.650  1.00  0.00     0.198 A 
ATOM     43  C   UNL A   1      39.960  35.539  37.705  1.00  0.00     0.198 A 
ATOM     44  F   UNL A   1      40.954  35.172  35.607  1.00  0.00    -0.203 F 
ATOM     45  F   UNL A   1      37.676  33.489  39.630  1.00  0.00    -0.200 F 
ATOM     46  C   UNL A   1      39.130  35.118  38.733  1.00  0.00     0.200 A 
ATOM     47  F   UNL A   1      40.582  36.723  37.790  1.00  0.00    -0.200 F 
ATOM     48  F   UNL A   1      38.932  35.903  39.801  1.00  0.00    -0.200 F 
ENDBRANCH  24  38
BRANCH  25  49
ATOM     49  C   UNL A   1      41.083  27.814  28.393  1.00  0.00     0.064 A 
ATOM     50  C   UNL A   1      40.488  26.551  28.271  1.00  0.00     0.173 A 
ATOM     51  C   UNL A   1      41.894  28.259  27.338  1.00  0.00     0.173 A 
ATOM     52  F   UNL A   1      39.719  26.075  29.261  1.00  0.00    -0.203 F 
ATOM     53  C   UNL A   1      40.708  25.760  27.146  1.00  0.00     0.198 A 
ATOM     54  C   UNL A   1      42.086  27.480  26.200  1.00  0.00     0.198 A 
ATOM     55  F   UNL A   1      42.482  29.463  27.403  1.00  0.00    -0.203 F 
ATOM     56  F   UNL A   1      40.161  24.538  27.073  1.00  0.00    -0.200 F 
ATOM     57  C   UNL A   1      41.500  26.227  26.108  1.00  0.00     0.200 A 
ATOM     58  F   UNL A   1      42.837  27.945  25.192  1.00  0.00    -0.200 F 
ATOM     59  F   UNL A   1      41.703  25.469  25.023  1.00  0.00    -0.200 F 
ENDBRANCH  25  49
BRANCH  37  60
ATOM     60  C   UNL A   1      44.259  28.372  34.567  1.00  0.00     0.064 A 
ATOM     61  C   UNL A   1      45.559  28.888  34.466  1.00  0.00     0.173 A 
ATOM     62  C   UNL A   1      44.081  27.172  35.272  1.00  0.00     0.173 A 
ATOM     63  F   UNL A   1      45.784  30.023  33.786  1.00  0.00    -0.203 F 
ATOM     64  C   UNL A   1      46.642  28.213  35.024  1.00  0.00     0.198 A 
ATOM     65  C   UNL A   1      45.161  26.517  35.857  1.00  0.00     0.198 A 
ATOM     66  F   UNL A   1      42.857  26.639  35.403  1.00  0.00    -0.203 F 
ATOM     67  F   UNL A   1      47.882  28.697  34.868  1.00  0.00    -0.200 F 
ATOM     68  C   UNL A   1      46.441  27.033  35.725  1.00  0.00     0.200 A 
ATOM     69  F   UNL A   1      44.963  25.384  36.544  1.00  0.00    -0.200 F 
ATOM     70  F   UNL A   1      47.484  26.388  36.265  1.00  0.00    -0.200 F 
ENDBRANCH  37  60
ENDBRANCH  11  12
ENDBRANCH   4   6
ENDBRANCH   1   2
BRANCH   1  71
ATOM     71  C   UNL A   1      31.430  31.580  26.812  1.00  0.00     0.042 C 
BRANCH  71  72
ATOM     72  C   UNL A   1      31.805  30.121  27.017  1.00  0.00     0.118 C 
BRANCH  72  73
ATOM     73  N   UNL A   1      32.878  29.691  26.131  1.00  0.00    -0.352 N 
ATOM     74  C   UNL A   1      33.055  28.530  25.437  1.00  0.00     0.252 C 
ATOM     75  H   UNL A   1      33.600  30.350  26.013  1.00  0.00     0.163 HD
ATOM     76  O   UNL A   1      34.113  28.350  24.838  1.00  0.00    -0.269 OA
BRANCH  74  77
ATOM     77  C   UNL A   1      31.984  27.498  25.432  1.00  0.00     0.054 A 
ATOM     78  C   UNL A   1      32.103  26.507  26.330  1.00  0.00     0.086 A 
ATOM     79  C   UNL A   1      30.761  27.596  24.611  1.00  0.00     0.012 A 
ATOM     80  C   UNL A   1      31.129  25.403  26.396  1.00  0.00     0.249 A 
ATOM     81  C   UNL A   1      29.808  26.568  24.715  1.00  0.00     0.049 A 
ATOM     82  C   UNL A   1      30.488  28.668  23.747  1.00  0.00     0.024 A 
ATOM     83  O   UNL A   1      31.318  24.450  27.142  1.00  0.00    -0.270 OA
ATOM     84  N   UNL A   1      30.038  25.495  25.584  1.00  0.00    -0.322 N 
ATOM     85  C   UNL A   1      28.624  26.601  23.980  1.00  0.00     0.027 A 
ATOM     86  C   UNL A   1      29.286  28.727  23.016  1.00  0.00     0.056 A 
ATOM     87  H   UNL A   1      29.376  24.767  25.608  1.00  0.00     0.170 HD
ATOM     88  C   UNL A   1      28.362  27.681  23.137  1.00  0.00     0.015 A 
BRANCH  86  89
ATOM     89  C   UNL A   1      29.003  29.915  22.124  1.00  0.00     0.416 C 
ATOM     90  F   UNL A   1      27.914  29.727  21.330  1.00  0.00    -0.166 F 
ATOM     91  F   UNL A   1      28.761  31.050  22.835  1.00  0.00    -0.166 F 
ATOM     92  F   UNL A   1      30.031  30.216  21.281  1.00  0.00    -0.166 F 
ENDBRANCH  86  89
ENDBRANCH  74  77
ENDBRANCH  72  73
ENDBRANCH  71  72
ENDBRANCH   1  71
TORSDOF 11
ENDMDL
MODEL 2
REMARK VINA RESULT:     -12.8      0.184      1.153
REMARK SMILES O=C(NCCCNC(=O)c1cc(=O)[nH]c2ccc(C(F)(F)F)cc12)c1ccc(-c2c3nc(c(-c4c(F)c(F)c(F)c(F)c4F)c4ccc([nH]4)c(-c4c(F)c(F)c(F)c(F)c4F)c4nc(c(-c5c(F)c(F)c(F)c(F)c5F)c5ccc2[nH]5)C=C4)C=C3)cc1
REMARK SMILES IDX 4 1 3 2 1 3 2 4 25 6 26 7 87 8 27 9 86 10 28 11 29 12 30 13
REMARK SMILES IDX 80 14 31 15 85 16 79 17 81 18 32 19 84 20 78 21 77 22 33 24
REMARK SMILES IDX 65 25 45 26 64 27 46 28 49 29 63 30 82 31 47 32 48 33 62 35
REMARK SMILES IDX 83 36 50 37 34 38 35 39 43 40 36 41 37 42 41 43 44 44 38 45
REMARK SMILES IDX 39 46 42 47 40 48 66 49 67 50 75 51 68 52 69 53 73 54 76 55
REMARK SMILES IDX 70 56 71 57 74 58 72 59 51 60 52 61 60 62 53 63 54 64 58 65
REMARK SMILES IDX 61 66 55 67 56 68 59 69 57 70 5 71 6 72 7 73 8 74 9 76 10 77
REMARK SMILES IDX 11 78 24 79 12 80 15 81 23 82 13 83 14 84 16 85 18 86 17 88
REMARK SMILES IDX 19 89 20 90 21 91 22 92
REMARK H PARENT 3 5 81 23 49 34 7 75 14 87
REMARK Flexibility Score: inf
ROOT
ATOM      1  C   UNL A   1      32.557  32.528  26.629  1.00  0.00     0.118 C 
ENDROOT
BRANCH   1   2
ATOM      2  N   UNL A   1      32.351  33.830  27.251  1.00  0.00    -0.352 N 
ATOM      3  O   UNL A   1      32.534  35.460  28.794  1.00  0.00    -0.269 OA
ATOM      4  C   UNL A   1      32.976  34.413  28.327  1.00  0.00     0.251 C 
ATOM      5  H   UNL A   1      31.651  34.382  26.832  1.00  0.00     0.163 HD
BRANCH   4   6
ATOM      6  C   UNL A   1      34.161  33.779  28.944  1.00  0.00     0.039 A 
ATOM      7  C   UNL A   1      34.028  32.659  29.763  1.00  0.00     0.014 A 
ATOM      8  C   UNL A   1      35.431  34.296  28.673  1.00  0.00     0.014 A 
ATOM      9  C   UNL A   1      35.133  32.164  30.445  1.00  0.00     0.010 A 
ATOM     10  C   UNL A   1      36.559  33.729  29.275  1.00  0.00     0.010 A 
ATOM     11  C   UNL A   1      36.415  32.677  30.193  1.00  0.00    -0.014 A 
BRANCH  11  12
ATOM     12  C   UNL A   1      37.589  32.044  30.845  1.00  0.00     0.031 A 
ATOM     13  C   UNL A   1      38.005  32.418  32.239  1.00  0.00     0.074 A 
ATOM     14  C   UNL A   1      38.261  31.091  30.171  1.00  0.00     0.049 A 
ATOM     15  N   UNL A   1      38.994  31.949  32.958  1.00  0.00    -0.248 NA
ATOM     16  C   UNL A   1      37.215  33.459  32.915  1.00  0.00     0.031 C 
ATOM     17  C   UNL A   1      37.952  30.650  28.808  1.00  0.00     0.029 A 
ATOM     18  N   UNL A   1      39.326  30.309  30.537  1.00  0.00    -0.354 N 
ATOM     19  C   UNL A   1      38.955  32.642  34.160  1.00  0.00     0.074 A 
ATOM     20  C   UNL A   1      37.864  33.588  34.066  1.00  0.00     0.031 C 
ATOM     21  C   UNL A   1      38.770  29.642  28.474  1.00  0.00     0.029 A 
ATOM     22  C   UNL A   1      39.708  29.415  29.567  1.00  0.00     0.049 A 
ATOM     23  H   UNL A   1      39.773  30.381  31.411  1.00  0.00     0.167 HD
ATOM     24  C   UNL A   1      39.754  32.492  35.246  1.00  0.00     0.037 A 
ATOM     25  C   UNL A   1      40.714  28.522  29.549  1.00  0.00     0.037 A 
ATOM     26  C   UNL A   1      40.834  31.542  35.334  1.00  0.00     0.049 A 
ATOM     27  C   UNL A   1      41.608  28.412  30.750  1.00  0.00     0.074 A 
ATOM     28  C   UNL A   1      41.684  31.298  36.400  1.00  0.00     0.029 A 
ATOM     29  N   UNL A   1      41.218  30.682  34.315  1.00  0.00    -0.354 N 
ATOM     30  N   UNL A   1      41.543  29.054  31.891  1.00  0.00    -0.248 NA
ATOM     31  C   UNL A   1      42.719  27.457  30.657  1.00  0.00     0.031 C 
ATOM     32  C   UNL A   1      42.612  30.328  36.007  1.00  0.00     0.029 A 
ATOM     33  C   UNL A   1      42.307  29.924  34.718  1.00  0.00     0.049 A 
ATOM     34  H   UNL A   1      40.780  30.619  33.435  1.00  0.00     0.167 HD
ATOM     35  C   UNL A   1      42.590  28.566  32.660  1.00  0.00     0.074 A 
ATOM     36  C   UNL A   1      43.261  27.560  31.863  1.00  0.00     0.031 C 
ATOM     37  C   UNL A   1      42.962  28.924  33.913  1.00  0.00     0.037 A 
BRANCH  24  38
ATOM     38  C   UNL A   1      39.504  33.388  36.427  1.00  0.00     0.064 A 
ATOM     39  C   UNL A   1      38.676  32.997  37.488  1.00  0.00     0.173 A 
ATOM     40  C   UNL A   1      40.146  34.633  36.522  1.00  0.00     0.173 A 
ATOM     41  F   UNL A   1      38.030  31.822  37.444  1.00  0.00    -0.203 F 
ATOM     42  C   UNL A   1      38.482  33.827  38.591  1.00  0.00     0.198 A 
ATOM     43  C   UNL A   1      39.973  35.448  37.639  1.00  0.00     0.198 A 
ATOM     44  F   UNL A   1      40.956  35.055  35.539  1.00  0.00    -0.203 F 
ATOM     45  F   UNL A   1      37.653  33.449  39.574  1.00  0.00    -0.200 F 
ATOM     46  C   UNL A   1      39.137  35.047  38.669  1.00  0.00     0.200 A 
ATOM     47  F   UNL A   1      40.618  36.620  37.719  1.00  0.00    -0.200 F 
ATOM     48  F   UNL A   1      38.956  35.839  39.735  1.00  0.00    -0.200 F 
ENDBRANCH  24  38
BRANCH  25  49
ATOM     49  C   UNL A   1      40.926  27.673  28.348  1.00  0.00     0.064 A 
ATOM     50  C   UNL A   1      41.749  28.102  27.298  1.00  0.00     0.173 A 
ATOM     51  C   UNL A   1      40.320  26.414  28.231  1.00  0.00     0.173 A 
ATOM     52  F   UNL A   1      42.335  29.307  27.357  1.00  0.00    -0.203 F 
ATOM     53  C   UNL A   1      41.944  27.310  26.170  1.00  0.00     0.198 A 
ATOM     54  C   UNL A   1      40.543  25.608  27.117  1.00  0.00     0.198 A 
ATOM     55  F   UNL A   1      39.529  25.954  29.212  1.00  0.00    -0.203 F 
ATOM     56  F   UNL A   1      42.702  27.762  25.161  1.00  0.00    -0.200 F 
ATOM     57  C   UNL A   1      41.349  26.061  26.083  1.00  0.00     0.200 A 
ATOM     58  F   UNL A   1      39.981  24.395  27.048  1.00  0.00    -0.200 F 
ATOM     59  F   UNL A   1      41.545  25.295  25.001  1.00  0.00    -0.200 F 
ENDBRANCH  25  49
BRANCH  37  60
ATOM     60  C   UNL A   1      44.131  28.195  34.511  1.00  0.00     0.064 A 
ATOM     61  C   UNL A   1      45.439  28.690  34.408  1.00  0.00     0.173 A 
ATOM     62  C   UNL A   1      43.933  26.998  35.217  1.00  0.00     0.173 A 
ATOM     63  F   UNL A   1      45.682  29.821  33.728  1.00  0.00    -0.203 F 
ATOM     64  C   UNL A   1      46.511  27.997  34.965  1.00  0.00     0.198 A 
ATOM     65  C   UNL A   1      45.003  26.326  35.800  1.00  0.00     0.198 A 
ATOM     66  F   UNL A   1      42.701  26.485  35.348  1.00  0.00    -0.203 F 
ATOM     67  F   UNL A   1      47.759  28.461  34.808  1.00  0.00    -0.200 F 
ATOM     68  C   UNL A   1      46.292  26.821  35.667  1.00  0.00     0.200 A 
ATOM     69  F   UNL A   1      44.788  25.197  36.488  1.00  0.00    -0.200 F 
ATOM     70  F   UNL A   1      47.324  26.159  36.206  1.00  0.00    -0.200 F 
ENDBRANCH  37  60
ENDBRANCH  11  12
ENDBRANCH   4   6
ENDBRANCH   1   2
BRANCH   1  71
ATOM     71  C   UNL A   1      31.388  31.577  26.838  1.00  0.00     0.042 C 
BRANCH  71  72
ATOM     72  C   UNL A   1      31.790  30.117  26.978  1.00  0.00     0.118 C 
BRANCH  72  73
ATOM     73  N   UNL A   1      32.833  29.732  26.036  1.00  0.00    -0.352 N 
ATOM     74  C   UNL A   1      32.989  28.605  25.284  1.00  0.00     0.252 C 
ATOM     75  H   UNL A   1      33.548  30.400  25.924  1.00  0.00     0.163 HD
ATOM     76  O   UNL A   1      34.026  28.457  24.641  1.00  0.00    -0.269 OA
BRANCH  74  77
ATOM     77  C   UNL A   1      31.921  27.571  25.269  1.00  0.00     0.054 A 
ATOM     78  C   UNL A   1      32.068  26.545  26.123  1.00  0.00     0.086 A 
ATOM     79  C   UNL A   1      30.675  27.695  24.486  1.00  0.00     0.012 A 
ATOM     80  C   UNL A   1      31.100  25.435  26.173  1.00  0.00     0.249 A 
ATOM     81  C   UNL A   1      29.729  26.660  24.576  1.00  0.00     0.049 A 
ATOM     82  C   UNL A   1      30.376  28.799  23.673  1.00  0.00     0.024 A 
ATOM     83  O   UNL A   1      31.312  24.455  26.876  1.00  0.00    -0.270 OA
ATOM     84  N   UNL A   1      29.986  25.555  25.396  1.00  0.00    -0.322 N 
ATOM     85  C   UNL A   1      28.525  26.717  23.876  1.00  0.00     0.027 A 
ATOM     86  C   UNL A   1      29.153  28.882  22.978  1.00  0.00     0.056 A 
ATOM     87  H   UNL A   1      29.328  24.824  25.410  1.00  0.00     0.170 HD
ATOM     88  C   UNL A   1      28.235  27.828  23.084  1.00  0.00     0.015 A 
BRANCH  86  89
ATOM     89  C   UNL A   1      28.842  30.103  22.142  1.00  0.00     0.416 C 
ATOM     90  F   UNL A   1      27.728  29.944  21.377  1.00  0.00    -0.166 F 
ATOM     91  F   UNL A   1      28.622  31.210  22.903  1.00  0.00    -0.166 F 
ATOM     92  F   UNL A   1      29.842  30.437  21.279  1.00  0.00    -0.166 F 
ENDBRANCH  86  89
ENDBRANCH  74  77
ENDBRANCH  72  73
ENDBRANCH  71  72
ENDBRANCH   1  71
TORSDOF 11
ENDMDL
MODEL 3
REMARK VINA RESULT:     -12.7      6.057     11.225
REMARK SMILES O=C(NCCCNC(=O)c1cc(=O)[nH]c2ccc(C(F)(F)F)cc12)c1ccc(-c2c3nc(c(-c4c(F)c(F)c(F)c(F)c4F)c4ccc([nH]4)c(-c4c(F)c(F)c(F)c(F)c4F)c4nc(c(-c5c(F)c(F)c(F)c(F)c5F)c5ccc2[nH]5)C=C4)C=C3)cc1
REMARK SMILES IDX 4 1 3 2 1 3 2 4 25 6 26 7 87 8 27 9 86 10 28 11 29 12 30 13
REMARK SMILES IDX 80 14 31 15 85 16 79 17 81 18 32 19 84 20 78 21 77 22 33 24
REMARK SMILES IDX 65 25 45 26 64 27 46 28 49 29 63 30 82 31 47 32 48 33 62 35
REMARK SMILES IDX 83 36 50 37 34 38 35 39 43 40 36 41 37 42 41 43 44 44 38 45
REMARK SMILES IDX 39 46 42 47 40 48 66 49 67 50 75 51 68 52 69 53 73 54 76 55
REMARK SMILES IDX 70 56 71 57 74 58 72 59 51 60 52 61 60 62 53 63 54 64 58 65
REMARK SMILES IDX 61 66 55 67 56 68 59 69 57 70 5 71 6 72 7 73 8 74 9 76 10 77
REMARK SMILES IDX 11 78 24 79 12 80 15 81 23 82 13 83 14 84 16 85 18 86 17 88
REMARK SMILES IDX 19 89 20 90 21 91 22 92
REMARK H PARENT 3 5 81 23 49 34 7 75 14 87
REMARK Flexibility Score: inf
ROOT
ATOM      1  C   UNL A   1      38.941  20.191  26.068  1.00  0.00     0.118 C 
ENDROOT
BRANCH   1   2
ATOM      2  N   UNL A   1      40.089  19.299  25.966  1.00  0.00    -0.352 N 
ATOM      3  O   UNL A   1      42.244  18.685  25.744  1.00  0.00    -0.269 OA
ATOM      4  C   UNL A   1      41.435  19.568  26.018  1.00  0.00     0.251 C 
ATOM      5  H   UNL A   1      39.863  18.348  25.839  1.00  0.00     0.163 HD
BRANCH   4   6
ATOM      6  C   UNL A   1      41.919  20.918  26.379  1.00  0.00     0.039 A 
ATOM      7  C   UNL A   1      42.251  21.231  27.696  1.00  0.00     0.014 A 
ATOM      8  C   UNL A   1      42.075  21.879  25.374  1.00  0.00     0.014 A 
ATOM      9  C   UNL A   1      42.569  22.540  28.038  1.00  0.00     0.010 A 
ATOM     10  C   UNL A   1      42.501  23.169  25.704  1.00  0.00     0.010 A 
ATOM     11  C   UNL A   1      42.720  23.520  27.044  1.00  0.00    -0.014 A 
BRANCH  11  12
ATOM     12  C   UNL A   1      43.180  24.878  27.431  1.00  0.00     0.031 A 
ATOM     13  C   UNL A   1      44.588  25.330  27.168  1.00  0.00     0.074 A 
ATOM     14  C   UNL A   1      42.293  25.720  27.994  1.00  0.00     0.049 A 
ATOM     15  N   UNL A   1      45.144  26.488  27.428  1.00  0.00    -0.248 NA
ATOM     16  C   UNL A   1      45.496  24.358  26.540  1.00  0.00     0.031 C 
ATOM     17  C   UNL A   1      40.899  25.388  28.302  1.00  0.00     0.029 A 
ATOM     18  N   UNL A   1      42.416  27.026  28.391  1.00  0.00    -0.354 N 
ATOM     19  C   UNL A   1      46.464  26.380  27.009  1.00  0.00     0.074 A 
ATOM     20  C   UNL A   1      46.638  25.035  26.506  1.00  0.00     0.031 C 
ATOM     21  C   UNL A   1      40.284  26.476  28.788  1.00  0.00     0.029 A 
ATOM     22  C   UNL A   1      41.255  27.557  28.895  1.00  0.00     0.049 A 
ATOM     23  H   UNL A   1      43.256  27.535  28.320  1.00  0.00     0.167 HD
ATOM     24  C   UNL A   1      47.436  27.325  27.035  1.00  0.00     0.037 A 
ATOM     25  C   UNL A   1      41.000  28.776  29.406  1.00  0.00     0.037 A 
ATOM     26  C   UNL A   1      47.251  28.666  27.531  1.00  0.00     0.049 A 
ATOM     27  C   UNL A   1      42.110  29.785  29.462  1.00  0.00     0.074 A 
ATOM     28  C   UNL A   1      48.168  29.703  27.577  1.00  0.00     0.029 A 
ATOM     29  N   UNL A   1      46.072  29.155  28.074  1.00  0.00    -0.354 N 
ATOM     30  N   UNL A   1      43.345  29.680  29.037  1.00  0.00    -0.248 NA
ATOM     31  C   UNL A   1      41.790  31.081  30.073  1.00  0.00     0.031 C 
ATOM     32  C   UNL A   1      47.558  30.801  28.193  1.00  0.00     0.029 A 
ATOM     33  C   UNL A   1      46.243  30.470  28.479  1.00  0.00     0.049 A 
ATOM     34  H   UNL A   1      45.234  28.643  28.158  1.00  0.00     0.167 HD
ATOM     35  C   UNL A   1      43.946  30.901  29.310  1.00  0.00     0.074 A 
ATOM     36  C   UNL A   1      42.931  31.738  29.918  1.00  0.00     0.031 C 
ATOM     37  C   UNL A   1      45.223  31.290  29.080  1.00  0.00     0.037 A 
BRANCH  24  38
ATOM     38  C   UNL A   1      48.798  26.942  26.528  1.00  0.00     0.064 A 
ATOM     39  C   UNL A   1      49.766  26.373  27.369  1.00  0.00     0.173 A 
ATOM     40  C   UNL A   1      49.119  27.095  25.170  1.00  0.00     0.173 A 
ATOM     41  F   UNL A   1      49.515  26.213  28.676  1.00  0.00    -0.203 F 
ATOM     42  C   UNL A   1      51.012  25.993  26.874  1.00  0.00     0.198 A 
ATOM     43  C   UNL A   1      50.355  26.688  24.673  1.00  0.00     0.198 A 
ATOM     44  F   UNL A   1      48.228  27.626  24.319  1.00  0.00    -0.203 F 
ATOM     45  F   UNL A   1      51.935  25.490  27.704  1.00  0.00    -0.200 F 
ATOM     46  C   UNL A   1      51.302  26.143  25.526  1.00  0.00     0.200 A 
ATOM     47  F   UNL A   1      50.627  26.820  23.367  1.00  0.00    -0.200 F 
ATOM     48  F   UNL A   1      52.498  25.767  25.051  1.00  0.00    -0.200 F 
ENDBRANCH  24  38
BRANCH  25  49
ATOM     49  C   UNL A   1      39.640  29.096  29.909  1.00  0.00     0.064 A 
ATOM     50  C   UNL A   1      39.274  28.810  31.232  1.00  0.00     0.173 A 
ATOM     51  C   UNL A   1      38.682  29.703  29.084  1.00  0.00     0.173 A 
ATOM     52  F   UNL A   1      40.150  28.213  32.054  1.00  0.00    -0.203 F 
ATOM     53  C   UNL A   1      37.998  29.104  31.703  1.00  0.00     0.198 A 
ATOM     54  C   UNL A   1      37.417  30.028  29.566  1.00  0.00     0.198 A 
ATOM     55  F   UNL A   1      38.984  30.004  27.812  1.00  0.00    -0.203 F 
ATOM     56  F   UNL A   1      37.659  28.781  32.959  1.00  0.00    -0.200 F 
ATOM     57  C   UNL A   1      37.073  29.720  30.874  1.00  0.00     0.200 A 
ATOM     58  F   UNL A   1      36.534  30.640  28.766  1.00  0.00    -0.200 F 
ATOM     59  F   UNL A   1      35.847  30.012  31.331  1.00  0.00    -0.200 F 
ENDBRANCH  25  49
BRANCH  37  60
ATOM     60  C   UNL A   1      45.584  32.698  29.458  1.00  0.00     0.064 A 
ATOM     61  C   UNL A   1      46.127  33.008  30.714  1.00  0.00     0.173 A 
ATOM     62  C   UNL A   1      45.408  33.745  28.541  1.00  0.00     0.173 A 
ATOM     63  F   UNL A   1      46.299  32.044  31.632  1.00  0.00    -0.203 F 
ATOM     64  C   UNL A   1      46.452  34.320  31.048  1.00  0.00     0.198 A 
ATOM     65  C   UNL A   1      45.764  35.051  28.867  1.00  0.00     0.198 A 
ATOM     66  F   UNL A   1      44.897  33.502  27.325  1.00  0.00    -0.203 F 
ATOM     67  F   UNL A   1      46.919  34.601  32.273  1.00  0.00    -0.200 F 
ATOM     68  C   UNL A   1      46.278  35.338  30.122  1.00  0.00     0.200 A 
ATOM     69  F   UNL A   1      45.606  36.031  27.967  1.00  0.00    -0.200 F 
ATOM     70  F   UNL A   1      46.595  36.600  30.445  1.00  0.00    -0.200 F 
ENDBRANCH  37  60
ENDBRANCH  11  12
ENDBRANCH   4   6
ENDBRANCH   1   2
BRANCH   1  71
ATOM     71  C   UNL A   1      37.937  20.002  24.940  1.00  0.00     0.042 C 
BRANCH  71  72
ATOM     72  C   UNL A   1      36.863  21.076  24.874  1.00  0.00     0.118 C 
BRANCH  72  73
ATOM     73  N   UNL A   1      36.107  21.186  26.115  1.00  0.00    -0.352 N 
ATOM     74  C   UNL A   1      34.789  21.454  26.340  1.00  0.00     0.252 C 
ATOM     75  H   UNL A   1      36.640  21.043  26.931  1.00  0.00     0.163 HD
ATOM     76  O   UNL A   1      34.402  21.610  27.496  1.00  0.00    -0.269 OA
BRANCH  74  77
ATOM     77  C   UNL A   1      33.850  21.572  25.193  1.00  0.00     0.054 A 
ATOM     78  C   UNL A   1      33.521  22.818  24.814  1.00  0.00     0.086 A 
ATOM     79  C   UNL A   1      33.397  20.421  24.387  1.00  0.00     0.012 A 
ATOM     80  C   UNL A   1      32.568  23.066  23.718  1.00  0.00     0.249 A 
ATOM     81  C   UNL A   1      32.529  20.666  23.309  1.00  0.00     0.049 A 
ATOM     82  C   UNL A   1      33.801  19.098  24.626  1.00  0.00     0.024 A 
ATOM     83  O   UNL A   1      32.193  24.205  23.465  1.00  0.00    -0.270 OA
ATOM     84  N   UNL A   1      32.125  21.976  23.029  1.00  0.00    -0.322 N 
ATOM     85  C   UNL A   1      32.072  19.629  22.497  1.00  0.00     0.027 A 
ATOM     86  C   UNL A   1      33.366  18.043  23.800  1.00  0.00     0.056 A 
ATOM     87  H   UNL A   1      31.484  22.118  22.296  1.00  0.00     0.170 HD
ATOM     88  C   UNL A   1      32.494  18.322  22.739  1.00  0.00     0.015 A 
BRANCH  86  89
ATOM     89  C   UNL A   1      33.851  16.634  24.059  1.00  0.00     0.416 C 
ATOM     90  F   UNL A   1      32.863  15.815  24.511  1.00  0.00    -0.166 F 
ATOM     91  F   UNL A   1      34.347  16.043  22.937  1.00  0.00    -0.166 F 
ATOM     92  F   UNL A   1      34.845  16.565  24.987  1.00  0.00    -0.166 F 
ENDBRANCH  86  89
ENDBRANCH  74  77
ENDBRANCH  72  73
ENDBRANCH  71  72
ENDBRANCH   1  71
TORSDOF 11
ENDMDL
