MODEL 1
REMARK VINA RESULT:     -12.4      0.000      0.000
REMARK SMILES [NH3+][C@]1(C(=O)NCCCNC(=O)c2ccc(-c3c4nc(c(-c5c(F)c(F)c(F)c(F)c5F)c5ccc([nH]5)c(-c5c(F)c(F)c(F)c(F)c5F)c5nc(c(-c6c(F)c(F)c(F)c(F)c6F)c6ccc3[nH]6)C=C5)C=C4)cc2)CCC[C@@H]1CCn1cc(I)cn1
REMARK SMILES IDX 6 1 5 2 3 3 4 4 2 6 75 7 78 8 76 9 77 10 1 11 79 15 80 16
REMARK SMILES IDX 81 17 82 18 86 19 83 20 85 21 84 22 7 23 8 24 9 25 10 26
REMARK SMILES IDX 11 28 12 29 13 30 74 31 14 32 73 33 15 34 16 35 17 36 67 37
REMARK SMILES IDX 18 38 72 39 66 40 68 41 19 42 71 43 65 44 64 45 20 47 52 48
REMARK SMILES IDX 32 49 51 50 33 51 36 52 50 53 69 54 34 55 35 56 49 58 70 59
REMARK SMILES IDX 37 60 21 61 22 62 30 63 23 64 24 65 28 66 31 67 25 68 26 69
REMARK SMILES IDX 29 70 27 71 53 72 54 73 62 74 55 75 56 76 60 77 63 78 57 79
REMARK SMILES IDX 58 80 61 81 59 82 38 83 39 84 47 85 40 86 41 87 45 88 48 89
REMARK SMILES IDX 42 90 43 91 46 92 44 93
REMARK H PARENT 5 5 1 12 1 13 1 14 9 27 68 46 36 57
REMARK Flexibility Score: inf
ROOT
ATOM      1  C   UNL A   1      31.639  30.833  26.096  1.00  0.00     0.118 C 
ENDROOT
BRANCH   1   2
ATOM      2  N   UNL A   1      30.889  30.805  24.858  1.00  0.00    -0.351 N 
ATOM      3  C   UNL A   1      30.573  29.768  24.041  1.00  0.00     0.281 C 
ATOM      4  O   UNL A   1      29.511  29.901  23.418  1.00  0.00    -0.268 OA
ATOM      5  H   UNL A   1      30.554  31.682  24.560  1.00  0.00     0.163 HD
BRANCH   3   6
ATOM      6  C   UNL A   1      31.516  28.553  23.770  1.00  0.00     0.176 C 
ATOM      7  C   UNL A   1      33.019  28.862  23.849  1.00  0.00     0.079 C 
ATOM      8  C   UNL A   1      31.321  27.480  24.913  1.00  0.00     0.062 C 
ATOM      9  C   UNL A   1      33.674  27.557  24.249  1.00  0.00     0.008 C 
ATOM     10  C   UNL A   1      32.747  27.045  25.328  1.00  0.00     0.011 C 
BRANCH   6  11
ATOM     11  N   UNL A   1      31.267  28.062  22.400  1.00  0.00    -0.345 N 
ATOM     12  H   UNL A   1      30.886  27.117  22.441  1.00  0.00     0.345 HD
ATOM     13  H   UNL A   1      32.142  28.054  21.878  1.00  0.00     0.345 HD
ATOM     14  H   UNL A   1      30.599  28.678  21.935  1.00  0.00     0.345 HD
ENDBRANCH   6  11
BRANCH   8  15
ATOM     15  C   UNL A   1      30.431  26.243  24.656  1.00  0.00     0.034 C 
BRANCH  15  16
ATOM     16  C   UNL A   1      30.089  25.369  25.874  1.00  0.00     0.145 C 
BRANCH  16  17
ATOM     17  N   UNL A   1      30.868  24.167  26.072  1.00  0.00    -0.272 N 
ATOM     18  C   UNL A   1      30.998  23.132  25.186  1.00  0.00     0.123 A 
ATOM     19  N   UNL A   1      31.525  23.952  27.235  1.00  0.00    -0.180 NA
ATOM     20  C   UNL A   1      31.881  22.262  25.764  1.00  0.00     0.051 A 
ATOM     21  C   UNL A   1      32.149  22.784  27.034  1.00  0.00     0.149 A 
ATOM     22  I   UNL A   1      32.646  20.612  24.914  1.00  0.00    -0.041 I 
ENDBRANCH  16  17
ENDBRANCH  15  16
ENDBRANCH   8  15
ENDBRANCH   3   6
ENDBRANCH   1   2
BRANCH   1  23
ATOM     23  C   UNL A   1      31.416  32.086  26.918  1.00  0.00     0.042 C 
BRANCH  23  24
ATOM     24  C   UNL A   1      32.699  32.822  27.271  1.00  0.00     0.118 C 
BRANCH  24  25
ATOM     25  N   UNL A   1      32.470  34.227  27.601  1.00  0.00    -0.352 N 
ATOM     26  C   UNL A   1      33.006  35.002  28.598  1.00  0.00     0.251 C 
ATOM     27  H   UNL A   1      31.831  34.691  27.015  1.00  0.00     0.163 HD
ATOM     28  O   UNL A   1      32.515  36.101  28.857  1.00  0.00    -0.269 OA
BRANCH  26  29
ATOM     29  C   UNL A   1      34.158  34.511  29.377  1.00  0.00     0.039 A 
ATOM     30  C   UNL A   1      33.946  33.928  30.628  1.00  0.00     0.014 A 
ATOM     31  C   UNL A   1      35.451  34.620  28.865  1.00  0.00     0.014 A 
ATOM     32  C   UNL A   1      35.025  33.377  31.323  1.00  0.00     0.010 A 
ATOM     33  C   UNL A   1      36.500  33.968  29.497  1.00  0.00     0.010 A 
ATOM     34  C   UNL A   1      36.302  33.351  30.740  1.00  0.00    -0.014 A 
BRANCH  34  35
ATOM     35  C   UNL A   1      37.454  32.701  31.412  1.00  0.00     0.031 A 
ATOM     36  C   UNL A   1      38.155  31.547  30.748  1.00  0.00     0.074 A 
ATOM     37  C   UNL A   1      37.817  33.094  32.648  1.00  0.00     0.049 A 
ATOM     38  N   UNL A   1      39.116  30.785  31.206  1.00  0.00    -0.248 NA
ATOM     39  C   UNL A   1      37.685  31.171  29.403  1.00  0.00     0.031 C 
ATOM     40  C   UNL A   1      37.176  34.163  33.419  1.00  0.00     0.029 A 
ATOM     41  N   UNL A   1      38.805  32.633  33.481  1.00  0.00    -0.354 N 
ATOM     42  C   UNL A   1      39.350  29.838  30.218  1.00  0.00     0.074 A 
ATOM     43  C   UNL A   1      38.385  30.072  29.167  1.00  0.00     0.031 C 
ATOM     44  C   UNL A   1      37.808  34.296  34.596  1.00  0.00     0.029 A 
ATOM     45  C   UNL A   1      38.865  33.295  34.685  1.00  0.00     0.049 A 
ATOM     46  H   UNL A   1      39.414  31.900  33.239  1.00  0.00     0.167 HD
ATOM     47  C   UNL A   1      40.303  28.878  30.175  1.00  0.00     0.037 A 
ATOM     48  C   UNL A   1      39.677  33.106  35.742  1.00  0.00     0.037 A 
ATOM     49  C   UNL A   1      41.278  28.668  31.213  1.00  0.00     0.049 A 
ATOM     50  C   UNL A   1      40.724  32.026  35.674  1.00  0.00     0.074 A 
ATOM     51  C   UNL A   1      42.325  27.765  31.243  1.00  0.00     0.029 A 
ATOM     52  N   UNL A   1      41.321  29.373  32.407  1.00  0.00    -0.354 N 
ATOM     53  N   UNL A   1      40.985  31.185  34.702  1.00  0.00    -0.248 NA
ATOM     54  C   UNL A   1      41.595  31.875  36.846  1.00  0.00     0.031 C 
ATOM     55  C   UNL A   1      42.967  27.884  32.479  1.00  0.00     0.029 A 
ATOM     56  C   UNL A   1      42.362  28.906  33.194  1.00  0.00     0.049 A 
ATOM     57  H   UNL A   1      40.703  30.096  32.660  1.00  0.00     0.167 HD
ATOM     58  C   UNL A   1      42.068  30.430  35.131  1.00  0.00     0.074 A 
ATOM     59  C   UNL A   1      42.425  30.923  36.444  1.00  0.00     0.031 C 
ATOM     60  C   UNL A   1      42.710  29.418  34.495  1.00  0.00     0.037 A 
BRANCH  47  61
ATOM     61  C   UNL A   1      40.340  27.986  28.967  1.00  0.00     0.064 A 
ATOM     62  C   UNL A   1      41.094  28.314  27.829  1.00  0.00     0.173 A 
ATOM     63  C   UNL A   1      39.637  26.771  28.955  1.00  0.00     0.173 A 
ATOM     64  F   UNL A   1      41.775  29.470  27.781  1.00  0.00    -0.203 F 
ATOM     65  C   UNL A   1      41.115  27.480  26.715  1.00  0.00     0.198 A 
ATOM     66  C   UNL A   1      39.690  25.921  27.853  1.00  0.00     0.198 A 
ATOM     67  F   UNL A   1      38.904  26.404  30.017  1.00  0.00    -0.203 F 
ATOM     68  F   UNL A   1      41.796  27.845  25.620  1.00  0.00    -0.200 F 
ATOM     69  C   UNL A   1      40.420  26.281  26.732  1.00  0.00     0.200 A 
ATOM     70  F   UNL A   1      39.029  24.756  27.877  1.00  0.00    -0.200 F 
ATOM     71  F   UNL A   1      40.448  25.473  25.662  1.00  0.00    -0.200 F 
ENDBRANCH  47  61
BRANCH  48  72
ATOM     72  C   UNL A   1      39.550  33.972  36.944  1.00  0.00     0.064 A 
ATOM     73  C   UNL A   1      38.789  33.563  38.049  1.00  0.00     0.173 A 
ATOM     74  C   UNL A   1      40.175  35.226  37.014  1.00  0.00     0.173 A 
ATOM     75  F   UNL A   1      38.156  32.380  38.024  1.00  0.00    -0.203 F 
ATOM     76  C   UNL A   1      38.637  34.384  39.164  1.00  0.00     0.198 A 
ATOM     77  C   UNL A   1      40.049  36.033  38.143  1.00  0.00     0.198 A 
ATOM     78  F   UNL A   1      40.920  35.663  35.988  1.00  0.00    -0.203 F 
ATOM     79  F   UNL A   1      37.861  33.990  40.183  1.00  0.00    -0.200 F 
ATOM     80  C   UNL A   1      39.272  35.616  39.213  1.00  0.00     0.200 A 
ATOM     81  F   UNL A   1      40.679  37.214  38.193  1.00  0.00    -0.200 F 
ATOM     82  F   UNL A   1      39.129  36.403  40.287  1.00  0.00    -0.200 F 
ENDBRANCH  48  72
BRANCH  60  83
ATOM     83  C   UNL A   1      43.893  28.808  35.189  1.00  0.00     0.064 A 
ATOM     84  C   UNL A   1      45.193  29.301  35.007  1.00  0.00     0.173 A 
ATOM     85  C   UNL A   1      43.714  27.742  36.085  1.00  0.00     0.173 A 
ATOM     86  F   UNL A   1      45.420  30.308  34.151  1.00  0.00    -0.203 F 
ATOM     87  C   UNL A   1      46.274  28.730  35.673  1.00  0.00     0.198 A 
ATOM     88  C   UNL A   1      44.791  27.198  36.777  1.00  0.00     0.198 A 
ATOM     89  F   UNL A   1      42.489  27.240  36.303  1.00  0.00    -0.203 F 
ATOM     90  F   UNL A   1      47.515  29.182  35.444  1.00  0.00    -0.200 F 
ATOM     91  C   UNL A   1      46.071  27.687  36.565  1.00  0.00     0.200 A 
ATOM     92  F   UNL A   1      44.591  26.203  37.651  1.00  0.00    -0.200 F 
ATOM     93  F   UNL A   1      47.112  27.146  37.213  1.00  0.00    -0.200 F 
ENDBRANCH  60  83
ENDBRANCH  34  35
ENDBRANCH  26  29
ENDBRANCH  24  25
ENDBRANCH  23  24
ENDBRANCH   1  23
TORSDOF 14
ENDMDL
MODEL 2
REMARK VINA RESULT:     -12.4      0.062      1.621
REMARK SMILES [NH3+][C@]1(C(=O)NCCCNC(=O)c2ccc(-c3c4nc(c(-c5c(F)c(F)c(F)c(F)c5F)c5ccc([nH]5)c(-c5c(F)c(F)c(F)c(F)c5F)c5nc(c(-c6c(F)c(F)c(F)c(F)c6F)c6ccc3[nH]6)C=C5)C=C4)cc2)CCC[C@@H]1CCn1cc(I)cn1
REMARK SMILES IDX 6 1 5 2 3 3 4 4 2 6 75 7 78 8 76 9 77 10 1 11 79 15 80 16
REMARK SMILES IDX 81 17 82 18 86 19 83 20 85 21 84 22 7 23 8 24 9 25 10 26
REMARK SMILES IDX 11 28 12 29 13 30 74 31 14 32 73 33 15 34 16 35 17 36 67 37
REMARK SMILES IDX 18 38 72 39 66 40 68 41 19 42 71 43 65 44 64 45 20 47 52 48
REMARK SMILES IDX 32 49 51 50 33 51 36 52 50 53 69 54 34 55 35 56 49 58 70 59
REMARK SMILES IDX 37 60 21 61 22 62 30 63 23 64 24 65 28 66 31 67 25 68 26 69
REMARK SMILES IDX 29 70 27 71 53 72 54 73 62 74 55 75 56 76 60 77 63 78 57 79
REMARK SMILES IDX 58 80 61 81 59 82 38 83 39 84 47 85 40 86 41 87 45 88 48 89
REMARK SMILES IDX 42 90 43 91 46 92 44 93
REMARK H PARENT 5 5 1 12 1 13 1 14 9 27 68 46 36 57
REMARK Flexibility Score: inf
ROOT
ATOM      1  C   UNL A   1      31.639  30.812  26.102  1.00  0.00     0.118 C 
ENDROOT
BRANCH   1   2
ATOM      2  N   UNL A   1      30.898  30.803  24.858  1.00  0.00    -0.351 N 
ATOM      3  C   UNL A   1      30.575  29.775  24.031  1.00  0.00     0.281 C 
ATOM      4  O   UNL A   1      29.520  29.927  23.401  1.00  0.00    -0.268 OA
ATOM      5  H   UNL A   1      30.578  31.686  24.564  1.00  0.00     0.163 HD
BRANCH   3   6
ATOM      6  C   UNL A   1      31.504  28.550  23.759  1.00  0.00     0.176 C 
ATOM      7  C   UNL A   1      33.010  28.845  23.822  1.00  0.00     0.079 C 
ATOM      8  C   UNL A   1      31.310  27.487  24.911  1.00  0.00     0.062 C 
ATOM      9  C   UNL A   1      33.657  27.537  24.224  1.00  0.00     0.008 C 
ATOM     10  C   UNL A   1      32.736  27.041  25.315  1.00  0.00     0.011 C 
BRANCH   6  11
ATOM     11  N   UNL A   1      31.237  28.052  22.395  1.00  0.00    -0.345 N 
ATOM     12  H   UNL A   1      31.990  27.428  22.107  1.00  0.00     0.345 HD
ATOM     13  H   UNL A   1      31.183  28.840  21.751  1.00  0.00     0.345 HD
ATOM     14  H   UNL A   1      30.352  27.543  22.386  1.00  0.00     0.345 HD
ENDBRANCH   6  11
BRANCH   8  15
ATOM     15  C   UNL A   1      30.406  26.256  24.670  1.00  0.00     0.034 C 
BRANCH  15  16
ATOM     16  C   UNL A   1      30.079  25.386  25.895  1.00  0.00     0.145 C 
BRANCH  16  17
ATOM     17  N   UNL A   1      30.849  24.176  26.079  1.00  0.00    -0.272 N 
ATOM     18  C   UNL A   1      30.994  23.163  25.170  1.00  0.00     0.123 A 
ATOM     19  N   UNL A   1      31.481  23.930  27.250  1.00  0.00    -0.180 NA
ATOM     20  C   UNL A   1      31.861  22.275  25.745  1.00  0.00     0.051 A 
ATOM     21  C   UNL A   1      32.105  22.764  27.033  1.00  0.00     0.149 A 
ATOM     22  I   UNL A   1      32.638  20.645  24.870  1.00  0.00    -0.041 I 
ENDBRANCH  16  17
ENDBRANCH  15  16
ENDBRANCH   8  15
ENDBRANCH   3   6
ENDBRANCH   1   2
BRANCH   1  23
ATOM     23  C   UNL A   1      31.416  32.057  26.937  1.00  0.00     0.042 C 
BRANCH  23  24
ATOM     24  C   UNL A   1      32.699  32.789  27.298  1.00  0.00     0.118 C 
BRANCH  24  25
ATOM     25  N   UNL A   1      32.474  34.197  27.615  1.00  0.00    -0.352 N 
ATOM     26  C   UNL A   1      33.014  34.982  28.602  1.00  0.00     0.251 C 
ATOM     27  H   UNL A   1      31.834  34.657  27.025  1.00  0.00     0.163 HD
ATOM     28  O   UNL A   1      32.526  36.084  28.852  1.00  0.00    -0.269 OA
BRANCH  26  29
ATOM     29  C   UNL A   1      34.167  34.496  29.383  1.00  0.00     0.039 A 
ATOM     30  C   UNL A   1      33.956  33.926  30.641  1.00  0.00     0.014 A 
ATOM     31  C   UNL A   1      35.459  34.596  28.866  1.00  0.00     0.014 A 
ATOM     32  C   UNL A   1      35.036  33.380  31.339  1.00  0.00     0.010 A 
ATOM     33  C   UNL A   1      36.507  33.948  29.503  1.00  0.00     0.010 A 
ATOM     34  C   UNL A   1      36.312  33.344  30.752  1.00  0.00    -0.014 A 
BRANCH  34  35
ATOM     35  C   UNL A   1      37.464  32.699  31.428  1.00  0.00     0.031 A 
ATOM     36  C   UNL A   1      38.172  31.548  30.766  1.00  0.00     0.074 A 
ATOM     37  C   UNL A   1      37.821  33.093  32.666  1.00  0.00     0.049 A 
ATOM     38  N   UNL A   1      39.134  30.790  31.227  1.00  0.00    -0.248 NA
ATOM     39  C   UNL A   1      37.709  31.172  29.419  1.00  0.00     0.031 C 
ATOM     40  C   UNL A   1      37.173  34.159  33.435  1.00  0.00     0.029 A 
ATOM     41  N   UNL A   1      38.808  32.635  33.502  1.00  0.00    -0.354 N 
ATOM     42  C   UNL A   1      39.375  29.845  30.239  1.00  0.00     0.074 A 
ATOM     43  C   UNL A   1      38.413  30.076  29.185  1.00  0.00     0.031 C 
ATOM     44  C   UNL A   1      37.800  34.293  34.614  1.00  0.00     0.029 A 
ATOM     45  C   UNL A   1      38.861  33.296  34.706  1.00  0.00     0.049 A 
ATOM     46  H   UNL A   1      39.421  31.904  33.262  1.00  0.00     0.167 HD
ATOM     47  C   UNL A   1      40.333  28.888  30.199  1.00  0.00     0.037 A 
ATOM     48  C   UNL A   1      39.670  33.110  35.767  1.00  0.00     0.037 A 
ATOM     49  C   UNL A   1      41.305  28.681  31.240  1.00  0.00     0.049 A 
ATOM     50  C   UNL A   1      40.721  32.035  35.701  1.00  0.00     0.074 A 
ATOM     51  C   UNL A   1      42.356  27.783  31.273  1.00  0.00     0.029 A 
ATOM     52  N   UNL A   1      41.341  29.386  32.435  1.00  0.00    -0.354 N 
ATOM     53  N   UNL A   1      40.989  31.195  34.730  1.00  0.00    -0.248 NA
ATOM     54  C   UNL A   1      41.589  31.886  36.877  1.00  0.00     0.031 C 
ATOM     55  C   UNL A   1      42.992  27.904  32.512  1.00  0.00     0.029 A 
ATOM     56  C   UNL A   1      42.381  28.923  33.225  1.00  0.00     0.049 A 
ATOM     57  H   UNL A   1      40.719  30.107  32.686  1.00  0.00     0.167 HD
ATOM     58  C   UNL A   1      42.073  30.444  35.163  1.00  0.00     0.074 A 
ATOM     59  C   UNL A   1      42.424  30.938  36.477  1.00  0.00     0.031 C 
ATOM     60  C   UNL A   1      42.722  29.435  34.527  1.00  0.00     0.037 A 
BRANCH  47  61
ATOM     61  C   UNL A   1      40.378  27.997  28.990  1.00  0.00     0.064 A 
ATOM     62  C   UNL A   1      39.672  26.786  28.938  1.00  0.00     0.173 A 
ATOM     63  C   UNL A   1      41.113  28.373  27.855  1.00  0.00     0.173 A 
ATOM     64  F   UNL A   1      38.962  26.371  30.000  1.00  0.00    -0.203 F 
ATOM     65  C   UNL A   1      39.727  25.968  27.812  1.00  0.00     0.198 A 
ATOM     66  C   UNL A   1      41.137  27.571  26.717  1.00  0.00     0.198 A 
ATOM     67  F   UNL A   1      41.804  29.524  27.847  1.00  0.00    -0.203 F 
ATOM     68  F   UNL A   1      39.090  24.789  27.811  1.00  0.00    -0.200 F 
ATOM     69  C   UNL A   1      40.452  26.366  26.700  1.00  0.00     0.200 A 
ATOM     70  F   UNL A   1      41.827  27.965  25.637  1.00  0.00    -0.200 F 
ATOM     71  F   UNL A   1      40.498  25.583  25.613  1.00  0.00    -0.200 F 
ENDBRANCH  47  61
BRANCH  48  72
ATOM     72  C   UNL A   1      39.534  33.975  36.968  1.00  0.00     0.064 A 
ATOM     73  C   UNL A   1      38.783  33.556  38.076  1.00  0.00     0.173 A 
ATOM     74  C   UNL A   1      40.142  35.237  37.036  1.00  0.00     0.173 A 
ATOM     75  F   UNL A   1      38.167  32.364  38.054  1.00  0.00    -0.203 F 
ATOM     76  C   UNL A   1      38.624  34.375  39.192  1.00  0.00     0.198 A 
ATOM     77  C   UNL A   1      40.010  36.043  38.165  1.00  0.00     0.198 A 
ATOM     78  F   UNL A   1      40.878  35.685  36.007  1.00  0.00    -0.203 F 
ATOM     79  F   UNL A   1      37.857  33.971  40.213  1.00  0.00    -0.200 F 
ATOM     80  C   UNL A   1      39.242  35.616  39.237  1.00  0.00     0.200 A 
ATOM     81  F   UNL A   1      40.623  37.232  38.212  1.00  0.00    -0.200 F 
ATOM     82  F   UNL A   1      39.091  36.402  40.312  1.00  0.00    -0.200 F 
ENDBRANCH  48  72
BRANCH  60  83
ATOM     83  C   UNL A   1      43.905  28.830  35.225  1.00  0.00     0.064 A 
ATOM     84  C   UNL A   1      43.769  27.761  36.121  1.00  0.00     0.173 A 
ATOM     85  C   UNL A   1      45.201  29.300  34.956  1.00  0.00     0.173 A 
ATOM     86  F   UNL A   1      42.552  27.283  36.423  1.00  0.00    -0.203 F 
ATOM     87  C   UNL A   1      44.883  27.203  36.744  1.00  0.00     0.198 A 
ATOM     88  C   UNL A   1      46.314  28.718  35.553  1.00  0.00     0.198 A 
ATOM     89  F   UNL A   1      45.387  30.316  34.099  1.00  0.00    -0.203 F 
ATOM     90  F   UNL A   1      44.724  26.217  37.638  1.00  0.00    -0.200 F 
ATOM     91  C   UNL A   1      46.154  27.675  36.453  1.00  0.00     0.200 A 
ATOM     92  F   UNL A   1      47.542  29.164  35.256  1.00  0.00    -0.200 F 
ATOM     93  F   UNL A   1      47.225  27.130  37.046  1.00  0.00    -0.200 F 
ENDBRANCH  60  83
ENDBRANCH  34  35
ENDBRANCH  26  29
ENDBRANCH  24  25
ENDBRANCH  23  24
ENDBRANCH   1  23
TORSDOF 14
ENDMDL
MODEL 3
REMARK VINA RESULT:     -12.3      6.244     11.532
REMARK SMILES [NH3+][C@]1(C(=O)NCCCNC(=O)c2ccc(-c3c4nc(c(-c5c(F)c(F)c(F)c(F)c5F)c5ccc([nH]5)c(-c5c(F)c(F)c(F)c(F)c5F)c5nc(c(-c6c(F)c(F)c(F)c(F)c6F)c6ccc3[nH]6)C=C5)C=C4)cc2)CCC[C@@H]1CCn1cc(I)cn1
REMARK SMILES IDX 6 1 5 2 3 3 4 4 2 6 75 7 78 8 76 9 77 10 1 11 79 15 80 16
REMARK SMILES IDX 81 17 82 18 86 19 83 20 85 21 84 22 7 23 8 24 9 25 10 26
REMARK SMILES IDX 11 28 12 29 13 30 74 31 14 32 73 33 15 34 16 35 17 36 67 37
REMARK SMILES IDX 18 38 72 39 66 40 68 41 19 42 71 43 65 44 64 45 20 47 52 48
REMARK SMILES IDX 32 49 51 50 33 51 36 52 50 53 69 54 34 55 35 56 49 58 70 59
REMARK SMILES IDX 37 60 21 61 22 62 30 63 23 64 24 65 28 66 31 67 25 68 26 69
REMARK SMILES IDX 29 70 27 71 53 72 54 73 62 74 55 75 56 76 60 77 63 78 57 79
REMARK SMILES IDX 58 80 61 81 59 82 38 83 39 84 47 85 40 86 41 87 45 88 48 89
REMARK SMILES IDX 42 90 43 91 46 92 44 93
REMARK H PARENT 5 5 1 12 1 13 1 14 9 27 68 46 36 57
REMARK Flexibility Score: inf
ROOT
ATOM      1  C   UNL A   1      36.778  20.490  25.002  1.00  0.00     0.118 C 
ENDROOT
BRANCH   1   2
ATOM      2  N   UNL A   1      35.669  19.561  25.001  1.00  0.00    -0.351 N 
ATOM      3  C   UNL A   1      34.343  19.769  24.790  1.00  0.00     0.281 C 
ATOM      4  O   UNL A   1      33.739  18.809  24.294  1.00  0.00    -0.268 OA
ATOM      5  H   UNL A   1      35.915  18.626  25.185  1.00  0.00     0.163 HD
BRANCH   3   6
ATOM      6  C   UNL A   1      33.577  21.048  25.253  1.00  0.00     0.176 C 
ATOM      7  C   UNL A   1      34.046  21.641  26.591  1.00  0.00     0.079 C 
ATOM      8  C   UNL A   1      33.860  22.221  24.234  1.00  0.00     0.062 C 
ATOM      9  C   UNL A   1      33.726  23.119  26.505  1.00  0.00     0.008 C 
ATOM     10  C   UNL A   1      34.165  23.466  25.102  1.00  0.00     0.011 C 
BRANCH   6  11
ATOM     11  N   UNL A   1      32.153  20.703  25.432  1.00  0.00    -0.345 N 
ATOM     12  H   UNL A   1      31.731  21.338  26.109  1.00  0.00     0.345 HD
ATOM     13  H   UNL A   1      32.075  19.744  25.770  1.00  0.00     0.345 HD
ATOM     14  H   UNL A   1      31.668  20.788  24.538  1.00  0.00     0.345 HD
ENDBRANCH   6  11
BRANCH   8  15
ATOM     15  C   UNL A   1      32.812  22.560  23.149  1.00  0.00     0.034 C 
BRANCH  15  16
ATOM     16  C   UNL A   1      33.261  23.506  22.024  1.00  0.00     0.145 C 
BRANCH  16  17
ATOM     17  N   UNL A   1      32.834  24.886  22.102  1.00  0.00    -0.272 N 
ATOM     18  C   UNL A   1      31.608  25.332  22.517  1.00  0.00     0.123 A 
ATOM     19  N   UNL A   1      33.654  25.887  21.707  1.00  0.00    -0.180 NA
ATOM     20  C   UNL A   1      31.688  26.697  22.497  1.00  0.00     0.051 A 
ATOM     21  C   UNL A   1      32.945  26.995  21.959  1.00  0.00     0.149 A 
ATOM     22  I   UNL A   1      30.288  27.973  23.158  1.00  0.00    -0.041 I 
ENDBRANCH  16  17
ENDBRANCH  15  16
ENDBRANCH   8  15
ENDBRANCH   3   6
ENDBRANCH   1   2
BRANCH   1  23
ATOM     23  C   UNL A   1      38.122  19.839  24.742  1.00  0.00     0.042 C 
BRANCH  23  24
ATOM     24  C   UNL A   1      39.192  20.223  25.751  1.00  0.00     0.118 C 
BRANCH  24  25
ATOM     25  N   UNL A   1      40.184  19.168  25.950  1.00  0.00    -0.352 N 
ATOM     26  C   UNL A   1      41.542  19.249  26.125  1.00  0.00     0.251 C 
ATOM     27  H   UNL A   1      39.819  18.254  25.961  1.00  0.00     0.163 HD
ATOM     28  O   UNL A   1      42.236  18.236  26.045  1.00  0.00    -0.269 OA
BRANCH  26  29
ATOM     29  C   UNL A   1      42.176  20.554  26.386  1.00  0.00     0.039 A 
ATOM     30  C   UNL A   1      42.670  21.307  25.318  1.00  0.00     0.014 A 
ATOM     31  C   UNL A   1      42.275  21.040  27.690  1.00  0.00     0.014 A 
ATOM     32  C   UNL A   1      43.184  22.584  25.555  1.00  0.00     0.010 A 
ATOM     33  C   UNL A   1      42.672  22.351  27.909  1.00  0.00     0.010 A 
ATOM     34  C   UNL A   1      43.145  23.134  26.847  1.00  0.00    -0.014 A 
BRANCH  34  35
ATOM     35  C   UNL A   1      43.605  24.518  27.121  1.00  0.00     0.031 A 
ATOM     36  C   UNL A   1      42.632  25.542  27.637  1.00  0.00     0.074 A 
ATOM     37  C   UNL A   1      44.872  24.871  26.830  1.00  0.00     0.049 A 
ATOM     38  N   UNL A   1      42.808  26.821  27.850  1.00  0.00    -0.248 NA
ATOM     39  C   UNL A   1      41.262  25.075  27.914  1.00  0.00     0.031 C 
ATOM     40  C   UNL A   1      45.893  23.981  26.271  1.00  0.00     0.029 A 
ATOM     41  N   UNL A   1      45.516  26.077  26.954  1.00  0.00    -0.354 N 
ATOM     42  C   UNL A   1      41.577  27.308  28.266  1.00  0.00     0.074 A 
ATOM     43  C   UNL A   1      40.642  26.207  28.207  1.00  0.00     0.031 C 
ATOM     44  C   UNL A   1      47.041  24.663  26.130  1.00  0.00     0.029 A 
ATOM     45  C   UNL A   1      46.827  26.045  26.543  1.00  0.00     0.049 A 
ATOM     46  H   UNL A   1      45.081  26.886  27.304  1.00  0.00     0.167 HD
ATOM     47  C   UNL A   1      41.258  28.554  28.688  1.00  0.00     0.037 A 
ATOM     48  C   UNL A   1      47.749  27.027  26.497  1.00  0.00     0.037 A 
ATOM     49  C   UNL A   1      42.201  29.639  28.770  1.00  0.00     0.049 A 
ATOM     50  C   UNL A   1      47.368  28.406  26.965  1.00  0.00     0.074 A 
ATOM     51  C   UNL A   1      41.999  30.923  29.242  1.00  0.00     0.029 A 
ATOM     52  N   UNL A   1      43.526  29.563  28.366  1.00  0.00    -0.354 N 
ATOM     53  N   UNL A   1      46.219  28.837  27.428  1.00  0.00    -0.248 NA
ATOM     54  C   UNL A   1      48.416  29.434  26.912  1.00  0.00     0.031 C 
ATOM     55  C   UNL A   1      43.186  31.641  29.070  1.00  0.00     0.029 A 
ATOM     56  C   UNL A   1      44.148  30.788  28.554  1.00  0.00     0.049 A 
ATOM     57  H   UNL A   1      43.961  28.760  27.999  1.00  0.00     0.167 HD
ATOM     58  C   UNL A   1      46.415  30.173  27.751  1.00  0.00     0.074 A 
ATOM     59  C   UNL A   1      47.797  30.477  27.447  1.00  0.00     0.031 C 
ATOM     60  C   UNL A   1      45.529  31.068  28.255  1.00  0.00     0.037 A 
BRANCH  47  61
ATOM     61  C   UNL A   1      39.836  28.809  29.098  1.00  0.00     0.064 A 
ATOM     62  C   UNL A   1      39.404  28.627  30.421  1.00  0.00     0.173 A 
ATOM     63  C   UNL A   1      38.896  29.271  28.163  1.00  0.00     0.173 A 
ATOM     64  F   UNL A   1      40.257  28.175  31.353  1.00  0.00    -0.203 F 
ATOM     65  C   UNL A   1      38.081  28.863  30.785  1.00  0.00     0.198 A 
ATOM     66  C   UNL A   1      37.583  29.542  28.538  1.00  0.00     0.198 A 
ATOM     67  F   UNL A   1      39.255  29.468  26.885  1.00  0.00    -0.203 F 
ATOM     68  F   UNL A   1      37.681  28.625  32.041  1.00  0.00    -0.200 F 
ATOM     69  C   UNL A   1      37.174  29.328  29.845  1.00  0.00     0.200 A 
ATOM     70  F   UNL A   1      36.712  30.005  27.631  1.00  0.00    -0.200 F 
ATOM     71  F   UNL A   1      35.903  29.564  30.198  1.00  0.00    -0.200 F 
ENDBRANCH  47  61
BRANCH  48  72
ATOM     72  C   UNL A   1      49.125  26.735  26.015  1.00  0.00     0.064 A 
ATOM     73  C   UNL A   1      50.097  26.215  26.882  1.00  0.00     0.173 A 
ATOM     74  C   UNL A   1      49.502  26.975  24.685  1.00  0.00     0.173 A 
ATOM     75  F   UNL A   1      49.791  25.985  28.168  1.00  0.00    -0.203 F 
ATOM     76  C   UNL A   1      51.397  25.971  26.446  1.00  0.00     0.198 A 
ATOM     77  C   UNL A   1      50.794  26.700  24.241  1.00  0.00     0.198 A 
ATOM     78  F   UNL A   1      48.610  27.465  23.812  1.00  0.00    -0.203 F 
ATOM     79  F   UNL A   1      52.319  25.524  27.310  1.00  0.00    -0.200 F 
ATOM     80  C   UNL A   1      51.743  26.208  25.124  1.00  0.00     0.200 A 
ATOM     81  F   UNL A   1      51.119  26.914  22.960  1.00  0.00    -0.200 F 
ATOM     82  F   UNL A   1      52.993  25.970  24.704  1.00  0.00    -0.200 F 
ENDBRANCH  48  72
BRANCH  60  83
ATOM     83  C   UNL A   1      46.038  32.448  28.554  1.00  0.00     0.064 A 
ATOM     84  C   UNL A   1      46.622  32.771  29.787  1.00  0.00     0.173 A 
ATOM     85  C   UNL A   1      45.981  33.450  27.572  1.00  0.00     0.173 A 
ATOM     86  F   UNL A   1      46.689  31.854  30.763  1.00  0.00    -0.203 F 
ATOM     87  C   UNL A   1      47.104  34.054  30.036  1.00  0.00     0.198 A 
ATOM     88  C   UNL A   1      46.495  34.721  27.812  1.00  0.00     0.198 A 
ATOM     89  F   UNL A   1      45.440  33.191  26.372  1.00  0.00    -0.203 F 
ATOM     90  F   UNL A   1      47.610  34.355  31.241  1.00  0.00    -0.200 F 
ATOM     91  C   UNL A   1      47.048  35.024  29.047  1.00  0.00     0.200 A 
ATOM     92  F   UNL A   1      46.457  35.650  26.848  1.00  0.00    -0.200 F 
ATOM     93  F   UNL A   1      47.522  36.254  29.286  1.00  0.00    -0.200 F 
ENDBRANCH  60  83
ENDBRANCH  34  35
ENDBRANCH  26  29
ENDBRANCH  24  25
ENDBRANCH  23  24
ENDBRANCH   1  23
TORSDOF 14
ENDMDL
