MODEL 1
REMARK VINA RESULT:      -8.9      0.000      0.000
REMARK SMILES CCOC(=O)[C@H](c1ccccc1)N1C(=O)/C(=C/c2ccc(C(=O)NCCCNC(=O)c3ccc(-c4c5nc(c(-c6c(F)c(F)c(F)c(F)c6F)c6ccc([nH]6)c(-c6c(F)c(F)c(F)c(F)c6F)c6nc(c(-c7c(F)c(F)c(F)c(F)c7F)c7ccc4[nH]7)C=C6)C=C5)cc3)cc2)SC1=S
REMARK SMILES IDX 22 1 23 2 24 3 21 5 18 6 19 7 95 8 20 9 94 10 17 11 13 12
REMARK SMILES IDX 14 13 97 14 15 15 16 16 96 17 98 18 6 19 4 20 5 21 3 22 2 23
REMARK SMILES IDX 1 24 7 25 8 26 12 27 9 28 11 29 10 30 25 31 26 32 27 33
REMARK SMILES IDX 28 34 29 35 30 37 31 38 32 39 93 40 33 41 92 42 34 43 35 44
REMARK SMILES IDX 36 45 86 46 37 47 91 48 85 49 87 50 38 51 90 52 84 53 83 54
REMARK SMILES IDX 39 56 71 57 51 58 70 59 52 60 55 61 69 62 88 63 53 64 54 65
REMARK SMILES IDX 68 67 89 68 56 69 40 70 41 71 49 72 42 73 43 74 47 75 50 76
REMARK SMILES IDX 44 77 45 78 48 79 46 80 72 81 73 82 81 83 74 84 75 85 79 86
REMARK SMILES IDX 82 87 76 88 77 89 80 90 78 91 57 92 58 93 66 94 59 95 60 96
REMARK SMILES IDX 64 97 67 98 61 99 62 100 65 101 63 102
REMARK H PARENT 24 4 28 36 87 55 55 66
REMARK Flexibility Score: inf
ROOT
ATOM      1  C   UNL A   1      35.094  31.886  29.714  1.00  0.00     0.251 C 
ATOM      2  O   UNL A   1      34.392  31.818  28.706  1.00  0.00    -0.269 OA
ATOM      3  N   UNL A   1      34.552  32.469  30.832  1.00  0.00    -0.352 N 
ATOM      4  H   UNL A   1      33.652  32.841  30.691  1.00  0.00     0.163 HD
ENDROOT
BRANCH   1   5
ATOM      5  C   UNL A   1      36.458  31.291  29.687  1.00  0.00     0.039 A 
ATOM      6  C   UNL A   1      38.974  30.029  29.794  1.00  0.00    -0.024 A 
ATOM      7  C   UNL A   1      37.809  29.260  29.826  1.00  0.00     0.009 A 
ATOM      8  C   UNL A   1      38.876  31.417  29.633  1.00  0.00     0.009 A 
ATOM      9  C   UNL A   1      36.559  29.891  29.770  1.00  0.00     0.014 A 
ATOM     10  C   UNL A   1      37.628  32.039  29.559  1.00  0.00     0.014 A 
BRANCH   6  11
ATOM     11  C   UNL A   1      40.299  29.461  30.073  1.00  0.00     0.029 C 
ATOM     12  N   UNL A   1      42.754  27.608  28.103  1.00  0.00    -0.274 N 
ATOM     13  C   UNL A   1      42.260  28.099  29.310  1.00  0.00     0.267 C 
ATOM     14  C   UNL A   1      41.829  27.704  27.078  1.00  0.00     0.149 C 
ATOM     15  O   UNL A   1      42.651  27.781  30.431  1.00  0.00    -0.268 OA
ATOM     16  C   UNL A   1      41.057  28.948  29.092  1.00  0.00     0.081 C 
ATOM     17  S   UNL A   1      40.715  29.019  27.416  1.00  0.00    -0.054 SA
ATOM     18  S   UNL A   1      41.522  26.773  25.729  1.00  0.00    -0.052 S 
BRANCH  12  19
ATOM     19  C   UNL A   1      44.022  26.808  28.162  1.00  0.00     0.232 C 
BRANCH  19  20
ATOM     20  C   UNL A   1      44.862  26.776  26.834  1.00  0.00     0.333 C 
ATOM     21  O   UNL A   1      45.452  27.753  26.381  1.00  0.00    -0.249 OA
BRANCH  20  22
ATOM     22  O   UNL A   1      44.805  25.582  26.184  1.00  0.00    -0.464 OA
BRANCH  22  23
ATOM     23  C   UNL A   1      45.896  25.237  25.308  1.00  0.00     0.229 C 
ATOM     24  C   UNL A   1      46.356  23.787  25.404  1.00  0.00     0.049 C 
ENDBRANCH  22  23
ENDBRANCH  20  22
ENDBRANCH  19  20
BRANCH  19  25
ATOM     25  C   UNL A   1      43.866  25.365  28.638  1.00  0.00    -0.014 A 
ATOM     26  C   UNL A   1      42.699  24.630  28.346  1.00  0.00     0.006 A 
ATOM     27  C   UNL A   1      44.876  24.757  29.402  1.00  0.00     0.006 A 
ATOM     28  C   UNL A   1      42.525  23.346  28.862  1.00  0.00     0.000 A 
ATOM     29  C   UNL A   1      44.696  23.469  29.911  1.00  0.00     0.000 A 
ATOM     30  C   UNL A   1      43.517  22.772  29.653  1.00  0.00     0.000 A 
ENDBRANCH  19  25
ENDBRANCH  12  19
ENDBRANCH   6  11
ENDBRANCH   1   5
BRANCH   3  31
ATOM     31  C   UNL A   1      35.055  32.643  32.185  1.00  0.00     0.118 C 
BRANCH  31  32
ATOM     32  C   UNL A   1      35.567  34.067  32.406  1.00  0.00     0.042 C 
BRANCH  32  33
ATOM     33  C   UNL A   1      36.902  34.126  33.148  1.00  0.00     0.118 C 
BRANCH  33  34
ATOM     34  N   UNL A   1      36.775  33.712  34.537  1.00  0.00    -0.352 N 
ATOM     35  C   UNL A   1      37.475  32.772  35.250  1.00  0.00     0.251 C 
ATOM     36  H   UNL A   1      36.075  34.181  35.047  1.00  0.00     0.163 HD
ATOM     37  O   UNL A   1      37.061  32.415  36.349  1.00  0.00    -0.269 OA
BRANCH  35  38
ATOM     38  C   UNL A   1      38.715  32.173  34.708  1.00  0.00     0.039 A 
ATOM     39  C   UNL A   1      38.607  31.097  33.822  1.00  0.00     0.014 A 
ATOM     40  C   UNL A   1      39.977  32.626  35.103  1.00  0.00     0.014 A 
ATOM     41  C   UNL A   1      39.759  30.512  33.290  1.00  0.00     0.010 A 
ATOM     42  C   UNL A   1      41.124  32.090  34.518  1.00  0.00     0.010 A 
ATOM     43  C   UNL A   1      41.027  31.026  33.608  1.00  0.00    -0.014 A 
BRANCH  43  44
ATOM     44  C   UNL A   1      42.256  30.470  32.985  1.00  0.00     0.031 A 
ATOM     45  C   UNL A   1      42.840  31.104  31.751  1.00  0.00     0.074 A 
ATOM     46  C   UNL A   1      42.807  29.351  33.494  1.00  0.00     0.049 A 
ATOM     47  N   UNL A   1      43.861  30.720  31.028  1.00  0.00    -0.248 NA
ATOM     48  C   UNL A   1      42.174  32.316  31.248  1.00  0.00     0.031 C 
ATOM     49  C   UNL A   1      42.302  28.614  34.654  1.00  0.00     0.029 A 
ATOM     50  N   UNL A   1      43.901  28.625  33.093  1.00  0.00    -0.354 N 
ATOM     51  C   UNL A   1      43.946  31.626  29.978  1.00  0.00     0.074 A 
ATOM     52  C   UNL A   1      42.850  32.558  30.134  1.00  0.00     0.031 C 
ATOM     53  C   UNL A   1      43.088  27.550  34.878  1.00  0.00     0.029 A 
ATOM     54  C   UNL A   1      44.127  27.502  33.853  1.00  0.00     0.049 A 
ATOM     55  H   UNL A   1      44.470  28.883  32.333  1.00  0.00     0.167 HD
ATOM     56  C   UNL A   1      44.866  31.682  28.985  1.00  0.00     0.037 A 
ATOM     57  C   UNL A   1      45.053  26.533  33.727  1.00  0.00     0.037 A 
ATOM     58  C   UNL A   1      45.974  30.772  28.856  1.00  0.00     0.049 A 
ATOM     59  C   UNL A   1      46.066  26.628  32.617  1.00  0.00     0.074 A 
ATOM     60  C   UNL A   1      47.009  30.800  27.937  1.00  0.00     0.029 A 
ATOM     61  N   UNL A   1      46.187  29.664  29.663  1.00  0.00    -0.354 N 
ATOM     62  N   UNL A   1      46.191  27.543  31.686  1.00  0.00    -0.248 NA
ATOM     63  C   UNL A   1      47.075  25.561  32.545  1.00  0.00     0.031 C 
ATOM     64  C   UNL A   1      47.813  29.677  28.148  1.00  0.00     0.029 A 
ATOM     65  C   UNL A   1      47.318  28.984  29.240  1.00  0.00     0.049 A 
ATOM     66  H   UNL A   1      45.620  29.402  30.425  1.00  0.00     0.167 HD
ATOM     67  C   UNL A   1      47.302  27.178  30.938  1.00  0.00     0.074 A 
ATOM     68  C   UNL A   1      47.830  25.971  31.537  1.00  0.00     0.031 C 
ATOM     69  C   UNL A   1      47.837  27.787  29.852  1.00  0.00     0.037 A 
BRANCH  56  70
ATOM     70  C   UNL A   1      44.723  32.758  27.947  1.00  0.00     0.064 A 
ATOM     71  C   UNL A   1      45.211  34.056  28.156  1.00  0.00     0.173 A 
ATOM     72  C   UNL A   1      44.162  32.462  26.695  1.00  0.00     0.173 A 
ATOM     73  F   UNL A   1      45.750  34.394  29.337  1.00  0.00    -0.203 F 
ATOM     74  C   UNL A   1      45.131  35.021  27.154  1.00  0.00     0.198 A 
ATOM     75  C   UNL A   1      44.111  33.420  25.686  1.00  0.00     0.198 A 
ATOM     76  F   UNL A   1      43.685  31.233  26.441  1.00  0.00    -0.203 F 
ATOM     77  F   UNL A   1      45.575  36.264  27.386  1.00  0.00    -0.200 F 
ATOM     78  C   UNL A   1      44.591  34.699  25.918  1.00  0.00     0.200 A 
ATOM     79  F   UNL A   1      43.603  33.102  24.487  1.00  0.00    -0.200 F 
ATOM     80  F   UNL A   1      44.534  35.624  24.949  1.00  0.00    -0.200 F 
ENDBRANCH  56  70
BRANCH  57  81
ATOM     81  C   UNL A   1      45.066  25.381  34.670  1.00  0.00     0.064 A 
ATOM     82  C   UNL A   1      45.676  25.481  35.929  1.00  0.00     0.173 A 
ATOM     83  C   UNL A   1      44.496  24.149  34.320  1.00  0.00     0.173 A 
ATOM     84  F   UNL A   1      46.252  26.632  36.304  1.00  0.00    -0.203 F 
ATOM     85  C   UNL A   1      45.749  24.383  36.784  1.00  0.00     0.198 A 
ATOM     86  C   UNL A   1      44.536  23.061  35.191  1.00  0.00     0.198 A 
ATOM     87  F   UNL A   1      43.892  23.999  33.132  1.00  0.00    -0.203 F 
ATOM     88  F   UNL A   1      46.394  24.488  37.953  1.00  0.00    -0.200 F 
ATOM     89  C   UNL A   1      45.174  23.175  36.417  1.00  0.00     0.200 A 
ATOM     90  F   UNL A   1      43.964  21.902  34.839  1.00  0.00    -0.200 F 
ATOM     91  F   UNL A   1      45.246  22.119  37.238  1.00  0.00    -0.200 F 
ENDBRANCH  57  81
BRANCH  69  92
ATOM     92  C   UNL A   1      49.077  27.181  29.262  1.00  0.00     0.064 A 
ATOM     93  C   UNL A   1      49.015  26.158  28.303  1.00  0.00     0.173 A 
ATOM     94  C   UNL A   1      50.344  27.657  29.631  1.00  0.00     0.173 A 
ATOM     95  F   UNL A   1      47.829  25.656  27.926  1.00  0.00    -0.203 F 
ATOM     96  C   UNL A   1      50.176  25.616  27.759  1.00  0.00     0.198 A 
ATOM     97  C   UNL A   1      51.501  27.137  29.059  1.00  0.00     0.198 A 
ATOM     98  F   UNL A   1      50.460  28.640  30.537  1.00  0.00    -0.203 F 
ATOM     99  F   UNL A   1      50.094  24.603  26.886  1.00  0.00    -0.200 F 
ATOM    100  C   UNL A   1      51.417  26.111  28.131  1.00  0.00     0.200 A 
ATOM    101  F   UNL A   1      52.699  27.629  29.407  1.00  0.00    -0.200 F 
ATOM    102  F   UNL A   1      52.533  25.594  27.599  1.00  0.00    -0.200 F 
ENDBRANCH  69  92
ENDBRANCH  43  44
ENDBRANCH  35  38
ENDBRANCH  33  34
ENDBRANCH  32  33
ENDBRANCH  31  32
ENDBRANCH   3  31
TORSDOF 16
ENDMDL
MODEL 2
REMARK VINA RESULT:      -8.8      5.612     11.146
REMARK SMILES CCOC(=O)[C@H](c1ccccc1)N1C(=O)/C(=C/c2ccc(C(=O)NCCCNC(=O)c3ccc(-c4c5nc(c(-c6c(F)c(F)c(F)c(F)c6F)c6ccc([nH]6)c(-c6c(F)c(F)c(F)c(F)c6F)c6nc(c(-c7c(F)c(F)c(F)c(F)c7F)c7ccc4[nH]7)C=C6)C=C5)cc3)cc2)SC1=S
REMARK SMILES IDX 22 1 23 2 24 3 21 5 18 6 19 7 95 8 20 9 94 10 17 11 13 12
REMARK SMILES IDX 14 13 97 14 15 15 16 16 96 17 98 18 6 19 4 20 5 21 3 22 2 23
REMARK SMILES IDX 1 24 7 25 8 26 12 27 9 28 11 29 10 30 25 31 26 32 27 33
REMARK SMILES IDX 28 34 29 35 30 37 31 38 32 39 93 40 33 41 92 42 34 43 35 44
REMARK SMILES IDX 36 45 86 46 37 47 91 48 85 49 87 50 38 51 90 52 84 53 83 54
REMARK SMILES IDX 39 56 71 57 51 58 70 59 52 60 55 61 69 62 88 63 53 64 54 65
REMARK SMILES IDX 68 67 89 68 56 69 40 70 41 71 49 72 42 73 43 74 47 75 50 76
REMARK SMILES IDX 44 77 45 78 48 79 46 80 72 81 73 82 81 83 74 84 75 85 79 86
REMARK SMILES IDX 82 87 76 88 77 89 80 90 78 91 57 92 58 93 66 94 59 95 60 96
REMARK SMILES IDX 64 97 67 98 61 99 62 100 65 101 63 102
REMARK H PARENT 24 4 28 36 87 55 55 66
REMARK Flexibility Score: inf
ROOT
ATOM      1  C   UNL A   1      34.678  18.699  24.603  1.00  0.00     0.251 C 
ATOM      2  O   UNL A   1      34.044  17.764  24.116  1.00  0.00    -0.269 OA
ATOM      3  N   UNL A   1      36.048  18.614  24.597  1.00  0.00    -0.352 N 
ATOM      4  H   UNL A   1      36.393  17.760  24.250  1.00  0.00     0.163 HD
ENDROOT
BRANCH   1   5
ATOM      5  C   UNL A   1      33.938  19.884  25.117  1.00  0.00     0.039 A 
ATOM      6  C   UNL A   1      32.418  22.119  25.906  1.00  0.00    -0.024 A 
ATOM      7  C   UNL A   1      31.783  21.011  25.343  1.00  0.00     0.009 A 
ATOM      8  C   UNL A   1      33.799  22.074  26.141  1.00  0.00     0.009 A 
ATOM      9  C   UNL A   1      32.541  19.899  24.954  1.00  0.00     0.014 A 
ATOM     10  C   UNL A   1      34.547  20.956  25.767  1.00  0.00     0.014 A 
BRANCH   6  11
ATOM     11  C   UNL A   1      31.725  23.395  26.127  1.00  0.00     0.029 C 
ATOM     12  N   UNL A   1      31.509  26.541  24.284  1.00  0.00    -0.274 N 
ATOM     13  C   UNL A   1      31.294  25.761  25.418  1.00  0.00     0.267 C 
ATOM     14  C   UNL A   1      32.371  25.937  23.384  1.00  0.00     0.149 C 
ATOM     15  O   UNL A   1      30.949  26.175  26.522  1.00  0.00    -0.268 OA
ATOM     16  C   UNL A   1      31.706  24.350  25.183  1.00  0.00     0.081 C 
ATOM     17  S   UNL A   1      32.297  24.193  23.584  1.00  0.00    -0.054 SA
ATOM     18  S   UNL A   1      33.491  26.532  22.301  1.00  0.00    -0.052 S 
BRANCH  12  19
ATOM     19  C   UNL A   1      31.056  27.970  24.345  1.00  0.00     0.232 C 
BRANCH  19  20
ATOM     20  C   UNL A   1      30.842  28.671  22.954  1.00  0.00     0.333 C 
ATOM     21  O   UNL A   1      31.660  29.432  22.445  1.00  0.00    -0.249 OA
BRANCH  20  22
ATOM     22  O   UNL A   1      29.623  28.425  22.404  1.00  0.00    -0.464 OA
BRANCH  22  23
ATOM     23  C   UNL A   1      28.457  28.898  23.106  1.00  0.00     0.229 C 
ATOM     24  C   UNL A   1      27.787  30.117  22.482  1.00  0.00     0.049 C 
ENDBRANCH  22  23
ENDBRANCH  20  22
ENDBRANCH  19  20
BRANCH  19  25
ATOM     25  C   UNL A   1      31.921  28.898  25.194  1.00  0.00    -0.014 A 
ATOM     26  C   UNL A   1      33.248  28.551  25.522  1.00  0.00     0.006 A 
ATOM     27  C   UNL A   1      31.395  30.104  25.688  1.00  0.00     0.006 A 
ATOM     28  C   UNL A   1      34.000  29.358  26.374  1.00  0.00     0.000 A 
ATOM     29  C   UNL A   1      32.157  30.909  26.537  1.00  0.00     0.000 A 
ATOM     30  C   UNL A   1      33.451  30.530  26.890  1.00  0.00     0.000 A 
ENDBRANCH  19  25
ENDBRANCH  12  19
ENDBRANCH   6  11
ENDBRANCH   1   5
BRANCH   3  31
ATOM     31  C   UNL A   1      37.086  19.545  25.007  1.00  0.00     0.118 C 
BRANCH  31  32
ATOM     32  C   UNL A   1      38.268  18.810  25.641  1.00  0.00     0.042 C 
BRANCH  32  33
ATOM     33  C   UNL A   1      39.544  19.649  25.706  1.00  0.00     0.118 C 
BRANCH  33  34
ATOM     34  N   UNL A   1      40.725  18.831  25.938  1.00  0.00    -0.352 N 
ATOM     35  C   UNL A   1      42.032  19.198  26.137  1.00  0.00     0.251 C 
ATOM     36  H   UNL A   1      40.561  17.861  25.955  1.00  0.00     0.163 HD
ATOM     37  O   UNL A   1      42.913  18.345  26.089  1.00  0.00    -0.269 OA
BRANCH  35  38
ATOM     38  C   UNL A   1      42.396  20.609  26.396  1.00  0.00     0.039 A 
ATOM     39  C   UNL A   1      42.477  21.046  27.722  1.00  0.00     0.014 A 
ATOM     40  C   UNL A   1      42.604  21.513  25.351  1.00  0.00     0.014 A 
ATOM     41  C   UNL A   1      42.820  22.372  28.000  1.00  0.00     0.010 A 
ATOM     42  C   UNL A   1      43.017  22.816  25.629  1.00  0.00     0.010 A 
ATOM     43  C   UNL A   1      43.126  23.259  26.956  1.00  0.00    -0.014 A 
BRANCH  43  44
ATOM     44  C   UNL A   1      43.576  24.647  27.238  1.00  0.00     0.031 A 
ATOM     45  C   UNL A   1      42.609  25.669  27.772  1.00  0.00     0.074 A 
ATOM     46  C   UNL A   1      44.842  25.004  26.947  1.00  0.00     0.049 A 
ATOM     47  N   UNL A   1      42.798  26.943  28.011  1.00  0.00    -0.248 NA
ATOM     48  C   UNL A   1      41.241  25.206  28.053  1.00  0.00     0.031 C 
ATOM     49  C   UNL A   1      45.858  24.118  26.375  1.00  0.00     0.029 A 
ATOM     50  N   UNL A   1      45.489  26.209  27.072  1.00  0.00    -0.354 N 
ATOM     51  C   UNL A   1      41.574  27.434  28.446  1.00  0.00     0.074 A 
ATOM     52  C   UNL A   1      40.637  26.333  28.403  1.00  0.00     0.031 C 
ATOM     53  C   UNL A   1      47.000  24.803  26.209  1.00  0.00     0.029 A 
ATOM     54  C   UNL A   1      46.787  26.188  26.621  1.00  0.00     0.049 A 
ATOM     55  H   UNL A   1      45.063  27.012  27.449  1.00  0.00     0.167 HD
ATOM     56  C   UNL A   1      41.268  28.688  28.859  1.00  0.00     0.037 A 
ATOM     57  C   UNL A   1      47.697  27.176  26.532  1.00  0.00     0.037 A 
ATOM     58  C   UNL A   1      42.215  29.769  28.932  1.00  0.00     0.049 A 
ATOM     59  C   UNL A   1      47.328  28.556  27.007  1.00  0.00     0.074 A 
ATOM     60  C   UNL A   1      42.022  31.050  29.421  1.00  0.00     0.029 A 
ATOM     61  N   UNL A   1      43.529  29.702  28.495  1.00  0.00    -0.354 N 
ATOM     62  N   UNL A   1      46.193  28.985  27.504  1.00  0.00    -0.248 NA
ATOM     63  C   UNL A   1      48.369  29.590  26.916  1.00  0.00     0.031 C 
ATOM     64  C   UNL A   1      43.200  31.776  29.223  1.00  0.00     0.029 A 
ATOM     65  C   UNL A   1      44.148  30.929  28.672  1.00  0.00     0.049 A 
ATOM     66  H   UNL A   1      43.959  28.901  28.117  1.00  0.00     0.167 HD
ATOM     67  C   UNL A   1      46.391  30.324  27.810  1.00  0.00     0.074 A 
ATOM     68  C   UNL A   1      47.763  30.633  27.464  1.00  0.00     0.031 C 
ATOM     69  C   UNL A   1      45.517  31.219  28.331  1.00  0.00     0.037 A 
BRANCH  56  70
ATOM     70  C   UNL A   1      39.850  28.973  29.264  1.00  0.00     0.064 A 
ATOM     71  C   UNL A   1      38.893  29.421  28.342  1.00  0.00     0.173 A 
ATOM     72  C   UNL A   1      39.425  28.715  30.577  1.00  0.00     0.173 A 
ATOM     73  F   UNL A   1      39.247  29.690  27.077  1.00  0.00    -0.203 F 
ATOM     74  C   UNL A   1      37.566  29.613  28.723  1.00  0.00     0.198 A 
ATOM     75  C   UNL A   1      38.093  28.879  30.946  1.00  0.00     0.198 A 
ATOM     76  F   UNL A   1      40.299  28.278  31.497  1.00  0.00    -0.203 F 
ATOM     77  F   UNL A   1      36.676  30.073  27.834  1.00  0.00    -0.200 F 
ATOM     78  C   UNL A   1      37.167  29.332  30.021  1.00  0.00     0.200 A 
ATOM     79  F   UNL A   1      37.706  28.592  32.197  1.00  0.00    -0.200 F 
ATOM     80  F   UNL A   1      35.886  29.499  30.379  1.00  0.00    -0.200 F 
ENDBRANCH  56  70
BRANCH  57  81
ATOM     81  C   UNL A   1      49.046  26.904  25.964  1.00  0.00     0.064 A 
ATOM     82  C   UNL A   1      50.118  26.530  26.786  1.00  0.00     0.173 A 
ATOM     83  C   UNL A   1      49.296  27.041  24.591  1.00  0.00     0.173 A 
ATOM     84  F   UNL A   1      49.935  26.404  28.108  1.00  0.00    -0.203 F 
ATOM     85  C   UNL A   1      51.396  26.343  26.263  1.00  0.00     0.198 A 
ATOM     86  C   UNL A   1      50.567  26.816  24.063  1.00  0.00     0.198 A 
ATOM     87  F   UNL A   1      48.305  27.388  23.756  1.00  0.00    -0.203 F 
ATOM     88  F   UNL A   1      52.416  26.050  27.082  1.00  0.00    -0.200 F 
ATOM     89  C   UNL A   1      51.619  26.481  24.902  1.00  0.00     0.200 A 
ATOM     90  F   UNL A   1      50.773  26.934  22.744  1.00  0.00    -0.200 F 
ATOM     91  F   UNL A   1      52.848  26.302  24.400  1.00  0.00    -0.200 F 
ENDBRANCH  57  81
BRANCH  69  92
ATOM     92  C   UNL A   1      46.024  32.608  28.592  1.00  0.00     0.064 A 
ATOM     93  C   UNL A   1      45.894  33.633  27.642  1.00  0.00     0.173 A 
ATOM     94  C   UNL A   1      46.613  32.928  29.825  1.00  0.00     0.173 A 
ATOM     95  F   UNL A   1      45.352  33.377  26.442  1.00  0.00    -0.203 F 
ATOM     96  C   UNL A   1      46.361  34.918  27.907  1.00  0.00     0.198 A 
ATOM     97  C   UNL A   1      47.046  34.221  30.100  1.00  0.00     0.198 A 
ATOM     98  F   UNL A   1      46.754  31.988  30.771  1.00  0.00    -0.203 F 
ATOM     99  F   UNL A   1      46.276  35.867  26.965  1.00  0.00    -0.200 F 
ATOM    100  C   UNL A   1      46.929  35.213  29.138  1.00  0.00     0.200 A 
ATOM    101  F   UNL A   1      47.579  34.508  31.296  1.00  0.00    -0.200 F 
ATOM    102  F   UNL A   1      47.370  36.452  29.395  1.00  0.00    -0.200 F 
ENDBRANCH  69  92
ENDBRANCH  43  44
ENDBRANCH  35  38
ENDBRANCH  33  34
ENDBRANCH  32  33
ENDBRANCH  31  32
ENDBRANCH   3  31
TORSDOF 16
ENDMDL
MODEL 3
REMARK VINA RESULT:      -8.7      5.518     11.018
REMARK SMILES CCOC(=O)[C@H](c1ccccc1)N1C(=O)/C(=C/c2ccc(C(=O)NCCCNC(=O)c3ccc(-c4c5nc(c(-c6c(F)c(F)c(F)c(F)c6F)c6ccc([nH]6)c(-c6c(F)c(F)c(F)c(F)c6F)c6nc(c(-c7c(F)c(F)c(F)c(F)c7F)c7ccc4[nH]7)C=C6)C=C5)cc3)cc2)SC1=S
REMARK SMILES IDX 22 1 23 2 24 3 21 5 18 6 19 7 95 8 20 9 94 10 17 11 13 12
REMARK SMILES IDX 14 13 97 14 15 15 16 16 96 17 98 18 6 19 4 20 5 21 3 22 2 23
REMARK SMILES IDX 1 24 7 25 8 26 12 27 9 28 11 29 10 30 25 31 26 32 27 33
REMARK SMILES IDX 28 34 29 35 30 37 31 38 32 39 93 40 33 41 92 42 34 43 35 44
REMARK SMILES IDX 36 45 86 46 37 47 91 48 85 49 87 50 38 51 90 52 84 53 83 54
REMARK SMILES IDX 39 56 71 57 51 58 70 59 52 60 55 61 69 62 88 63 53 64 54 65
REMARK SMILES IDX 68 67 89 68 56 69 40 70 41 71 49 72 42 73 43 74 47 75 50 76
REMARK SMILES IDX 44 77 45 78 48 79 46 80 72 81 73 82 81 83 74 84 75 85 79 86
REMARK SMILES IDX 82 87 76 88 77 89 80 90 78 91 57 92 58 93 66 94 59 95 60 96
REMARK SMILES IDX 64 97 67 98 61 99 62 100 65 101 63 102
REMARK H PARENT 24 4 28 36 87 55 55 66
REMARK Flexibility Score: inf
ROOT
ATOM      1  C   UNL A   1      34.673  18.748  24.614  1.00  0.00     0.251 C 
ATOM      2  O   UNL A   1      34.035  17.808  24.141  1.00  0.00    -0.269 OA
ATOM      3  N   UNL A   1      36.043  18.673  24.577  1.00  0.00    -0.352 N 
ATOM      4  H   UNL A   1      36.387  17.822  24.221  1.00  0.00     0.163 HD
ENDROOT
BRANCH   1   5
ATOM      5  C   UNL A   1      33.937  19.927  25.146  1.00  0.00     0.039 A 
ATOM      6  C   UNL A   1      32.434  22.165  25.962  1.00  0.00    -0.024 A 
ATOM      7  C   UNL A   1      31.803  21.105  25.310  1.00  0.00     0.009 A 
ATOM      8  C   UNL A   1      33.798  22.068  26.269  1.00  0.00     0.009 A 
ATOM      9  C   UNL A   1      32.553  19.991  24.908  1.00  0.00     0.014 A 
ATOM     10  C   UNL A   1      34.537  20.949  25.881  1.00  0.00     0.014 A 
BRANCH   6  11
ATOM     11  C   UNL A   1      31.764  23.448  26.208  1.00  0.00     0.029 C 
ATOM     12  N   UNL A   1      31.544  26.610  24.391  1.00  0.00    -0.274 N 
ATOM     13  C   UNL A   1      31.347  25.824  25.525  1.00  0.00     0.267 C 
ATOM     14  C   UNL A   1      32.375  26.000  23.467  1.00  0.00     0.149 C 
ATOM     15  O   UNL A   1      31.034  26.235  26.640  1.00  0.00    -0.268 OA
ATOM     16  C   UNL A   1      31.734  24.409  25.271  1.00  0.00     0.081 C 
ATOM     17  S   UNL A   1      32.284  24.256  23.657  1.00  0.00    -0.054 SA
ATOM     18  S   UNL A   1      33.476  26.589  22.361  1.00  0.00    -0.052 S 
BRANCH  12  19
ATOM     19  C   UNL A   1      31.111  28.043  24.473  1.00  0.00     0.232 C 
BRANCH  19  20
ATOM     20  C   UNL A   1      30.884  28.761  23.093  1.00  0.00     0.333 C 
ATOM     21  O   UNL A   1      31.760  29.387  22.502  1.00  0.00    -0.249 OA
BRANCH  20  22
ATOM     22  O   UNL A   1      29.599  28.697  22.652  1.00  0.00    -0.464 OA
BRANCH  22  23
ATOM     23  C   UNL A   1      28.940  29.932  22.312  1.00  0.00     0.229 C 
ATOM     24  C   UNL A   1      28.718  30.881  23.484  1.00  0.00     0.049 C 
ENDBRANCH  22  23
ENDBRANCH  20  22
ENDBRANCH  19  20
BRANCH  19  25
ATOM     25  C   UNL A   1      32.002  28.951  25.317  1.00  0.00    -0.014 A 
ATOM     26  C   UNL A   1      33.338  28.598  25.596  1.00  0.00     0.006 A 
ATOM     27  C   UNL A   1      31.492  30.145  25.856  1.00  0.00     0.006 A 
ATOM     28  C   UNL A   1      34.117  29.386  26.443  1.00  0.00     0.000 A 
ATOM     29  C   UNL A   1      32.279  30.931  26.700  1.00  0.00     0.000 A 
ATOM     30  C   UNL A   1      33.584  30.544  27.003  1.00  0.00     0.000 A 
ENDBRANCH  19  25
ENDBRANCH  12  19
ENDBRANCH   6  11
ENDBRANCH   1   5
BRANCH   3  31
ATOM     31  C   UNL A   1      37.084  19.611  24.963  1.00  0.00     0.118 C 
BRANCH  31  32
ATOM     32  C   UNL A   1      38.229  18.900  25.687  1.00  0.00     0.042 C 
BRANCH  32  33
ATOM     33  C   UNL A   1      39.540  19.683  25.670  1.00  0.00     0.118 C 
BRANCH  33  34
ATOM     34  N   UNL A   1      40.694  18.824  25.894  1.00  0.00    -0.352 N 
ATOM     35  C   UNL A   1      42.011  19.144  26.102  1.00  0.00     0.251 C 
ATOM     36  H   UNL A   1      40.497  17.859  25.898  1.00  0.00     0.163 HD
ATOM     37  O   UNL A   1      42.863  18.262  26.045  1.00  0.00    -0.269 OA
BRANCH  35  38
ATOM     38  C   UNL A   1      42.421  20.539  26.381  1.00  0.00     0.039 A 
ATOM     39  C   UNL A   1      42.801  21.352  25.310  1.00  0.00     0.014 A 
ATOM     40  C   UNL A   1      42.485  21.032  27.687  1.00  0.00     0.014 A 
ATOM     41  C   UNL A   1      43.190  22.674  25.540  1.00  0.00     0.010 A 
ATOM     42  C   UNL A   1      42.804  22.371  27.910  1.00  0.00     0.010 A 
ATOM     43  C   UNL A   1      43.162  23.205  26.840  1.00  0.00    -0.014 A 
BRANCH  43  44
ATOM     44  C   UNL A   1      43.491  24.632  27.091  1.00  0.00     0.031 A 
ATOM     45  C   UNL A   1      44.886  25.146  26.860  1.00  0.00     0.074 A 
ATOM     46  C   UNL A   1      42.545  25.450  27.593  1.00  0.00     0.049 A 
ATOM     47  N   UNL A   1      45.378  26.338  27.090  1.00  0.00    -0.248 NA
ATOM     48  C   UNL A   1      45.866  24.189  26.322  1.00  0.00     0.031 C 
ATOM     49  C   UNL A   1      41.170  25.056  27.909  1.00  0.00     0.029 A 
ATOM     50  N   UNL A   1      42.597  26.776  27.944  1.00  0.00    -0.354 N 
ATOM     51  C   UNL A   1      46.723  26.267  26.748  1.00  0.00     0.074 A 
ATOM     52  C   UNL A   1      46.982  24.906  26.331  1.00  0.00     0.031 C 
ATOM     53  C   UNL A   1      40.508  26.117  28.396  1.00  0.00     0.029 A 
ATOM     54  C   UNL A   1      41.419  27.255  28.469  1.00  0.00     0.049 A 
ATOM     55  H   UNL A   1      43.401  27.332  27.831  1.00  0.00     0.167 HD
ATOM     56  C   UNL A   1      47.650  27.254  26.767  1.00  0.00     0.037 A 
ATOM     57  C   UNL A   1      41.114  28.467  28.969  1.00  0.00     0.037 A 
ATOM     58  C   UNL A   1      47.377  28.614  27.150  1.00  0.00     0.049 A 
ATOM     59  C   UNL A   1      42.166  29.545  28.967  1.00  0.00     0.074 A 
ATOM     60  C   UNL A   1      48.228  29.706  27.117  1.00  0.00     0.029 A 
ATOM     61  N   UNL A   1      46.164  29.069  27.647  1.00  0.00    -0.354 N 
ATOM     62  N   UNL A   1      43.409  29.490  28.554  1.00  0.00    -0.248 NA
ATOM     63  C   UNL A   1      41.770  30.859  29.495  1.00  0.00     0.031 C 
ATOM     64  C   UNL A   1      47.551  30.806  27.650  1.00  0.00     0.029 A 
ATOM     65  C   UNL A   1      46.257  30.416  27.955  1.00  0.00     0.049 A 
ATOM     66  H   UNL A   1      45.357  28.516  27.762  1.00  0.00     0.167 HD
ATOM     67  C   UNL A   1      43.932  30.760  28.744  1.00  0.00     0.074 A 
ATOM     68  C   UNL A   1      42.866  31.574  29.290  1.00  0.00     0.031 C 
ATOM     69  C   UNL A   1      45.184  31.215  28.490  1.00  0.00     0.037 A 
BRANCH  56  70
ATOM     70  C   UNL A   1      49.056  26.912  26.365  1.00  0.00     0.064 A 
ATOM     71  C   UNL A   1      49.978  26.379  27.279  1.00  0.00     0.173 A 
ATOM     72  C   UNL A   1      49.461  27.043  25.027  1.00  0.00     0.173 A 
ATOM     73  F   UNL A   1      49.645  26.240  28.571  1.00  0.00    -0.203 F 
ATOM     74  C   UNL A   1      51.256  26.003  26.870  1.00  0.00     0.198 A 
ATOM     75  C   UNL A   1      50.728  26.638  24.618  1.00  0.00     0.198 A 
ATOM     76  F   UNL A   1      48.616  27.542  24.111  1.00  0.00    -0.203 F 
ATOM     77  F   UNL A   1      52.130  25.526  27.767  1.00  0.00    -0.200 F 
ATOM     78  C   UNL A   1      51.625  26.123  25.540  1.00  0.00     0.200 A 
ATOM     79  F   UNL A   1      51.078  26.741  23.327  1.00  0.00    -0.200 F 
ATOM     80  F   UNL A   1      52.849  25.742  25.146  1.00  0.00    -0.200 F 
ENDBRANCH  56  70
BRANCH  57  81
ATOM     81  C   UNL A   1      39.757  28.730  29.521  1.00  0.00     0.064 A 
ATOM     82  C   UNL A   1      39.433  28.388  30.841  1.00  0.00     0.173 A 
ATOM     83  C   UNL A   1      38.749  29.299  28.730  1.00  0.00     0.173 A 
ATOM     84  F   UNL A   1      40.356  27.824  31.633  1.00  0.00    -0.203 F 
ATOM     85  C   UNL A   1      38.143  28.571  31.337  1.00  0.00     0.198 A 
ATOM     86  C   UNL A   1      37.469  29.516  29.237  1.00  0.00     0.198 A 
ATOM     87  F   UNL A   1      39.006  29.653  27.462  1.00  0.00    -0.203 F 
ATOM     88  F   UNL A   1      37.844  28.176  32.581  1.00  0.00    -0.200 F 
ATOM     89  C   UNL A   1      37.163  29.138  30.536  1.00  0.00     0.200 A 
ATOM     90  F   UNL A   1      36.531  30.081  28.466  1.00  0.00    -0.200 F 
ATOM     91  F   UNL A   1      35.923  29.312  31.012  1.00  0.00    -0.200 F 
ENDBRANCH  57  81
BRANCH  69  92
ATOM     92  C   UNL A   1      45.461  32.665  28.766  1.00  0.00     0.064 A 
ATOM     93  C   UNL A   1      45.214  33.659  27.807  1.00  0.00     0.173 A 
ATOM     94  C   UNL A   1      45.943  33.069  30.020  1.00  0.00     0.173 A 
ATOM     95  F   UNL A   1      44.767  33.325  26.587  1.00  0.00    -0.203 F 
ATOM     96  C   UNL A   1      45.468  35.000  28.084  1.00  0.00     0.198 A 
ATOM     97  C   UNL A   1      46.162  34.413  30.306  1.00  0.00     0.198 A 
ATOM     98  F   UNL A   1      46.188  32.160  30.975  1.00  0.00    -0.203 F 
ATOM     99  F   UNL A   1      45.276  35.926  27.135  1.00  0.00    -0.200 F 
ATOM    100  C   UNL A   1      45.933  35.376  29.336  1.00  0.00     0.200 A 
ATOM    101  F   UNL A   1      46.595  34.776  31.521  1.00  0.00    -0.200 F 
ATOM    102  F   UNL A   1      46.168  36.668  29.604  1.00  0.00    -0.200 F 
ENDBRANCH  69  92
ENDBRANCH  43  44
ENDBRANCH  35  38
ENDBRANCH  33  34
ENDBRANCH  32  33
ENDBRANCH  31  32
ENDBRANCH   3  31
TORSDOF 16
ENDMDL
