MODEL 1
REMARK VINA RESULT:     -12.0      0.000      0.000
REMARK SMILES Cc1cc(Oc2ccnc(C(=O)NCCCNC(=O)c3ccc(-c4c5nc(c(-c6c(F)c(F)c(F)c(F)c6F)c6ccc([nH]6)c(-c6c(F)c(F)c(F)c(F)c6F)c6nc(c(-c7c(F)c(F)c(F)c(F)c7F)c7ccc4[nH]7)C=C6)C=C5)cc3)c2)cc(C)c1Cl
REMARK SMILES IDX 15 1 14 2 13 3 11 4 12 5 10 7 6 8 7 9 83 10 8 11 9 12 5 13
REMARK SMILES IDX 4 14 1 15 2 16 3 17 87 18 85 19 88 20 84 21 86 22 16 23
REMARK SMILES IDX 17 24 18 25 19 27 20 28 21 29 82 30 22 31 81 32 23 33 24 34
REMARK SMILES IDX 25 35 75 36 26 37 80 38 74 39 76 40 27 41 79 42 73 43 72 44
REMARK SMILES IDX 28 46 60 47 40 48 59 49 41 50 44 51 58 52 77 53 42 54 43 55
REMARK SMILES IDX 57 57 78 58 45 59 29 60 30 61 38 62 31 63 32 64 36 65 39 66
REMARK SMILES IDX 33 67 34 68 37 69 35 70 61 71 62 72 70 73 63 74 64 75 68 76
REMARK SMILES IDX 71 77 65 78 66 79 69 80 67 81 46 82 47 83 55 84 48 85 49 86
REMARK SMILES IDX 53 87 56 88 50 89 51 90 54 91 52 92
REMARK H PARENT 13 6 17 26 76 45 44 56
REMARK Flexibility Score: inf
ROOT
ATOM      1  C   UNL A   1      35.272  33.527  27.994  1.00  0.00     0.042 C 
ENDROOT
BRANCH   1   2
ATOM      2  C   UNL A   1      35.237  35.001  28.403  1.00  0.00     0.118 C 
BRANCH   2   3
ATOM      3  N   UNL A   1      33.893  35.535  28.297  1.00  0.00    -0.351 N 
ATOM      4  C   UNL A   1      33.019  36.090  29.205  1.00  0.00     0.270 C 
ATOM      5  O   UNL A   1      31.931  36.452  28.751  1.00  0.00    -0.268 OA
ATOM      6  H   UNL A   1      33.528  35.492  27.383  1.00  0.00     0.163 HD
BRANCH   4   7
ATOM      7  C   UNL A   1      33.330  36.299  30.663  1.00  0.00     0.131 A 
ATOM      8  C   UNL A   1      33.968  35.626  32.855  1.00  0.00     0.131 A 
ATOM      9  C   UNL A   1      33.960  36.951  33.269  1.00  0.00     0.067 A 
ATOM     10  C   UNL A   1      33.633  35.280  31.549  1.00  0.00     0.081 A 
ATOM     11  C   UNL A   1      33.581  37.896  32.341  1.00  0.00     0.116 A 
ATOM     12  N   UNL A   1      33.278  37.602  31.060  1.00  0.00    -0.251 NA
BRANCH   8  13
ATOM     13  O   UNL A   1      34.427  34.643  33.692  1.00  0.00    -0.457 OA
BRANCH  13  14
ATOM     14  C   UNL A   1      35.776  34.369  33.718  1.00  0.00     0.128 A 
ATOM     15  C   UNL A   1      38.951  34.443  31.637  1.00  0.00     0.046 C 
ATOM     16  C   UNL A   1      38.027  34.234  32.807  1.00  0.00    -0.028 A 
ATOM     17  C   UNL A   1      36.671  34.578  32.669  1.00  0.00     0.052 A 
ATOM     18  C   UNL A   1      38.477  33.685  34.023  1.00  0.00     0.047 A 
ATOM     19  C   UNL A   1      37.586  33.487  35.094  1.00  0.00    -0.028 A 
ATOM     20  Cl  UNL A   1      40.146  33.243  34.203  1.00  0.00    -0.084 Cl
ATOM     21  C   UNL A   1      36.237  33.826  34.920  1.00  0.00     0.052 A 
ATOM     22  C   UNL A   1      38.028  32.907  36.410  1.00  0.00     0.046 C 
ENDBRANCH  13  14
ENDBRANCH   8  13
ENDBRANCH   4   7
ENDBRANCH   2   3
ENDBRANCH   1   2
BRANCH   1  23
ATOM     23  C   UNL A   1      34.662  32.597  29.044  1.00  0.00     0.118 C 
BRANCH  23  24
ATOM     24  N   UNL A   1      34.011  31.445  28.435  1.00  0.00    -0.352 N 
ATOM     25  C   UNL A   1      34.541  30.270  27.963  1.00  0.00     0.251 C 
ATOM     26  H   UNL A   1      33.034  31.522  28.347  1.00  0.00     0.163 HD
ATOM     27  O   UNL A   1      33.849  29.532  27.269  1.00  0.00    -0.269 OA
BRANCH  25  28
ATOM     28  C   UNL A   1      35.934  29.882  28.276  1.00  0.00     0.039 A 
ATOM     29  C   UNL A   1      36.907  30.011  27.278  1.00  0.00     0.014 A 
ATOM     30  C   UNL A   1      36.276  29.328  29.513  1.00  0.00     0.014 A 
ATOM     31  C   UNL A   1      38.226  29.631  27.535  1.00  0.00     0.010 A 
ATOM     32  C   UNL A   1      37.604  29.008  29.790  1.00  0.00     0.010 A 
ATOM     33  C   UNL A   1      38.592  29.151  28.802  1.00  0.00    -0.014 A 
BRANCH  33  34
ATOM     34  C   UNL A   1      39.999  28.793  29.114  1.00  0.00     0.031 A 
ATOM     35  C   UNL A   1      40.889  29.772  29.829  1.00  0.00     0.074 A 
ATOM     36  C   UNL A   1      40.494  27.616  28.687  1.00  0.00     0.049 A 
ATOM     37  N   UNL A   1      42.167  29.682  30.103  1.00  0.00    -0.248 NA
ATOM     38  C   UNL A   1      40.267  31.030  30.272  1.00  0.00     0.031 C 
ATOM     39  C   UNL A   1      39.743  26.604  27.944  1.00  0.00     0.029 A 
ATOM     40  N   UNL A   1      41.753  27.078  28.800  1.00  0.00    -0.354 N 
ATOM     41  C   UNL A   1      42.504  30.877  30.727  1.00  0.00     0.074 A 
ATOM     42  C   UNL A   1      41.309  31.692  30.757  1.00  0.00     0.031 C 
ATOM     43  C   UNL A   1      40.551  25.565  27.675  1.00  0.00     0.029 A 
ATOM     44  C   UNL A   1      41.884  25.853  28.195  1.00  0.00     0.049 A 
ATOM     45  H   UNL A   1      42.491  27.530  29.270  1.00  0.00     0.167 HD
ATOM     46  C   UNL A   1      43.700  31.251  31.242  1.00  0.00     0.037 A 
ATOM     47  C   UNL A   1      42.963  25.057  28.060  1.00  0.00     0.037 A 
ATOM     48  C   UNL A   1      44.877  30.423  31.243  1.00  0.00     0.049 A 
ATOM     49  C   UNL A   1      44.273  25.492  28.657  1.00  0.00     0.074 A 
ATOM     50  C   UNL A   1      46.115  30.682  31.805  1.00  0.00     0.029 A 
ATOM     51  N   UNL A   1      44.961  29.170  30.652  1.00  0.00    -0.354 N 
ATOM     52  N   UNL A   1      44.563  26.594  29.305  1.00  0.00    -0.248 NA
ATOM     53  C   UNL A   1      45.407  24.568  28.510  1.00  0.00     0.031 C 
ATOM     54  C   UNL A   1      46.961  29.606  31.519  1.00  0.00     0.029 A 
ATOM     55  C   UNL A   1      46.236  28.655  30.819  1.00  0.00     0.049 A 
ATOM     56  H   UNL A   1      44.224  28.717  30.184  1.00  0.00     0.167 HD
ATOM     57  C   UNL A   1      45.899  26.486  29.665  1.00  0.00     0.074 A 
ATOM     58  C   UNL A   1      46.360  25.203  29.177  1.00  0.00     0.031 C 
ATOM     59  C   UNL A   1      46.675  27.371  30.337  1.00  0.00     0.037 A 
BRANCH  46  60
ATOM     60  C   UNL A   1      43.799  32.618  31.857  1.00  0.00     0.064 A 
ATOM     61  C   UNL A   1      43.576  32.826  33.226  1.00  0.00     0.173 A 
ATOM     62  C   UNL A   1      44.175  33.722  31.078  1.00  0.00     0.173 A 
ATOM     63  F   UNL A   1      43.205  31.805  34.014  1.00  0.00    -0.203 F 
ATOM     64  C   UNL A   1      43.702  34.094  33.788  1.00  0.00     0.198 A 
ATOM     65  C   UNL A   1      44.329  34.983  31.648  1.00  0.00     0.198 A 
ATOM     66  F   UNL A   1      44.408  33.576  29.765  1.00  0.00    -0.203 F 
ATOM     67  F   UNL A   1      43.444  34.277  35.090  1.00  0.00    -0.200 F 
ATOM     68  C   UNL A   1      44.087  35.170  33.000  1.00  0.00     0.200 A 
ATOM     69  F   UNL A   1      44.712  36.019  30.888  1.00  0.00    -0.200 F 
ATOM     70  F   UNL A   1      44.218  36.387  33.545  1.00  0.00    -0.200 F 
ENDBRANCH  46  60
BRANCH  47  71
ATOM     71  C   UNL A   1      42.845  23.761  27.345  1.00  0.00     0.064 A 
ATOM     72  C   UNL A   1      42.362  22.619  28.000  1.00  0.00     0.173 A 
ATOM     73  C   UNL A   1      43.218  23.633  25.999  1.00  0.00     0.173 A 
ATOM     74  F   UNL A   1      42.012  22.687  29.292  1.00  0.00    -0.203 F 
ATOM     75  C   UNL A   1      42.279  21.393  27.342  1.00  0.00     0.198 A 
ATOM     76  C   UNL A   1      43.107  22.414  25.334  1.00  0.00     0.198 A 
ATOM     77  F   UNL A   1      43.679  24.698  25.326  1.00  0.00    -0.203 F 
ATOM     78  F   UNL A   1      41.859  20.307  28.004  1.00  0.00    -0.200 F 
ATOM     79  C   UNL A   1      42.647  21.293  26.008  1.00  0.00     0.200 A 
ATOM     80  F   UNL A   1      43.450  22.325  24.042  1.00  0.00    -0.200 F 
ATOM     81  F   UNL A   1      42.564  20.115  25.375  1.00  0.00    -0.200 F 
ENDBRANCH  47  71
BRANCH  59  82
ATOM     82  C   UNL A   1      48.092  26.967  30.616  1.00  0.00     0.064 A 
ATOM     83  C   UNL A   1      48.427  26.185  31.731  1.00  0.00     0.173 A 
ATOM     84  C   UNL A   1      49.121  27.334  29.735  1.00  0.00     0.173 A 
ATOM     85  F   UNL A   1      47.482  25.823  32.611  1.00  0.00    -0.203 F 
ATOM     86  C   UNL A   1      49.746  25.803  31.966  1.00  0.00     0.198 A 
ATOM     87  C   UNL A   1      50.433  26.926  29.958  1.00  0.00     0.198 A 
ATOM     88  F   UNL A   1      48.851  28.077  28.652  1.00  0.00    -0.203 F 
ATOM     89  F   UNL A   1      50.050  25.092  33.060  1.00  0.00    -0.200 F 
ATOM     90  C   UNL A   1      50.745  26.167  31.075  1.00  0.00     0.200 A 
ATOM     91  F   UNL A   1      51.396  27.269  29.091  1.00  0.00    -0.200 F 
ATOM     92  F   UNL A   1      52.012  25.792  31.299  1.00  0.00    -0.200 F 
ENDBRANCH  59  82
ENDBRANCH  33  34
ENDBRANCH  25  28
ENDBRANCH  23  24
ENDBRANCH   1  23
TORSDOF 12
ENDMDL
MODEL 2
REMARK VINA RESULT:     -12.0      4.191     12.119
REMARK SMILES Cc1cc(Oc2ccnc(C(=O)NCCCNC(=O)c3ccc(-c4c5nc(c(-c6c(F)c(F)c(F)c(F)c6F)c6ccc([nH]6)c(-c6c(F)c(F)c(F)c(F)c6F)c6nc(c(-c7c(F)c(F)c(F)c(F)c7F)c7ccc4[nH]7)C=C6)C=C5)cc3)c2)cc(C)c1Cl
REMARK SMILES IDX 15 1 14 2 13 3 11 4 12 5 10 7 6 8 7 9 83 10 8 11 9 12 5 13
REMARK SMILES IDX 4 14 1 15 2 16 3 17 87 18 85 19 88 20 84 21 86 22 16 23
REMARK SMILES IDX 17 24 18 25 19 27 20 28 21 29 82 30 22 31 81 32 23 33 24 34
REMARK SMILES IDX 25 35 75 36 26 37 80 38 74 39 76 40 27 41 79 42 73 43 72 44
REMARK SMILES IDX 28 46 60 47 40 48 59 49 41 50 44 51 58 52 77 53 42 54 43 55
REMARK SMILES IDX 57 57 78 58 45 59 29 60 30 61 38 62 31 63 32 64 36 65 39 66
REMARK SMILES IDX 33 67 34 68 37 69 35 70 61 71 62 72 70 73 63 74 64 75 68 76
REMARK SMILES IDX 71 77 65 78 66 79 69 80 67 81 46 82 47 83 55 84 48 85 49 86
REMARK SMILES IDX 53 87 56 88 50 89 51 90 54 91 52 92
REMARK H PARENT 13 6 17 26 76 45 44 56
REMARK Flexibility Score: inf
ROOT
ATOM      1  C   UNL A   1      40.780  21.124  27.620  1.00  0.00     0.042 C 
ENDROOT
BRANCH   1   2
ATOM      2  C   UNL A   1      41.989  20.227  27.894  1.00  0.00     0.118 C 
BRANCH   2   3
ATOM      3  N   UNL A   1      41.892  18.987  27.146  1.00  0.00    -0.351 N 
ATOM      4  C   UNL A   1      42.666  18.408  26.166  1.00  0.00     0.270 C 
ATOM      5  O   UNL A   1      42.277  17.314  25.751  1.00  0.00    -0.268 OA
ATOM      6  H   UNL A   1      41.107  18.445  27.392  1.00  0.00     0.163 HD
BRANCH   4   7
ATOM      7  C   UNL A   1      43.935  19.009  25.622  1.00  0.00     0.131 A 
ATOM      8  C   UNL A   1      45.272  20.719  24.645  1.00  0.00     0.131 A 
ATOM      9  C   UNL A   1      46.401  19.925  24.788  1.00  0.00     0.067 A 
ATOM     10  C   UNL A   1      44.018  20.263  25.044  1.00  0.00     0.081 A 
ATOM     11  C   UNL A   1      46.219  18.663  25.312  1.00  0.00     0.116 A 
ATOM     12  N   UNL A   1      45.025  18.198  25.734  1.00  0.00    -0.251 NA
BRANCH   8  13
ATOM     13  O   UNL A   1      45.389  22.018  24.225  1.00  0.00    -0.457 OA
BRANCH  13  14
ATOM     14  C   UNL A   1      45.814  22.971  25.123  1.00  0.00     0.128 A 
ATOM     15  C   UNL A   1      48.183  25.903  25.577  1.00  0.00     0.046 C 
ATOM     16  C   UNL A   1      47.133  24.869  25.881  1.00  0.00    -0.028 A 
ATOM     17  C   UNL A   1      46.760  23.965  24.872  1.00  0.00     0.052 A 
ATOM     18  C   UNL A   1      46.530  24.770  27.150  1.00  0.00     0.047 A 
ATOM     19  C   UNL A   1      45.561  23.783  27.409  1.00  0.00    -0.028 A 
ATOM     20  Cl  UNL A   1      46.990  25.871  28.410  1.00  0.00    -0.084 Cl
ATOM     21  C   UNL A   1      45.222  22.886  26.385  1.00  0.00     0.052 A 
ATOM     22  C   UNL A   1      44.891  23.646  28.749  1.00  0.00     0.046 C 
ENDBRANCH  13  14
ENDBRANCH   8  13
ENDBRANCH   4   7
ENDBRANCH   2   3
ENDBRANCH   1   2
BRANCH   1  23
ATOM     23  C   UNL A   1      40.910  21.933  26.329  1.00  0.00     0.118 C 
BRANCH  23  24
ATOM     24  N   UNL A   1      39.610  22.250  25.755  1.00  0.00    -0.352 N 
ATOM     25  C   UNL A   1      38.756  23.294  26.007  1.00  0.00     0.251 C 
ATOM     26  H   UNL A   1      39.292  21.612  25.076  1.00  0.00     0.163 HD
ATOM     27  O   UNL A   1      37.603  23.246  25.590  1.00  0.00    -0.269 OA
BRANCH  25  28
ATOM     28  C   UNL A   1      39.204  24.476  26.777  1.00  0.00     0.039 A 
ATOM     29  C   UNL A   1      39.990  25.439  26.133  1.00  0.00     0.014 A 
ATOM     30  C   UNL A   1      38.920  24.609  28.139  1.00  0.00     0.014 A 
ATOM     31  C   UNL A   1      40.447  26.553  26.838  1.00  0.00     0.010 A 
ATOM     32  C   UNL A   1      39.323  25.752  28.827  1.00  0.00     0.010 A 
ATOM     33  C   UNL A   1      40.095  26.734  28.186  1.00  0.00    -0.014 A 
BRANCH  33  34
ATOM     34  C   UNL A   1      40.525  27.938  28.939  1.00  0.00     0.031 A 
ATOM     35  C   UNL A   1      41.911  28.014  29.519  1.00  0.00     0.074 A 
ATOM     36  C   UNL A   1      39.644  28.932  29.163  1.00  0.00     0.049 A 
ATOM     37  N   UNL A   1      42.438  28.936  30.287  1.00  0.00    -0.248 NA
ATOM     38  C   UNL A   1      42.816  26.894  29.219  1.00  0.00     0.031 C 
ATOM     39  C   UNL A   1      38.259  28.953  28.691  1.00  0.00     0.029 A 
ATOM     40  N   UNL A   1      39.775  30.108  29.859  1.00  0.00    -0.354 N 
ATOM     41  C   UNL A   1      43.723  28.495  30.578  1.00  0.00     0.074 A 
ATOM     42  C   UNL A   1      43.885  27.207  29.939  1.00  0.00     0.031 C 
ATOM     43  C   UNL A   1      37.671  30.088  29.103  1.00  0.00     0.029 A 
ATOM     44  C   UNL A   1      38.624  30.856  29.896  1.00  0.00     0.049 A 
ATOM     45  H   UNL A   1      40.615  30.387  30.291  1.00  0.00     0.167 HD
ATOM     46  C   UNL A   1      44.685  29.118  31.301  1.00  0.00     0.037 A 
ATOM     47  C   UNL A   1      38.363  32.024  30.515  1.00  0.00     0.037 A 
ATOM     48  C   UNL A   1      44.533  30.416  31.904  1.00  0.00     0.049 A 
ATOM     49  C   UNL A   1      39.455  32.700  31.296  1.00  0.00     0.074 A 
ATOM     50  C   UNL A   1      45.472  31.163  32.593  1.00  0.00     0.029 A 
ATOM     51  N   UNL A   1      43.362  31.161  31.889  1.00  0.00    -0.354 N 
ATOM     52  N   UNL A   1      40.688  32.306  31.508  1.00  0.00    -0.248 NA
ATOM     53  C   UNL A   1      39.124  33.989  31.921  1.00  0.00     0.031 C 
ATOM     54  C   UNL A   1      44.859  32.341  33.031  1.00  0.00     0.029 A 
ATOM     55  C   UNL A   1      43.551  32.350  32.575  1.00  0.00     0.049 A 
ATOM     56  H   UNL A   1      42.523  30.884  31.456  1.00  0.00     0.167 HD
ATOM     57  C   UNL A   1      41.285  33.306  32.263  1.00  0.00     0.074 A 
ATOM     58  C   UNL A   1      40.284  34.334  32.461  1.00  0.00     0.031 C 
ATOM     59  C   UNL A   1      42.547  33.367  32.752  1.00  0.00     0.037 A 
BRANCH  46  60
ATOM     60  C   UNL A   1      45.997  28.408  31.477  1.00  0.00     0.064 A 
ATOM     61  C   UNL A   1      46.163  27.397  32.433  1.00  0.00     0.173 A 
ATOM     62  C   UNL A   1      47.084  28.707  30.642  1.00  0.00     0.173 A 
ATOM     63  F   UNL A   1      45.158  27.079  33.264  1.00  0.00    -0.203 F 
ATOM     64  C   UNL A   1      47.376  26.726  32.564  1.00  0.00     0.198 A 
ATOM     65  C   UNL A   1      48.287  28.014  30.755  1.00  0.00     0.198 A 
ATOM     66  F   UNL A   1      46.975  29.661  29.705  1.00  0.00    -0.203 F 
ATOM     67  F   UNL A   1      47.525  25.791  33.513  1.00  0.00    -0.200 F 
ATOM     68  C   UNL A   1      48.434  27.029  31.720  1.00  0.00     0.200 A 
ATOM     69  F   UNL A   1      49.304  28.301  29.930  1.00  0.00    -0.200 F 
ATOM     70  F   UNL A   1      49.598  26.376  31.840  1.00  0.00    -0.200 F 
ENDBRANCH  46  60
BRANCH  47  71
ATOM     71  C   UNL A   1      37.014  32.636  30.406  1.00  0.00     0.064 A 
ATOM     72  C   UNL A   1      36.683  33.462  29.322  1.00  0.00     0.173 A 
ATOM     73  C   UNL A   1      36.032  32.417  31.383  1.00  0.00     0.173 A 
ATOM     74  F   UNL A   1      37.596  33.716  28.372  1.00  0.00    -0.203 F 
ATOM     75  C   UNL A   1      35.430  34.063  29.231  1.00  0.00     0.198 A 
ATOM     76  C   UNL A   1      34.769  32.997  31.277  1.00  0.00     0.198 A 
ATOM     77  F   UNL A   1      36.296  31.631  32.437  1.00  0.00    -0.203 F 
ATOM     78  F   UNL A   1      35.157  34.885  28.209  1.00  0.00    -0.200 F 
ATOM     79  C   UNL A   1      34.472  33.826  30.206  1.00  0.00     0.200 A 
ATOM     80  F   UNL A   1      33.842  32.754  32.213  1.00  0.00    -0.200 F 
ATOM     81  F   UNL A   1      33.266  34.403  30.117  1.00  0.00    -0.200 F 
ENDBRANCH  47  71
BRANCH  59  82
ATOM     82  C   UNL A   1      42.930  34.599  33.516  1.00  0.00     0.064 A 
ATOM     83  C   UNL A   1      43.341  35.770  32.864  1.00  0.00     0.173 A 
ATOM     84  C   UNL A   1      42.843  34.621  34.917  1.00  0.00     0.173 A 
ATOM     85  F   UNL A   1      43.456  35.794  31.527  1.00  0.00    -0.203 F 
ATOM     86  C   UNL A   1      43.675  36.912  33.587  1.00  0.00     0.198 A 
ATOM     87  C   UNL A   1      43.150  35.774  35.635  1.00  0.00     0.198 A 
ATOM     88  F   UNL A   1      42.449  33.528  35.587  1.00  0.00    -0.203 F 
ATOM     89  F   UNL A   1      44.108  38.006  32.946  1.00  0.00    -0.200 F 
ATOM     90  C   UNL A   1      43.570  36.915  34.970  1.00  0.00     0.200 A 
ATOM     91  F   UNL A   1      43.037  35.778  36.970  1.00  0.00    -0.200 F 
ATOM     92  F   UNL A   1      43.885  38.017  35.664  1.00  0.00    -0.200 F 
ENDBRANCH  59  82
ENDBRANCH  33  34
ENDBRANCH  25  28
ENDBRANCH  23  24
ENDBRANCH   1  23
TORSDOF 12
ENDMDL
MODEL 3
REMARK VINA RESULT:     -11.9      4.330     10.343
REMARK SMILES Cc1cc(Oc2ccnc(C(=O)NCCCNC(=O)c3ccc(-c4c5nc(c(-c6c(F)c(F)c(F)c(F)c6F)c6ccc([nH]6)c(-c6c(F)c(F)c(F)c(F)c6F)c6nc(c(-c7c(F)c(F)c(F)c(F)c7F)c7ccc4[nH]7)C=C6)C=C5)cc3)c2)cc(C)c1Cl
REMARK SMILES IDX 15 1 14 2 13 3 11 4 12 5 10 7 6 8 7 9 83 10 8 11 9 12 5 13
REMARK SMILES IDX 4 14 1 15 2 16 3 17 87 18 85 19 88 20 84 21 86 22 16 23
REMARK SMILES IDX 17 24 18 25 19 27 20 28 21 29 82 30 22 31 81 32 23 33 24 34
REMARK SMILES IDX 25 35 75 36 26 37 80 38 74 39 76 40 27 41 79 42 73 43 72 44
REMARK SMILES IDX 28 46 60 47 40 48 59 49 41 50 44 51 58 52 77 53 42 54 43 55
REMARK SMILES IDX 57 57 78 58 45 59 29 60 30 61 38 62 31 63 32 64 36 65 39 66
REMARK SMILES IDX 33 67 34 68 37 69 35 70 61 71 62 72 70 73 63 74 64 75 68 76
REMARK SMILES IDX 71 77 65 78 66 79 69 80 67 81 46 82 47 83 55 84 48 85 49 86
REMARK SMILES IDX 53 87 56 88 50 89 51 90 54 91 52 92
REMARK H PARENT 13 6 17 26 76 45 44 56
REMARK Flexibility Score: inf
ROOT
ATOM      1  C   UNL A   1      32.066  28.157  25.442  1.00  0.00     0.042 C 
ENDROOT
BRANCH   1   2
ATOM      2  C   UNL A   1      31.534  28.064  24.010  1.00  0.00     0.118 C 
BRANCH   2   3
ATOM      3  N   UNL A   1      32.582  28.356  23.050  1.00  0.00    -0.351 N 
ATOM      4  C   UNL A   1      33.490  27.574  22.371  1.00  0.00     0.270 C 
ATOM      5  O   UNL A   1      34.250  28.175  21.608  1.00  0.00    -0.268 OA
ATOM      6  H   UNL A   1      32.661  29.315  22.840  1.00  0.00     0.163 HD
BRANCH   4   7
ATOM      7  C   UNL A   1      33.572  26.075  22.486  1.00  0.00     0.131 A 
ATOM      8  C   UNL A   1      33.920  24.010  23.617  1.00  0.00     0.131 A 
ATOM      9  C   UNL A   1      33.550  23.316  22.473  1.00  0.00     0.067 A 
ATOM     10  C   UNL A   1      33.955  25.402  23.632  1.00  0.00     0.081 A 
ATOM     11  C   UNL A   1      33.249  24.063  21.355  1.00  0.00     0.116 A 
ATOM     12  N   UNL A   1      33.244  25.412  21.341  1.00  0.00    -0.251 NA
BRANCH   8  13
ATOM     13  O   UNL A   1      34.137  23.340  24.792  1.00  0.00    -0.457 OA
BRANCH  13  14
ATOM     14  C   UNL A   1      35.425  22.991  25.130  1.00  0.00     0.128 A 
ATOM     15  C   UNL A   1      38.693  24.337  26.516  1.00  0.00     0.046 C 
ATOM     16  C   UNL A   1      37.680  23.375  25.958  1.00  0.00    -0.028 A 
ATOM     17  C   UNL A   1      36.384  23.842  25.678  1.00  0.00     0.052 A 
ATOM     18  C   UNL A   1      37.998  22.029  25.690  1.00  0.00     0.047 A 
ATOM     19  C   UNL A   1      37.033  21.157  25.155  1.00  0.00    -0.028 A 
ATOM     20  Cl  UNL A   1      39.598  21.441  26.018  1.00  0.00    -0.084 Cl
ATOM     21  C   UNL A   1      35.754  21.658  24.872  1.00  0.00     0.052 A 
ATOM     22  C   UNL A   1      37.332  19.713  24.858  1.00  0.00     0.046 C 
ENDBRANCH  13  14
ENDBRANCH   8  13
ENDBRANCH   4   7
ENDBRANCH   2   3
ENDBRANCH   1   2
BRANCH   1  23
ATOM     23  C   UNL A   1      33.249  29.115  25.584  1.00  0.00     0.118 C 
BRANCH  23  24
ATOM     24  N   UNL A   1      32.818  30.458  25.946  1.00  0.00    -0.352 N 
ATOM     25  C   UNL A   1      33.250  31.293  26.947  1.00  0.00     0.251 C 
ATOM     26  H   UNL A   1      32.100  30.827  25.383  1.00  0.00     0.163 HD
ATOM     27  O   UNL A   1      32.589  32.287  27.231  1.00  0.00    -0.269 OA
BRANCH  25  28
ATOM     28  C   UNL A   1      34.499  31.010  27.689  1.00  0.00     0.039 A 
ATOM     29  C   UNL A   1      35.452  32.028  27.811  1.00  0.00     0.014 A 
ATOM     30  C   UNL A   1      34.770  29.738  28.200  1.00  0.00     0.014 A 
ATOM     31  C   UNL A   1      36.650  31.785  28.486  1.00  0.00     0.010 A 
ATOM     32  C   UNL A   1      35.938  29.514  28.928  1.00  0.00     0.010 A 
ATOM     33  C   UNL A   1      36.893  30.533  29.074  1.00  0.00    -0.014 A 
BRANCH  33  34
ATOM     34  C   UNL A   1      38.136  30.271  29.841  1.00  0.00     0.031 A 
ATOM     35  C   UNL A   1      39.211  29.391  29.265  1.00  0.00     0.074 A 
ATOM     36  C   UNL A   1      38.264  30.767  31.087  1.00  0.00     0.049 A 
ATOM     37  N   UNL A   1      40.320  28.967  29.819  1.00  0.00    -0.248 NA
ATOM     38  C   UNL A   1      38.999  28.900  27.894  1.00  0.00     0.031 C 
ATOM     39  C   UNL A   1      37.271  31.595  31.772  1.00  0.00     0.029 A 
ATOM     40  N   UNL A   1      39.274  30.631  32.007  1.00  0.00    -0.354 N 
ATOM     41  C   UNL A   1      40.923  28.145  28.876  1.00  0.00     0.074 A 
ATOM     42  C   UNL A   1      40.041  28.096  27.730  1.00  0.00     0.031 C 
ATOM     43  C   UNL A   1      37.723  31.902  32.998  1.00  0.00     0.029 A 
ATOM     44  C   UNL A   1      39.020  31.263  33.200  1.00  0.00     0.049 A 
ATOM     45  H   UNL A   1      40.101  30.128  31.829  1.00  0.00     0.167 HD
ATOM     46  C   UNL A   1      42.113  27.503  28.955  1.00  0.00     0.037 A 
ATOM     47  C   UNL A   1      39.745  31.308  34.334  1.00  0.00     0.037 A 
ATOM     48  C   UNL A   1      43.005  27.584  30.082  1.00  0.00     0.049 A 
ATOM     49  C   UNL A   1      41.070  30.599  34.387  1.00  0.00     0.074 A 
ATOM     50  C   UNL A   1      44.264  27.030  30.228  1.00  0.00     0.029 A 
ATOM     51  N   UNL A   1      42.729  28.265  31.259  1.00  0.00    -0.354 N 
ATOM     52  N   UNL A   1      41.662  29.880  33.464  1.00  0.00    -0.248 NA
ATOM     53  C   UNL A   1      41.834  30.712  35.638  1.00  0.00     0.031 C 
ATOM     54  C   UNL A   1      44.734  27.340  31.508  1.00  0.00     0.029 A 
ATOM     55  C   UNL A   1      43.787  28.127  32.143  1.00  0.00     0.049 A 
ATOM     56  H   UNL A   1      41.904  28.769  31.439  1.00  0.00     0.167 HD
ATOM     57  C   UNL A   1      42.873  29.480  34.009  1.00  0.00     0.074 A 
ATOM     58  C   UNL A   1      42.940  30.048  35.339  1.00  0.00     0.031 C 
ATOM     59  C   UNL A   1      43.842  28.708  33.459  1.00  0.00     0.037 A 
BRANCH  46  60
ATOM     60  C   UNL A   1      42.530  26.657  27.786  1.00  0.00     0.064 A 
ATOM     61  C   UNL A   1      43.379  27.151  26.786  1.00  0.00     0.173 A 
ATOM     62  C   UNL A   1      42.118  25.319  27.694  1.00  0.00     0.173 A 
ATOM     63  F   UNL A   1      43.795  28.427  26.821  1.00  0.00    -0.203 F 
ATOM     64  C   UNL A   1      43.782  26.345  25.724  1.00  0.00     0.198 A 
ATOM     65  C   UNL A   1      42.546  24.507  26.647  1.00  0.00     0.198 A 
ATOM     66  F   UNL A   1      41.311  24.794  28.629  1.00  0.00    -0.203 F 
ATOM     67  F   UNL A   1      44.561  26.852  24.758  1.00  0.00    -0.200 F 
ATOM     68  C   UNL A   1      43.372  25.022  25.660  1.00  0.00     0.200 A 
ATOM     69  F   UNL A   1      42.158  23.225  26.593  1.00  0.00    -0.200 F 
ATOM     70  F   UNL A   1      43.769  24.244  24.643  1.00  0.00    -0.200 F 
ENDBRANCH  46  60
BRANCH  47  71
ATOM     71  C   UNL A   1      39.240  32.067  35.508  1.00  0.00     0.064 A 
ATOM     72  C   UNL A   1      39.570  33.418  35.688  1.00  0.00     0.173 A 
ATOM     73  C   UNL A   1      38.428  31.458  36.476  1.00  0.00     0.173 A 
ATOM     74  F   UNL A   1      40.361  34.037  34.799  1.00  0.00    -0.203 F 
ATOM     75  C   UNL A   1      39.124  34.125  36.802  1.00  0.00     0.198 A 
ATOM     76  C   UNL A   1      37.960  32.175  37.576  1.00  0.00     0.198 A 
ATOM     77  F   UNL A   1      38.079  30.170  36.347  1.00  0.00    -0.203 F 
ATOM     78  F   UNL A   1      39.494  35.401  36.974  1.00  0.00    -0.200 F 
ATOM     79  C   UNL A   1      38.316  33.504  37.743  1.00  0.00     0.200 A 
ATOM     80  F   UNL A   1      37.167  31.575  38.474  1.00  0.00    -0.200 F 
ATOM     81  F   UNL A   1      37.886  34.185  38.814  1.00  0.00    -0.200 F 
ENDBRANCH  47  71
BRANCH  59  82
ATOM     82  C   UNL A   1      45.074  28.463  34.279  1.00  0.00     0.064 A 
ATOM     83  C   UNL A   1      46.170  29.336  34.237  1.00  0.00     0.173 A 
ATOM     84  C   UNL A   1      45.139  27.364  35.149  1.00  0.00     0.173 A 
ATOM     85  F   UNL A   1      46.162  30.392  33.409  1.00  0.00    -0.203 F 
ATOM     86  C   UNL A   1      47.299  29.104  35.020  1.00  0.00     0.198 A 
ATOM     87  C   UNL A   1      46.257  27.152  35.951  1.00  0.00     0.198 A 
ATOM     88  F   UNL A   1      44.114  26.503  35.230  1.00  0.00    -0.203 F 
ATOM     89  F   UNL A   1      48.353  29.926  34.931  1.00  0.00    -0.200 F 
ATOM     90  C   UNL A   1      47.337  28.018  35.881  1.00  0.00     0.200 A 
ATOM     91  F   UNL A   1      46.288  26.108  36.791  1.00  0.00    -0.200 F 
ATOM     92  F   UNL A   1      48.421  27.801  36.638  1.00  0.00    -0.200 F 
ENDBRANCH  59  82
ENDBRANCH  33  34
ENDBRANCH  25  28
ENDBRANCH  23  24
ENDBRANCH   1  23
TORSDOF 12
ENDMDL
