MODEL 1
REMARK VINA RESULT:     -13.2      0.000      0.000
REMARK SMILES CC[C@@H]1CCC[C@@](Cc2cccc(O)c2)(C(=O)NCCCNC(=O)c2ccc(-c3c4nc(c(-c5c(F)c(F)c(F)c(F)c5F)c5ccc([nH]5)c(-c5c(F)c(F)c(F)c(F)c5F)c5nc(c(-c6c(F)c(F)c(F)c(F)c6F)c6ccc3[nH]6)C=C5)C=C4)cc2)C1
REMARK SMILES IDX 19 1 18 2 16 3 17 4 7 6 3 7 4 8 88 9 5 10 6 11 2 12 1 13
REMARK SMILES IDX 8 14 9 15 10 16 15 17 11 18 13 19 12 20 14 21 20 23 21 24
REMARK SMILES IDX 22 25 23 26 24 28 25 29 26 30 87 31 27 32 86 33 28 34 29 35
REMARK SMILES IDX 30 36 80 37 31 38 85 39 79 40 81 41 32 42 84 43 78 44 77 45
REMARK SMILES IDX 33 47 65 48 45 49 64 50 46 51 49 52 63 53 82 54 47 55 48 56
REMARK SMILES IDX 62 58 83 59 50 60 34 61 35 62 43 63 36 64 37 65 41 66 44 67
REMARK SMILES IDX 38 68 39 69 42 70 40 71 66 72 67 73 75 74 68 75 69 76 73 77
REMARK SMILES IDX 76 78 70 79 71 80 74 81 72 82 51 83 52 84 60 85 53 86 54 87
REMARK SMILES IDX 58 88 61 89 55 90 56 91 59 92 57 93
REMARK H PARENT 18 5 14 22 22 27 81 46 49 57
REMARK Flexibility Score: inf
ROOT
ATOM      1  C   UNL A   1      31.959  30.219  26.417  1.00  0.00     0.117 C 
ENDROOT
BRANCH   1   2
ATOM      2  N   UNL A   1      33.033  29.864  25.513  1.00  0.00    -0.356 N 
ATOM      3  C   UNL A   1      33.066  29.051  24.426  1.00  0.00     0.226 C 
ATOM      4  O   UNL A   1      34.024  29.246  23.668  1.00  0.00    -0.274 OA
ATOM      5  H   UNL A   1      33.895  30.289  25.724  1.00  0.00     0.163 HD
BRANCH   3   6
ATOM      6  C   UNL A   1      32.000  27.971  24.105  1.00  0.00     0.053 C 
ATOM      7  C   UNL A   1      33.572  25.980  24.815  1.00  0.00    -0.010 C 
ATOM      8  C   UNL A   1      32.701  25.750  26.056  1.00  0.00     0.003 C 
ATOM      9  C   UNL A   1      32.773  26.668  23.680  1.00  0.00     0.020 C 
ATOM     10  C   UNL A   1      31.937  27.000  26.466  1.00  0.00     0.001 C 
ATOM     11  C   UNL A   1      31.116  27.548  25.300  1.00  0.00     0.017 C 
BRANCH   7  12
ATOM     12  C   UNL A   1      34.191  24.672  24.273  1.00  0.00     0.000 C 
ATOM     13  C   UNL A   1      35.428  24.195  25.020  1.00  0.00     0.004 C 
ENDBRANCH   7  12
BRANCH   6  14
ATOM     14  C   UNL A   1      31.171  28.386  22.844  1.00  0.00     0.052 C 
BRANCH  14  15
ATOM     15  C   UNL A   1      29.883  29.155  23.027  1.00  0.00    -0.043 A 
ATOM     16  C   UNL A   1      29.909  30.508  23.407  1.00  0.00     0.004 A 
ATOM     17  C   UNL A   1      28.640  28.531  22.851  1.00  0.00     0.049 A 
ATOM     18  C   UNL A   1      28.721  31.197  23.670  1.00  0.00     0.004 A 
ATOM     19  C   UNL A   1      27.462  29.225  23.121  1.00  0.00     0.115 A 
ATOM     20  C   UNL A   1      27.493  30.551  23.543  1.00  0.00     0.046 A 
BRANCH  19  21
ATOM     21  O   UNL A   1      26.283  28.554  22.985  1.00  0.00    -0.508 OA
ATOM     22  H   UNL A   1      25.731  28.723  22.248  1.00  0.00     0.293 HD
ENDBRANCH  19  21
ENDBRANCH  14  15
ENDBRANCH   6  14
ENDBRANCH   3   6
ENDBRANCH   1   2
BRANCH   1  23
ATOM     23  C   UNL A   1      31.715  31.710  26.525  1.00  0.00     0.042 C 
BRANCH  23  24
ATOM     24  C   UNL A   1      32.762  32.417  27.374  1.00  0.00     0.118 C 
BRANCH  24  25
ATOM     25  N   UNL A   1      32.481  33.840  27.559  1.00  0.00    -0.352 N 
ATOM     26  C   UNL A   1      32.989  34.758  28.448  1.00  0.00     0.251 C 
ATOM     27  H   UNL A   1      31.810  34.206  26.938  1.00  0.00     0.163 HD
ATOM     28  O   UNL A   1      32.447  35.847  28.584  1.00  0.00    -0.269 OA
BRANCH  26  29
ATOM     29  C   UNL A   1      34.173  34.418  29.264  1.00  0.00     0.039 A 
ATOM     30  C   UNL A   1      33.994  33.890  30.545  1.00  0.00     0.014 A 
ATOM     31  C   UNL A   1      35.458  34.599  28.755  1.00  0.00     0.014 A 
ATOM     32  C   UNL A   1      35.102  33.432  31.261  1.00  0.00     0.010 A 
ATOM     33  C   UNL A   1      36.542  34.039  29.414  1.00  0.00     0.010 A 
ATOM     34  C   UNL A   1      36.375  33.438  30.670  1.00  0.00    -0.014 A 
BRANCH  34  35
ATOM     35  C   UNL A   1      37.545  32.791  31.314  1.00  0.00     0.031 A 
ATOM     36  C   UNL A   1      38.221  31.625  30.650  1.00  0.00     0.074 A 
ATOM     37  C   UNL A   1      37.915  33.178  32.551  1.00  0.00     0.049 A 
ATOM     38  N   UNL A   1      39.153  30.832  31.117  1.00  0.00    -0.248 NA
ATOM     39  C   UNL A   1      37.758  31.273  29.297  1.00  0.00     0.031 C 
ATOM     40  C   UNL A   1      37.287  34.249  33.328  1.00  0.00     0.029 A 
ATOM     41  N   UNL A   1      38.895  32.699  33.384  1.00  0.00    -0.354 N 
ATOM     42  C   UNL A   1      39.364  29.877  30.131  1.00  0.00     0.074 A 
ATOM     43  C   UNL A   1      38.427  30.154  29.063  1.00  0.00     0.031 C 
ATOM     44  C   UNL A   1      37.910  34.360  34.512  1.00  0.00     0.029 A 
ATOM     45  C   UNL A   1      38.949  33.340  34.598  1.00  0.00     0.049 A 
ATOM     46  H   UNL A   1      39.502  31.964  33.135  1.00  0.00     0.167 HD
ATOM     47  C   UNL A   1      40.272  28.876  30.108  1.00  0.00     0.037 A 
ATOM     48  C   UNL A   1      39.739  33.121  35.666  1.00  0.00     0.037 A 
ATOM     49  C   UNL A   1      41.231  28.635  31.153  1.00  0.00     0.049 A 
ATOM     50  C   UNL A   1      40.754  32.015  35.605  1.00  0.00     0.074 A 
ATOM     51  C   UNL A   1      42.257  27.706  31.188  1.00  0.00     0.029 A 
ATOM     52  N   UNL A   1      41.282  29.332  32.352  1.00  0.00    -0.354 N 
ATOM     53  N   UNL A   1      40.998  31.169  34.634  1.00  0.00    -0.248 NA
ATOM     54  C   UNL A   1      41.606  31.833  36.789  1.00  0.00     0.031 C 
ATOM     55  C   UNL A   1      42.901  27.813  32.424  1.00  0.00     0.029 A 
ATOM     56  C   UNL A   1      42.306  28.839  33.143  1.00  0.00     0.049 A 
ATOM     57  H   UNL A   1      40.680  30.070  32.602  1.00  0.00     0.167 HD
ATOM     58  C   UNL A   1      42.040  30.367  35.080  1.00  0.00     0.074 A 
ATOM     59  C   UNL A   1      42.397  30.843  36.400  1.00  0.00     0.031 C 
ATOM     60  C   UNL A   1      42.644  29.327  34.454  1.00  0.00     0.037 A 
BRANCH  47  61
ATOM     61  C   UNL A   1      40.287  27.973  28.909  1.00  0.00     0.064 A 
ATOM     62  C   UNL A   1      41.021  28.293  27.756  1.00  0.00     0.173 A 
ATOM     63  C   UNL A   1      39.594  26.754  28.926  1.00  0.00     0.173 A 
ATOM     64  F   UNL A   1      41.691  29.453  27.684  1.00  0.00    -0.203 F 
ATOM     65  C   UNL A   1      41.037  27.441  26.656  1.00  0.00     0.198 A 
ATOM     66  C   UNL A   1      39.636  25.889  27.836  1.00  0.00     0.198 A 
ATOM     67  F   UNL A   1      38.880  26.397  30.005  1.00  0.00    -0.203 F 
ATOM     68  F   UNL A   1      41.705  27.791  25.549  1.00  0.00    -0.200 F 
ATOM     69  C   UNL A   1      40.352  26.236  26.699  1.00  0.00     0.200 A 
ATOM     70  F   UNL A   1      38.984  24.720  27.883  1.00  0.00    -0.200 F 
ATOM     71  F   UNL A   1      40.375  25.411  25.643  1.00  0.00    -0.200 F 
ENDBRANCH  47  61
BRANCH  48  72
ATOM     72  C   UNL A   1      39.610  33.976  36.875  1.00  0.00     0.064 A 
ATOM     73  C   UNL A   1      38.816  33.571  37.957  1.00  0.00     0.173 A 
ATOM     74  C   UNL A   1      40.270  35.209  36.976  1.00  0.00     0.173 A 
ATOM     75  F   UNL A   1      38.150  32.408  37.900  1.00  0.00    -0.203 F 
ATOM     76  C   UNL A   1      38.672  34.376  39.085  1.00  0.00     0.198 A 
ATOM     77  C   UNL A   1      40.147  36.000  38.116  1.00  0.00     0.198 A 
ATOM     78  F   UNL A   1      41.047  35.639  35.971  1.00  0.00    -0.203 F 
ATOM     79  F   UNL A   1      37.871  33.984  40.085  1.00  0.00    -0.200 F 
ATOM     80  C   UNL A   1      39.342  35.587  39.166  1.00  0.00     0.200 A 
ATOM     81  F   UNL A   1      40.807  37.163  38.196  1.00  0.00    -0.200 F 
ATOM     82  F   UNL A   1      39.204  36.359  40.253  1.00  0.00    -0.200 F 
ENDBRANCH  48  72
BRANCH  60  83
ATOM     83  C   UNL A   1      43.762  28.647  35.185  1.00  0.00     0.064 A 
ATOM     84  C   UNL A   1      45.091  29.082  35.059  1.00  0.00     0.173 A 
ATOM     85  C   UNL A   1      43.499  27.575  36.050  1.00  0.00     0.173 A 
ATOM     86  F   UNL A   1      45.393  30.092  34.230  1.00  0.00    -0.203 F 
ATOM     87  C   UNL A   1      46.117  28.455  35.758  1.00  0.00     0.198 A 
ATOM     88  C   UNL A   1      44.524  26.968  36.770  1.00  0.00     0.198 A 
ATOM     89  F   UNL A   1      42.246  27.126  36.209  1.00  0.00    -0.203 F 
ATOM     90  F   UNL A   1      47.384  28.858  35.590  1.00  0.00    -0.200 F 
ATOM     91  C   UNL A   1      45.832  27.404  36.618  1.00  0.00     0.200 A 
ATOM     92  F   UNL A   1      44.247  25.962  37.610  1.00  0.00    -0.200 F 
ATOM     93  F   UNL A   1      46.821  26.806  37.297  1.00  0.00    -0.200 F 
ENDBRANCH  60  83
ENDBRANCH  34  35
ENDBRANCH  26  29
ENDBRANCH  24  25
ENDBRANCH  23  24
ENDBRANCH   1  23
TORSDOF 14
ENDMDL
MODEL 2
REMARK VINA RESULT:     -13.1      0.481      7.457
REMARK SMILES CC[C@@H]1CCC[C@@](Cc2cccc(O)c2)(C(=O)NCCCNC(=O)c2ccc(-c3c4nc(c(-c5c(F)c(F)c(F)c(F)c5F)c5ccc([nH]5)c(-c5c(F)c(F)c(F)c(F)c5F)c5nc(c(-c6c(F)c(F)c(F)c(F)c6F)c6ccc3[nH]6)C=C5)C=C4)cc2)C1
REMARK SMILES IDX 19 1 18 2 16 3 17 4 7 6 3 7 4 8 88 9 5 10 6 11 2 12 1 13
REMARK SMILES IDX 8 14 9 15 10 16 15 17 11 18 13 19 12 20 14 21 20 23 21 24
REMARK SMILES IDX 22 25 23 26 24 28 25 29 26 30 87 31 27 32 86 33 28 34 29 35
REMARK SMILES IDX 30 36 80 37 31 38 85 39 79 40 81 41 32 42 84 43 78 44 77 45
REMARK SMILES IDX 33 47 65 48 45 49 64 50 46 51 49 52 63 53 82 54 47 55 48 56
REMARK SMILES IDX 62 58 83 59 50 60 34 61 35 62 43 63 36 64 37 65 41 66 44 67
REMARK SMILES IDX 38 68 39 69 42 70 40 71 66 72 67 73 75 74 68 75 69 76 73 77
REMARK SMILES IDX 76 78 70 79 71 80 74 81 72 82 51 83 52 84 60 85 53 86 54 87
REMARK SMILES IDX 58 88 61 89 55 90 56 91 59 92 57 93
REMARK H PARENT 18 5 14 22 22 27 81 46 49 57
REMARK Flexibility Score: inf
ROOT
ATOM      1  C   UNL A   1      31.607  30.496  26.292  1.00  0.00     0.117 C 
ENDROOT
BRANCH   1   2
ATOM      2  N   UNL A   1      32.777  30.113  25.530  1.00  0.00    -0.356 N 
ATOM      3  C   UNL A   1      32.941  29.237  24.506  1.00  0.00     0.226 C 
ATOM      4  O   UNL A   1      33.970  29.410  23.842  1.00  0.00    -0.274 OA
ATOM      5  H   UNL A   1      33.604  30.572  25.803  1.00  0.00     0.163 HD
BRANCH   3   6
ATOM      6  C   UNL A   1      31.935  28.114  24.143  1.00  0.00     0.053 C 
ATOM      7  C   UNL A   1      33.580  26.188  24.868  1.00  0.00    -0.010 C 
ATOM      8  C   UNL A   1      32.690  25.900  26.083  1.00  0.00     0.003 C 
ATOM      9  C   UNL A   1      32.779  26.854  23.722  1.00  0.00     0.020 C 
ATOM     10  C   UNL A   1      31.857  27.108  26.489  1.00  0.00     0.001 C 
ATOM     11  C   UNL A   1      31.042  27.633  25.309  1.00  0.00     0.017 C 
BRANCH   7  12
ATOM     12  C   UNL A   1      34.273  24.918  24.326  1.00  0.00     0.000 C 
ATOM     13  C   UNL A   1      35.322  24.319  25.252  1.00  0.00     0.004 C 
ENDBRANCH   7  12
BRANCH   6  14
ATOM     14  C   UNL A   1      31.120  28.507  22.866  1.00  0.00     0.052 C 
BRANCH  14  15
ATOM     15  C   UNL A   1      29.802  29.230  23.025  1.00  0.00    -0.043 A 
ATOM     16  C   UNL A   1      29.775  30.599  23.337  1.00  0.00     0.004 A 
ATOM     17  C   UNL A   1      28.585  28.546  22.893  1.00  0.00     0.049 A 
ATOM     18  C   UNL A   1      28.561  31.251  23.579  1.00  0.00     0.004 A 
ATOM     19  C   UNL A   1      27.382  29.203  23.141  1.00  0.00     0.115 A 
ATOM     20  C   UNL A   1      27.360  30.549  23.497  1.00  0.00     0.046 A 
BRANCH  19  21
ATOM     21  O   UNL A   1      26.231  28.477  23.051  1.00  0.00    -0.508 OA
ATOM     22  H   UNL A   1      26.256  27.547  23.156  1.00  0.00     0.293 HD
ENDBRANCH  19  21
ENDBRANCH  14  15
ENDBRANCH   6  14
ENDBRANCH   3   6
ENDBRANCH   1   2
BRANCH   1  23
ATOM     23  C   UNL A   1      31.466  31.990  26.493  1.00  0.00     0.042 C 
BRANCH  23  24
ATOM     24  C   UNL A   1      32.628  32.590  27.274  1.00  0.00     0.118 C 
BRANCH  24  25
ATOM     25  N   UNL A   1      32.449  34.013  27.561  1.00  0.00    -0.352 N 
ATOM     26  C   UNL A   1      32.996  34.819  28.531  1.00  0.00     0.251 C 
ATOM     27  H   UNL A   1      31.828  34.475  26.952  1.00  0.00     0.163 HD
ATOM     28  O   UNL A   1      32.533  35.934  28.736  1.00  0.00    -0.269 OA
BRANCH  26  29
ATOM     29  C   UNL A   1      34.123  34.327  29.350  1.00  0.00     0.039 A 
ATOM     30  C   UNL A   1      33.862  33.699  30.570  1.00  0.00     0.014 A 
ATOM     31  C   UNL A   1      35.436  34.468  28.902  1.00  0.00     0.014 A 
ATOM     32  C   UNL A   1      34.910  33.104  31.276  1.00  0.00     0.010 A 
ATOM     33  C   UNL A   1      36.456  33.779  29.541  1.00  0.00     0.010 A 
ATOM     34  C   UNL A   1      36.202  33.079  30.729  1.00  0.00    -0.014 A 
BRANCH  34  35
ATOM     35  C   UNL A   1      37.304  32.299  31.347  1.00  0.00     0.031 A 
ATOM     36  C   UNL A   1      37.828  32.681  32.703  1.00  0.00     0.074 A 
ATOM     37  C   UNL A   1      37.909  31.330  30.631  1.00  0.00     0.049 A 
ATOM     38  N   UNL A   1      38.876  32.228  33.343  1.00  0.00    -0.248 NA
ATOM     39  C   UNL A   1      37.104  33.746  33.417  1.00  0.00     0.031 C 
ATOM     40  C   UNL A   1      37.538  30.919  29.276  1.00  0.00     0.029 A 
ATOM     41  N   UNL A   1      38.981  30.529  30.936  1.00  0.00    -0.354 N 
ATOM     42  C   UNL A   1      38.951  32.970  34.515  1.00  0.00     0.074 A 
ATOM     43  C   UNL A   1      37.878  33.939  34.474  1.00  0.00     0.031 C 
ATOM     44  C   UNL A   1      38.352  29.930  28.875  1.00  0.00     0.029 A 
ATOM     45  C   UNL A   1      39.331  29.669  29.923  1.00  0.00     0.049 A 
ATOM     46  H   UNL A   1      39.455  30.568  31.798  1.00  0.00     0.167 HD
ATOM     47  C   UNL A   1      39.822  32.837  35.541  1.00  0.00     0.037 A 
ATOM     48  C   UNL A   1      40.337  28.778  29.845  1.00  0.00     0.037 A 
ATOM     49  C   UNL A   1      40.858  31.841  35.595  1.00  0.00     0.049 A 
ATOM     50  C   UNL A   1      41.277  28.637  31.009  1.00  0.00     0.074 A 
ATOM     51  C   UNL A   1      41.734  31.560  36.629  1.00  0.00     0.029 A 
ATOM     52  N   UNL A   1      41.156  30.958  34.566  1.00  0.00    -0.354 N 
ATOM     53  N   UNL A   1      41.289  29.289  32.145  1.00  0.00    -0.248 NA
ATOM     54  C   UNL A   1      42.344  27.634  30.880  1.00  0.00     0.031 C 
ATOM     55  C   UNL A   1      42.590  30.536  36.209  1.00  0.00     0.029 A 
ATOM     56  C   UNL A   1      42.219  30.148  34.932  1.00  0.00     0.049 A 
ATOM     57  H   UNL A   1      40.682  30.914  33.705  1.00  0.00     0.167 HD
ATOM     58  C   UNL A   1      42.349  28.767  32.874  1.00  0.00     0.074 A 
ATOM     59  C   UNL A   1      42.943  27.727  32.059  1.00  0.00     0.031 C 
ATOM     60  C   UNL A   1      42.794  29.119  34.105  1.00  0.00     0.037 A 
BRANCH  47  61
ATOM     61  C   UNL A   1      39.684  33.780  36.700  1.00  0.00     0.064 A 
ATOM     62  C   UNL A   1      40.327  35.029  36.713  1.00  0.00     0.173 A 
ATOM     63  C   UNL A   1      38.869  33.453  37.793  1.00  0.00     0.173 A 
ATOM     64  F   UNL A   1      41.129  35.385  35.698  1.00  0.00    -0.203 F 
ATOM     65  C   UNL A   1      40.179  35.900  37.789  1.00  0.00     0.198 A 
ATOM     66  C   UNL A   1      38.700  34.340  38.853  1.00  0.00     0.198 A 
ATOM     67  F   UNL A   1      38.228  32.275  37.830  1.00  0.00    -0.203 F 
ATOM     68  F   UNL A   1      40.842  37.065  37.800  1.00  0.00    -0.200 F 
ATOM     69  C   UNL A   1      39.360  35.559  38.854  1.00  0.00     0.200 A 
ATOM     70  F   UNL A   1      37.898  34.014  39.877  1.00  0.00    -0.200 F 
ATOM     71  F   UNL A   1      39.212  36.403  39.884  1.00  0.00    -0.200 F 
ENDBRANCH  47  61
BRANCH  48  72
ATOM     72  C   UNL A   1      40.497  27.941  28.627  1.00  0.00     0.064 A 
ATOM     73  C   UNL A   1      41.269  28.390  27.546  1.00  0.00     0.173 A 
ATOM     74  C   UNL A   1      39.885  26.684  28.514  1.00  0.00     0.173 A 
ATOM     75  F   UNL A   1      41.858  29.593  27.598  1.00  0.00    -0.203 F 
ATOM     76  C   UNL A   1      41.405  27.622  26.391  1.00  0.00     0.198 A 
ATOM     77  C   UNL A   1      40.045  25.905  27.371  1.00  0.00     0.198 A 
ATOM     78  F   UNL A   1      39.142  26.206  29.523  1.00  0.00    -0.203 F 
ATOM     79  F   UNL A   1      42.112  28.095  25.356  1.00  0.00    -0.200 F 
ATOM     80  C   UNL A   1      40.798  26.378  26.306  1.00  0.00     0.200 A 
ATOM     81  F   UNL A   1      39.469  24.698  27.298  1.00  0.00    -0.200 F 
ATOM     82  F   UNL A   1      40.933  25.639  25.196  1.00  0.00    -0.200 F 
ENDBRANCH  48  72
BRANCH  60  83
ATOM     83  C   UNL A   1      43.968  28.363  34.649  1.00  0.00     0.064 A 
ATOM     84  C   UNL A   1      43.798  27.189  35.399  1.00  0.00     0.173 A 
ATOM     85  C   UNL A   1      45.276  28.793  34.385  1.00  0.00     0.173 A 
ATOM     86  F   UNL A   1      42.566  26.748  35.691  1.00  0.00    -0.203 F 
ATOM     87  C   UNL A   1      44.898  26.485  35.881  1.00  0.00     0.198 A 
ATOM     88  C   UNL A   1      46.374  28.071  34.845  1.00  0.00     0.198 A 
ATOM     89  F   UNL A   1      45.491  29.906  33.668  1.00  0.00    -0.203 F 
ATOM     90  F   UNL A   1      44.713  25.390  36.632  1.00  0.00    -0.200 F 
ATOM     91  C   UNL A   1      46.183  26.922  35.598  1.00  0.00     0.200 A 
ATOM     92  F   UNL A   1      47.616  28.487  34.559  1.00  0.00    -0.200 F 
ATOM     93  F   UNL A   1      47.241  26.238  36.057  1.00  0.00    -0.200 F 
ENDBRANCH  60  83
ENDBRANCH  34  35
ENDBRANCH  26  29
ENDBRANCH  24  25
ENDBRANCH  23  24
ENDBRANCH   1  23
TORSDOF 14
ENDMDL
MODEL 3
REMARK VINA RESULT:     -13.0      6.103     11.388
REMARK SMILES CC[C@@H]1CCC[C@@](Cc2cccc(O)c2)(C(=O)NCCCNC(=O)c2ccc(-c3c4nc(c(-c5c(F)c(F)c(F)c(F)c5F)c5ccc([nH]5)c(-c5c(F)c(F)c(F)c(F)c5F)c5nc(c(-c6c(F)c(F)c(F)c(F)c6F)c6ccc3[nH]6)C=C5)C=C4)cc2)C1
REMARK SMILES IDX 19 1 18 2 16 3 17 4 7 6 3 7 4 8 88 9 5 10 6 11 2 12 1 13
REMARK SMILES IDX 8 14 9 15 10 16 15 17 11 18 13 19 12 20 14 21 20 23 21 24
REMARK SMILES IDX 22 25 23 26 24 28 25 29 26 30 87 31 27 32 86 33 28 34 29 35
REMARK SMILES IDX 30 36 80 37 31 38 85 39 79 40 81 41 32 42 84 43 78 44 77 45
REMARK SMILES IDX 33 47 65 48 45 49 64 50 46 51 49 52 63 53 82 54 47 55 48 56
REMARK SMILES IDX 62 58 83 59 50 60 34 61 35 62 43 63 36 64 37 65 41 66 44 67
REMARK SMILES IDX 38 68 39 69 42 70 40 71 66 72 67 73 75 74 68 75 69 76 73 77
REMARK SMILES IDX 76 78 70 79 71 80 74 81 72 82 51 83 52 84 60 85 53 86 54 87
REMARK SMILES IDX 58 88 61 89 55 90 56 91 59 92 57 93
REMARK H PARENT 18 5 14 22 22 27 81 46 49 57
REMARK Flexibility Score: inf
ROOT
ATOM      1  C   UNL A   1      36.371  20.410  25.106  1.00  0.00     0.117 C 
ENDROOT
BRANCH   1   2
ATOM      2  N   UNL A   1      35.885  21.227  26.199  1.00  0.00    -0.356 N 
ATOM      3  C   UNL A   1      34.683  21.822  26.415  1.00  0.00     0.226 C 
ATOM      4  O   UNL A   1      34.470  22.132  27.594  1.00  0.00    -0.274 OA
ATOM      5  H   UNL A   1      36.543  21.377  26.914  1.00  0.00     0.163 HD
BRANCH   3   6
ATOM      6  C   UNL A   1      33.624  22.087  25.314  1.00  0.00     0.053 C 
ATOM      7  C   UNL A   1      33.821  24.705  25.531  1.00  0.00    -0.010 C 
ATOM      8  C   UNL A   1      34.518  24.754  24.167  1.00  0.00     0.003 C 
ATOM      9  C   UNL A   1      32.922  23.451  25.665  1.00  0.00     0.020 C 
ATOM     10  C   UNL A   1      35.187  23.435  23.810  1.00  0.00     0.001 C 
ATOM     11  C   UNL A   1      34.194  22.277  23.890  1.00  0.00     0.017 C 
BRANCH   7  12
ATOM     12  C   UNL A   1      32.972  25.965  25.811  1.00  0.00     0.000 C 
ATOM     13  C   UNL A   1      33.774  27.243  26.012  1.00  0.00     0.004 C 
ENDBRANCH   7  12
BRANCH   6  14
ATOM     14  C   UNL A   1      32.489  21.011  25.383  1.00  0.00     0.052 C 
BRANCH  14  15
ATOM     15  C   UNL A   1      32.679  19.690  24.674  1.00  0.00    -0.043 A 
ATOM     16  C   UNL A   1      33.329  18.624  25.318  1.00  0.00     0.004 A 
ATOM     17  C   UNL A   1      32.240  19.511  23.355  1.00  0.00     0.049 A 
ATOM     18  C   UNL A   1      33.592  17.432  24.635  1.00  0.00     0.004 A 
ATOM     19  C   UNL A   1      32.513  18.322  22.681  1.00  0.00     0.115 A 
ATOM     20  C   UNL A   1      33.198  17.285  23.306  1.00  0.00     0.046 A 
BRANCH  19  21
ATOM     21  O   UNL A   1      32.109  18.221  21.382  1.00  0.00    -0.508 OA
ATOM     22  H   UNL A   1      31.727  18.961  20.953  1.00  0.00     0.293 HD
ENDBRANCH  19  21
ENDBRANCH  14  15
ENDBRANCH   6  14
ENDBRANCH   3   6
ENDBRANCH   1   2
BRANCH   1  23
ATOM     23  C   UNL A   1      37.787  20.737  24.679  1.00  0.00     0.042 C 
BRANCH  23  24
ATOM     24  C   UNL A   1      38.759  20.780  25.849  1.00  0.00     0.118 C 
BRANCH  24  25
ATOM     25  N   UNL A   1      39.646  19.618  25.898  1.00  0.00    -0.352 N 
ATOM     26  C   UNL A   1      41.013  19.524  26.009  1.00  0.00     0.251 C 
ATOM     27  H   UNL A   1      39.183  18.751  25.843  1.00  0.00     0.163 HD
ATOM     28  O   UNL A   1      41.574  18.456  25.799  1.00  0.00    -0.269 OA
BRANCH  26  29
ATOM     29  C   UNL A   1      41.810  20.720  26.351  1.00  0.00     0.039 A 
ATOM     30  C   UNL A   1      42.241  21.572  25.330  1.00  0.00     0.014 A 
ATOM     31  C   UNL A   1      42.114  21.011  27.679  1.00  0.00     0.014 A 
ATOM     32  C   UNL A   1      42.866  22.777  25.658  1.00  0.00     0.010 A 
ATOM     33  C   UNL A   1      42.627  22.257  28.009  1.00  0.00     0.010 A 
ATOM     34  C   UNL A   1      42.999  23.159  27.002  1.00  0.00    -0.014 A 
BRANCH  34  35
ATOM     35  C   UNL A   1      43.482  24.507  27.393  1.00  0.00     0.031 A 
ATOM     36  C   UNL A   1      42.518  25.525  27.934  1.00  0.00     0.074 A 
ATOM     37  C   UNL A   1      44.762  24.847  27.142  1.00  0.00     0.049 A 
ATOM     38  N   UNL A   1      42.711  26.795  28.187  1.00  0.00    -0.248 NA
ATOM     39  C   UNL A   1      41.141  25.067  28.183  1.00  0.00     0.031 C 
ATOM     40  C   UNL A   1      45.773  23.968  26.551  1.00  0.00     0.029 A 
ATOM     41  N   UNL A   1      45.428  26.032  27.332  1.00  0.00    -0.354 N 
ATOM     42  C   UNL A   1      41.479  27.289  28.595  1.00  0.00     0.074 A 
ATOM     43  C   UNL A   1      40.533  26.198  28.504  1.00  0.00     0.031 C 
ATOM     44  C   UNL A   1      46.933  24.635  26.446  1.00  0.00     0.029 A 
ATOM     45  C   UNL A   1      46.738  26.001  26.919  1.00  0.00     0.049 A 
ATOM     46  H   UNL A   1      45.006  26.830  27.726  1.00  0.00     0.167 HD
ATOM     47  C   UNL A   1      41.172  28.533  29.028  1.00  0.00     0.037 A 
ATOM     48  C   UNL A   1      47.673  26.969  26.910  1.00  0.00     0.037 A 
ATOM     49  C   UNL A   1      42.128  29.599  29.158  1.00  0.00     0.049 A 
ATOM     50  C   UNL A   1      47.309  28.337  27.417  1.00  0.00     0.074 A 
ATOM     51  C   UNL A   1      41.941  30.870  29.675  1.00  0.00     0.029 A 
ATOM     52  N   UNL A   1      43.457  29.518  28.768  1.00  0.00    -0.354 N 
ATOM     53  N   UNL A   1      46.160  28.770  27.875  1.00  0.00    -0.248 NA
ATOM     54  C   UNL A   1      48.373  29.351  27.407  1.00  0.00     0.031 C 
ATOM     55  C   UNL A   1      43.146  31.570  29.559  1.00  0.00     0.029 A 
ATOM     56  C   UNL A   1      44.096  30.723  29.011  1.00  0.00     0.049 A 
ATOM     57  H   UNL A   1      43.883  28.721  28.378  1.00  0.00     0.167 HD
ATOM     58  C   UNL A   1      46.365  30.098  28.224  1.00  0.00     0.074 A 
ATOM     59  C   UNL A   1      47.755  30.393  27.946  1.00  0.00     0.031 C 
ATOM     60  C   UNL A   1      45.481  30.994  28.726  1.00  0.00     0.037 A 
BRANCH  47  61
ATOM     61  C   UNL A   1      39.746  28.807  29.409  1.00  0.00     0.064 A 
ATOM     62  C   UNL A   1      38.816  29.295  28.477  1.00  0.00     0.173 A 
ATOM     63  C   UNL A   1      39.292  28.542  30.709  1.00  0.00     0.173 A 
ATOM     64  F   UNL A   1      39.202  29.578  27.224  1.00  0.00    -0.203 F 
ATOM     65  C   UNL A   1      37.494  29.532  28.841  1.00  0.00     0.198 A 
ATOM     66  C   UNL A   1      37.962  28.752  31.061  1.00  0.00     0.198 A 
ATOM     67  F   UNL A   1      40.138  28.071  31.638  1.00  0.00    -0.203 F 
ATOM     68  F   UNL A   1      36.637  30.044  27.946  1.00  0.00    -0.200 F 
ATOM     69  C   UNL A   1      37.065  29.253  30.130  1.00  0.00     0.200 A 
ATOM     70  F   UNL A   1      37.546  28.470  32.304  1.00  0.00    -0.200 F 
ATOM     71  F   UNL A   1      35.789  29.473  30.476  1.00  0.00    -0.200 F 
ENDBRANCH  47  61
BRANCH  48  72
ATOM     72  C   UNL A   1      49.044  26.675  26.420  1.00  0.00     0.064 A 
ATOM     73  C   UNL A   1      49.393  26.913  25.082  1.00  0.00     0.173 A 
ATOM     74  C   UNL A   1      50.031  26.152  27.267  1.00  0.00     0.173 A 
ATOM     75  F   UNL A   1      48.478  27.396  24.228  1.00  0.00    -0.203 F 
ATOM     76  C   UNL A   1      50.670  26.620  24.608  1.00  0.00     0.198 A 
ATOM     77  C   UNL A   1      51.316  25.884  26.798  1.00  0.00     0.198 A 
ATOM     78  F   UNL A   1      49.751  25.912  28.557  1.00  0.00    -0.203 F 
ATOM     79  F   UNL A   1      50.961  26.815  23.315  1.00  0.00    -0.200 F 
ATOM     80  C   UNL A   1      51.632  26.111  25.467  1.00  0.00     0.200 A 
ATOM     81  F   UNL A   1      52.246  25.406  27.635  1.00  0.00    -0.200 F 
ATOM     82  F   UNL A   1      52.860  25.831  25.010  1.00  0.00    -0.200 F 
ENDBRANCH  48  72
BRANCH  60  83
ATOM     83  C   UNL A   1      45.996  32.371  29.019  1.00  0.00     0.064 A 
ATOM     84  C   UNL A   1      45.920  33.399  28.067  1.00  0.00     0.173 A 
ATOM     85  C   UNL A   1      46.533  32.676  30.278  1.00  0.00     0.173 A 
ATOM     86  F   UNL A   1      45.430  33.150  26.844  1.00  0.00    -0.203 F 
ATOM     87  C   UNL A   1      46.384  34.678  28.359  1.00  0.00     0.198 A 
ATOM     88  C   UNL A   1      46.970  33.964  30.577  1.00  0.00     0.198 A 
ATOM     89  F   UNL A   1      46.622  31.730  31.224  1.00  0.00    -0.203 F 
ATOM     90  F   UNL A   1      46.343  35.634  27.421  1.00  0.00    -0.200 F 
ATOM     91  C   UNL A   1      46.901  34.961  29.615  1.00  0.00     0.200 A 
ATOM     92  F   UNL A   1      47.457  34.240  31.794  1.00  0.00    -0.200 F 
ATOM     93  F   UNL A   1      47.340  36.196  29.898  1.00  0.00    -0.200 F 
ENDBRANCH  60  83
ENDBRANCH  34  35
ENDBRANCH  26  29
ENDBRANCH  24  25
ENDBRANCH  23  24
ENDBRANCH   1  23
TORSDOF 14
ENDMDL
