MODEL 1
REMARK VINA RESULT:     -11.8      0.000      0.000
REMARK SMILES CCN(Cc1c(C)nn(CC)c1C)C(=O)Cn1ccc(C(=O)NCCCNC(=O)c2ccc(-c3c4nc(c(-c5c(F)c(F)c(F)c(F)c5F)c5ccc([nH]5)c(-c5c(F)c(F)c(F)c(F)c5F)c5nc(c(-c6c(F)c(F)c(F)c(F)c6F)c6ccc3[nH]6)C=C5)C=C4)cc2)n1
REMARK SMILES IDX 21 1 22 2 23 3 20 5 17 6 18 7 93 8 19 9 16 10 14 11 15 12
REMARK SMILES IDX 3 13 2 14 1 15 4 16 5 17 6 18 12 19 7 20 8 21 9 22 13 23
REMARK SMILES IDX 10 24 11 25 24 26 25 27 26 28 27 29 28 30 29 32 30 33 31 34
REMARK SMILES IDX 92 35 32 36 91 37 33 38 34 39 35 40 85 41 36 42 90 43 84 44
REMARK SMILES IDX 86 45 37 46 89 47 83 48 82 49 38 51 70 52 50 53 69 54 51 55
REMARK SMILES IDX 54 56 68 57 87 58 52 59 53 60 67 62 88 63 55 64 39 65 40 66
REMARK SMILES IDX 48 67 41 68 42 69 46 70 49 71 43 72 44 73 47 74 45 75 71 76
REMARK SMILES IDX 72 77 80 78 73 79 74 80 78 81 81 82 75 83 76 84 79 85 77 86
REMARK SMILES IDX 56 87 57 88 65 89 58 90 59 91 63 92 66 93 60 94 61 95 64 96
REMARK SMILES IDX 62 97
REMARK H PARENT 23 4 27 31 86 50 54 61
REMARK Flexibility Score: inf
ROOT
ATOM      1  C   UNL A   1      31.736  28.289  27.053  1.00  0.00     0.271 C 
ATOM      2  O   UNL A   1      31.042  27.591  27.797  1.00  0.00    -0.267 OA
ATOM      3  N   UNL A   1      32.344  29.394  27.612  1.00  0.00    -0.351 N 
ATOM      4  H   UNL A   1      32.168  29.516  28.573  1.00  0.00     0.163 HD
ENDROOT
BRANCH   1   5
ATOM      5  C   UNL A   1      31.899  27.957  25.626  1.00  0.00     0.150 A 
ATOM      6  N   UNL A   1      32.723  27.176  23.814  1.00  0.00    -0.263 N 
ATOM      7  C   UNL A   1      31.571  27.798  23.424  1.00  0.00     0.110 A 
ATOM      8  N   UNL A   1      32.931  27.259  25.132  1.00  0.00    -0.167 NA
ATOM      9  C   UNL A   1      31.017  28.320  24.570  1.00  0.00     0.056 A 
BRANCH   6  10
ATOM     10  C   UNL A   1      33.661  26.486  22.945  1.00  0.00     0.244 C 
BRANCH  10  11
ATOM     11  C   UNL A   1      33.430  24.995  22.759  1.00  0.00     0.244 C 
ATOM     12  O   UNL A   1      33.142  24.593  21.623  1.00  0.00    -0.273 OA
BRANCH  11  13
ATOM     13  N   UNL A   1      33.629  24.082  23.799  1.00  0.00    -0.337 N 
BRANCH  13  14
ATOM     14  C   UNL A   1      35.013  23.682  24.104  1.00  0.00     0.116 C 
ATOM     15  C   UNL A   1      35.620  24.305  25.360  1.00  0.00     0.027 C 
ENDBRANCH  13  14
BRANCH  13  16
ATOM     16  C   UNL A   1      32.559  23.452  24.590  1.00  0.00     0.159 C 
BRANCH  16  17
ATOM     17  C   UNL A   1      32.730  21.972  24.733  1.00  0.00     0.015 A 
ATOM     18  C   UNL A   1      33.191  21.240  25.865  1.00  0.00     0.065 A 
ATOM     19  C   UNL A   1      32.495  20.996  23.768  1.00  0.00     0.041 A 
ATOM     20  C   UNL A   1      33.654  21.729  27.187  1.00  0.00     0.069 C 
ATOM     21  N   UNL A   1      33.155  19.922  25.649  1.00  0.00    -0.178 NA
ATOM     22  N   UNL A   1      32.741  19.793  24.381  1.00  0.00    -0.270 N 
ATOM     23  C   UNL A   1      32.059  21.096  22.349  1.00  0.00     0.067 C 
BRANCH  22  24
ATOM     24  C   UNL A   1      32.571  18.456  23.840  1.00  0.00     0.141 C 
ATOM     25  C   UNL A   1      32.353  17.414  24.924  1.00  0.00     0.029 C 
ENDBRANCH  22  24
ENDBRANCH  16  17
ENDBRANCH  13  16
ENDBRANCH  11  13
ENDBRANCH  10  11
ENDBRANCH   6  10
ENDBRANCH   1   5
BRANCH   3  26
ATOM     26  C   UNL A   1      33.202  30.412  27.019  1.00  0.00     0.118 C 
BRANCH  26  27
ATOM     27  C   UNL A   1      34.680  30.184  27.356  1.00  0.00     0.042 C 
BRANCH  27  28
ATOM     28  C   UNL A   1      35.390  31.490  27.660  1.00  0.00     0.118 C 
BRANCH  28  29
ATOM     29  N   UNL A   1      34.856  32.174  28.844  1.00  0.00    -0.352 N 
ATOM     30  C   UNL A   1      35.205  32.007  30.175  1.00  0.00     0.251 C 
ATOM     31  H   UNL A   1      34.155  32.843  28.669  1.00  0.00     0.163 HD
ATOM     32  O   UNL A   1      34.500  32.423  31.073  1.00  0.00    -0.269 OA
BRANCH  30  33
ATOM     33  C   UNL A   1      36.453  31.284  30.475  1.00  0.00     0.039 A 
ATOM     34  C   UNL A   1      36.463  29.898  30.641  1.00  0.00     0.014 A 
ATOM     35  C   UNL A   1      37.635  32.015  30.496  1.00  0.00     0.014 A 
ATOM     36  C   UNL A   1      37.691  29.246  30.711  1.00  0.00     0.010 A 
ATOM     37  C   UNL A   1      38.829  31.359  30.363  1.00  0.00     0.010 A 
ATOM     38  C   UNL A   1      38.874  29.980  30.529  1.00  0.00    -0.014 A 
BRANCH  38  39
ATOM     39  C   UNL A   1      40.159  29.303  30.385  1.00  0.00     0.031 A 
ATOM     40  C   UNL A   1      40.880  29.053  31.665  1.00  0.00     0.074 A 
ATOM     41  C   UNL A   1      40.569  28.740  29.227  1.00  0.00     0.049 A 
ATOM     42  N   UNL A   1      42.028  29.523  32.025  1.00  0.00    -0.248 NA
ATOM     43  C   UNL A   1      40.195  28.284  32.720  1.00  0.00     0.031 C 
ATOM     44  C   UNL A   1      39.842  28.610  27.960  1.00  0.00     0.029 A 
ATOM     45  N   UNL A   1      41.712  28.045  28.977  1.00  0.00    -0.354 N 
ATOM     46  C   UNL A   1      42.304  28.960  33.269  1.00  0.00     0.074 A 
ATOM     47  C   UNL A   1      41.080  28.350  33.717  1.00  0.00     0.031 C 
ATOM     48  C   UNL A   1      40.438  27.676  27.188  1.00  0.00     0.029 A 
ATOM     49  C   UNL A   1      41.677  27.274  27.822  1.00  0.00     0.049 A 
ATOM     50  H   UNL A   1      42.499  28.086  29.567  1.00  0.00     0.167 HD
ATOM     51  C   UNL A   1      43.589  28.835  33.708  1.00  0.00     0.037 A 
ATOM     52  C   UNL A   1      42.588  26.340  27.449  1.00  0.00     0.037 A 
ATOM     53  C   UNL A   1      44.473  29.723  32.991  1.00  0.00     0.049 A 
ATOM     54  C   UNL A   1      43.835  26.627  28.206  1.00  0.00     0.074 A 
ATOM     55  C   UNL A   1      44.484  31.088  32.762  1.00  0.00     0.029 A 
ATOM     56  N   UNL A   1      45.311  29.193  32.040  1.00  0.00    -0.354 N 
ATOM     57  N   UNL A   1      44.575  27.684  28.012  1.00  0.00    -0.248 NA
ATOM     58  C   UNL A   1      43.993  25.978  29.500  1.00  0.00     0.031 C 
ATOM     59  C   UNL A   1      44.857  31.222  31.392  1.00  0.00     0.029 A 
ATOM     60  C   UNL A   1      45.140  29.946  30.905  1.00  0.00     0.049 A 
ATOM     61  H   UNL A   1      45.915  28.423  32.149  1.00  0.00     0.167 HD
ATOM     62  C   UNL A   1      44.948  28.086  29.285  1.00  0.00     0.074 A 
ATOM     63  C   UNL A   1      44.625  26.957  30.155  1.00  0.00     0.031 C 
ATOM     64  C   UNL A   1      45.201  29.397  29.573  1.00  0.00     0.037 A 
BRANCH  51  65
ATOM     65  C   UNL A   1      44.097  27.653  34.501  1.00  0.00     0.064 A 
ATOM     66  C   UNL A   1      44.841  27.883  35.676  1.00  0.00     0.173 A 
ATOM     67  C   UNL A   1      44.153  26.334  33.998  1.00  0.00     0.173 A 
ATOM     68  F   UNL A   1      44.878  29.104  36.233  1.00  0.00    -0.203 F 
ATOM     69  C   UNL A   1      45.646  26.894  36.247  1.00  0.00     0.198 A 
ATOM     70  C   UNL A   1      44.914  25.335  34.603  1.00  0.00     0.198 A 
ATOM     71  F   UNL A   1      43.578  25.982  32.843  1.00  0.00    -0.203 F 
ATOM     72  F   UNL A   1      46.441  27.200  37.282  1.00  0.00    -0.200 F 
ATOM     73  C   UNL A   1      45.687  25.623  35.706  1.00  0.00     0.200 A 
ATOM     74  F   UNL A   1      44.955  24.115  34.051  1.00  0.00    -0.200 F 
ATOM     75  F   UNL A   1      46.507  24.692  36.212  1.00  0.00    -0.200 F 
ENDBRANCH  51  65
BRANCH  52  76
ATOM     76  C   UNL A   1      42.364  25.056  26.737  1.00  0.00     0.064 A 
ATOM     77  C   UNL A   1      43.138  24.717  25.614  1.00  0.00     0.173 A 
ATOM     78  C   UNL A   1      41.598  24.016  27.298  1.00  0.00     0.173 A 
ATOM     79  F   UNL A   1      43.927  25.635  25.035  1.00  0.00    -0.203 F 
ATOM     80  C   UNL A   1      43.180  23.411  25.113  1.00  0.00     0.198 A 
ATOM     81  C   UNL A   1      41.631  22.715  26.791  1.00  0.00     0.198 A 
ATOM     82  F   UNL A   1      40.874  24.210  28.410  1.00  0.00    -0.203 F 
ATOM     83  F   UNL A   1      43.992  23.113  24.089  1.00  0.00    -0.200 F 
ATOM     84  C   UNL A   1      42.436  22.408  25.712  1.00  0.00     0.200 A 
ATOM     85  F   UNL A   1      40.931  21.746  27.400  1.00  0.00    -0.200 F 
ATOM     86  F   UNL A   1      42.529  21.143  25.278  1.00  0.00    -0.200 F 
ENDBRANCH  52  76
BRANCH  64  87
ATOM     87  C   UNL A   1      45.309  30.379  28.438  1.00  0.00     0.064 A 
ATOM     88  C   UNL A   1      44.217  31.058  27.868  1.00  0.00     0.173 A 
ATOM     89  C   UNL A   1      46.591  30.766  28.022  1.00  0.00     0.173 A 
ATOM     90  F   UNL A   1      42.966  30.828  28.282  1.00  0.00    -0.203 F 
ATOM     91  C   UNL A   1      44.403  32.044  26.899  1.00  0.00     0.198 A 
ATOM     92  C   UNL A   1      46.775  31.779  27.085  1.00  0.00     0.198 A 
ATOM     93  F   UNL A   1      47.676  30.194  28.567  1.00  0.00    -0.203 F 
ATOM     94  F   UNL A   1      43.342  32.669  26.365  1.00  0.00    -0.200 F 
ATOM     95  C   UNL A   1      45.682  32.410  26.515  1.00  0.00     0.200 A 
ATOM     96  F   UNL A   1      48.016  32.162  26.755  1.00  0.00    -0.200 F 
ATOM     97  F   UNL A   1      45.861  33.389  25.617  1.00  0.00    -0.200 F 
ENDBRANCH  64  87
ENDBRANCH  38  39
ENDBRANCH  30  33
ENDBRANCH  28  29
ENDBRANCH  27  28
ENDBRANCH  26  27
ENDBRANCH   3  26
TORSDOF 17
ENDMDL
MODEL 2
REMARK VINA RESULT:     -11.8      1.718      2.294
REMARK SMILES CCN(Cc1c(C)nn(CC)c1C)C(=O)Cn1ccc(C(=O)NCCCNC(=O)c2ccc(-c3c4nc(c(-c5c(F)c(F)c(F)c(F)c5F)c5ccc([nH]5)c(-c5c(F)c(F)c(F)c(F)c5F)c5nc(c(-c6c(F)c(F)c(F)c(F)c6F)c6ccc3[nH]6)C=C5)C=C4)cc2)n1
REMARK SMILES IDX 21 1 22 2 23 3 20 5 17 6 18 7 93 8 19 9 16 10 14 11 15 12
REMARK SMILES IDX 3 13 2 14 1 15 4 16 5 17 6 18 12 19 7 20 8 21 9 22 13 23
REMARK SMILES IDX 10 24 11 25 24 26 25 27 26 28 27 29 28 30 29 32 30 33 31 34
REMARK SMILES IDX 92 35 32 36 91 37 33 38 34 39 35 40 85 41 36 42 90 43 84 44
REMARK SMILES IDX 86 45 37 46 89 47 83 48 82 49 38 51 70 52 50 53 69 54 51 55
REMARK SMILES IDX 54 56 68 57 87 58 52 59 53 60 67 62 88 63 55 64 39 65 40 66
REMARK SMILES IDX 48 67 41 68 42 69 46 70 49 71 43 72 44 73 47 74 45 75 71 76
REMARK SMILES IDX 72 77 80 78 73 79 74 80 78 81 81 82 75 83 76 84 79 85 77 86
REMARK SMILES IDX 56 87 57 88 65 89 58 90 59 91 63 92 66 93 60 94 61 95 64 96
REMARK SMILES IDX 62 97
REMARK H PARENT 23 4 27 31 86 50 54 61
REMARK Flexibility Score: inf
ROOT
ATOM      1  C   UNL A   1      30.312  29.432  23.860  1.00  0.00     0.271 C 
ATOM      2  O   UNL A   1      29.295  30.002  23.456  1.00  0.00    -0.267 OA
ATOM      3  N   UNL A   1      31.121  30.131  24.732  1.00  0.00    -0.351 N 
ATOM      4  H   UNL A   1      30.796  31.033  24.959  1.00  0.00     0.163 HD
ENDROOT
BRANCH   1   5
ATOM      5  C   UNL A   1      30.649  28.066  23.421  1.00  0.00     0.150 A 
ATOM      6  N   UNL A   1      30.719  25.931  23.336  1.00  0.00    -0.263 N 
ATOM      7  C   UNL A   1      31.517  26.339  22.305  1.00  0.00     0.110 A 
ATOM      8  N   UNL A   1      30.187  26.954  24.012  1.00  0.00    -0.167 NA
ATOM      9  C   UNL A   1      31.500  27.714  22.337  1.00  0.00     0.056 A 
BRANCH   6  10
ATOM     10  C   UNL A   1      30.440  24.555  23.710  1.00  0.00     0.244 C 
BRANCH  10  11
ATOM     11  C   UNL A   1      31.307  23.971  24.814  1.00  0.00     0.244 C 
ATOM     12  O   UNL A   1      30.772  23.195  25.618  1.00  0.00    -0.273 OA
BRANCH  11  13
ATOM     13  N   UNL A   1      32.683  24.211  24.877  1.00  0.00    -0.337 N 
BRANCH  13  14
ATOM     14  C   UNL A   1      33.166  25.174  25.880  1.00  0.00     0.116 C 
ATOM     15  C   UNL A   1      33.893  26.398  25.326  1.00  0.00     0.027 C 
ENDBRANCH  13  14
BRANCH  13  16
ATOM     16  C   UNL A   1      33.689  23.607  23.988  1.00  0.00     0.159 C 
BRANCH  16  17
ATOM     17  C   UNL A   1      34.040  22.202  24.369  1.00  0.00     0.015 A 
ATOM     18  C   UNL A   1      35.140  21.744  25.149  1.00  0.00     0.065 A 
ATOM     19  C   UNL A   1      33.367  21.037  24.011  1.00  0.00     0.041 A 
ATOM     20  C   UNL A   1      36.249  22.512  25.768  1.00  0.00     0.069 C 
ATOM     21  N   UNL A   1      35.098  20.422  25.335  1.00  0.00    -0.178 NA
ATOM     22  N   UNL A   1      34.030  20.011  24.638  1.00  0.00    -0.270 N 
ATOM     23  C   UNL A   1      32.171  20.811  23.155  1.00  0.00     0.067 C 
BRANCH  22  24
ATOM     24  C   UNL A   1      33.691  18.600  24.659  1.00  0.00     0.141 C 
ATOM     25  C   UNL A   1      34.873  17.712  24.310  1.00  0.00     0.029 C 
ENDBRANCH  22  24
ENDBRANCH  16  17
ENDBRANCH  13  16
ENDBRANCH  11  13
ENDBRANCH  10  11
ENDBRANCH   6  10
ENDBRANCH   1   5
BRANCH   3  26
ATOM     26  C   UNL A   1      32.375  29.760  25.375  1.00  0.00     0.118 C 
BRANCH  26  27
ATOM     27  C   UNL A   1      32.279  29.830  26.903  1.00  0.00     0.042 C 
BRANCH  27  28
ATOM     28  C   UNL A   1      33.632  30.103  27.534  1.00  0.00     0.118 C 
BRANCH  28  29
ATOM     29  N   UNL A   1      34.132  31.457  27.263  1.00  0.00    -0.352 N 
ATOM     30  C   UNL A   1      35.314  32.046  27.681  1.00  0.00     0.251 C 
ATOM     31  H   UNL A   1      33.548  32.022  26.707  1.00  0.00     0.163 HD
ATOM     32  O   UNL A   1      35.478  33.248  27.627  1.00  0.00    -0.269 OA
BRANCH  30  33
ATOM     33  C   UNL A   1      36.368  31.169  28.221  1.00  0.00     0.039 A 
ATOM     34  C   UNL A   1      36.517  29.856  27.774  1.00  0.00     0.014 A 
ATOM     35  C   UNL A   1      37.269  31.723  29.125  1.00  0.00     0.014 A 
ATOM     36  C   UNL A   1      37.650  29.146  28.158  1.00  0.00     0.010 A 
ATOM     37  C   UNL A   1      38.470  31.102  29.336  1.00  0.00     0.010 A 
ATOM     38  C   UNL A   1      38.647  29.792  28.908  1.00  0.00    -0.014 A 
BRANCH  38  39
ATOM     39  C   UNL A   1      39.936  29.150  29.147  1.00  0.00     0.031 A 
ATOM     40  C   UNL A   1      40.207  28.805  30.571  1.00  0.00     0.074 A 
ATOM     41  C   UNL A   1      40.727  28.693  28.152  1.00  0.00     0.049 A 
ATOM     42  N   UNL A   1      41.153  29.261  31.325  1.00  0.00    -0.248 NA
ATOM     43  C   UNL A   1      39.248  27.940  31.281  1.00  0.00     0.031 C 
ATOM     44  C   UNL A   1      40.462  28.658  26.709  1.00  0.00     0.029 A 
ATOM     45  N   UNL A   1      41.917  28.040  28.243  1.00  0.00    -0.354 N 
ATOM     46  C   UNL A   1      41.030  28.601  32.544  1.00  0.00     0.074 A 
ATOM     47  C   UNL A   1      39.753  27.935  32.517  1.00  0.00     0.031 C 
ATOM     48  C   UNL A   1      41.317  27.801  26.110  1.00  0.00     0.029 A 
ATOM     49  C   UNL A   1      42.296  27.368  27.087  1.00  0.00     0.049 A 
ATOM     50  H   UNL A   1      42.464  28.044  29.061  1.00  0.00     0.167 HD
ATOM     51  C   UNL A   1      42.103  28.459  33.373  1.00  0.00     0.037 A 
ATOM     52  C   UNL A   1      43.318  26.483  26.968  1.00  0.00     0.037 A 
ATOM     53  C   UNL A   1      43.134  29.418  33.056  1.00  0.00     0.049 A 
ATOM     54  C   UNL A   1      44.235  26.725  28.113  1.00  0.00     0.074 A 
ATOM     55  C   UNL A   1      43.162  30.798  32.944  1.00  0.00     0.029 A 
ATOM     56  N   UNL A   1      44.260  28.984  32.398  1.00  0.00    -0.354 N 
ATOM     57  N   UNL A   1      44.951  27.807  28.254  1.00  0.00    -0.248 NA
ATOM     58  C   UNL A   1      43.987  25.973  29.335  1.00  0.00     0.031 C 
ATOM     59  C   UNL A   1      43.958  31.053  31.789  1.00  0.00     0.029 A 
ATOM     60  C   UNL A   1      44.439  29.827  31.330  1.00  0.00     0.049 A 
ATOM     61  H   UNL A   1      44.827  28.218  32.644  1.00  0.00     0.167 HD
ATOM     62  C   UNL A   1      44.868  28.107  29.605  1.00  0.00     0.074 A 
ATOM     63  C   UNL A   1      44.326  26.903  30.232  1.00  0.00     0.031 C 
ATOM     64  C   UNL A   1      44.957  29.392  30.056  1.00  0.00     0.037 A 
BRANCH  51  65
ATOM     65  C   UNL A   1      42.374  27.223  34.199  1.00  0.00     0.064 A 
ATOM     66  C   UNL A   1      42.027  27.221  35.565  1.00  0.00     0.173 A 
ATOM     67  C   UNL A   1      43.228  26.175  33.790  1.00  0.00     0.173 A 
ATOM     68  F   UNL A   1      41.238  28.181  36.071  1.00  0.00    -0.203 F 
ATOM     69  C   UNL A   1      42.566  26.297  36.464  1.00  0.00     0.198 A 
ATOM     70  C   UNL A   1      43.718  25.220  34.679  1.00  0.00     0.198 A 
ATOM     71  F   UNL A   1      43.718  26.093  32.548  1.00  0.00    -0.203 F 
ATOM     72  F   UNL A   1      42.317  26.420  37.774  1.00  0.00    -0.200 F 
ATOM     73  C   UNL A   1      43.417  25.301  36.021  1.00  0.00     0.200 A 
ATOM     74  F   UNL A   1      44.558  24.276  34.232  1.00  0.00    -0.200 F 
ATOM     75  F   UNL A   1      43.987  24.454  36.888  1.00  0.00    -0.200 F 
ENDBRANCH  51  65
BRANCH  52  76
ATOM     76  C   UNL A   1      43.395  25.260  26.129  1.00  0.00     0.064 A 
ATOM     77  C   UNL A   1      44.485  25.053  25.266  1.00  0.00     0.173 A 
ATOM     78  C   UNL A   1      42.565  24.145  26.358  1.00  0.00     0.173 A 
ATOM     79  F   UNL A   1      45.349  26.049  25.018  1.00  0.00    -0.203 F 
ATOM     80  C   UNL A   1      44.755  23.800  24.706  1.00  0.00     0.198 A 
ATOM     81  C   UNL A   1      42.829  22.896  25.789  1.00  0.00     0.198 A 
ATOM     82  F   UNL A   1      41.537  24.211  27.215  1.00  0.00    -0.203 F 
ATOM     83  F   UNL A   1      45.849  23.626  23.951  1.00  0.00    -0.200 F 
ATOM     84  C   UNL A   1      43.934  22.719  24.979  1.00  0.00     0.200 A 
ATOM     85  F   UNL A   1      42.044  21.851  26.089  1.00  0.00    -0.200 F 
ATOM     86  F   UNL A   1      44.229  21.502  24.501  1.00  0.00    -0.200 F 
ENDBRANCH  52  76
BRANCH  64  87
ATOM     87  C   UNL A   1      45.389  30.468  29.096  1.00  0.00     0.064 A 
ATOM     88  C   UNL A   1      46.728  30.799  28.825  1.00  0.00     0.173 A 
ATOM     89  C   UNL A   1      44.406  31.076  28.302  1.00  0.00     0.173 A 
ATOM     90  F   UNL A   1      47.735  30.190  29.462  1.00  0.00    -0.203 F 
ATOM     91  C   UNL A   1      47.060  31.725  27.836  1.00  0.00     0.198 A 
ATOM     92  C   UNL A   1      44.742  31.969  27.288  1.00  0.00     0.198 A 
ATOM     93  F   UNL A   1      43.113  30.761  28.475  1.00  0.00    -0.203 F 
ATOM     94  F   UNL A   1      48.346  32.030  27.605  1.00  0.00    -0.200 F 
ATOM     95  C   UNL A   1      46.067  32.303  27.063  1.00  0.00     0.200 A 
ATOM     96  F   UNL A   1      43.780  32.485  26.511  1.00  0.00    -0.200 F 
ATOM     97  F   UNL A   1      46.389  33.158  26.083  1.00  0.00    -0.200 F 
ENDBRANCH  64  87
ENDBRANCH  38  39
ENDBRANCH  30  33
ENDBRANCH  28  29
ENDBRANCH  27  28
ENDBRANCH  26  27
ENDBRANCH   3  26
TORSDOF 17
ENDMDL
MODEL 3
REMARK VINA RESULT:     -11.6      3.195      8.682
REMARK SMILES CCN(Cc1c(C)nn(CC)c1C)C(=O)Cn1ccc(C(=O)NCCCNC(=O)c2ccc(-c3c4nc(c(-c5c(F)c(F)c(F)c(F)c5F)c5ccc([nH]5)c(-c5c(F)c(F)c(F)c(F)c5F)c5nc(c(-c6c(F)c(F)c(F)c(F)c6F)c6ccc3[nH]6)C=C5)C=C4)cc2)n1
REMARK SMILES IDX 21 1 22 2 23 3 20 5 17 6 18 7 93 8 19 9 16 10 14 11 15 12
REMARK SMILES IDX 3 13 2 14 1 15 4 16 5 17 6 18 12 19 7 20 8 21 9 22 13 23
REMARK SMILES IDX 10 24 11 25 24 26 25 27 26 28 27 29 28 30 29 32 30 33 31 34
REMARK SMILES IDX 92 35 32 36 91 37 33 38 34 39 35 40 85 41 36 42 90 43 84 44
REMARK SMILES IDX 86 45 37 46 89 47 83 48 82 49 38 51 70 52 50 53 69 54 51 55
REMARK SMILES IDX 54 56 68 57 87 58 52 59 53 60 67 62 88 63 55 64 39 65 40 66
REMARK SMILES IDX 48 67 41 68 42 69 46 70 49 71 43 72 44 73 47 74 45 75 71 76
REMARK SMILES IDX 72 77 80 78 73 79 74 80 78 81 81 82 75 83 76 84 79 85 77 86
REMARK SMILES IDX 56 87 57 88 65 89 58 90 59 91 63 92 66 93 60 94 61 95 64 96
REMARK SMILES IDX 62 97
REMARK H PARENT 23 4 27 31 86 50 54 61
REMARK Flexibility Score: inf
ROOT
ATOM      1  C   UNL A   1      35.761  23.359  23.793  1.00  0.00     0.271 C 
ATOM      2  O   UNL A   1      35.535  23.088  22.610  1.00  0.00    -0.267 OA
ATOM      3  N   UNL A   1      37.081  23.380  24.193  1.00  0.00    -0.351 N 
ATOM      4  H   UNL A   1      37.729  23.182  23.479  1.00  0.00     0.163 HD
ENDROOT
BRANCH   1   5
ATOM      5  C   UNL A   1      34.663  23.639  24.736  1.00  0.00     0.150 A 
ATOM      6  N   UNL A   1      32.885  24.479  25.575  1.00  0.00    -0.263 N 
ATOM      7  C   UNL A   1      33.340  23.619  26.534  1.00  0.00     0.110 A 
ATOM      8  N   UNL A   1      33.664  24.499  24.488  1.00  0.00    -0.167 NA
ATOM      9  C   UNL A   1      34.493  23.065  26.026  1.00  0.00     0.056 A 
BRANCH   6  10
ATOM     10  C   UNL A   1      31.696  25.310  25.664  1.00  0.00     0.244 C 
BRANCH  10  11
ATOM     11  C   UNL A   1      31.892  26.702  26.242  1.00  0.00     0.244 C 
ATOM     12  O   UNL A   1      31.174  27.038  27.194  1.00  0.00    -0.273 OA
BRANCH  11  13
ATOM     13  N   UNL A   1      32.909  27.551  25.794  1.00  0.00    -0.337 N 
BRANCH  13  14
ATOM     14  C   UNL A   1      33.863  28.064  26.791  1.00  0.00     0.116 C 
ATOM     15  C   UNL A   1      33.696  29.533  27.172  1.00  0.00     0.027 C 
ENDBRANCH  13  14
BRANCH  13  16
ATOM     16  C   UNL A   1      33.078  28.010  24.406  1.00  0.00     0.159 C 
BRANCH  16  17
ATOM     17  C   UNL A   1      31.778  28.271  23.712  1.00  0.00     0.015 A 
ATOM     18  C   UNL A   1      31.184  27.544  22.640  1.00  0.00     0.065 A 
ATOM     19  C   UNL A   1      30.881  29.307  23.958  1.00  0.00     0.041 A 
ATOM     20  C   UNL A   1      31.692  26.363  21.899  1.00  0.00     0.069 C 
ATOM     21  N   UNL A   1      29.984  28.033  22.316  1.00  0.00    -0.178 NA
ATOM     22  N   UNL A   1      29.820  29.097  23.113  1.00  0.00    -0.270 N 
ATOM     23  C   UNL A   1      30.932  30.451  24.909  1.00  0.00     0.067 C 
BRANCH  22  24
ATOM     24  C   UNL A   1      28.580  29.847  23.022  1.00  0.00     0.141 C 
ATOM     25  C   UNL A   1      27.356  28.947  23.014  1.00  0.00     0.029 C 
ENDBRANCH  22  24
ENDBRANCH  16  17
ENDBRANCH  13  16
ENDBRANCH  11  13
ENDBRANCH  10  11
ENDBRANCH   6  10
ENDBRANCH   1   5
BRANCH   3  26
ATOM     26  C   UNL A   1      37.677  23.648  25.496  1.00  0.00     0.118 C 
BRANCH  26  27
ATOM     27  C   UNL A   1      38.469  22.444  26.022  1.00  0.00     0.042 C 
BRANCH  27  28
ATOM     28  C   UNL A   1      39.701  22.882  26.792  1.00  0.00     0.118 C 
BRANCH  28  29
ATOM     29  N   UNL A   1      40.955  22.413  26.189  1.00  0.00    -0.352 N 
ATOM     30  C   UNL A   1      42.069  23.149  25.820  1.00  0.00     0.251 C 
ATOM     31  H   UNL A   1      41.011  21.444  26.025  1.00  0.00     0.163 HD
ATOM     32  O   UNL A   1      42.917  22.689  25.081  1.00  0.00    -0.269 OA
BRANCH  30  33
ATOM     33  C   UNL A   1      42.188  24.525  26.333  1.00  0.00     0.039 A 
ATOM     34  C   UNL A   1      41.560  25.593  25.689  1.00  0.00     0.014 A 
ATOM     35  C   UNL A   1      42.869  24.713  27.530  1.00  0.00     0.014 A 
ATOM     36  C   UNL A   1      41.528  26.829  26.328  1.00  0.00     0.010 A 
ATOM     37  C   UNL A   1      42.665  25.864  28.242  1.00  0.00     0.010 A 
ATOM     38  C   UNL A   1      42.048  26.947  27.629  1.00  0.00    -0.014 A 
BRANCH  38  39
ATOM     39  C   UNL A   1      41.843  28.164  28.407  1.00  0.00     0.031 A 
ATOM     40  C   UNL A   1      42.847  29.238  28.164  1.00  0.00     0.074 A 
ATOM     41  C   UNL A   1      40.719  28.403  29.118  1.00  0.00     0.049 A 
ATOM     42  N   UNL A   1      43.680  29.743  29.013  1.00  0.00    -0.248 NA
ATOM     43  C   UNL A   1      43.032  29.730  26.786  1.00  0.00     0.031 C 
ATOM     44  C   UNL A   1      39.496  27.597  29.203  1.00  0.00     0.029 A 
ATOM     45  N   UNL A   1      40.388  29.507  29.840  1.00  0.00    -0.354 N 
ATOM     46  C   UNL A   1      44.363  30.749  28.334  1.00  0.00     0.074 A 
ATOM     47  C   UNL A   1      44.047  30.583  26.940  1.00  0.00     0.031 C 
ATOM     48  C   UNL A   1      38.491  28.348  29.703  1.00  0.00     0.029 A 
ATOM     49  C   UNL A   1      39.035  29.619  30.136  1.00  0.00     0.049 A 
ATOM     50  H   UNL A   1      41.053  30.173  30.129  1.00  0.00     0.167 HD
ATOM     51  C   UNL A   1      44.933  31.785  29.013  1.00  0.00     0.037 A 
ATOM     52  C   UNL A   1      38.412  30.706  30.659  1.00  0.00     0.037 A 
ATOM     53  C   UNL A   1      45.126  31.452  30.404  1.00  0.00     0.049 A 
ATOM     54  C   UNL A   1      39.462  31.541  31.298  1.00  0.00     0.074 A 
ATOM     55  C   UNL A   1      45.768  30.417  31.063  1.00  0.00     0.029 A 
ATOM     56  N   UNL A   1      44.284  32.004  31.338  1.00  0.00    -0.354 N 
ATOM     57  N   UNL A   1      40.123  31.185  32.366  1.00  0.00    -0.248 NA
ATOM     58  C   UNL A   1      40.104  32.552  30.471  1.00  0.00     0.031 C 
ATOM     59  C   UNL A   1      44.889  30.068  32.131  1.00  0.00     0.029 A 
ATOM     60  C   UNL A   1      43.823  30.967  32.111  1.00  0.00     0.049 A 
ATOM     61  H   UNL A   1      44.054  32.956  31.435  1.00  0.00     0.167 HD
ATOM     62  C   UNL A   1      41.427  31.583  32.117  1.00  0.00     0.074 A 
ATOM     63  C   UNL A   1      41.341  32.486  30.971  1.00  0.00     0.031 C 
ATOM     64  C   UNL A   1      42.490  30.919  32.659  1.00  0.00     0.037 A 
BRANCH  51  65
ATOM     65  C   UNL A   1      44.957  33.210  28.511  1.00  0.00     0.064 A 
ATOM     66  C   UNL A   1      46.180  33.912  28.495  1.00  0.00     0.173 A 
ATOM     67  C   UNL A   1      43.801  34.005  28.344  1.00  0.00     0.173 A 
ATOM     68  F   UNL A   1      47.342  33.263  28.665  1.00  0.00    -0.203 F 
ATOM     69  C   UNL A   1      46.232  35.306  28.409  1.00  0.00     0.198 A 
ATOM     70  C   UNL A   1      43.861  35.390  28.201  1.00  0.00     0.198 A 
ATOM     71  F   UNL A   1      42.566  33.500  28.428  1.00  0.00    -0.203 F 
ATOM     72  F   UNL A   1      47.407  35.936  28.537  1.00  0.00    -0.200 F 
ATOM     73  C   UNL A   1      45.071  36.044  28.269  1.00  0.00     0.200 A 
ATOM     74  F   UNL A   1      42.723  36.089  28.087  1.00  0.00    -0.200 F 
ATOM     75  F   UNL A   1      45.113  37.383  28.252  1.00  0.00    -0.200 F 
ENDBRANCH  51  65
BRANCH  52  76
ATOM     76  C   UNL A   1      37.047  31.218  30.375  1.00  0.00     0.064 A 
ATOM     77  C   UNL A   1      36.189  31.584  31.427  1.00  0.00     0.173 A 
ATOM     78  C   UNL A   1      36.656  31.629  29.086  1.00  0.00     0.173 A 
ATOM     79  F   UNL A   1      36.499  31.267  32.694  1.00  0.00    -0.203 F 
ATOM     80  C   UNL A   1      35.040  32.352  31.209  1.00  0.00     0.198 A 
ATOM     81  C   UNL A   1      35.502  32.385  28.867  1.00  0.00     0.198 A 
ATOM     82  F   UNL A   1      37.432  31.391  28.019  1.00  0.00    -0.203 F 
ATOM     83  F   UNL A   1      34.292  32.746  32.249  1.00  0.00    -0.200 F 
ATOM     84  C   UNL A   1      34.705  32.764  29.930  1.00  0.00     0.200 A 
ATOM     85  F   UNL A   1      35.208  32.804  27.628  1.00  0.00    -0.200 F 
ATOM     86  F   UNL A   1      33.645  33.557  29.727  1.00  0.00    -0.200 F 
ENDBRANCH  52  76
BRANCH  64  87
ATOM     87  C   UNL A   1      42.233  29.893  33.730  1.00  0.00     0.064 A 
ATOM     88  C   UNL A   1      41.775  28.586  33.484  1.00  0.00     0.173 A 
ATOM     89  C   UNL A   1      42.622  30.198  35.042  1.00  0.00     0.173 A 
ATOM     90  F   UNL A   1      41.482  28.176  32.244  1.00  0.00    -0.203 F 
ATOM     91  C   UNL A   1      41.673  27.649  34.512  1.00  0.00     0.198 A 
ATOM     92  C   UNL A   1      42.557  29.249  36.058  1.00  0.00     0.198 A 
ATOM     93  F   UNL A   1      43.118  31.412  35.330  1.00  0.00    -0.203 F 
ATOM     94  F   UNL A   1      41.223  26.412  34.251  1.00  0.00    -0.200 F 
ATOM     95  C   UNL A   1      42.072  27.979  35.796  1.00  0.00     0.200 A 
ATOM     96  F   UNL A   1      42.993  29.559  37.286  1.00  0.00    -0.200 F 
ATOM     97  F   UNL A   1      42.016  27.064  36.774  1.00  0.00    -0.200 F 
ENDBRANCH  64  87
ENDBRANCH  38  39
ENDBRANCH  30  33
ENDBRANCH  28  29
ENDBRANCH  27  28
ENDBRANCH  26  27
ENDBRANCH   3  26
TORSDOF 17
ENDMDL
