MODEL 1
REMARK VINA RESULT:     -12.6      0.000      0.000
REMARK SMILES Cc1c(Br)c(C)c2c(c1Br)O[C@H](C(F)(F)F)C(C(=O)NCCCNC(=O)c1ccc(-c3c4nc(c(-c5c(F)c(F)c(F)c(F)c5F)c5ccc([nH]5)c(-c5c(F)c(F)c(F)c(F)c5F)c5nc(c(-c6c(F)c(F)c(F)c(F)c6F)c6ccc3[nH]6)C=C5)C=C4)cc1)=C2
REMARK SMILES IDX 22 1 21 2 20 3 18 4 19 5 17 7 1 8 2 9 3 10 9 11 4 12 5 13
REMARK SMILES IDX 8 14 10 15 6 16 7 17 11 18 90 19 12 20 13 21 14 22 15 23
REMARK SMILES IDX 16 24 23 25 24 26 25 27 26 29 27 30 28 31 89 32 29 33 88 34
REMARK SMILES IDX 30 35 31 36 32 37 82 38 33 39 87 40 81 41 83 42 34 43 86 44
REMARK SMILES IDX 80 45 79 46 35 48 67 49 47 50 66 51 48 52 51 53 65 54 84 55
REMARK SMILES IDX 49 56 50 57 64 59 85 60 52 61 36 62 37 63 45 64 38 65 39 66
REMARK SMILES IDX 43 67 46 68 40 69 41 70 44 71 42 72 68 73 69 74 77 75 70 76
REMARK SMILES IDX 71 77 75 78 78 79 72 80 73 81 76 82 74 83 53 84 54 85 62 86
REMARK SMILES IDX 55 87 56 88 60 89 63 90 57 91 58 92 61 93 59 94
REMARK H PARENT 20 6 24 28 83 47 51 58
REMARK Flexibility Score: inf
ROOT
ATOM      1  C   UNL A   1      35.004  23.327  26.705  1.00  0.00     0.042 C 
ENDROOT
BRANCH   1   2
ATOM      2  C   UNL A   1      33.817  23.050  25.796  1.00  0.00     0.118 C 
BRANCH   2   3
ATOM      3  N   UNL A   1      34.155  23.245  24.394  1.00  0.00    -0.352 N 
ATOM      4  C   UNL A   1      33.916  24.169  23.435  1.00  0.00     0.251 C 
ATOM      5  O   UNL A   1      34.407  23.918  22.330  1.00  0.00    -0.270 OA
ATOM      6  H   UNL A   1      34.705  22.505  24.051  1.00  0.00     0.163 HD
BRANCH   4   7
ATOM      7  C   UNL A   1      33.131  25.420  23.631  1.00  0.00     0.067 C 
ATOM      8  C   UNL A   1      30.646  31.242  25.347  1.00  0.00     0.047 C 
ATOM      9  C   UNL A   1      31.440  29.980  25.105  1.00  0.00    -0.019 A 
ATOM     10  C   UNL A   1      32.588  29.695  25.895  1.00  0.00     0.025 A 
ATOM     11  C   UNL A   1      31.080  29.059  24.107  1.00  0.00     0.064 A 
ATOM     12  Br  UNL A   1      33.102  30.963  27.244  1.00  0.00    -0.050 Br
ATOM     13  C   UNL A   1      33.353  28.515  25.707  1.00  0.00    -0.026 A 
ATOM     14  C   UNL A   1      31.827  27.886  23.919  1.00  0.00     0.142 A 
ATOM     15  Br  UNL A   1      29.556  29.332  22.979  1.00  0.00    -0.046 Br
ATOM     16  C   UNL A   1      34.577  28.196  26.538  1.00  0.00     0.046 C 
ATOM     17  C   UNL A   1      32.953  27.602  24.705  1.00  0.00     0.022 A 
ATOM     18  O   UNL A   1      31.443  27.058  22.896  1.00  0.00    -0.474 OA
ATOM     19  C   UNL A   1      33.685  26.359  24.420  1.00  0.00     0.026 C 
ATOM     20  C   UNL A   1      31.784  25.661  23.030  1.00  0.00     0.314 C 
BRANCH  20  21
ATOM     21  C   UNL A   1      30.654  24.904  23.753  1.00  0.00     0.429 C 
ATOM     22  F   UNL A   1      29.502  25.618  23.704  1.00  0.00    -0.167 F 
ATOM     23  F   UNL A   1      30.385  23.705  23.183  1.00  0.00    -0.167 F 
ATOM     24  F   UNL A   1      30.932  24.665  25.054  1.00  0.00    -0.167 F 
ENDBRANCH  20  21
ENDBRANCH   4   7
ENDBRANCH   2   3
ENDBRANCH   1   2
BRANCH   1  25
ATOM     25  C   UNL A   1      36.255  23.677  25.912  1.00  0.00     0.118 C 
BRANCH  25  26
ATOM     26  N   UNL A   1      37.288  22.652  26.052  1.00  0.00    -0.352 N 
ATOM     27  C   UNL A   1      38.627  22.778  26.312  1.00  0.00     0.251 C 
ATOM     28  H   UNL A   1      36.971  21.726  25.943  1.00  0.00     0.163 HD
ATOM     29  O   UNL A   1      39.385  21.832  26.104  1.00  0.00    -0.269 OA
BRANCH  27  30
ATOM     30  C   UNL A   1      39.157  24.045  26.843  1.00  0.00     0.039 A 
ATOM     31  C   UNL A   1      39.878  24.896  26.002  1.00  0.00     0.014 A 
ATOM     32  C   UNL A   1      38.959  24.380  28.184  1.00  0.00     0.014 A 
ATOM     33  C   UNL A   1      40.348  26.112  26.496  1.00  0.00     0.010 A 
ATOM     34  C   UNL A   1      39.329  25.634  28.644  1.00  0.00     0.010 A 
ATOM     35  C   UNL A   1      40.046  26.502  27.811  1.00  0.00    -0.014 A 
BRANCH  35  36
ATOM     36  C   UNL A   1      40.504  27.801  28.358  1.00  0.00     0.031 A 
ATOM     37  C   UNL A   1      41.964  28.014  28.642  1.00  0.00     0.074 A 
ATOM     38  C   UNL A   1      39.601  28.754  28.653  1.00  0.00     0.049 A 
ATOM     39  N   UNL A   1      42.559  29.048  29.179  1.00  0.00    -0.248 NA
ATOM     40  C   UNL A   1      42.874  26.906  28.307  1.00  0.00     0.031 C 
ATOM     41  C   UNL A   1      38.154  28.635  28.460  1.00  0.00     0.029 A 
ATOM     42  N   UNL A   1      39.765  30.009  29.178  1.00  0.00    -0.354 N 
ATOM     43  C   UNL A   1      43.903  28.709  29.252  1.00  0.00     0.074 A 
ATOM     44  C   UNL A   1      44.029  27.350  28.778  1.00  0.00     0.031 C 
ATOM     45  C   UNL A   1      37.568  29.786  28.823  1.00  0.00     0.029 A 
ATOM     46  C   UNL A   1      38.591  30.707  29.313  1.00  0.00     0.049 A 
ATOM     47  H   UNL A   1      40.643  30.377  29.434  1.00  0.00     0.167 HD
ATOM     48  C   UNL A   1      44.944  29.479  29.645  1.00  0.00     0.037 A 
ATOM     49  C   UNL A   1      38.367  31.950  29.778  1.00  0.00     0.037 A 
ATOM     50  C   UNL A   1      44.811  30.839  30.091  1.00  0.00     0.049 A 
ATOM     51  C   UNL A   1      39.537  32.778  30.233  1.00  0.00     0.074 A 
ATOM     52  C   UNL A   1      45.804  31.724  30.465  1.00  0.00     0.029 A 
ATOM     53  N   UNL A   1      43.603  31.509  30.223  1.00  0.00    -0.354 N 
ATOM     54  N   UNL A   1      40.812  32.472  30.242  1.00  0.00    -0.248 NA
ATOM     55  C   UNL A   1      39.239  34.124  30.741  1.00  0.00     0.031 C 
ATOM     56  C   UNL A   1      45.194  32.914  30.873  1.00  0.00     0.029 A 
ATOM     57  C   UNL A   1      43.824  32.790  30.699  1.00  0.00     0.049 A 
ATOM     58  H   UNL A   1      42.719  31.131  30.008  1.00  0.00     0.167 HD
ATOM     59  C   UNL A   1      41.471  33.590  30.734  1.00  0.00     0.074 A 
ATOM     60  C   UNL A   1      40.455  34.589  30.997  1.00  0.00     0.031 C 
ATOM     61  C   UNL A   1      42.798  33.771  30.952  1.00  0.00     0.037 A 
BRANCH  48  62
ATOM     62  C   UNL A   1      46.317  28.872  29.593  1.00  0.00     0.064 A 
ATOM     63  C   UNL A   1      47.115  28.959  28.441  1.00  0.00     0.173 A 
ATOM     64  C   UNL A   1      46.856  28.227  30.716  1.00  0.00     0.173 A 
ATOM     65  F   UNL A   1      46.642  29.551  27.335  1.00  0.00    -0.203 F 
ATOM     66  C   UNL A   1      48.391  28.400  28.408  1.00  0.00     0.198 A 
ATOM     67  C   UNL A   1      48.145  27.700  30.690  1.00  0.00     0.198 A 
ATOM     68  F   UNL A   1      46.138  28.117  31.843  1.00  0.00    -0.203 F 
ATOM     69  F   UNL A   1      49.113  28.451  27.280  1.00  0.00    -0.200 F 
ATOM     70  C   UNL A   1      48.907  27.779  29.534  1.00  0.00     0.200 A 
ATOM     71  F   UNL A   1      48.650  27.112  31.784  1.00  0.00    -0.200 F 
ATOM     72  F   UNL A   1      50.139  27.252  29.505  1.00  0.00    -0.200 F 
ENDBRANCH  48  62
BRANCH  49  73
ATOM     73  C   UNL A   1      36.984  32.493  29.782  1.00  0.00     0.064 A 
ATOM     74  C   UNL A   1      36.159  32.340  30.904  1.00  0.00     0.173 A 
ATOM     75  C   UNL A   1      36.475  33.216  28.692  1.00  0.00     0.173 A 
ATOM     76  F   UNL A   1      36.595  31.643  31.964  1.00  0.00    -0.203 F 
ATOM     77  C   UNL A   1      34.878  32.885  30.937  1.00  0.00     0.198 A 
ATOM     78  C   UNL A   1      35.203  33.784  28.736  1.00  0.00     0.198 A 
ATOM     79  F   UNL A   1      37.227  33.398  27.597  1.00  0.00    -0.203 F 
ATOM     80  F   UNL A   1      34.101  32.703  32.012  1.00  0.00    -0.200 F 
ATOM     81  C   UNL A   1      34.405  33.615  29.857  1.00  0.00     0.200 A 
ATOM     82  F   UNL A   1      34.758  34.504  27.698  1.00  0.00    -0.200 F 
ATOM     83  F   UNL A   1      33.179  34.157  29.896  1.00  0.00    -0.200 F 
ENDBRANCH  49  73
BRANCH  61  84
ATOM     84  C   UNL A   1      43.237  35.100  31.493  1.00  0.00     0.064 A 
ATOM     85  C   UNL A   1      43.629  36.143  30.642  1.00  0.00     0.173 A 
ATOM     86  C   UNL A   1      43.180  35.361  32.871  1.00  0.00     0.173 A 
ATOM     87  F   UNL A   1      43.711  35.939  29.319  1.00  0.00    -0.203 F 
ATOM     88  C   UNL A   1      43.960  37.394  31.152  1.00  0.00     0.198 A 
ATOM     89  C   UNL A   1      43.479  36.623  33.374  1.00  0.00     0.198 A 
ATOM     90  F   UNL A   1      42.801  34.400  33.727  1.00  0.00    -0.203 F 
ATOM     91  F   UNL A   1      44.364  38.368  30.323  1.00  0.00    -0.200 F 
ATOM     92  C   UNL A   1      43.873  37.638  32.515  1.00  0.00     0.200 A 
ATOM     93  F   UNL A   1      43.376  36.861  34.689  1.00  0.00    -0.200 F 
ATOM     94  F   UNL A   1      44.171  38.851  33.001  1.00  0.00    -0.200 F 
ENDBRANCH  61  84
ENDBRANCH  35  36
ENDBRANCH  27  30
ENDBRANCH  25  26
ENDBRANCH   1  25
TORSDOF 11
ENDMDL
MODEL 2
REMARK VINA RESULT:     -12.6      3.821      8.972
REMARK SMILES Cc1c(Br)c(C)c2c(c1Br)O[C@H](C(F)(F)F)C(C(=O)NCCCNC(=O)c1ccc(-c3c4nc(c(-c5c(F)c(F)c(F)c(F)c5F)c5ccc([nH]5)c(-c5c(F)c(F)c(F)c(F)c5F)c5nc(c(-c6c(F)c(F)c(F)c(F)c6F)c6ccc3[nH]6)C=C5)C=C4)cc1)=C2
REMARK SMILES IDX 22 1 21 2 20 3 18 4 19 5 17 7 1 8 2 9 3 10 9 11 4 12 5 13
REMARK SMILES IDX 8 14 10 15 6 16 7 17 11 18 90 19 12 20 13 21 14 22 15 23
REMARK SMILES IDX 16 24 23 25 24 26 25 27 26 29 27 30 28 31 89 32 29 33 88 34
REMARK SMILES IDX 30 35 31 36 32 37 82 38 33 39 87 40 81 41 83 42 34 43 86 44
REMARK SMILES IDX 80 45 79 46 35 48 67 49 47 50 66 51 48 52 51 53 65 54 84 55
REMARK SMILES IDX 49 56 50 57 64 59 85 60 52 61 36 62 37 63 45 64 38 65 39 66
REMARK SMILES IDX 43 67 46 68 40 69 41 70 44 71 42 72 68 73 69 74 77 75 70 76
REMARK SMILES IDX 71 77 75 78 78 79 72 80 73 81 76 82 74 83 53 84 54 85 62 86
REMARK SMILES IDX 55 87 56 88 60 89 63 90 57 91 58 92 61 93 59 94
REMARK H PARENT 20 6 24 28 83 47 51 58
REMARK Flexibility Score: inf
ROOT
ATOM      1  C   UNL A   1      33.622  28.558  24.642  1.00  0.00     0.042 C 
ENDROOT
BRANCH   1   2
ATOM      2  C   UNL A   1      32.927  27.255  24.282  1.00  0.00     0.118 C 
BRANCH   2   3
ATOM      3  N   UNL A   1      32.067  26.788  25.359  1.00  0.00    -0.352 N 
ATOM      4  C   UNL A   1      31.803  25.615  25.980  1.00  0.00     0.251 C 
ATOM      5  O   UNL A   1      30.954  25.674  26.875  1.00  0.00    -0.270 OA
ATOM      6  H   UNL A   1      31.534  27.523  25.737  1.00  0.00     0.163 HD
BRANCH   4   7
ATOM      7  C   UNL A   1      32.452  24.313  25.659  1.00  0.00     0.067 C 
ATOM      8  C   UNL A   1      36.424  19.192  24.654  1.00  0.00     0.047 C 
ATOM      9  C   UNL A   1      35.736  20.491  25.002  1.00  0.00    -0.019 A 
ATOM     10  C   UNL A   1      36.502  21.625  25.389  1.00  0.00     0.025 A 
ATOM     11  C   UNL A   1      34.338  20.621  24.960  1.00  0.00     0.064 A 
ATOM     12  Br  UNL A   1      38.413  21.446  25.474  1.00  0.00    -0.050 Br
ATOM     13  C   UNL A   1      35.893  22.866  25.712  1.00  0.00    -0.026 A 
ATOM     14  C   UNL A   1      33.728  21.846  25.271  1.00  0.00     0.142 A 
ATOM     15  Br  UNL A   1      33.199  19.165  24.457  1.00  0.00    -0.046 Br
ATOM     16  C   UNL A   1      36.693  24.083  26.124  1.00  0.00     0.046 C 
ATOM     17  C   UNL A   1      34.485  22.967  25.643  1.00  0.00     0.022 A 
ATOM     18  O   UNL A   1      32.358  21.885  25.253  1.00  0.00    -0.474 OA
ATOM     19  C   UNL A   1      33.757  24.201  25.972  1.00  0.00     0.026 C 
ATOM     20  C   UNL A   1      31.748  23.170  25.003  1.00  0.00     0.314 C 
BRANCH  20  21
ATOM     21  C   UNL A   1      31.540  23.375  23.490  1.00  0.00     0.429 C 
ATOM     22  F   UNL A   1      31.754  22.214  22.823  1.00  0.00    -0.167 F 
ATOM     23  F   UNL A   1      30.278  23.763  23.189  1.00  0.00    -0.167 F 
ATOM     24  F   UNL A   1      32.370  24.305  22.969  1.00  0.00    -0.167 F 
ENDBRANCH  20  21
ENDBRANCH   4   7
ENDBRANCH   2   3
ENDBRANCH   1   2
BRANCH   1  25
ATOM     25  C   UNL A   1      34.028  28.598  26.108  1.00  0.00     0.118 C 
BRANCH  25  26
ATOM     26  N   UNL A   1      33.889  29.939  26.672  1.00  0.00    -0.352 N 
ATOM     27  C   UNL A   1      34.608  30.564  27.656  1.00  0.00     0.251 C 
ATOM     28  H   UNL A   1      33.163  30.479  26.282  1.00  0.00     0.163 HD
ATOM     29  O   UNL A   1      34.163  31.575  28.196  1.00  0.00    -0.269 OA
BRANCH  27  30
ATOM     30  C   UNL A   1      35.917  30.025  28.064  1.00  0.00     0.039 A 
ATOM     31  C   UNL A   1      37.020  30.182  27.222  1.00  0.00     0.014 A 
ATOM     32  C   UNL A   1      36.045  29.340  29.274  1.00  0.00     0.014 A 
ATOM     33  C   UNL A   1      38.265  29.703  27.626  1.00  0.00     0.010 A 
ATOM     34  C   UNL A   1      37.301  28.964  29.724  1.00  0.00     0.010 A 
ATOM     35  C   UNL A   1      38.419  29.121  28.895  1.00  0.00    -0.014 A 
BRANCH  35  36
ATOM     36  C   UNL A   1      39.734  28.629  29.367  1.00  0.00     0.031 A 
ATOM     37  C   UNL A   1      40.528  29.450  30.342  1.00  0.00     0.074 A 
ATOM     38  C   UNL A   1      40.232  27.481  28.871  1.00  0.00     0.049 A 
ATOM     39  N   UNL A   1      41.722  29.232  30.827  1.00  0.00    -0.248 NA
ATOM     40  C   UNL A   1      39.910  30.702  30.813  1.00  0.00     0.031 C 
ATOM     41  C   UNL A   1      39.566  26.628  27.885  1.00  0.00     0.029 A 
ATOM     42  N   UNL A   1      41.413  26.836  29.126  1.00  0.00    -0.354 N 
ATOM     43  C   UNL A   1      41.998  30.317  31.648  1.00  0.00     0.074 A 
ATOM     44  C   UNL A   1      40.884  31.231  31.538  1.00  0.00     0.031 C 
ATOM     45  C   UNL A   1      40.330  25.551  27.650  1.00  0.00     0.029 A 
ATOM     46  C   UNL A   1      41.557  25.658  28.435  1.00  0.00     0.049 A 
ATOM     47  H   UNL A   1      42.095  27.183  29.747  1.00  0.00     0.167 HD
ATOM     48  C   UNL A   1      43.070  30.514  32.450  1.00  0.00     0.037 A 
ATOM     49  C   UNL A   1      42.565  24.767  28.438  1.00  0.00     0.037 A 
ATOM     50  C   UNL A   1      44.161  29.586  32.571  1.00  0.00     0.049 A 
ATOM     51  C   UNL A   1      43.759  25.020  29.319  1.00  0.00     0.074 A 
ATOM     52  C   UNL A   1      45.271  29.665  33.390  1.00  0.00     0.029 A 
ATOM     53  N   UNL A   1      44.275  28.407  31.848  1.00  0.00    -0.354 N 
ATOM     54  N   UNL A   1      43.984  26.020  30.137  1.00  0.00    -0.248 NA
ATOM     55  C   UNL A   1      44.836  24.023  29.278  1.00  0.00     0.031 C 
ATOM     56  C   UNL A   1      46.085  28.560  33.125  1.00  0.00     0.029 A 
ATOM     57  C   UNL A   1      45.454  27.762  32.182  1.00  0.00     0.049 A 
ATOM     58  H   UNL A   1      43.616  28.078  31.194  1.00  0.00     0.167 HD
ATOM     59  C   UNL A   1      45.215  25.764  30.724  1.00  0.00     0.074 A 
ATOM     60  C   UNL A   1      45.681  24.504  30.180  1.00  0.00     0.031 C 
ATOM     61  C   UNL A   1      45.899  26.507  31.630  1.00  0.00     0.037 A 
BRANCH  48  62
ATOM     62  C   UNL A   1      43.103  31.772  33.269  1.00  0.00     0.064 A 
ATOM     63  C   UNL A   1      42.539  31.828  34.554  1.00  0.00     0.173 A 
ATOM     64  C   UNL A   1      43.735  32.927  32.782  1.00  0.00     0.173 A 
ATOM     65  F   UNL A   1      41.909  30.757  35.062  1.00  0.00    -0.203 F 
ATOM     66  C   UNL A   1      42.585  32.997  35.309  1.00  0.00     0.198 A 
ATOM     67  C   UNL A   1      43.809  34.084  33.553  1.00  0.00     0.198 A 
ATOM     68  F   UNL A   1      44.292  32.929  31.562  1.00  0.00    -0.203 F 
ATOM     69  F   UNL A   1      41.994  33.040  36.511  1.00  0.00    -0.200 F 
ATOM     70  C   UNL A   1      43.226  34.120  34.811  1.00  0.00     0.200 A 
ATOM     71  F   UNL A   1      44.441  35.165  33.078  1.00  0.00    -0.200 F 
ATOM     72  F   UNL A   1      43.279  35.242  35.543  1.00  0.00    -0.200 F 
ENDBRANCH  48  62
BRANCH  49  73
ATOM     73  C   UNL A   1      42.455  23.534  27.616  1.00  0.00     0.064 A 
ATOM     74  C   UNL A   1      43.054  23.461  26.352  1.00  0.00     0.173 A 
ATOM     75  C   UNL A   1      41.798  22.390  28.093  1.00  0.00     0.173 A 
ATOM     76  F   UNL A   1      43.680  24.534  25.846  1.00  0.00    -0.203 F 
ATOM     77  C   UNL A   1      42.998  22.295  25.593  1.00  0.00     0.198 A 
ATOM     78  C   UNL A   1      41.765  21.214  27.345  1.00  0.00     0.198 A 
ATOM     79  F   UNL A   1      41.215  22.404  29.301  1.00  0.00    -0.203 F 
ATOM     80  F   UNL A   1      43.557  22.261  24.377  1.00  0.00    -0.200 F 
ATOM     81  C   UNL A   1      42.361  21.169  26.094  1.00  0.00     0.200 A 
ATOM     82  F   UNL A   1      41.165  20.124  27.842  1.00  0.00    -0.200 F 
ATOM     83  F   UNL A   1      42.324  20.040  25.373  1.00  0.00    -0.200 F 
ENDBRANCH  49  73
BRANCH  61  84
ATOM     84  C   UNL A   1      47.221  25.979  32.103  1.00  0.00     0.064 A 
ATOM     85  C   UNL A   1      47.325  25.201  33.264  1.00  0.00     0.173 A 
ATOM     86  C   UNL A   1      48.381  26.180  31.339  1.00  0.00     0.173 A 
ATOM     87  F   UNL A   1      46.248  24.990  34.035  1.00  0.00    -0.203 F 
ATOM     88  C   UNL A   1      48.545  24.653  33.650  1.00  0.00     0.198 A 
ATOM     89  C   UNL A   1      49.592  25.604  31.709  1.00  0.00     0.198 A 
ATOM     90  F   UNL A   1      48.333  26.909  30.213  1.00  0.00    -0.203 F 
ATOM     91  F   UNL A   1      48.629  23.939  34.781  1.00  0.00    -0.200 F 
ATOM     92  C   UNL A   1      49.674  24.844  32.867  1.00  0.00     0.200 A 
ATOM     93  F   UNL A   1      50.677  25.774  30.941  1.00  0.00    -0.200 F 
ATOM     94  F   UNL A   1      50.843  24.297  33.228  1.00  0.00    -0.200 F 
ENDBRANCH  61  84
ENDBRANCH  35  36
ENDBRANCH  27  30
ENDBRANCH  25  26
ENDBRANCH   1  25
TORSDOF 11
ENDMDL
MODEL 3
REMARK VINA RESULT:     -12.6      4.247      7.084
REMARK SMILES Cc1c(Br)c(C)c2c(c1Br)O[C@H](C(F)(F)F)C(C(=O)NCCCNC(=O)c1ccc(-c3c4nc(c(-c5c(F)c(F)c(F)c(F)c5F)c5ccc([nH]5)c(-c5c(F)c(F)c(F)c(F)c5F)c5nc(c(-c6c(F)c(F)c(F)c(F)c6F)c6ccc3[nH]6)C=C5)C=C4)cc1)=C2
REMARK SMILES IDX 22 1 21 2 20 3 18 4 19 5 17 7 1 8 2 9 3 10 9 11 4 12 5 13
REMARK SMILES IDX 8 14 10 15 6 16 7 17 11 18 90 19 12 20 13 21 14 22 15 23
REMARK SMILES IDX 16 24 23 25 24 26 25 27 26 29 27 30 28 31 89 32 29 33 88 34
REMARK SMILES IDX 30 35 31 36 32 37 82 38 33 39 87 40 81 41 83 42 34 43 86 44
REMARK SMILES IDX 80 45 79 46 35 48 67 49 47 50 66 51 48 52 51 53 65 54 84 55
REMARK SMILES IDX 49 56 50 57 64 59 85 60 52 61 36 62 37 63 45 64 38 65 39 66
REMARK SMILES IDX 43 67 46 68 40 69 41 70 44 71 42 72 68 73 69 74 77 75 70 76
REMARK SMILES IDX 71 77 75 78 78 79 72 80 73 81 76 82 74 83 53 84 54 85 62 86
REMARK SMILES IDX 55 87 56 88 60 89 63 90 57 91 58 92 61 93 59 94
REMARK H PARENT 20 6 24 28 83 47 51 58
REMARK Flexibility Score: inf
ROOT
ATOM      1  C   UNL A   1      32.789  28.681  23.820  1.00  0.00     0.042 C 
ENDROOT
BRANCH   1   2
ATOM      2  C   UNL A   1      32.609  27.175  23.918  1.00  0.00     0.118 C 
BRANCH   2   3
ATOM      3  N   UNL A   1      31.895  26.795  25.128  1.00  0.00    -0.352 N 
ATOM      4  C   UNL A   1      31.736  25.680  25.877  1.00  0.00     0.251 C 
ATOM      5  O   UNL A   1      31.001  25.808  26.860  1.00  0.00    -0.270 OA
ATOM      6  H   UNL A   1      31.394  27.555  25.503  1.00  0.00     0.163 HD
BRANCH   4   7
ATOM      7  C   UNL A   1      32.373  24.363  25.594  1.00  0.00     0.067 C 
ATOM      8  C   UNL A   1      36.297  19.177  24.743  1.00  0.00     0.047 C 
ATOM      9  C   UNL A   1      35.620  20.491  25.053  1.00  0.00    -0.019 A 
ATOM     10  C   UNL A   1      36.397  21.628  25.409  1.00  0.00     0.025 A 
ATOM     11  C   UNL A   1      34.224  20.634  25.004  1.00  0.00     0.064 A 
ATOM     12  Br  UNL A   1      38.306  21.434  25.505  1.00  0.00    -0.050 Br
ATOM     13  C   UNL A   1      35.800  22.884  25.696  1.00  0.00    -0.026 A 
ATOM     14  C   UNL A   1      33.625  21.873  25.279  1.00  0.00     0.142 A 
ATOM     15  Br  UNL A   1      33.072  19.176  24.539  1.00  0.00    -0.046 Br
ATOM     16  C   UNL A   1      36.611  24.104  26.076  1.00  0.00     0.046 C 
ATOM     17  C   UNL A   1      34.393  22.996  25.621  1.00  0.00     0.022 A 
ATOM     18  O   UNL A   1      32.256  21.925  25.256  1.00  0.00    -0.474 OA
ATOM     19  C   UNL A   1      33.676  24.247  25.913  1.00  0.00     0.026 C 
ATOM     20  C   UNL A   1      31.659  23.209  24.969  1.00  0.00     0.314 C 
BRANCH  20  21
ATOM     21  C   UNL A   1      31.457  23.373  23.451  1.00  0.00     0.429 C 
ATOM     22  F   UNL A   1      31.463  22.162  22.840  1.00  0.00    -0.167 F 
ATOM     23  F   UNL A   1      30.269  23.949  23.146  1.00  0.00    -0.167 F 
ATOM     24  F   UNL A   1      32.417  24.127  22.872  1.00  0.00    -0.167 F 
ENDBRANCH  20  21
ENDBRANCH   4   7
ENDBRANCH   2   3
ENDBRANCH   1   2
BRANCH   1  25
ATOM     25  C   UNL A   1      33.606  29.231  24.980  1.00  0.00     0.118 C 
BRANCH  25  26
ATOM     26  N   UNL A   1      32.975  30.406  25.577  1.00  0.00    -0.352 N 
ATOM     27  C   UNL A   1      33.214  31.024  26.776  1.00  0.00     0.251 C 
ATOM     28  H   UNL A   1      32.266  30.818  25.032  1.00  0.00     0.163 HD
ATOM     29  O   UNL A   1      32.392  31.816  27.235  1.00  0.00    -0.269 OA
BRANCH  27  30
ATOM     30  C   UNL A   1      34.458  30.743  27.513  1.00  0.00     0.039 A 
ATOM     31  C   UNL A   1      35.412  31.752  27.665  1.00  0.00     0.014 A 
ATOM     32  C   UNL A   1      34.690  29.468  28.033  1.00  0.00     0.014 A 
ATOM     33  C   UNL A   1      36.572  31.495  28.394  1.00  0.00     0.010 A 
ATOM     34  C   UNL A   1      35.789  29.246  28.849  1.00  0.00     0.010 A 
ATOM     35  C   UNL A   1      36.751  30.250  29.018  1.00  0.00    -0.014 A 
BRANCH  35  36
ATOM     36  C   UNL A   1      37.958  29.954  29.825  1.00  0.00     0.031 A 
ATOM     37  C   UNL A   1      39.012  29.035  29.275  1.00  0.00     0.074 A 
ATOM     38  C   UNL A   1      38.069  30.462  31.066  1.00  0.00     0.049 A 
ATOM     39  N   UNL A   1      40.106  28.599  29.844  1.00  0.00    -0.248 NA
ATOM     40  C   UNL A   1      38.792  28.511  27.916  1.00  0.00     0.031 C 
ATOM     41  C   UNL A   1      37.083  31.327  31.716  1.00  0.00     0.029 A 
ATOM     42  N   UNL A   1      39.059  30.322  32.003  1.00  0.00    -0.354 N 
ATOM     43  C   UNL A   1      40.695  27.749  28.918  1.00  0.00     0.074 A 
ATOM     44  C   UNL A   1      39.804  27.667  27.783  1.00  0.00     0.031 C 
ATOM     45  C   UNL A   1      37.537  31.675  32.929  1.00  0.00     0.029 A 
ATOM     46  C   UNL A   1      38.824  31.023  33.160  1.00  0.00     0.049 A 
ATOM     47  H   UNL A   1      39.863  29.771  31.861  1.00  0.00     0.167 HD
ATOM     48  C   UNL A   1      41.891  27.121  28.994  1.00  0.00     0.037 A 
ATOM     49  C   UNL A   1      39.566  31.128  34.278  1.00  0.00     0.037 A 
ATOM     50  C   UNL A   1      42.782  27.230  30.117  1.00  0.00     0.049 A 
ATOM     51  C   UNL A   1      40.881  30.401  34.350  1.00  0.00     0.074 A 
ATOM     52  C   UNL A   1      44.038  26.676  30.277  1.00  0.00     0.029 A 
ATOM     53  N   UNL A   1      42.505  27.943  31.276  1.00  0.00    -0.354 N 
ATOM     54  N   UNL A   1      41.458  29.647  33.446  1.00  0.00    -0.248 NA
ATOM     55  C   UNL A   1      41.647  30.540  35.595  1.00  0.00     0.031 C 
ATOM     56  C   UNL A   1      44.500  27.010  31.553  1.00  0.00     0.029 A 
ATOM     57  C   UNL A   1      43.558  27.820  32.167  1.00  0.00     0.049 A 
ATOM     58  H   UNL A   1      41.683  28.460  31.439  1.00  0.00     0.167 HD
ATOM     59  C   UNL A   1      42.663  29.239  34.001  1.00  0.00     0.074 A 
ATOM     60  C   UNL A   1      42.741  29.844  35.316  1.00  0.00     0.031 C 
ATOM     61  C   UNL A   1      43.616  28.433  33.471  1.00  0.00     0.037 A 
BRANCH  48  62
ATOM     62  C   UNL A   1      42.310  26.278  27.825  1.00  0.00     0.064 A 
ATOM     63  C   UNL A   1      43.192  26.765  26.846  1.00  0.00     0.173 A 
ATOM     64  C   UNL A   1      41.855  24.957  27.696  1.00  0.00     0.173 A 
ATOM     65  F   UNL A   1      43.644  28.026  26.913  1.00  0.00    -0.203 F 
ATOM     66  C   UNL A   1      43.581  25.970  25.771  1.00  0.00     0.198 A 
ATOM     67  C   UNL A   1      42.274  24.154  26.638  1.00  0.00     0.198 A 
ATOM     68  F   UNL A   1      41.013  24.440  28.603  1.00  0.00    -0.203 F 
ATOM     69  F   UNL A   1      44.382  26.475  24.823  1.00  0.00    -0.200 F 
ATOM     70  C   UNL A   1      43.128  24.664  25.673  1.00  0.00     0.200 A 
ATOM     71  F   UNL A   1      41.847  22.886  26.551  1.00  0.00    -0.200 F 
ATOM     72  F   UNL A   1      43.513  23.896  24.643  1.00  0.00    -0.200 F 
ENDBRANCH  48  62
BRANCH  49  73
ATOM     73  C   UNL A   1      39.098  31.997  35.389  1.00  0.00     0.064 A 
ATOM     74  C   UNL A   1      38.356  31.463  36.451  1.00  0.00     0.173 A 
ATOM     75  C   UNL A   1      39.421  33.361  35.441  1.00  0.00     0.173 A 
ATOM     76  F   UNL A   1      38.007  30.167  36.437  1.00  0.00    -0.203 F 
ATOM     77  C   UNL A   1      37.951  32.258  37.520  1.00  0.00     0.198 A 
ATOM     78  C   UNL A   1      39.040  34.150  36.525  1.00  0.00     0.198 A 
ATOM     79  F   UNL A   1      40.137  33.920  34.455  1.00  0.00    -0.203 F 
ATOM     80  F   UNL A   1      37.221  31.727  38.509  1.00  0.00    -0.200 F 
ATOM     81  C   UNL A   1      38.303  33.599  37.561  1.00  0.00     0.200 A 
ATOM     82  F   UNL A   1      39.398  35.440  36.570  1.00  0.00    -0.200 F 
ATOM     83  F   UNL A   1      37.931  34.360  38.601  1.00  0.00    -0.200 F 
ENDBRANCH  49  73
BRANCH  61  84
ATOM     84  C   UNL A   1      44.835  28.161  34.302  1.00  0.00     0.064 A 
ATOM     85  C   UNL A   1      44.918  27.035  35.134  1.00  0.00     0.173 A 
ATOM     86  C   UNL A   1      45.966  28.986  34.198  1.00  0.00     0.173 A 
ATOM     87  F   UNL A   1      43.861  26.222  35.277  1.00  0.00    -0.203 F 
ATOM     88  C   UNL A   1      46.083  26.753  35.840  1.00  0.00     0.198 A 
ATOM     89  C   UNL A   1      47.140  28.682  34.879  1.00  0.00     0.198 A 
ATOM     90  F   UNL A   1      45.942  30.070  33.407  1.00  0.00    -0.203 F 
ATOM     91  F   UNL A   1      46.130  25.689  36.655  1.00  0.00    -0.200 F 
ATOM     92  C   UNL A   1      47.197  27.569  35.703  1.00  0.00     0.200 A 
ATOM     93  F   UNL A   1      48.221  29.461  34.730  1.00  0.00    -0.200 F 
ATOM     94  F   UNL A   1      48.326  27.281  36.366  1.00  0.00    -0.200 F 
ENDBRANCH  61  84
ENDBRANCH  35  36
ENDBRANCH  27  30
ENDBRANCH  25  26
ENDBRANCH   1  25
TORSDOF 11
ENDMDL
