MODEL 1
REMARK VINA RESULT:     -11.2      0.000      0.000
REMARK SMILES CCC[NH2+][C@@]1(C(=O)NCCCNC(=O)c2ccc(-c3c4nc(c(-c5c(F)c(F)c(F)c(F)c5F)c5ccc([nH]5)c(-c5c(F)c(F)c(F)c(F)c5F)c5nc(c(-c6c(F)c(F)c(F)c(F)c6F)c6ccc3[nH]6)C=C5)C=C4)cc2)CC[C@@H](Sc2ccc(OC)cc2)C1
REMARK SMILES IDX 9 1 8 2 6 3 7 4 5 6 78 7 90 8 79 9 80 10 4 11 3 14 2 15 1 16
REMARK SMILES IDX 81 17 82 18 83 19 89 20 84 21 88 22 85 23 86 24 87 25 10 26
REMARK SMILES IDX 11 27 12 28 13 29 14 31 15 32 16 33 77 34 17 35 76 36 18 37
REMARK SMILES IDX 19 38 20 39 70 40 21 41 75 42 69 43 71 44 22 45 74 46 68 47
REMARK SMILES IDX 67 48 23 50 55 51 35 52 54 53 36 54 39 55 53 56 72 57 37 58
REMARK SMILES IDX 38 59 52 61 73 62 40 63 24 64 25 65 33 66 26 67 27 68 31 69
REMARK SMILES IDX 34 70 28 71 29 72 32 73 30 74 56 75 57 76 65 77 58 78 59 79
REMARK SMILES IDX 63 80 66 81 60 82 61 83 64 84 62 85 41 86 42 87 50 88 43 89
REMARK SMILES IDX 44 90 48 91 51 92 45 93 46 94 49 95 47 96
REMARK H PARENT 8 5 4 12 4 13 12 30 71 49 39 60
REMARK Flexibility Score: inf
ROOT
ATOM      1  C   UNL A   1      31.337  30.376  25.736  1.00  0.00     0.118 C 
ENDROOT
BRANCH   1   2
ATOM      2  N   UNL A   1      30.744  30.219  24.430  1.00  0.00    -0.351 N 
ATOM      3  C   UNL A   1      30.656  29.177  23.562  1.00  0.00     0.281 C 
ATOM      4  O   UNL A   1      30.130  29.480  22.481  1.00  0.00    -0.268 OA
ATOM      5  H   UNL A   1      30.312  31.038  24.098  1.00  0.00     0.163 HD
BRANCH   3   6
ATOM      6  C   UNL A   1      31.212  27.723  23.849  1.00  0.00     0.176 C 
ATOM      7  C   UNL A   1      32.666  27.640  24.344  1.00  0.00     0.080 C 
ATOM      8  C   UNL A   1      31.159  26.882  22.554  1.00  0.00     0.094 C 
ATOM      9  C   UNL A   1      33.512  26.966  23.264  1.00  0.00     0.022 C 
ATOM     10  C   UNL A   1      32.596  26.711  22.071  1.00  0.00     0.058 C 
BRANCH   6  11
ATOM     11  N   UNL A   1      30.300  27.065  24.835  1.00  0.00    -0.334 N 
ATOM     12  H   UNL A   1      29.657  27.772  25.193  1.00  0.00     0.347 HD
ATOM     13  H   UNL A   1      29.833  26.310  24.332  1.00  0.00     0.347 HD
BRANCH  11  14
ATOM     14  C   UNL A   1      30.971  26.441  25.980  1.00  0.00     0.261 C 
BRANCH  14  15
ATOM     15  C   UNL A   1      30.791  24.919  25.979  1.00  0.00     0.058 C 
ATOM     16  C   UNL A   1      31.775  24.181  26.875  1.00  0.00     0.010 C 
ENDBRANCH  14  15
ENDBRANCH  11  14
ENDBRANCH   6  11
BRANCH  10  17
ATOM     17  S   UNL A   1      32.903  25.154  21.139  1.00  0.00    -0.122 SA
BRANCH  17  18
ATOM     18  C   UNL A   1      33.098  23.972  22.458  1.00  0.00     0.008 A 
ATOM     19  C   UNL A   1      32.001  23.208  22.866  1.00  0.00     0.019 A 
ATOM     20  C   UNL A   1      34.335  23.770  23.070  1.00  0.00     0.019 A 
ATOM     21  C   UNL A   1      32.162  22.211  23.831  1.00  0.00     0.047 A 
ATOM     22  C   UNL A   1      34.496  22.769  24.033  1.00  0.00     0.047 A 
ATOM     23  C   UNL A   1      33.411  21.976  24.408  1.00  0.00     0.118 A 
BRANCH  23  24
ATOM     24  O   UNL A   1      33.439  20.959  25.321  1.00  0.00    -0.497 OA
ATOM     25  C   UNL A   1      34.027  21.248  26.583  1.00  0.00     0.278 C 
ENDBRANCH  23  24
ENDBRANCH  17  18
ENDBRANCH  10  17
ENDBRANCH   3   6
ENDBRANCH   1   2
BRANCH   1  26
ATOM     26  C   UNL A   1      31.262  31.818  26.222  1.00  0.00     0.042 C 
BRANCH  26  27
ATOM     27  C   UNL A   1      32.550  32.298  26.878  1.00  0.00     0.118 C 
BRANCH  27  28
ATOM     28  N   UNL A   1      32.440  33.676  27.341  1.00  0.00    -0.352 N 
ATOM     29  C   UNL A   1      33.063  34.325  28.372  1.00  0.00     0.251 C 
ATOM     30  H   UNL A   1      31.812  34.232  26.826  1.00  0.00     0.163 HD
ATOM     31  O   UNL A   1      32.621  35.411  28.751  1.00  0.00    -0.269 OA
BRANCH  29  32
ATOM     32  C   UNL A   1      34.251  33.748  29.035  1.00  0.00     0.039 A 
ATOM     33  C   UNL A   1      34.064  32.762  30.008  1.00  0.00     0.014 A 
ATOM     34  C   UNL A   1      35.539  34.209  28.752  1.00  0.00     0.014 A 
ATOM     35  C   UNL A   1      35.168  32.208  30.656  1.00  0.00     0.010 A 
ATOM     36  C   UNL A   1      36.644  33.590  29.326  1.00  0.00     0.010 A 
ATOM     37  C   UNL A   1      36.470  32.593  30.294  1.00  0.00    -0.014 A 
BRANCH  37  38
ATOM     38  C   UNL A   1      37.653  31.957  30.924  1.00  0.00     0.031 A 
ATOM     39  C   UNL A   1      38.102  32.367  32.299  1.00  0.00     0.074 A 
ATOM     40  C   UNL A   1      38.352  31.041  30.226  1.00  0.00     0.049 A 
ATOM     41  N   UNL A   1      39.113  31.925  33.005  1.00  0.00    -0.248 NA
ATOM     42  C   UNL A   1      37.337  33.437  32.957  1.00  0.00     0.031 C 
ATOM     43  C   UNL A   1      38.058  30.624  28.853  1.00  0.00     0.029 A 
ATOM     44  N   UNL A   1      39.452  30.300  30.570  1.00  0.00    -0.354 N 
ATOM     45  C   UNL A   1      39.112  32.672  34.175  1.00  0.00     0.074 A 
ATOM     46  C   UNL A   1      38.040  33.636  34.061  1.00  0.00     0.031 C 
ATOM     47  C   UNL A   1      38.933  29.676  28.486  1.00  0.00     0.029 A 
ATOM     48  C   UNL A   1      39.866  29.441  29.583  1.00  0.00     0.049 A 
ATOM     49  H   UNL A   1      39.902  30.377  31.443  1.00  0.00     0.167 HD
ATOM     50  C   UNL A   1      39.919  32.548  35.257  1.00  0.00     0.037 A 
ATOM     51  C   UNL A   1      40.880  28.558  29.567  1.00  0.00     0.037 A 
ATOM     52  C   UNL A   1      40.966  31.566  35.372  1.00  0.00     0.049 A 
ATOM     53  C   UNL A   1      41.732  28.407  30.797  1.00  0.00     0.074 A 
ATOM     54  C   UNL A   1      41.789  31.301  36.452  1.00  0.00     0.029 A 
ATOM     55  N   UNL A   1      41.337  30.687  34.363  1.00  0.00    -0.354 N 
ATOM     56  N   UNL A   1      41.666  29.057  31.934  1.00  0.00    -0.248 NA
ATOM     57  C   UNL A   1      42.790  27.391  30.745  1.00  0.00     0.031 C 
ATOM     58  C   UNL A   1      42.688  30.295  36.082  1.00  0.00     0.029 A 
ATOM     59  C   UNL A   1      42.391  29.895  34.789  1.00  0.00     0.049 A 
ATOM     60  H   UNL A   1      40.912  30.635  33.476  1.00  0.00     0.167 HD
ATOM     61  C   UNL A   1      42.659  28.519  32.740  1.00  0.00     0.074 A 
ATOM     62  C   UNL A   1      43.294  27.469  31.968  1.00  0.00     0.031 C 
ATOM     63  C   UNL A   1      43.018  28.864  34.001  1.00  0.00     0.037 A 
BRANCH  50  64
ATOM     64  C   UNL A   1      39.696  33.496  36.402  1.00  0.00     0.064 A 
ATOM     65  C   UNL A   1      40.306  34.759  36.443  1.00  0.00     0.173 A 
ATOM     66  C   UNL A   1      38.843  33.147  37.460  1.00  0.00     0.173 A 
ATOM     67  F   UNL A   1      41.140  35.139  35.463  1.00  0.00    -0.203 F 
ATOM     68  C   UNL A   1      40.097  35.624  37.515  1.00  0.00     0.198 A 
ATOM     69  C   UNL A   1      38.611  34.027  38.514  1.00  0.00     0.198 A 
ATOM     70  F   UNL A   1      38.230  31.954  37.470  1.00  0.00    -0.203 F 
ATOM     71  F   UNL A   1      40.734  36.802  37.559  1.00  0.00    -0.200 F 
ATOM     72  C   UNL A   1      39.245  35.260  38.547  1.00  0.00     0.200 A 
ATOM     73  F   UNL A   1      37.778  33.678  39.505  1.00  0.00    -0.200 F 
ATOM     74  F   UNL A   1      39.041  36.094  39.576  1.00  0.00    -0.200 F 
ENDBRANCH  50  64
BRANCH  51  75
ATOM     75  C   UNL A   1      41.113  27.722  28.362  1.00  0.00     0.064 A 
ATOM     76  C   UNL A   1      41.974  28.152  27.342  1.00  0.00     0.173 A 
ATOM     77  C   UNL A   1      40.498  26.471  28.212  1.00  0.00     0.173 A 
ATOM     78  F   UNL A   1      42.573  29.349  27.433  1.00  0.00    -0.203 F 
ATOM     79  C   UNL A   1      42.194  27.372  26.210  1.00  0.00     0.198 A 
ATOM     80  C   UNL A   1      40.741  25.679  27.092  1.00  0.00     0.198 A 
ATOM     81  F   UNL A   1      39.673  26.010  29.164  1.00  0.00    -0.203 F 
ATOM     82  F   UNL A   1      42.988  27.826  25.230  1.00  0.00    -0.200 F 
ATOM     83  C   UNL A   1      41.582  26.133  26.088  1.00  0.00     0.200 A 
ATOM     84  F   UNL A   1      40.161  24.475  26.986  1.00  0.00    -0.200 F 
ATOM     85  F   UNL A   1      41.801  25.380  25.001  1.00  0.00    -0.200 F 
ENDBRANCH  51  75
BRANCH  63  86
ATOM     86  C   UNL A   1      44.142  28.086  34.622  1.00  0.00     0.064 A 
ATOM     87  C   UNL A   1      43.908  26.895  35.327  1.00  0.00     0.173 A 
ATOM     88  C   UNL A   1      45.466  28.534  34.509  1.00  0.00     0.173 A 
ATOM     89  F   UNL A   1      42.658  26.433  35.478  1.00  0.00    -0.203 F 
ATOM     90  C   UNL A   1      44.956  26.203  35.929  1.00  0.00     0.198 A 
ATOM     91  C   UNL A   1      46.514  27.821  35.083  1.00  0.00     0.198 A 
ATOM     92  F   UNL A   1      45.744  29.662  33.839  1.00  0.00    -0.203 F 
ATOM     93  F   UNL A   1      44.702  25.103  36.650  1.00  0.00    -0.200 F 
ATOM     94  C   UNL A   1      46.258  26.663  35.801  1.00  0.00     0.200 A 
ATOM     95  F   UNL A   1      47.774  28.260  34.948  1.00  0.00    -0.200 F 
ATOM     96  F   UNL A   1      47.264  25.997  36.383  1.00  0.00    -0.200 F 
ENDBRANCH  63  86
ENDBRANCH  37  38
ENDBRANCH  29  32
ENDBRANCH  27  28
ENDBRANCH  26  27
ENDBRANCH   1  26
TORSDOF 16
ENDMDL
MODEL 2
REMARK VINA RESULT:     -11.2      5.241      9.551
REMARK SMILES CCC[NH2+][C@@]1(C(=O)NCCCNC(=O)c2ccc(-c3c4nc(c(-c5c(F)c(F)c(F)c(F)c5F)c5ccc([nH]5)c(-c5c(F)c(F)c(F)c(F)c5F)c5nc(c(-c6c(F)c(F)c(F)c(F)c6F)c6ccc3[nH]6)C=C5)C=C4)cc2)CC[C@@H](Sc2ccc(OC)cc2)C1
REMARK SMILES IDX 9 1 8 2 6 3 7 4 5 6 78 7 90 8 79 9 80 10 4 11 3 14 2 15 1 16
REMARK SMILES IDX 81 17 82 18 83 19 89 20 84 21 88 22 85 23 86 24 87 25 10 26
REMARK SMILES IDX 11 27 12 28 13 29 14 31 15 32 16 33 77 34 17 35 76 36 18 37
REMARK SMILES IDX 19 38 20 39 70 40 21 41 75 42 69 43 71 44 22 45 74 46 68 47
REMARK SMILES IDX 67 48 23 50 55 51 35 52 54 53 36 54 39 55 53 56 72 57 37 58
REMARK SMILES IDX 38 59 52 61 73 62 40 63 24 64 25 65 33 66 26 67 27 68 31 69
REMARK SMILES IDX 34 70 28 71 29 72 32 73 30 74 56 75 57 76 65 77 58 78 59 79
REMARK SMILES IDX 63 80 66 81 60 82 61 83 64 84 62 85 41 86 42 87 50 88 43 89
REMARK SMILES IDX 44 90 48 91 51 92 45 93 46 94 49 95 47 96
REMARK H PARENT 8 5 4 12 4 13 12 30 71 49 39 60
REMARK Flexibility Score: inf
ROOT
ATOM      1  C   UNL A   1      36.914  20.574  24.912  1.00  0.00     0.118 C 
ENDROOT
BRANCH   1   2
ATOM      2  N   UNL A   1      35.645  19.888  24.942  1.00  0.00    -0.351 N 
ATOM      3  C   UNL A   1      34.355  20.309  25.017  1.00  0.00     0.281 C 
ATOM      4  O   UNL A   1      33.538  19.381  25.108  1.00  0.00    -0.268 OA
ATOM      5  H   UNL A   1      35.731  18.908  24.898  1.00  0.00     0.163 HD
BRANCH   3   6
ATOM      6  C   UNL A   1      33.910  21.828  25.045  1.00  0.00     0.176 C 
ATOM      7  C   UNL A   1      34.438  22.667  26.222  1.00  0.00     0.080 C 
ATOM      8  C   UNL A   1      32.369  21.916  25.123  1.00  0.00     0.094 C 
ATOM      9  C   UNL A   1      33.259  23.055  27.113  1.00  0.00     0.022 C 
ATOM     10  C   UNL A   1      32.018  22.385  26.532  1.00  0.00     0.058 C 
BRANCH   6  11
ATOM     11  N   UNL A   1      34.318  22.454  23.750  1.00  0.00    -0.334 N 
ATOM     12  H   UNL A   1      35.013  21.850  23.310  1.00  0.00     0.347 HD
ATOM     13  H   UNL A   1      33.465  22.555  23.200  1.00  0.00     0.347 HD
BRANCH  11  14
ATOM     14  C   UNL A   1      34.893  23.799  23.865  1.00  0.00     0.261 C 
BRANCH  14  15
ATOM     15  C   UNL A   1      33.957  24.865  23.285  1.00  0.00     0.058 C 
ATOM     16  C   UNL A   1      33.071  24.358  22.157  1.00  0.00     0.010 C 
ENDBRANCH  14  15
ENDBRANCH  11  14
ENDBRANCH   6  11
BRANCH  10  17
ATOM     17  S   UNL A   1      30.456  23.351  26.642  1.00  0.00    -0.122 SA
BRANCH  17  18
ATOM     18  C   UNL A   1      30.903  24.864  25.813  1.00  0.00     0.008 A 
ATOM     19  C   UNL A   1      30.336  25.163  24.572  1.00  0.00     0.019 A 
ATOM     20  C   UNL A   1      31.786  25.773  26.397  1.00  0.00     0.019 A 
ATOM     21  C   UNL A   1      30.603  26.388  23.957  1.00  0.00     0.047 A 
ATOM     22  C   UNL A   1      32.050  27.001  25.782  1.00  0.00     0.047 A 
ATOM     23  C   UNL A   1      31.449  27.318  24.563  1.00  0.00     0.118 A 
BRANCH  23  24
ATOM     24  O   UNL A   1      31.609  28.486  23.870  1.00  0.00    -0.497 OA
ATOM     25  C   UNL A   1      30.477  29.342  23.790  1.00  0.00     0.278 C 
ENDBRANCH  23  24
ENDBRANCH  17  18
ENDBRANCH  10  17
ENDBRANCH   3   6
ENDBRANCH   1   2
BRANCH   1  26
ATOM     26  C   UNL A   1      38.085  19.606  25.027  1.00  0.00     0.042 C 
BRANCH  26  27
ATOM     27  C   UNL A   1      39.147  20.063  26.017  1.00  0.00     0.118 C 
BRANCH  27  28
ATOM     28  N   UNL A   1      40.295  19.165  26.032  1.00  0.00    -0.352 N 
ATOM     29  C   UNL A   1      41.638  19.430  26.035  1.00  0.00     0.251 C 
ATOM     30  H   UNL A   1      40.066  18.208  26.041  1.00  0.00     0.163 HD
ATOM     31  O   UNL A   1      42.428  18.520  25.776  1.00  0.00    -0.269 OA
BRANCH  29  32
ATOM     32  C   UNL A   1      42.152  20.780  26.341  1.00  0.00     0.039 A 
ATOM     33  C   UNL A   1      42.357  21.676  25.287  1.00  0.00     0.014 A 
ATOM     34  C   UNL A   1      42.489  21.152  27.645  1.00  0.00     0.014 A 
ATOM     35  C   UNL A   1      42.851  22.954  25.549  1.00  0.00     0.010 A 
ATOM     36  C   UNL A   1      42.889  22.457  27.917  1.00  0.00     0.010 A 
ATOM     37  C   UNL A   1      43.088  23.367  26.871  1.00  0.00    -0.014 A 
BRANCH  37  38
ATOM     38  C   UNL A   1      43.542  24.748  27.166  1.00  0.00     0.031 A 
ATOM     39  C   UNL A   1      42.574  25.779  27.675  1.00  0.00     0.074 A 
ATOM     40  C   UNL A   1      44.824  25.080  26.921  1.00  0.00     0.049 A 
ATOM     41  N   UNL A   1      42.789  27.034  27.982  1.00  0.00    -0.248 NA
ATOM     42  C   UNL A   1      41.174  25.358  27.830  1.00  0.00     0.031 C 
ATOM     43  C   UNL A   1      45.833  24.186  26.350  1.00  0.00     0.029 A 
ATOM     44  N   UNL A   1      45.497  26.259  27.116  1.00  0.00    -0.354 N 
ATOM     45  C   UNL A   1      41.554  27.551  28.348  1.00  0.00     0.074 A 
ATOM     46  C   UNL A   1      40.583  26.494  28.168  1.00  0.00     0.031 C 
ATOM     47  C   UNL A   1      47.004  24.836  26.276  1.00  0.00     0.029 A 
ATOM     48  C   UNL A   1      46.822  26.198  26.763  1.00  0.00     0.049 A 
ATOM     49  H   UNL A   1      45.070  27.070  27.476  1.00  0.00     0.167 HD
ATOM     50  C   UNL A   1      41.260  28.788  28.815  1.00  0.00     0.037 A 
ATOM     51  C   UNL A   1      47.784  27.136  26.832  1.00  0.00     0.037 A 
ATOM     52  C   UNL A   1      42.239  29.826  29.017  1.00  0.00     0.049 A 
ATOM     53  C   UNL A   1      47.443  28.488  27.396  1.00  0.00     0.074 A 
ATOM     54  C   UNL A   1      42.064  31.087  29.559  1.00  0.00     0.029 A 
ATOM     55  N   UNL A   1      43.581  29.719  28.679  1.00  0.00    -0.354 N 
ATOM     56  N   UNL A   1      46.288  28.938  27.825  1.00  0.00    -0.248 NA
ATOM     57  C   UNL A   1      48.542  29.456  27.500  1.00  0.00     0.031 C 
ATOM     58  C   UNL A   1      43.289  31.760  29.506  1.00  0.00     0.029 A 
ATOM     59  C   UNL A   1      44.241  30.900  28.980  1.00  0.00     0.049 A 
ATOM     60  H   UNL A   1      44.002  28.922  28.285  1.00  0.00     0.167 HD
ATOM     61  C   UNL A   1      46.523  30.233  28.265  1.00  0.00     0.074 A 
ATOM     62  C   UNL A   1      47.937  30.484  28.076  1.00  0.00     0.031 C 
ATOM     63  C   UNL A   1      45.647  31.136  28.773  1.00  0.00     0.037 A 
BRANCH  50  64
ATOM     64  C   UNL A   1      39.824  29.086  29.142  1.00  0.00     0.064 A 
ATOM     65  C   UNL A   1      38.909  29.484  28.154  1.00  0.00     0.173 A 
ATOM     66  C   UNL A   1      39.348  28.946  30.454  1.00  0.00     0.173 A 
ATOM     67  F   UNL A   1      39.313  29.644  26.885  1.00  0.00    -0.203 F 
ATOM     68  C   UNL A   1      37.583  29.764  28.474  1.00  0.00     0.198 A 
ATOM     69  C   UNL A   1      38.013  29.196  30.764  1.00  0.00     0.198 A 
ATOM     70  F   UNL A   1      40.177  28.564  31.438  1.00  0.00    -0.203 F 
ATOM     71  F   UNL A   1      36.743  30.197  27.523  1.00  0.00    -0.200 F 
ATOM     72  C   UNL A   1      37.134  29.614  29.777  1.00  0.00     0.200 A 
ATOM     73  F   UNL A   1      37.578  29.039  32.023  1.00  0.00    -0.200 F 
ATOM     74  F   UNL A   1      35.857  29.879  30.082  1.00  0.00    -0.200 F 
ENDBRANCH  50  64
BRANCH  51  75
ATOM     75  C   UNL A   1      49.165  26.812  26.394  1.00  0.00     0.064 A 
ATOM     76  C   UNL A   1      50.101  26.285  27.295  1.00  0.00     0.173 A 
ATOM     77  C   UNL A   1      49.573  27.002  25.066  1.00  0.00     0.173 A 
ATOM     78  F   UNL A   1      49.763  26.100  28.580  1.00  0.00    -0.203 F 
ATOM     79  C   UNL A   1      51.398  25.981  26.889  1.00  0.00     0.198 A 
ATOM     80  C   UNL A   1      50.862  26.671  24.655  1.00  0.00     0.198 A 
ATOM     81  F   UNL A   1      48.712  27.494  24.163  1.00  0.00    -0.203 F 
ATOM     82  F   UNL A   1      52.286  25.519  27.781  1.00  0.00    -0.200 F 
ATOM     83  C   UNL A   1      51.777  26.168  25.568  1.00  0.00     0.200 A 
ATOM     84  F   UNL A   1      51.219  26.837  23.373  1.00  0.00    -0.200 F 
ATOM     85  F   UNL A   1      53.023  25.867  25.177  1.00  0.00    -0.200 F 
ENDBRANCH  51  75
BRANCH  63  86
ATOM     86  C   UNL A   1      46.206  32.471  29.171  1.00  0.00     0.064 A 
ATOM     87  C   UNL A   1      46.682  32.711  30.469  1.00  0.00     0.173 A 
ATOM     88  C   UNL A   1      46.268  33.521  28.242  1.00  0.00     0.173 A 
ATOM     89  F   UNL A   1      46.629  31.744  31.397  1.00  0.00    -0.203 F 
ATOM     90  C   UNL A   1      47.165  33.965  30.833  1.00  0.00     0.198 A 
ATOM     91  C   UNL A   1      46.783  34.763  28.601  1.00  0.00     0.198 A 
ATOM     92  F   UNL A   1      45.833  33.342  26.987  1.00  0.00    -0.203 F 
ATOM     93  F   UNL A   1      47.555  34.189  32.095  1.00  0.00    -0.200 F 
ATOM     94  C   UNL A   1      47.220  34.988  29.898  1.00  0.00     0.200 A 
ATOM     95  F   UNL A   1      46.848  35.747  27.693  1.00  0.00    -0.200 F 
ATOM     96  F   UNL A   1      47.682  36.195  30.251  1.00  0.00    -0.200 F 
ENDBRANCH  63  86
ENDBRANCH  37  38
ENDBRANCH  29  32
ENDBRANCH  27  28
ENDBRANCH  26  27
ENDBRANCH   1  26
TORSDOF 16
ENDMDL
MODEL 3
REMARK VINA RESULT:     -11.2      5.229     10.954
REMARK SMILES CCC[NH2+][C@@]1(C(=O)NCCCNC(=O)c2ccc(-c3c4nc(c(-c5c(F)c(F)c(F)c(F)c5F)c5ccc([nH]5)c(-c5c(F)c(F)c(F)c(F)c5F)c5nc(c(-c6c(F)c(F)c(F)c(F)c6F)c6ccc3[nH]6)C=C5)C=C4)cc2)CC[C@@H](Sc2ccc(OC)cc2)C1
REMARK SMILES IDX 9 1 8 2 6 3 7 4 5 6 78 7 90 8 79 9 80 10 4 11 3 14 2 15 1 16
REMARK SMILES IDX 81 17 82 18 83 19 89 20 84 21 88 22 85 23 86 24 87 25 10 26
REMARK SMILES IDX 11 27 12 28 13 29 14 31 15 32 16 33 77 34 17 35 76 36 18 37
REMARK SMILES IDX 19 38 20 39 70 40 21 41 75 42 69 43 71 44 22 45 74 46 68 47
REMARK SMILES IDX 67 48 23 50 55 51 35 52 54 53 36 54 39 55 53 56 72 57 37 58
REMARK SMILES IDX 38 59 52 61 73 62 40 63 24 64 25 65 33 66 26 67 27 68 31 69
REMARK SMILES IDX 34 70 28 71 29 72 32 73 30 74 56 75 57 76 65 77 58 78 59 79
REMARK SMILES IDX 63 80 66 81 60 82 61 83 64 84 62 85 41 86 42 87 50 88 43 89
REMARK SMILES IDX 44 90 48 91 51 92 45 93 46 94 49 95 47 96
REMARK H PARENT 8 5 4 12 4 13 12 30 71 49 39 60
REMARK Flexibility Score: inf
ROOT
ATOM      1  C   UNL A   1      37.164  20.293  24.619  1.00  0.00     0.118 C 
ENDROOT
BRANCH   1   2
ATOM      2  N   UNL A   1      35.819  19.966  25.024  1.00  0.00    -0.351 N 
ATOM      3  C   UNL A   1      34.785  20.698  25.516  1.00  0.00     0.281 C 
ATOM      4  O   UNL A   1      33.801  20.013  25.829  1.00  0.00    -0.268 OA
ATOM      5  H   UNL A   1      35.604  19.011  24.923  1.00  0.00     0.163 HD
BRANCH   3   6
ATOM      6  C   UNL A   1      34.823  22.266  25.733  1.00  0.00     0.176 C 
ATOM      7  C   UNL A   1      33.708  22.854  26.614  1.00  0.00     0.080 C 
ATOM      8  C   UNL A   1      34.704  22.982  24.369  1.00  0.00     0.094 C 
ATOM      9  C   UNL A   1      32.803  23.724  25.742  1.00  0.00     0.022 C 
ATOM     10  C   UNL A   1      33.311  23.603  24.309  1.00  0.00     0.058 C 
BRANCH   6  11
ATOM     11  N   UNL A   1      36.161  22.623  26.298  1.00  0.00    -0.334 N 
ATOM     12  H   UNL A   1      36.045  22.808  27.295  1.00  0.00     0.347 HD
ATOM     13  H   UNL A   1      36.774  21.831  26.102  1.00  0.00     0.347 HD
BRANCH  11  14
ATOM     14  C   UNL A   1      36.799  23.796  25.690  1.00  0.00     0.261 C 
BRANCH  14  15
ATOM     15  C   UNL A   1      38.133  24.127  26.365  1.00  0.00     0.058 C 
ATOM     16  C   UNL A   1      39.109  22.960  26.408  1.00  0.00     0.010 C 
ENDBRANCH  14  15
ENDBRANCH  11  14
ENDBRANCH   6  11
BRANCH  10  17
ATOM     17  S   UNL A   1      33.205  25.129  23.287  1.00  0.00    -0.122 SA
BRANCH  17  18
ATOM     18  C   UNL A   1      32.859  26.370  24.517  1.00  0.00     0.008 A 
ATOM     19  C   UNL A   1      33.907  26.906  25.269  1.00  0.00     0.019 A 
ATOM     20  C   UNL A   1      31.561  26.841  24.723  1.00  0.00     0.019 A 
ATOM     21  C   UNL A   1      33.663  27.947  26.168  1.00  0.00     0.047 A 
ATOM     22  C   UNL A   1      31.319  27.886  25.621  1.00  0.00     0.047 A 
ATOM     23  C   UNL A   1      32.373  28.451  26.338  1.00  0.00     0.118 A 
BRANCH  23  24
ATOM     24  O   UNL A   1      32.273  29.484  27.230  1.00  0.00    -0.497 OA
ATOM     25  C   UNL A   1      33.390  30.359  27.321  1.00  0.00     0.278 C 
ENDBRANCH  23  24
ENDBRANCH  17  18
ENDBRANCH  10  17
ENDBRANCH   3   6
ENDBRANCH   1   2
BRANCH   1  26
ATOM     26  C   UNL A   1      38.167  19.243  25.080  1.00  0.00     0.042 C 
BRANCH  26  27
ATOM     27  C   UNL A   1      39.248  19.805  25.993  1.00  0.00     0.118 C 
BRANCH  27  28
ATOM     28  N   UNL A   1      40.440  18.965  26.002  1.00  0.00    -0.352 N 
ATOM     29  C   UNL A   1      41.767  19.296  26.022  1.00  0.00     0.251 C 
ATOM     30  H   UNL A   1      40.258  17.998  25.990  1.00  0.00     0.163 HD
ATOM     31  O   UNL A   1      42.604  18.432  25.754  1.00  0.00    -0.269 OA
BRANCH  29  32
ATOM     32  C   UNL A   1      42.211  20.663  26.360  1.00  0.00     0.039 A 
ATOM     33  C   UNL A   1      42.447  21.568  25.320  1.00  0.00     0.014 A 
ATOM     34  C   UNL A   1      42.454  21.045  27.681  1.00  0.00     0.014 A 
ATOM     35  C   UNL A   1      42.876  22.864  25.611  1.00  0.00     0.010 A 
ATOM     36  C   UNL A   1      42.787  22.363  27.978  1.00  0.00     0.010 A 
ATOM     37  C   UNL A   1      43.016  23.282  26.945  1.00  0.00    -0.014 A 
BRANCH  37  38
ATOM     38  C   UNL A   1      43.400  24.678  27.267  1.00  0.00     0.031 A 
ATOM     39  C   UNL A   1      44.798  25.167  27.010  1.00  0.00     0.074 A 
ATOM     40  C   UNL A   1      42.491  25.490  27.841  1.00  0.00     0.049 A 
ATOM     41  N   UNL A   1      45.315  26.350  27.231  1.00  0.00    -0.248 NA
ATOM     42  C   UNL A   1      45.753  24.191  26.464  1.00  0.00     0.031 C 
ATOM     43  C   UNL A   1      41.129  25.101  28.211  1.00  0.00     0.029 A 
ATOM     44  N   UNL A   1      42.576  26.805  28.217  1.00  0.00    -0.354 N 
ATOM     45  C   UNL A   1      46.651  26.253  26.868  1.00  0.00     0.074 A 
ATOM     46  C   UNL A   1      46.883  24.882  26.469  1.00  0.00     0.031 C 
ATOM     47  C   UNL A   1      40.494  26.164  28.728  1.00  0.00     0.029 A 
ATOM     48  C   UNL A   1      41.412  27.298  28.753  1.00  0.00     0.049 A 
ATOM     49  H   UNL A   1      43.393  27.345  28.112  1.00  0.00     0.167 HD
ATOM     50  C   UNL A   1      47.593  27.226  26.846  1.00  0.00     0.037 A 
ATOM     51  C   UNL A   1      41.116  28.529  29.208  1.00  0.00     0.037 A 
ATOM     52  C   UNL A   1      47.345  28.596  27.219  1.00  0.00     0.049 A 
ATOM     53  C   UNL A   1      42.166  29.604  29.130  1.00  0.00     0.074 A 
ATOM     54  C   UNL A   1      48.205  29.678  27.158  1.00  0.00     0.029 A 
ATOM     55  N   UNL A   1      46.142  29.069  27.727  1.00  0.00    -0.354 N 
ATOM     56  N   UNL A   1      43.402  29.524  28.700  1.00  0.00    -0.248 NA
ATOM     57  C   UNL A   1      41.773  30.942  29.589  1.00  0.00     0.031 C 
ATOM     58  C   UNL A   1      47.538  30.796  27.674  1.00  0.00     0.029 A 
ATOM     59  C   UNL A   1      46.246  30.422  28.005  1.00  0.00     0.049 A 
ATOM     60  H   UNL A   1      45.336  28.522  27.867  1.00  0.00     0.167 HD
ATOM     61  C   UNL A   1      43.930  30.801  28.818  1.00  0.00     0.074 A 
ATOM     62  C   UNL A   1      42.869  31.642  29.334  1.00  0.00     0.031 C 
ATOM     63  C   UNL A   1      45.181  31.239  28.531  1.00  0.00     0.037 A 
BRANCH  50  64
ATOM     64  C   UNL A   1      48.977  26.845  26.402  1.00  0.00     0.064 A 
ATOM     65  C   UNL A   1      49.915  26.302  27.294  1.00  0.00     0.173 A 
ATOM     66  C   UNL A   1      49.363  27.000  25.062  1.00  0.00     0.173 A 
ATOM     67  F   UNL A   1      49.603  26.143  28.589  1.00  0.00    -0.203 F 
ATOM     68  C   UNL A   1      51.197  25.961  26.869  1.00  0.00     0.198 A 
ATOM     69  C   UNL A   1      50.636  26.627  24.634  1.00  0.00     0.198 A 
ATOM     70  F   UNL A   1      48.506  27.509  24.164  1.00  0.00    -0.203 F 
ATOM     71  F   UNL A   1      52.093  25.497  27.752  1.00  0.00    -0.200 F 
ATOM     72  C   UNL A   1      51.554  26.118  25.539  1.00  0.00     0.200 A 
ATOM     73  F   UNL A   1      50.975  26.768  23.344  1.00  0.00    -0.200 F 
ATOM     74  F   UNL A   1      52.787  25.785  25.130  1.00  0.00    -0.200 F 
ENDBRANCH  50  64
BRANCH  51  75
ATOM     75  C   UNL A   1      39.757  28.817  29.733  1.00  0.00     0.064 A 
ATOM     76  C   UNL A   1      39.432  28.552  31.071  1.00  0.00     0.173 A 
ATOM     77  C   UNL A   1      38.764  29.377  28.918  1.00  0.00     0.173 A 
ATOM     78  F   UNL A   1      40.344  28.001  31.885  1.00  0.00    -0.203 F 
ATOM     79  C   UNL A   1      38.158  28.818  31.567  1.00  0.00     0.198 A 
ATOM     80  C   UNL A   1      37.499  29.669  29.424  1.00  0.00     0.198 A 
ATOM     81  F   UNL A   1      39.028  29.658  27.634  1.00  0.00    -0.203 F 
ATOM     82  F   UNL A   1      37.860  28.516  32.839  1.00  0.00    -0.200 F 
ATOM     83  C   UNL A   1      37.194  29.382  30.745  1.00  0.00     0.200 A 
ATOM     84  F   UNL A   1      36.576  30.230  28.630  1.00  0.00    -0.200 F 
ATOM     85  F   UNL A   1      35.971  29.646  31.226  1.00  0.00    -0.200 F 
ENDBRANCH  51  75
BRANCH  63  86
ATOM     86  C   UNL A   1      45.458  32.697  28.761  1.00  0.00     0.064 A 
ATOM     87  C   UNL A   1      45.204  33.657  27.769  1.00  0.00     0.173 A 
ATOM     88  C   UNL A   1      45.979  33.137  29.986  1.00  0.00     0.173 A 
ATOM     89  F   UNL A   1      44.722  33.284  26.575  1.00  0.00    -0.203 F 
ATOM     90  C   UNL A   1      45.500  35.001  27.984  1.00  0.00     0.198 A 
ATOM     91  C   UNL A   1      46.240  34.486  30.209  1.00  0.00     0.198 A 
ATOM     92  F   UNL A   1      46.232  32.262  30.969  1.00  0.00    -0.203 F 
ATOM     93  F   UNL A   1      45.308  35.891  27.001  1.00  0.00    -0.200 F 
ATOM     94  C   UNL A   1      46.012  35.415  29.205  1.00  0.00     0.200 A 
ATOM     95  F   UNL A   1      46.723  34.887  31.394  1.00  0.00    -0.200 F 
ATOM     96  F   UNL A   1      46.297  36.708  29.408  1.00  0.00    -0.200 F 
ENDBRANCH  63  86
ENDBRANCH  37  38
ENDBRANCH  29  32
ENDBRANCH  27  28
ENDBRANCH  26  27
ENDBRANCH   1  26
TORSDOF 16
ENDMDL
