MODEL 1
REMARK VINA RESULT:     -12.4      0.000      0.000
REMARK SMILES C[C@@H]1CCCN(c2cc(Br)ccc2/C=C/C(=O)NCCCNC(=O)c2ccc(-c3c4nc(c(-c5c(F)c(F)c(F)c(F)c5F)c5ccc([nH]5)c(-c5c(F)c(F)c(F)c(F)c5F)c5nc(c(-c6c(F)c(F)c(F)c(F)c6F)c6ccc3[nH]6)C=C5)C=C4)cc2)C1
REMARK SMILES IDX 20 1 19 2 18 3 16 4 17 5 15 7 14 8 13 9 7 10 8 11 9 12 12 13
REMARK SMILES IDX 10 14 11 15 6 16 1 17 2 18 3 19 88 20 4 21 5 22 21 23 22 24
REMARK SMILES IDX 23 25 24 27 25 28 26 29 87 30 27 31 86 32 28 33 29 34 30 35
REMARK SMILES IDX 80 36 31 37 85 38 79 39 81 40 32 41 84 42 78 43 77 44 33 46
REMARK SMILES IDX 65 47 45 48 64 49 46 50 49 51 63 52 82 53 47 54 48 55 62 57
REMARK SMILES IDX 83 58 50 59 34 60 35 61 43 62 36 63 37 64 41 65 44 66 38 67
REMARK SMILES IDX 39 68 42 69 40 70 66 71 67 72 75 73 68 74 69 75 73 76 76 77
REMARK SMILES IDX 70 78 71 79 74 80 72 81 51 82 52 83 60 84 53 85 54 86 58 87
REMARK SMILES IDX 61 88 55 89 56 90 59 91 57 92
REMARK H PARENT 18 6 22 26 81 45 49 56
REMARK Flexibility Score: inf
ROOT
ATOM      1  C   UNL A   1      31.489  31.986  26.881  1.00  0.00     0.042 C 
ENDROOT
BRANCH   1   2
ATOM      2  C   UNL A   1      31.857  30.505  26.837  1.00  0.00     0.118 C 
BRANCH   2   3
ATOM      3  N   UNL A   1      33.068  30.233  27.585  1.00  0.00    -0.352 N 
ATOM      4  C   UNL A   1      34.067  29.346  27.326  1.00  0.00     0.244 C 
ATOM      5  O   UNL A   1      35.086  29.359  28.009  1.00  0.00    -0.270 OA
ATOM      6  H   UNL A   1      33.188  30.771  28.401  1.00  0.00     0.163 HD
BRANCH   4   7
ATOM      7  C   UNL A   1      33.975  28.426  26.172  1.00  0.00     0.072 C 
ATOM      8  C   UNL A   1      33.372  27.228  26.214  1.00  0.00     0.016 C 
BRANCH   8   9
ATOM      9  C   UNL A   1      33.351  26.272  25.086  1.00  0.00    -0.002 A 
ATOM     10  C   UNL A   1      32.241  26.194  24.206  1.00  0.00     0.045 A 
ATOM     11  C   UNL A   1      32.245  25.204  23.208  1.00  0.00     0.042 A 
ATOM     12  C   UNL A   1      33.308  24.311  23.083  1.00  0.00     0.020 A 
ATOM     13  C   UNL A   1      34.403  25.345  24.955  1.00  0.00     0.011 A 
ATOM     14  Br  UNL A   1      33.275  22.998  21.723  1.00  0.00    -0.051 Br
ATOM     15  C   UNL A   1      34.386  24.374  23.953  1.00  0.00     0.016 A 
BRANCH  10  16
ATOM     16  N   UNL A   1      31.160  27.059  24.286  1.00  0.00    -0.371 N 
ATOM     17  C   UNL A   1      29.990  29.867  22.002  1.00  0.00     0.009 C 
ATOM     18  C   UNL A   1      30.051  28.456  22.586  1.00  0.00     0.005 C 
ATOM     19  C   UNL A   1      28.708  28.089  23.237  1.00  0.00     0.007 C 
ATOM     20  C   UNL A   1      31.200  28.343  23.600  1.00  0.00     0.119 C 
ATOM     21  C   UNL A   1      28.773  26.703  23.877  1.00  0.00     0.022 C 
ATOM     22  C   UNL A   1      29.910  26.617  24.891  1.00  0.00     0.116 C 
ENDBRANCH  10  16
ENDBRANCH   8   9
ENDBRANCH   4   7
ENDBRANCH   2   3
ENDBRANCH   1   2
BRANCH   1  23
ATOM     23  C   UNL A   1      32.695  32.918  26.832  1.00  0.00     0.118 C 
BRANCH  23  24
ATOM     24  N   UNL A   1      32.466  34.137  27.594  1.00  0.00    -0.352 N 
ATOM     25  C   UNL A   1      33.041  34.593  28.753  1.00  0.00     0.251 C 
ATOM     26  H   UNL A   1      31.783  34.736  27.213  1.00  0.00     0.163 HD
ATOM     27  O   UNL A   1      32.526  35.543  29.336  1.00  0.00    -0.269 OA
BRANCH  25  28
ATOM     28  C   UNL A   1      34.257  33.964  29.315  1.00  0.00     0.039 A 
ATOM     29  C   UNL A   1      34.097  32.880  30.186  1.00  0.00     0.014 A 
ATOM     30  C   UNL A   1      35.538  34.466  29.066  1.00  0.00     0.014 A 
ATOM     31  C   UNL A   1      35.214  32.283  30.773  1.00  0.00     0.010 A 
ATOM     32  C   UNL A   1      36.658  33.826  29.596  1.00  0.00     0.010 A 
ATOM     33  C   UNL A   1      36.506  32.738  30.465  1.00  0.00    -0.014 A 
BRANCH  33  34
ATOM     34  C   UNL A   1      37.695  32.075  31.056  1.00  0.00     0.031 A 
ATOM     35  C   UNL A   1      38.143  32.401  32.452  1.00  0.00     0.074 A 
ATOM     36  C   UNL A   1      38.385  31.187  30.317  1.00  0.00     0.049 A 
ATOM     37  N   UNL A   1      39.126  31.885  33.147  1.00  0.00    -0.248 NA
ATOM     38  C   UNL A   1      37.407  33.463  33.153  1.00  0.00     0.031 C 
ATOM     39  C   UNL A   1      38.085  30.830  28.931  1.00  0.00     0.029 A 
ATOM     40  N   UNL A   1      39.476  30.416  30.633  1.00  0.00    -0.354 N 
ATOM     41  C   UNL A   1      39.132  32.565  34.358  1.00  0.00     0.074 A 
ATOM     42  C   UNL A   1      38.090  33.567  34.283  1.00  0.00     0.031 C 
ATOM     43  C   UNL A   1      38.939  29.876  28.529  1.00  0.00     0.029 A 
ATOM     44  C   UNL A   1      39.859  29.571  29.621  1.00  0.00     0.049 A 
ATOM     45  H   UNL A   1      39.939  30.465  31.500  1.00  0.00     0.167 HD
ATOM     46  C   UNL A   1      39.919  32.358  35.442  1.00  0.00     0.037 A 
ATOM     47  C   UNL A   1      40.830  28.641  29.586  1.00  0.00     0.037 A 
ATOM     48  C   UNL A   1      40.941  31.346  35.521  1.00  0.00     0.049 A 
ATOM     49  C   UNL A   1      41.674  28.412  30.808  1.00  0.00     0.074 A 
ATOM     50  C   UNL A   1      41.747  31.012  36.596  1.00  0.00     0.029 A 
ATOM     51  N   UNL A   1      41.302  30.508  34.477  1.00  0.00    -0.354 N 
ATOM     52  N   UNL A   1      41.618  29.005  31.975  1.00  0.00    -0.248 NA
ATOM     53  C   UNL A   1      42.708  27.375  30.708  1.00  0.00     0.031 C 
ATOM     54  C   UNL A   1      42.622  29.996  36.188  1.00  0.00     0.029 A 
ATOM     55  C   UNL A   1      42.333  29.670  34.873  1.00  0.00     0.049 A 
ATOM     56  H   UNL A   1      40.888  30.508  33.584  1.00  0.00     0.167 HD
ATOM     57  C   UNL A   1      42.594  28.401  32.756  1.00  0.00     0.074 A 
ATOM     58  C   UNL A   1      43.213  27.382  31.933  1.00  0.00     0.031 C 
ATOM     59  C   UNL A   1      42.946  28.668  34.038  1.00  0.00     0.037 A 
BRANCH  46  60
ATOM     60  C   UNL A   1      39.700  33.252  36.630  1.00  0.00     0.064 A 
ATOM     61  C   UNL A   1      38.775  32.927  37.635  1.00  0.00     0.173 A 
ATOM     62  C   UNL A   1      40.423  34.446  36.766  1.00  0.00     0.173 A 
ATOM     63  F   UNL A   1      38.048  31.803  37.545  1.00  0.00    -0.203 F 
ATOM     64  C   UNL A   1      38.554  33.783  38.711  1.00  0.00     0.198 A 
ATOM     65  C   UNL A   1      40.221  35.285  37.860  1.00  0.00     0.198 A 
ATOM     66  F   UNL A   1      41.324  34.802  35.838  1.00  0.00    -0.203 F 
ATOM     67  F   UNL A   1      37.622  33.481  39.626  1.00  0.00    -0.200 F 
ATOM     68  C   UNL A   1      39.280  34.959  38.824  1.00  0.00     0.200 A 
ATOM     69  F   UNL A   1      40.930  36.416  37.974  1.00  0.00    -0.200 F 
ATOM     70  F   UNL A   1      39.063  35.784  39.858  1.00  0.00    -0.200 F 
ENDBRANCH  46  60
BRANCH  47  71
ATOM     71  C   UNL A   1      41.002  27.807  28.371  1.00  0.00     0.064 A 
ATOM     72  C   UNL A   1      41.863  28.218  27.343  1.00  0.00     0.173 A 
ATOM     73  C   UNL A   1      40.341  26.580  28.223  1.00  0.00     0.173 A 
ATOM     74  F   UNL A   1      42.502  29.393  27.436  1.00  0.00    -0.203 F 
ATOM     75  C   UNL A   1      42.050  27.434  26.208  1.00  0.00     0.198 A 
ATOM     76  C   UNL A   1      40.547  25.787  27.097  1.00  0.00     0.198 A 
ATOM     77  F   UNL A   1      39.514  26.143  29.184  1.00  0.00    -0.203 F 
ATOM     78  F   UNL A   1      42.857  27.861  25.228  1.00  0.00    -0.200 F 
ATOM     79  C   UNL A   1      41.397  26.216  26.088  1.00  0.00     0.200 A 
ATOM     80  F   UNL A   1      39.927  24.604  26.990  1.00  0.00    -0.200 F 
ATOM     81  F   UNL A   1      41.587  25.456  25.001  1.00  0.00    -0.200 F 
ENDBRANCH  47  71
BRANCH  59  82
ATOM     82  C   UNL A   1      44.041  27.829  34.627  1.00  0.00     0.064 A 
ATOM     83  C   UNL A   1      43.772  26.597  35.242  1.00  0.00     0.173 A 
ATOM     84  C   UNL A   1      45.375  28.261  34.575  1.00  0.00     0.173 A 
ATOM     85  F   UNL A   1      42.510  26.150  35.333  1.00  0.00    -0.203 F 
ATOM     86  C   UNL A   1      44.793  25.844  35.815  1.00  0.00     0.198 A 
ATOM     87  C   UNL A   1      46.398  27.492  35.124  1.00  0.00     0.198 A 
ATOM     88  F   UNL A   1      45.686  29.428  33.993  1.00  0.00    -0.203 F 
ATOM     89  F   UNL A   1      44.505  24.699  36.448  1.00  0.00    -0.200 F 
ATOM     90  C   UNL A   1      46.106  26.291  35.752  1.00  0.00     0.200 A 
ATOM     91  F   UNL A   1      47.666  27.920  35.056  1.00  0.00    -0.200 F 
ATOM     92  F   UNL A   1      47.087  25.569  36.309  1.00  0.00    -0.200 F 
ENDBRANCH  59  82
ENDBRANCH  33  34
ENDBRANCH  25  28
ENDBRANCH  23  24
ENDBRANCH   1  23
TORSDOF 12
ENDMDL
MODEL 2
REMARK VINA RESULT:     -12.3      0.223      2.040
REMARK SMILES C[C@@H]1CCCN(c2cc(Br)ccc2/C=C/C(=O)NCCCNC(=O)c2ccc(-c3c4nc(c(-c5c(F)c(F)c(F)c(F)c5F)c5ccc([nH]5)c(-c5c(F)c(F)c(F)c(F)c5F)c5nc(c(-c6c(F)c(F)c(F)c(F)c6F)c6ccc3[nH]6)C=C5)C=C4)cc2)C1
REMARK SMILES IDX 20 1 19 2 18 3 16 4 17 5 15 7 14 8 13 9 7 10 8 11 9 12 12 13
REMARK SMILES IDX 10 14 11 15 6 16 1 17 2 18 3 19 88 20 4 21 5 22 21 23 22 24
REMARK SMILES IDX 23 25 24 27 25 28 26 29 87 30 27 31 86 32 28 33 29 34 30 35
REMARK SMILES IDX 80 36 31 37 85 38 79 39 81 40 32 41 84 42 78 43 77 44 33 46
REMARK SMILES IDX 65 47 45 48 64 49 46 50 49 51 63 52 82 53 47 54 48 55 62 57
REMARK SMILES IDX 83 58 50 59 34 60 35 61 43 62 36 63 37 64 41 65 44 66 38 67
REMARK SMILES IDX 39 68 42 69 40 70 66 71 67 72 75 73 68 74 69 75 73 76 76 77
REMARK SMILES IDX 70 78 71 79 74 80 72 81 51 82 52 83 60 84 53 85 54 86 58 87
REMARK SMILES IDX 61 88 55 89 56 90 59 91 57 92
REMARK H PARENT 18 6 22 26 81 45 49 56
REMARK Flexibility Score: inf
ROOT
ATOM      1  C   UNL A   1      31.532  32.045  26.845  1.00  0.00     0.042 C 
ENDROOT
BRANCH   1   2
ATOM      2  C   UNL A   1      31.871  30.556  26.863  1.00  0.00     0.118 C 
BRANCH   2   3
ATOM      3  N   UNL A   1      33.057  30.287  27.651  1.00  0.00    -0.352 N 
ATOM      4  C   UNL A   1      34.054  29.387  27.438  1.00  0.00     0.244 C 
ATOM      5  O   UNL A   1      35.053  29.404  28.151  1.00  0.00    -0.270 OA
ATOM      6  H   UNL A   1      33.157  30.838  28.460  1.00  0.00     0.163 HD
BRANCH   4   7
ATOM      7  C   UNL A   1      33.989  28.447  26.298  1.00  0.00     0.072 C 
ATOM      8  C   UNL A   1      33.335  27.276  26.329  1.00  0.00     0.016 C 
BRANCH   8   9
ATOM      9  C   UNL A   1      33.338  26.298  25.219  1.00  0.00    -0.002 A 
ATOM     10  C   UNL A   1      32.236  26.186  24.332  1.00  0.00     0.045 A 
ATOM     11  C   UNL A   1      32.263  25.177  23.354  1.00  0.00     0.042 A 
ATOM     12  C   UNL A   1      33.339  24.297  23.255  1.00  0.00     0.020 A 
ATOM     13  C   UNL A   1      34.404  25.384  25.115  1.00  0.00     0.011 A 
ATOM     14  Br  UNL A   1      33.337  22.958  21.921  1.00  0.00    -0.051 Br
ATOM     15  C   UNL A   1      34.410  24.393  24.132  1.00  0.00     0.016 A 
BRANCH  10  16
ATOM     16  N   UNL A   1      31.141  27.036  24.387  1.00  0.00    -0.371 N 
ATOM     17  C   UNL A   1      29.981  29.821  22.069  1.00  0.00     0.009 C 
ATOM     18  C   UNL A   1      30.049  28.412  22.659  1.00  0.00     0.005 C 
ATOM     19  C   UNL A   1      28.698  28.029  23.283  1.00  0.00     0.007 C 
ATOM     20  C   UNL A   1      31.178  28.318  23.697  1.00  0.00     0.119 C 
ATOM     21  C   UNL A   1      28.768  26.646  23.930  1.00  0.00     0.022 C 
ATOM     22  C   UNL A   1      29.885  26.579  24.967  1.00  0.00     0.116 C 
ENDBRANCH  10  16
ENDBRANCH   8   9
ENDBRANCH   4   7
ENDBRANCH   2   3
ENDBRANCH   1   2
BRANCH   1  23
ATOM     23  C   UNL A   1      32.758  32.950  26.824  1.00  0.00     0.118 C 
BRANCH  23  24
ATOM     24  N   UNL A   1      32.529  34.186  27.560  1.00  0.00    -0.352 N 
ATOM     25  C   UNL A   1      33.066  34.643  28.736  1.00  0.00     0.251 C 
ATOM     26  H   UNL A   1      31.878  34.797  27.143  1.00  0.00     0.163 HD
ATOM     27  O   UNL A   1      32.552  35.613  29.285  1.00  0.00    -0.269 OA
BRANCH  25  28
ATOM     28  C   UNL A   1      34.241  33.991  29.358  1.00  0.00     0.039 A 
ATOM     29  C   UNL A   1      35.515  34.446  28.999  1.00  0.00     0.014 A 
ATOM     30  C   UNL A   1      34.115  32.897  30.220  1.00  0.00     0.014 A 
ATOM     31  C   UNL A   1      36.652  33.832  29.528  1.00  0.00     0.010 A 
ATOM     32  C   UNL A   1      35.249  32.330  30.804  1.00  0.00     0.010 A 
ATOM     33  C   UNL A   1      36.527  32.783  30.452  1.00  0.00    -0.014 A 
BRANCH  33  34
ATOM     34  C   UNL A   1      37.736  32.160  31.047  1.00  0.00     0.031 A 
ATOM     35  C   UNL A   1      38.195  32.535  32.427  1.00  0.00     0.074 A 
ATOM     36  C   UNL A   1      38.435  31.264  30.325  1.00  0.00     0.049 A 
ATOM     37  N   UNL A   1      39.197  32.059  33.123  1.00  0.00    -0.248 NA
ATOM     38  C   UNL A   1      37.447  33.603  33.106  1.00  0.00     0.031 C 
ATOM     39  C   UNL A   1      38.124  30.861  28.953  1.00  0.00     0.029 A 
ATOM     40  N   UNL A   1      39.544  30.524  30.648  1.00  0.00    -0.354 N 
ATOM     41  C   UNL A   1      39.205  32.774  34.314  1.00  0.00     0.074 A 
ATOM     42  C   UNL A   1      38.142  33.753  34.223  1.00  0.00     0.031 C 
ATOM     43  C   UNL A   1      38.992  29.912  28.568  1.00  0.00     0.029 A 
ATOM     44  C   UNL A   1      39.931  29.658  29.656  1.00  0.00     0.049 A 
ATOM     45  H   UNL A   1      40.016  30.607  31.507  1.00  0.00     0.167 HD
ATOM     46  C   UNL A   1      40.009  32.613  35.393  1.00  0.00     0.037 A 
ATOM     47  C   UNL A   1      40.920  28.745  29.636  1.00  0.00     0.037 A 
ATOM     48  C   UNL A   1      41.052  31.625  35.488  1.00  0.00     0.049 A 
ATOM     49  C   UNL A   1      41.783  28.569  30.853  1.00  0.00     0.074 A 
ATOM     50  C   UNL A   1      41.877  31.337  36.561  1.00  0.00     0.029 A 
ATOM     51  N   UNL A   1      41.416  30.764  34.463  1.00  0.00    -0.354 N 
ATOM     52  N   UNL A   1      41.730  29.194  32.003  1.00  0.00    -0.248 NA
ATOM     53  C   UNL A   1      42.836  27.549  30.769  1.00  0.00     0.031 C 
ATOM     54  C   UNL A   1      42.767  30.327  36.171  1.00  0.00     0.029 A 
ATOM     55  C   UNL A   1      42.468  29.957  34.871  1.00  0.00     0.049 A 
ATOM     56  H   UNL A   1      40.990  30.729  33.577  1.00  0.00     0.167 HD
ATOM     57  C   UNL A   1      42.727  28.633  32.788  1.00  0.00     0.074 A 
ATOM     58  C   UNL A   1      43.356  27.602  31.987  1.00  0.00     0.031 C 
ATOM     59  C   UNL A   1      43.090  28.943  34.056  1.00  0.00     0.037 A 
BRANCH  46  60
ATOM     60  C   UNL A   1      39.787  33.538  36.557  1.00  0.00     0.064 A 
ATOM     61  C   UNL A   1      40.476  34.756  36.670  1.00  0.00     0.173 A 
ATOM     62  C   UNL A   1      38.875  33.204  37.569  1.00  0.00     0.173 A 
ATOM     63  F   UNL A   1      41.368  35.116  35.735  1.00  0.00    -0.203 F 
ATOM     64  C   UNL A   1      40.289  35.586  37.772  1.00  0.00     0.198 A 
ATOM     65  C   UNL A   1      38.669  34.052  38.655  1.00  0.00     0.198 A 
ATOM     66  F   UNL A   1      38.186  32.055  37.508  1.00  0.00    -0.203 F 
ATOM     67  F   UNL A   1      41.002  36.715  37.888  1.00  0.00    -0.200 F 
ATOM     68  C   UNL A   1      39.383  35.235  38.762  1.00  0.00     0.200 A 
ATOM     69  F   UNL A   1      37.786  33.716  39.606  1.00  0.00    -0.200 F 
ATOM     70  F   UNL A   1      39.207  36.033  39.824  1.00  0.00    -0.200 F 
ENDBRANCH  46  60
BRANCH  47  71
ATOM     71  C   UNL A   1      41.092  27.880  28.443  1.00  0.00     0.064 A 
ATOM     72  C   UNL A   1      40.396  26.667  28.338  1.00  0.00     0.173 A 
ATOM     73  C   UNL A   1      41.921  28.255  27.378  1.00  0.00     0.173 A 
ATOM     74  F   UNL A   1      39.605  26.261  29.341  1.00  0.00    -0.203 F 
ATOM     75  C   UNL A   1      40.532  25.857  27.214  1.00  0.00     0.198 A 
ATOM     76  C   UNL A   1      42.038  27.455  26.244  1.00  0.00     0.198 A 
ATOM     77  F   UNL A   1      42.600  29.411  27.430  1.00  0.00    -0.203 F 
ATOM     78  F   UNL A   1      39.877  24.690  27.150  1.00  0.00    -0.200 F 
ATOM     79  C   UNL A   1      41.347  26.254  26.165  1.00  0.00     0.200 A 
ATOM     80  F   UNL A   1      42.815  27.847  25.225  1.00  0.00    -0.200 F 
ATOM     81  F   UNL A   1      41.467  25.481  25.077  1.00  0.00    -0.200 F 
ENDBRANCH  47  71
BRANCH  59  82
ATOM     82  C   UNL A   1      44.209  28.144  34.655  1.00  0.00     0.064 A 
ATOM     83  C   UNL A   1      45.543  28.567  34.563  1.00  0.00     0.173 A 
ATOM     84  C   UNL A   1      43.945  26.942  35.329  1.00  0.00     0.173 A 
ATOM     85  F   UNL A   1      45.849  29.700  33.913  1.00  0.00    -0.203 F 
ATOM     86  C   UNL A   1      46.577  27.798  35.093  1.00  0.00     0.198 A 
ATOM     87  C   UNL A   1      44.978  26.190  35.882  1.00  0.00     0.198 A 
ATOM     88  F   UNL A   1      42.686  26.496  35.449  1.00  0.00    -0.203 F 
ATOM     89  F   UNL A   1      47.848  28.193  34.942  1.00  0.00    -0.200 F 
ATOM     90  C   UNL A   1      46.293  26.613  35.755  1.00  0.00     0.200 A 
ATOM     91  F   UNL A   1      44.702  25.049  36.529  1.00  0.00    -0.200 F 
ATOM     92  F   UNL A   1      47.288  25.871  36.260  1.00  0.00    -0.200 F 
ENDBRANCH  59  82
ENDBRANCH  33  34
ENDBRANCH  25  28
ENDBRANCH  23  24
ENDBRANCH   1  23
TORSDOF 12
ENDMDL
MODEL 3
REMARK VINA RESULT:     -12.2      5.520     10.914
REMARK SMILES C[C@@H]1CCCN(c2cc(Br)ccc2/C=C/C(=O)NCCCNC(=O)c2ccc(-c3c4nc(c(-c5c(F)c(F)c(F)c(F)c5F)c5ccc([nH]5)c(-c5c(F)c(F)c(F)c(F)c5F)c5nc(c(-c6c(F)c(F)c(F)c(F)c6F)c6ccc3[nH]6)C=C5)C=C4)cc2)C1
REMARK SMILES IDX 20 1 19 2 18 3 16 4 17 5 15 7 14 8 13 9 7 10 8 11 9 12 12 13
REMARK SMILES IDX 10 14 11 15 6 16 1 17 2 18 3 19 88 20 4 21 5 22 21 23 22 24
REMARK SMILES IDX 23 25 24 27 25 28 26 29 87 30 27 31 86 32 28 33 29 34 30 35
REMARK SMILES IDX 80 36 31 37 85 38 79 39 81 40 32 41 84 42 78 43 77 44 33 46
REMARK SMILES IDX 65 47 45 48 64 49 46 50 49 51 63 52 82 53 47 54 48 55 62 57
REMARK SMILES IDX 83 58 50 59 34 60 35 61 43 62 36 63 37 64 41 65 44 66 38 67
REMARK SMILES IDX 39 68 42 69 40 70 66 71 67 72 75 73 68 74 69 75 73 76 76 77
REMARK SMILES IDX 70 78 71 79 74 80 72 81 51 82 52 83 60 84 53 85 54 86 58 87
REMARK SMILES IDX 61 88 55 89 56 90 59 91 57 92
REMARK H PARENT 18 6 22 26 81 45 49 56
REMARK Flexibility Score: inf
ROOT
ATOM      1  C   UNL A   1      38.221  19.799  24.896  1.00  0.00     0.042 C 
ENDROOT
BRANCH   1   2
ATOM      2  C   UNL A   1      37.451  21.093  24.643  1.00  0.00     0.118 C 
BRANCH   2   3
ATOM      3  N   UNL A   1      38.202  22.255  25.075  1.00  0.00    -0.352 N 
ATOM      4  C   UNL A   1      37.766  23.395  25.675  1.00  0.00     0.244 C 
ATOM      5  O   UNL A   1      38.580  24.214  26.093  1.00  0.00    -0.270 OA
ATOM      6  H   UNL A   1      39.171  22.213  24.911  1.00  0.00     0.163 HD
BRANCH   4   7
ATOM      7  C   UNL A   1      36.324  23.617  25.912  1.00  0.00     0.072 C 
ATOM      8  C   UNL A   1      35.506  24.229  25.040  1.00  0.00     0.016 C 
BRANCH   8   9
ATOM      9  C   UNL A   1      34.083  24.525  25.309  1.00  0.00    -0.002 A 
ATOM     10  C   UNL A   1      33.053  23.652  24.873  1.00  0.00     0.045 A 
ATOM     11  C   UNL A   1      31.716  24.035  25.081  1.00  0.00     0.042 A 
ATOM     12  C   UNL A   1      31.401  25.246  25.696  1.00  0.00     0.020 A 
ATOM     13  C   UNL A   1      33.740  25.753  25.907  1.00  0.00     0.011 A 
ATOM     14  Br  UNL A   1      29.590  25.720  25.962  1.00  0.00    -0.051 Br
ATOM     15  C   UNL A   1      32.406  26.109  26.108  1.00  0.00     0.016 A 
BRANCH  10  16
ATOM     16  N   UNL A   1      33.312  22.436  24.258  1.00  0.00    -0.371 N 
ATOM     17  C   UNL A   1      32.871  18.851  25.453  1.00  0.00     0.009 C 
ATOM     18  C   UNL A   1      32.514  20.155  24.739  1.00  0.00     0.005 C 
ATOM     19  C   UNL A   1      32.419  19.925  23.223  1.00  0.00     0.007 C 
ATOM     20  C   UNL A   1      33.545  21.246  25.065  1.00  0.00     0.119 C 
ATOM     21  C   UNL A   1      32.120  21.232  22.491  1.00  0.00     0.022 C 
ATOM     22  C   UNL A   1      33.164  22.297  22.815  1.00  0.00     0.116 C 
ENDBRANCH  10  16
ENDBRANCH   8   9
ENDBRANCH   4   7
ENDBRANCH   2   3
ENDBRANCH   1   2
BRANCH   1  23
ATOM     23  C   UNL A   1      39.086  19.837  26.151  1.00  0.00     0.118 C 
BRANCH  23  24
ATOM     24  N   UNL A   1      40.307  19.061  25.989  1.00  0.00    -0.352 N 
ATOM     25  C   UNL A   1      41.622  19.451  25.963  1.00  0.00     0.251 C 
ATOM     26  H   UNL A   1      40.166  18.092  25.879  1.00  0.00     0.163 HD
ATOM     27  O   UNL A   1      42.471  18.649  25.584  1.00  0.00    -0.269 OA
BRANCH  25  28
ATOM     28  C   UNL A   1      42.036  20.812  26.372  1.00  0.00     0.039 A 
ATOM     29  C   UNL A   1      42.193  21.782  25.376  1.00  0.00     0.014 A 
ATOM     30  C   UNL A   1      42.345  21.128  27.699  1.00  0.00     0.014 A 
ATOM     31  C   UNL A   1      42.623  23.067  25.712  1.00  0.00     0.010 A 
ATOM     32  C   UNL A   1      42.705  22.431  28.044  1.00  0.00     0.010 A 
ATOM     33  C   UNL A   1      42.862  23.408  27.052  1.00  0.00    -0.014 A 
BRANCH  33  34
ATOM     34  C   UNL A   1      43.277  24.786  27.413  1.00  0.00     0.031 A 
ATOM     35  C   UNL A   1      44.673  25.266  27.137  1.00  0.00     0.074 A 
ATOM     36  C   UNL A   1      42.391  25.602  28.012  1.00  0.00     0.049 A 
ATOM     37  N   UNL A   1      45.196  26.450  27.338  1.00  0.00    -0.248 NA
ATOM     38  C   UNL A   1      45.615  24.281  26.586  1.00  0.00     0.031 C 
ATOM     39  C   UNL A   1      41.025  25.235  28.385  1.00  0.00     0.029 A 
ATOM     40  N   UNL A   1      42.503  26.912  28.404  1.00  0.00    -0.354 N 
ATOM     41  C   UNL A   1      46.525  26.349  26.949  1.00  0.00     0.074 A 
ATOM     42  C   UNL A   1      46.743  24.975  26.550  1.00  0.00     0.031 C 
ATOM     43  C   UNL A   1      40.409  26.307  28.908  1.00  0.00     0.029 A 
ATOM     44  C   UNL A   1      41.343  27.428  28.927  1.00  0.00     0.049 A 
ATOM     45  H   UNL A   1      43.335  27.432  28.319  1.00  0.00     0.167 HD
ATOM     46  C   UNL A   1      47.471  27.319  26.904  1.00  0.00     0.037 A 
ATOM     47  C   UNL A   1      41.060  28.672  29.355  1.00  0.00     0.037 A 
ATOM     48  C   UNL A   1      47.246  28.690  27.282  1.00  0.00     0.049 A 
ATOM     49  C   UNL A   1      42.117  29.736  29.274  1.00  0.00     0.074 A 
ATOM     50  C   UNL A   1      48.117  29.762  27.211  1.00  0.00     0.029 A 
ATOM     51  N   UNL A   1      46.058  29.177  27.808  1.00  0.00    -0.354 N 
ATOM     52  N   UNL A   1      43.346  29.650  28.828  1.00  0.00    -0.248 NA
ATOM     53  C   UNL A   1      41.740  31.075  29.746  1.00  0.00     0.031 C 
ATOM     54  C   UNL A   1      47.469  30.890  27.731  1.00  0.00     0.029 A 
ATOM     55  C   UNL A   1      46.180  30.530  28.086  1.00  0.00     0.049 A 
ATOM     56  H   UNL A   1      45.247  28.641  27.961  1.00  0.00     0.167 HD
ATOM     57  C   UNL A   1      43.885  30.923  28.947  1.00  0.00     0.074 A 
ATOM     58  C   UNL A   1      42.840  31.768  29.489  1.00  0.00     0.031 C 
ATOM     59  C   UNL A   1      45.132  31.354  28.636  1.00  0.00     0.037 A 
BRANCH  46  60
ATOM     60  C   UNL A   1      48.841  26.920  26.432  1.00  0.00     0.064 A 
ATOM     61  C   UNL A   1      49.223  27.053  25.088  1.00  0.00     0.173 A 
ATOM     62  C   UNL A   1      49.783  26.401  27.333  1.00  0.00     0.173 A 
ATOM     63  F   UNL A   1      48.355  27.532  24.184  1.00  0.00    -0.203 F 
ATOM     64  C   UNL A   1      50.482  26.644  24.656  1.00  0.00     0.198 A 
ATOM     65  C   UNL A   1      51.052  26.021  26.903  1.00  0.00     0.198 A 
ATOM     66  F   UNL A   1      49.472  26.257  28.630  1.00  0.00    -0.203 F 
ATOM     67  F   UNL A   1      50.803  26.725  23.357  1.00  0.00    -0.200 F 
ATOM     68  C   UNL A   1      51.396  26.132  25.564  1.00  0.00     0.200 A 
ATOM     69  F   UNL A   1      51.938  25.535  27.783  1.00  0.00    -0.200 F 
ATOM     70  F   UNL A   1      52.607  25.735  25.147  1.00  0.00    -0.200 F 
ENDBRANCH  46  60
BRANCH  47  71
ATOM     71  C   UNL A   1      39.690  28.989  29.827  1.00  0.00     0.064 A 
ATOM     72  C   UNL A   1      38.725  29.479  28.935  1.00  0.00     0.173 A 
ATOM     73  C   UNL A   1      39.306  28.782  31.159  1.00  0.00     0.173 A 
ATOM     74  F   UNL A   1      39.054  29.707  27.655  1.00  0.00    -0.203 F 
ATOM     75  C   UNL A   1      37.430  29.758  29.361  1.00  0.00     0.198 A 
ATOM     76  C   UNL A   1      38.003  29.041  31.578  1.00  0.00     0.198 A 
ATOM     77  F   UNL A   1      40.192  28.307  32.047  1.00  0.00    -0.203 F 
ATOM     78  F   UNL A   1      36.534  30.251  28.494  1.00  0.00    -0.200 F 
ATOM     79  C   UNL A   1      37.068  29.533  30.680  1.00  0.00     0.200 A 
ATOM     80  F   UNL A   1      37.652  28.809  32.850  1.00  0.00    -0.200 F 
ATOM     81  F   UNL A   1      35.817  29.790  31.086  1.00  0.00    -0.200 F 
ENDBRANCH  47  71
BRANCH  59  82
ATOM     82  C   UNL A   1      45.422  32.808  28.863  1.00  0.00     0.064 A 
ATOM     83  C   UNL A   1      45.160  33.770  27.875  1.00  0.00     0.173 A 
ATOM     84  C   UNL A   1      45.965  33.245  30.079  1.00  0.00     0.173 A 
ATOM     85  F   UNL A   1      44.658  33.400  26.688  1.00  0.00    -0.203 F 
ATOM     86  C   UNL A   1      45.465  35.113  28.085  1.00  0.00     0.198 A 
ATOM     87  C   UNL A   1      46.243  34.592  30.296  1.00  0.00     0.198 A 
ATOM     88  F   UNL A   1      46.229  32.366  31.057  1.00  0.00    -0.203 F 
ATOM     89  F   UNL A   1      45.261  36.006  27.107  1.00  0.00    -0.200 F 
ATOM     90  C   UNL A   1      46.003  35.523  29.297  1.00  0.00     0.200 A 
ATOM     91  F   UNL A   1      46.755  34.989  31.471  1.00  0.00    -0.200 F 
ATOM     92  F   UNL A   1      46.302  36.813  29.495  1.00  0.00    -0.200 F 
ENDBRANCH  59  82
ENDBRANCH  33  34
ENDBRANCH  25  28
ENDBRANCH  23  24
ENDBRANCH   1  23
TORSDOF 12
ENDMDL
