MODEL 1
REMARK VINA RESULT:     -11.0      0.000      0.000
REMARK SMILES [NH3+][C@H]1CCC[C@H]1C(=O)NCc1ccc(C(=O)NCCCNC(=O)c2ccc(-c3c4nc(c(-c5c(F)c(F)c(F)c(F)c5F)c5ccc([nH]5)c(-c5c(F)c(F)c(F)c(F)c5F)c5nc(c(-c6c(F)c(F)c(F)c(F)c6F)c6ccc3[nH]6)C=C5)C=C4)cc2)o1
REMARK SMILES IDX 18 1 17 2 15 3 16 4 14 6 11 7 12 8 87 9 13 10 10 11 9 12
REMARK SMILES IDX 7 13 8 14 6 16 2 17 3 18 4 19 5 20 1 21 19 25 20 26 21 27
REMARK SMILES IDX 22 28 23 30 24 31 25 32 86 33 26 34 85 35 27 36 28 37 29 38
REMARK SMILES IDX 79 39 30 40 84 41 78 42 80 43 31 44 83 45 77 46 76 47 32 49
REMARK SMILES IDX 64 50 44 51 63 52 45 53 48 54 62 55 81 56 46 57 47 58 61 60
REMARK SMILES IDX 82 61 49 62 33 63 34 64 42 65 35 66 36 67 40 68 43 69 37 70
REMARK SMILES IDX 38 71 41 72 39 73 65 74 66 75 74 76 67 77 68 78 72 79 75 80
REMARK SMILES IDX 69 81 70 82 73 83 71 84 50 85 51 86 59 87 52 88 53 89 57 90
REMARK SMILES IDX 60 91 54 92 55 93 58 94 56 95
REMARK H PARENT 17 5 9 15 1 22 1 23 1 24 21 29 80 48 48 59
REMARK Flexibility Score: inf
ROOT
ATOM      1  C   UNL A   1      42.237  20.347  27.675  1.00  0.00     0.118 C 
ENDROOT
BRANCH   1   2
ATOM      2  N   UNL A   1      42.112  19.070  27.002  1.00  0.00    -0.349 N 
ATOM      3  C   UNL A   1      42.912  18.468  26.057  1.00  0.00     0.286 C 
ATOM      4  O   UNL A   1      42.593  17.316  25.751  1.00  0.00    -0.266 OA
ATOM      5  H   UNL A   1      41.323  18.544  27.266  1.00  0.00     0.163 HD
BRANCH   3   6
ATOM      6  C   UNL A   1      44.058  19.152  25.482  1.00  0.00     0.191 A 
ATOM      7  C   UNL A   1      44.975  20.830  24.358  1.00  0.00     0.124 A 
ATOM      8  C   UNL A   1      45.995  19.951  24.643  1.00  0.00     0.048 A 
ATOM      9  O   UNL A   1      43.808  20.367  24.886  1.00  0.00    -0.454 OA
ATOM     10  C   UNL A   1      45.412  18.891  25.376  1.00  0.00     0.056 A 
BRANCH   7  11
ATOM     11  C   UNL A   1      44.888  22.101  23.591  1.00  0.00     0.191 C 
BRANCH  11  12
ATOM     12  N   UNL A   1      43.962  22.998  24.251  1.00  0.00    -0.348 N 
ATOM     13  C   UNL A   1      44.119  23.842  25.297  1.00  0.00     0.229 C 
ATOM     14  O   UNL A   1      43.076  24.257  25.821  1.00  0.00    -0.275 OA
ATOM     15  H   UNL A   1      43.055  22.994  23.868  1.00  0.00     0.163 HD
BRANCH  13  16
ATOM     16  C   UNL A   1      45.461  24.341  25.815  1.00  0.00     0.136 C 
ATOM     17  C   UNL A   1      45.980  25.715  25.375  1.00  0.00     0.193 C 
ATOM     18  C   UNL A   1      47.188  25.909  26.301  1.00  0.00     0.066 C 
ATOM     19  C   UNL A   1      46.839  25.206  27.616  1.00  0.00     0.007 C 
ATOM     20  C   UNL A   1      45.677  24.259  27.322  1.00  0.00     0.020 C 
BRANCH  17  21
ATOM     21  N   UNL A   1      45.077  26.848  25.517  1.00  0.00    -0.354 N 
ATOM     22  H   UNL A   1      44.711  27.108  24.600  1.00  0.00     0.344 HD
ATOM     23  H   UNL A   1      45.583  27.638  25.917  1.00  0.00     0.344 HD
ATOM     24  H   UNL A   1      44.305  26.592  26.131  1.00  0.00     0.344 HD
ENDBRANCH  17  21
ENDBRANCH  13  16
ENDBRANCH  11  12
ENDBRANCH   7  11
ENDBRANCH   3   6
ENDBRANCH   1   2
BRANCH   1  25
ATOM     25  C   UNL A   1      40.997  21.217  27.479  1.00  0.00     0.042 C 
BRANCH  25  26
ATOM     26  C   UNL A   1      40.766  21.629  26.027  1.00  0.00     0.118 C 
BRANCH  26  27
ATOM     27  N   UNL A   1      39.362  21.900  25.756  1.00  0.00    -0.352 N 
ATOM     28  C   UNL A   1      38.562  22.949  26.127  1.00  0.00     0.251 C 
ATOM     29  H   UNL A   1      38.910  21.213  25.214  1.00  0.00     0.163 HD
ATOM     30  O   UNL A   1      37.348  22.854  25.970  1.00  0.00    -0.269 OA
BRANCH  28  31
ATOM     31  C   UNL A   1      39.126  24.190  26.705  1.00  0.00     0.039 A 
ATOM     32  C   UNL A   1      38.898  24.453  28.060  1.00  0.00     0.014 A 
ATOM     33  C   UNL A   1      39.788  25.137  25.918  1.00  0.00     0.014 A 
ATOM     34  C   UNL A   1      39.348  25.647  28.628  1.00  0.00     0.010 A 
ATOM     35  C   UNL A   1      40.301  26.296  26.502  1.00  0.00     0.010 A 
ATOM     36  C   UNL A   1      40.064  26.574  27.856  1.00  0.00    -0.014 A 
BRANCH  36  37
ATOM     37  C   UNL A   1      40.529  27.856  28.444  1.00  0.00     0.031 A 
ATOM     38  C   UNL A   1      41.985  28.053  28.773  1.00  0.00     0.074 A 
ATOM     39  C   UNL A   1      39.639  28.828  28.715  1.00  0.00     0.049 A 
ATOM     40  N   UNL A   1      42.580  29.083  29.322  1.00  0.00    -0.248 NA
ATOM     41  C   UNL A   1      42.889  26.935  28.466  1.00  0.00     0.031 C 
ATOM     42  C   UNL A   1      38.196  28.741  28.483  1.00  0.00     0.029 A 
ATOM     43  N   UNL A   1      39.815  30.080  29.249  1.00  0.00    -0.354 N 
ATOM     44  C   UNL A   1      43.918  28.728  29.441  1.00  0.00     0.074 A 
ATOM     45  C   UNL A   1      44.039  27.370  28.956  1.00  0.00     0.031 C 
ATOM     46  C   UNL A   1      37.622  29.898  28.849  1.00  0.00     0.029 A 
ATOM     47  C   UNL A   1      38.648  30.796  29.368  1.00  0.00     0.049 A 
ATOM     48  H   UNL A   1      40.693  30.431  29.521  1.00  0.00     0.167 HD
ATOM     49  C   UNL A   1      44.955  29.474  29.891  1.00  0.00     0.037 A 
ATOM     50  C   UNL A   1      38.436  32.039  29.840  1.00  0.00     0.037 A 
ATOM     51  C   UNL A   1      44.836  30.836  30.345  1.00  0.00     0.049 A 
ATOM     52  C   UNL A   1      39.608  32.855  30.313  1.00  0.00     0.074 A 
ATOM     53  C   UNL A   1      45.830  31.694  30.780  1.00  0.00     0.029 A 
ATOM     54  N   UNL A   1      43.642  31.539  30.416  1.00  0.00    -0.354 N 
ATOM     55  N   UNL A   1      40.876  32.529  30.367  1.00  0.00    -0.248 NA
ATOM     56  C   UNL A   1      39.319  34.219  30.774  1.00  0.00     0.031 C 
ATOM     57  C   UNL A   1      45.234  32.905  31.148  1.00  0.00     0.029 A 
ATOM     58  C   UNL A   1      43.875  32.819  30.895  1.00  0.00     0.049 A 
ATOM     59  H   UNL A   1      42.760  31.183  30.164  1.00  0.00     0.167 HD
ATOM     60  C   UNL A   1      41.541  33.656  30.833  1.00  0.00     0.074 A 
ATOM     61  C   UNL A   1      40.535  34.678  31.033  1.00  0.00     0.031 C 
ATOM     62  C   UNL A   1      42.864  33.830  31.072  1.00  0.00     0.037 A 
BRANCH  49  63
ATOM     63  C   UNL A   1      46.314  28.835  29.909  1.00  0.00     0.064 A 
ATOM     64  C   UNL A   1      47.171  28.895  28.799  1.00  0.00     0.173 A 
ATOM     65  C   UNL A   1      46.779  28.179  31.059  1.00  0.00     0.173 A 
ATOM     66  F   UNL A   1      46.771  29.500  27.670  1.00  0.00    -0.203 F 
ATOM     67  C   UNL A   1      48.428  28.296  28.829  1.00  0.00     0.198 A 
ATOM     68  C   UNL A   1      48.049  27.608  31.096  1.00  0.00     0.198 A 
ATOM     69  F   UNL A   1      46.004  28.097  32.151  1.00  0.00    -0.203 F 
ATOM     70  F   UNL A   1      49.206  28.322  27.737  1.00  0.00    -0.200 F 
ATOM     71  C   UNL A   1      48.868  27.659  29.979  1.00  0.00     0.200 A 
ATOM     72  F   UNL A   1      48.479  27.004  32.212  1.00  0.00    -0.200 F 
ATOM     73  F   UNL A   1      50.080  27.088  30.007  1.00  0.00    -0.200 F 
ENDBRANCH  49  63
BRANCH  50  74
ATOM     74  C   UNL A   1      37.061  32.604  29.849  1.00  0.00     0.064 A 
ATOM     75  C   UNL A   1      36.235  32.464  30.973  1.00  0.00     0.173 A 
ATOM     76  C   UNL A   1      36.544  33.286  28.739  1.00  0.00     0.173 A 
ATOM     77  F   UNL A   1      36.678  31.802  32.052  1.00  0.00    -0.203 F 
ATOM     78  C   UNL A   1      34.935  32.965  30.978  1.00  0.00     0.198 A 
ATOM     79  C   UNL A   1      35.254  33.812  28.755  1.00  0.00     0.198 A 
ATOM     80  F   UNL A   1      37.297  33.453  27.643  1.00  0.00    -0.203 F 
ATOM     81  F   UNL A   1      34.150  32.775  32.047  1.00  0.00    -0.200 F 
ATOM     82  C   UNL A   1      34.447  33.643  29.870  1.00  0.00     0.200 A 
ATOM     83  F   UNL A   1      34.791  34.479  27.690  1.00  0.00    -0.200 F 
ATOM     84  F   UNL A   1      33.198  34.127  29.876  1.00  0.00    -0.200 F 
ENDBRANCH  50  74
BRANCH  62  85
ATOM     85  C   UNL A   1      43.305  35.191  31.524  1.00  0.00     0.064 A 
ATOM     86  C   UNL A   1      43.317  35.553  32.879  1.00  0.00     0.173 A 
ATOM     87  C   UNL A   1      43.743  36.139  30.586  1.00  0.00     0.173 A 
ATOM     88  F   UNL A   1      42.894  34.687  33.812  1.00  0.00    -0.203 F 
ATOM     89  C   UNL A   1      43.718  36.826  33.275  1.00  0.00     0.198 A 
ATOM     90  C   UNL A   1      44.172  37.400  30.989  1.00  0.00     0.198 A 
ATOM     91  F   UNL A   1      43.758  35.840  29.278  1.00  0.00    -0.203 F 
ATOM     92  F   UNL A   1      43.668  37.169  34.569  1.00  0.00    -0.200 F 
ATOM     93  C   UNL A   1      44.151  37.745  32.331  1.00  0.00     0.200 A 
ATOM     94  F   UNL A   1      44.601  38.283  30.076  1.00  0.00    -0.200 F 
ATOM     95  F   UNL A   1      44.537  38.970  32.715  1.00  0.00    -0.200 F 
ENDBRANCH  62  85
ENDBRANCH  36  37
ENDBRANCH  28  31
ENDBRANCH  26  27
ENDBRANCH  25  26
ENDBRANCH   1  25
TORSDOF 14
ENDMDL
MODEL 2
REMARK VINA RESULT:     -11.0      5.894     11.780
REMARK SMILES [NH3+][C@H]1CCC[C@H]1C(=O)NCc1ccc(C(=O)NCCCNC(=O)c2ccc(-c3c4nc(c(-c5c(F)c(F)c(F)c(F)c5F)c5ccc([nH]5)c(-c5c(F)c(F)c(F)c(F)c5F)c5nc(c(-c6c(F)c(F)c(F)c(F)c6F)c6ccc3[nH]6)C=C5)C=C4)cc2)o1
REMARK SMILES IDX 18 1 17 2 15 3 16 4 14 6 11 7 12 8 87 9 13 10 10 11 9 12
REMARK SMILES IDX 7 13 8 14 6 16 2 17 3 18 4 19 5 20 1 21 19 25 20 26 21 27
REMARK SMILES IDX 22 28 23 30 24 31 25 32 86 33 26 34 85 35 27 36 28 37 29 38
REMARK SMILES IDX 79 39 30 40 84 41 78 42 80 43 31 44 83 45 77 46 76 47 32 49
REMARK SMILES IDX 64 50 44 51 63 52 45 53 48 54 62 55 81 56 46 57 47 58 61 60
REMARK SMILES IDX 82 61 49 62 33 63 34 64 42 65 35 66 36 67 40 68 43 69 37 70
REMARK SMILES IDX 38 71 41 72 39 73 65 74 66 75 74 76 67 77 68 78 72 79 75 80
REMARK SMILES IDX 69 81 70 82 73 83 71 84 50 85 51 86 59 87 52 88 53 89 57 90
REMARK SMILES IDX 60 91 54 92 55 93 58 94 56 95
REMARK H PARENT 17 5 9 15 1 22 1 23 1 24 21 29 80 48 48 59
REMARK Flexibility Score: inf
ROOT
ATOM      1  C   UNL A   1      30.737  31.539  25.388  1.00  0.00     0.118 C 
ENDROOT
BRANCH   1   2
ATOM      2  N   UNL A   1      29.970  32.387  24.500  1.00  0.00    -0.349 N 
ATOM      3  C   UNL A   1      28.983  32.081  23.591  1.00  0.00     0.286 C 
ATOM      4  O   UNL A   1      28.440  33.051  23.053  1.00  0.00    -0.266 OA
ATOM      5  H   UNL A   1      30.193  33.345  24.556  1.00  0.00     0.163 HD
BRANCH   3   6
ATOM      6  C   UNL A   1      28.607  30.707  23.308  1.00  0.00     0.191 A 
ATOM      7  C   UNL A   1      29.078  28.546  23.130  1.00  0.00     0.124 A 
ATOM      8  C   UNL A   1      27.761  28.689  22.752  1.00  0.00     0.048 A 
ATOM      9  O   UNL A   1      29.585  29.755  23.494  1.00  0.00    -0.454 OA
ATOM     10  C   UNL A   1      27.458  30.064  22.884  1.00  0.00     0.056 A 
BRANCH   7  11
ATOM     11  C   UNL A   1      30.021  27.398  23.179  1.00  0.00     0.191 C 
BRANCH  11  12
ATOM     12  N   UNL A   1      29.869  26.705  24.442  1.00  0.00    -0.348 N 
ATOM     13  C   UNL A   1      30.662  26.647  25.537  1.00  0.00     0.229 C 
ATOM     14  O   UNL A   1      30.410  25.740  26.342  1.00  0.00    -0.275 OA
ATOM     15  H   UNL A   1      29.038  26.181  24.516  1.00  0.00     0.163 HD
BRANCH  13  16
ATOM     16  C   UNL A   1      31.773  27.637  25.856  1.00  0.00     0.136 C 
ATOM     17  C   UNL A   1      31.676  28.506  27.116  1.00  0.00     0.193 C 
ATOM     18  C   UNL A   1      33.073  29.139  27.172  1.00  0.00     0.066 C 
ATOM     19  C   UNL A   1      34.038  28.103  26.591  1.00  0.00     0.007 C 
ATOM     20  C   UNL A   1      33.196  27.093  25.813  1.00  0.00     0.020 C 
BRANCH  17  21
ATOM     21  N   UNL A   1      31.403  27.828  28.376  1.00  0.00    -0.354 N 
ATOM     22  H   UNL A   1      30.763  27.050  28.211  1.00  0.00     0.344 HD
ATOM     23  H   UNL A   1      30.978  28.485  29.029  1.00  0.00     0.344 HD
ATOM     24  H   UNL A   1      32.275  27.474  28.767  1.00  0.00     0.344 HD
ENDBRANCH  17  21
ENDBRANCH  13  16
ENDBRANCH  11  12
ENDBRANCH   7  11
ENDBRANCH   3   6
ENDBRANCH   1   2
BRANCH   1  25
ATOM     25  C   UNL A   1      31.014  32.218  26.727  1.00  0.00     0.042 C 
BRANCH  25  26
ATOM     26  C   UNL A   1      32.453  32.709  26.875  1.00  0.00     0.118 C 
BRANCH  26  27
ATOM     27  N   UNL A   1      32.516  34.040  27.459  1.00  0.00    -0.352 N 
ATOM     28  C   UNL A   1      33.291  34.538  28.475  1.00  0.00     0.251 C 
ATOM     29  H   UNL A   1      31.899  34.694  27.058  1.00  0.00     0.163 HD
ATOM     30  O   UNL A   1      33.013  35.637  28.948  1.00  0.00    -0.269 OA
BRANCH  28  31
ATOM     31  C   UNL A   1      34.451  33.788  29.008  1.00  0.00     0.039 A 
ATOM     32  C   UNL A   1      34.205  32.702  29.856  1.00  0.00     0.014 A 
ATOM     33  C   UNL A   1      35.767  34.193  28.764  1.00  0.00     0.014 A 
ATOM     34  C   UNL A   1      35.271  32.014  30.439  1.00  0.00     0.010 A 
ATOM     35  C   UNL A   1      36.832  33.460  29.288  1.00  0.00     0.010 A 
ATOM     36  C   UNL A   1      36.595  32.380  30.151  1.00  0.00    -0.014 A 
BRANCH  36  37
ATOM     37  C   UNL A   1      37.735  31.668  30.782  1.00  0.00     0.031 A 
ATOM     38  C   UNL A   1      38.120  31.968  32.206  1.00  0.00     0.074 A 
ATOM     39  C   UNL A   1      38.446  30.778  30.064  1.00  0.00     0.049 A 
ATOM     40  N   UNL A   1      39.103  31.480  32.921  1.00  0.00    -0.248 NA
ATOM     41  C   UNL A   1      37.306  32.969  32.913  1.00  0.00     0.031 C 
ATOM     42  C   UNL A   1      38.199  30.433  28.663  1.00  0.00     0.029 A 
ATOM     43  N   UNL A   1      39.524  30.004  30.414  1.00  0.00    -0.354 N 
ATOM     44  C   UNL A   1      39.034  32.126  34.149  1.00  0.00     0.074 A 
ATOM     45  C   UNL A   1      37.948  33.077  34.066  1.00  0.00     0.031 C 
ATOM     46  C   UNL A   1      39.084  29.498  28.279  1.00  0.00     0.029 A 
ATOM     47  C   UNL A   1      39.977  29.200  29.395  1.00  0.00     0.049 A 
ATOM     48  H   UNL A   1      39.933  30.022  31.308  1.00  0.00     0.167 HD
ATOM     49  C   UNL A   1      39.792  31.926  35.254  1.00  0.00     0.037 A 
ATOM     50  C   UNL A   1      40.995  28.321  29.369  1.00  0.00     0.037 A 
ATOM     51  C   UNL A   1      40.854  30.956  35.343  1.00  0.00     0.049 A 
ATOM     52  C   UNL A   1      41.808  28.102  30.616  1.00  0.00     0.074 A 
ATOM     53  C   UNL A   1      41.654  30.646  36.429  1.00  0.00     0.029 A 
ATOM     54  N   UNL A   1      41.258  30.135  34.301  1.00  0.00    -0.354 N 
ATOM     55  N   UNL A   1      41.697  28.677  31.788  1.00  0.00    -0.248 NA
ATOM     56  C   UNL A   1      42.876  27.097  30.539  1.00  0.00     0.031 C 
ATOM     57  C   UNL A   1      42.566  29.661  36.033  1.00  0.00     0.029 A 
ATOM     58  C   UNL A   1      42.302  29.323  34.716  1.00  0.00     0.049 A 
ATOM     59  H   UNL A   1      40.864  30.130  33.399  1.00  0.00     0.167 HD
ATOM     60  C   UNL A   1      42.655  28.081  32.598  1.00  0.00     0.074 A 
ATOM     61  C   UNL A   1      43.328  27.090  31.785  1.00  0.00     0.031 C 
ATOM     62  C   UNL A   1      42.949  28.330  33.898  1.00  0.00     0.037 A 
BRANCH  49  63
ATOM     63  C   UNL A   1      39.497  32.771  36.460  1.00  0.00     0.064 A 
ATOM     64  C   UNL A   1      40.172  33.979  36.695  1.00  0.00     0.173 A 
ATOM     65  C   UNL A   1      38.508  32.385  37.377  1.00  0.00     0.173 A 
ATOM     66  F   UNL A   1      41.136  34.388  35.856  1.00  0.00    -0.203 F 
ATOM     67  C   UNL A   1      39.890  34.752  37.819  1.00  0.00     0.198 A 
ATOM     68  C   UNL A   1      38.206  33.177  38.484  1.00  0.00     0.198 A 
ATOM     69  F   UNL A   1      37.828  31.244  37.199  1.00  0.00    -0.203 F 
ATOM     70  F   UNL A   1      40.586  35.875  38.049  1.00  0.00    -0.200 F 
ATOM     71  C   UNL A   1      38.904  34.354  38.708  1.00  0.00     0.200 A 
ATOM     72  F   UNL A   1      37.244  32.798  39.335  1.00  0.00    -0.200 F 
ATOM     73  F   UNL A   1      38.630  35.103  39.786  1.00  0.00    -0.200 F 
ENDBRANCH  49  63
BRANCH  50  74
ATOM     74  C   UNL A   1      41.278  27.550  28.130  1.00  0.00     0.064 A 
ATOM     75  C   UNL A   1      42.185  28.031  27.176  1.00  0.00     0.173 A 
ATOM     76  C   UNL A   1      40.648  26.324  27.872  1.00  0.00     0.173 A 
ATOM     77  F   UNL A   1      42.799  29.208  27.369  1.00  0.00    -0.203 F 
ATOM     78  C   UNL A   1      42.433  27.329  25.998  1.00  0.00     0.198 A 
ATOM     79  C   UNL A   1      40.917  25.608  26.708  1.00  0.00     0.198 A 
ATOM     80  F   UNL A   1      39.778  25.817  28.757  1.00  0.00    -0.203 F 
ATOM     81  F   UNL A   1      43.267  27.835  25.081  1.00  0.00    -0.200 F 
ATOM     82  C   UNL A   1      41.802  26.115  25.767  1.00  0.00     0.200 A 
ATOM     83  F   UNL A   1      40.318  24.429  26.495  1.00  0.00    -0.200 F 
ATOM     84  F   UNL A   1      42.042  25.437  24.637  1.00  0.00    -0.200 F 
ENDBRANCH  50  74
BRANCH  62  85
ATOM     85  C   UNL A   1      44.010  27.480  34.535  1.00  0.00     0.064 A 
ATOM     86  C   UNL A   1      45.354  27.876  34.570  1.00  0.00     0.173 A 
ATOM     87  C   UNL A   1      43.668  26.259  35.138  1.00  0.00     0.173 A 
ATOM     88  F   UNL A   1      45.733  29.027  33.995  1.00  0.00    -0.203 F 
ATOM     89  C   UNL A   1      46.323  27.065  35.155  1.00  0.00     0.198 A 
ATOM     90  C   UNL A   1      44.635  25.466  35.749  1.00  0.00     0.198 A 
ATOM     91  F   UNL A   1      42.394  25.838  35.138  1.00  0.00    -0.203 F 
ATOM     92  F   UNL A   1      47.610  27.438  35.127  1.00  0.00    -0.200 F 
ATOM     93  C   UNL A   1      45.962  25.865  35.749  1.00  0.00     0.200 A 
ATOM     94  F   UNL A   1      44.282  24.312  36.333  1.00  0.00    -0.200 F 
ATOM     95  F   UNL A   1      46.897  25.087  36.312  1.00  0.00    -0.200 F 
ENDBRANCH  62  85
ENDBRANCH  36  37
ENDBRANCH  28  31
ENDBRANCH  26  27
ENDBRANCH  25  26
ENDBRANCH   1  25
TORSDOF 14
ENDMDL
MODEL 3
REMARK VINA RESULT:     -11.0      5.706     11.426
REMARK SMILES [NH3+][C@H]1CCC[C@H]1C(=O)NCc1ccc(C(=O)NCCCNC(=O)c2ccc(-c3c4nc(c(-c5c(F)c(F)c(F)c(F)c5F)c5ccc([nH]5)c(-c5c(F)c(F)c(F)c(F)c5F)c5nc(c(-c6c(F)c(F)c(F)c(F)c6F)c6ccc3[nH]6)C=C5)C=C4)cc2)o1
REMARK SMILES IDX 18 1 17 2 15 3 16 4 14 6 11 7 12 8 87 9 13 10 10 11 9 12
REMARK SMILES IDX 7 13 8 14 6 16 2 17 3 18 4 19 5 20 1 21 19 25 20 26 21 27
REMARK SMILES IDX 22 28 23 30 24 31 25 32 86 33 26 34 85 35 27 36 28 37 29 38
REMARK SMILES IDX 79 39 30 40 84 41 78 42 80 43 31 44 83 45 77 46 76 47 32 49
REMARK SMILES IDX 64 50 44 51 63 52 45 53 48 54 62 55 81 56 46 57 47 58 61 60
REMARK SMILES IDX 82 61 49 62 33 63 34 64 42 65 35 66 36 67 40 68 43 69 37 70
REMARK SMILES IDX 38 71 41 72 39 73 65 74 66 75 74 76 67 77 68 78 72 79 75 80
REMARK SMILES IDX 69 81 70 82 73 83 71 84 50 85 51 86 59 87 52 88 53 89 57 90
REMARK SMILES IDX 60 91 54 92 55 93 58 94 56 95
REMARK H PARENT 17 5 9 15 1 22 1 23 1 24 21 29 80 48 48 59
REMARK Flexibility Score: inf
ROOT
ATOM      1  C   UNL A   1      31.746  30.583  26.928  1.00  0.00     0.118 C 
ENDROOT
BRANCH   1   2
ATOM      2  N   UNL A   1      33.040  30.283  27.505  1.00  0.00    -0.349 N 
ATOM      3  C   UNL A   1      34.028  29.415  27.097  1.00  0.00     0.286 C 
ATOM      4  O   UNL A   1      35.074  29.462  27.749  1.00  0.00    -0.266 OA
ATOM      5  H   UNL A   1      33.248  30.783  28.326  1.00  0.00     0.163 HD
BRANCH   3   6
ATOM      6  C   UNL A   1      33.840  28.525  25.965  1.00  0.00     0.191 A 
ATOM      7  C   UNL A   1      33.243  28.126  23.865  1.00  0.00     0.124 A 
ATOM      8  C   UNL A   1      33.590  26.909  24.409  1.00  0.00     0.048 A 
ATOM      9  O   UNL A   1      33.419  29.109  24.791  1.00  0.00    -0.454 OA
ATOM     10  C   UNL A   1      33.988  27.167  25.741  1.00  0.00     0.056 A 
BRANCH   7  11
ATOM     11  C   UNL A   1      32.703  28.555  22.549  1.00  0.00     0.191 C 
BRANCH  11  12
ATOM     12  N   UNL A   1      31.369  28.016  22.379  1.00  0.00    -0.348 N 
ATOM     13  C   UNL A   1      30.146  28.578  22.521  1.00  0.00     0.229 C 
ATOM     14  O   UNL A   1      29.192  27.793  22.596  1.00  0.00    -0.275 OA
ATOM     15  H   UNL A   1      31.349  27.068  22.111  1.00  0.00     0.163 HD
BRANCH  13  16
ATOM     16  C   UNL A   1      29.878  30.077  22.533  1.00  0.00     0.136 C 
ATOM     17  C   UNL A   1      28.959  30.692  21.471  1.00  0.00     0.193 C 
ATOM     18  C   UNL A   1      28.777  32.122  22.000  1.00  0.00     0.066 C 
ATOM     19  C   UNL A   1      28.824  32.024  23.527  1.00  0.00     0.007 C 
ATOM     20  C   UNL A   1      29.458  30.677  23.870  1.00  0.00     0.020 C 
BRANCH  17  21
ATOM     21  N   UNL A   1      27.653  30.078  21.280  1.00  0.00    -0.354 N 
ATOM     22  H   UNL A   1      27.760  29.210  20.754  1.00  0.00     0.344 HD
ATOM     23  H   UNL A   1      27.050  30.717  20.763  1.00  0.00     0.344 HD
ATOM     24  H   UNL A   1      27.237  29.876  22.189  1.00  0.00     0.344 HD
ENDBRANCH  17  21
ENDBRANCH  13  16
ENDBRANCH  11  12
ENDBRANCH   7  11
ENDBRANCH   3   6
ENDBRANCH   1   2
BRANCH   1  25
ATOM     25  C   UNL A   1      31.481  32.087  26.875  1.00  0.00     0.042 C 
BRANCH  25  26
ATOM     26  C   UNL A   1      32.752  32.931  26.922  1.00  0.00     0.118 C 
BRANCH  26  27
ATOM     27  N   UNL A   1      32.538  34.200  27.602  1.00  0.00    -0.352 N 
ATOM     28  C   UNL A   1      33.059  34.689  28.771  1.00  0.00     0.251 C 
ATOM     29  H   UNL A   1      31.914  34.809  27.146  1.00  0.00     0.163 HD
ATOM     30  O   UNL A   1      32.561  35.698  29.266  1.00  0.00    -0.269 OA
BRANCH  28  31
ATOM     31  C   UNL A   1      34.204  34.037  29.447  1.00  0.00     0.039 A 
ATOM     32  C   UNL A   1      35.497  34.443  29.098  1.00  0.00     0.014 A 
ATOM     33  C   UNL A   1      34.028  32.976  30.340  1.00  0.00     0.014 A 
ATOM     34  C   UNL A   1      36.606  33.804  29.656  1.00  0.00     0.010 A 
ATOM     35  C   UNL A   1      35.134  32.387  30.951  1.00  0.00     0.010 A 
ATOM     36  C   UNL A   1      36.434  32.777  30.597  1.00  0.00    -0.014 A 
BRANCH  36  37
ATOM     37  C   UNL A   1      37.606  32.077  31.181  1.00  0.00     0.031 A 
ATOM     38  C   UNL A   1      38.080  32.421  32.567  1.00  0.00     0.074 A 
ATOM     39  C   UNL A   1      38.265  31.156  30.452  1.00  0.00     0.049 A 
ATOM     40  N   UNL A   1      39.102  31.948  33.237  1.00  0.00    -0.248 NA
ATOM     41  C   UNL A   1      37.319  33.453  33.289  1.00  0.00     0.031 C 
ATOM     42  C   UNL A   1      37.929  30.766  29.082  1.00  0.00     0.029 A 
ATOM     43  N   UNL A   1      39.357  30.384  30.761  1.00  0.00    -0.354 N 
ATOM     44  C   UNL A   1      39.114  32.636  34.444  1.00  0.00     0.074 A 
ATOM     45  C   UNL A   1      38.032  33.595  34.395  1.00  0.00     0.031 C 
ATOM     46  C   UNL A   1      38.782  29.810  28.676  1.00  0.00     0.029 A 
ATOM     47  C   UNL A   1      39.740  29.542  29.744  1.00  0.00     0.049 A 
ATOM     48  H   UNL A   1      39.821  30.429  31.627  1.00  0.00     0.167 HD
ATOM     49  C   UNL A   1      39.938  32.467  35.506  1.00  0.00     0.037 A 
ATOM     50  C   UNL A   1      40.749  28.654  29.686  1.00  0.00     0.037 A 
ATOM     51  C   UNL A   1      40.996  31.492  35.563  1.00  0.00     0.049 A 
ATOM     52  C   UNL A   1      41.635  28.470  30.888  1.00  0.00     0.074 A 
ATOM     53  C   UNL A   1      41.860  31.211  36.607  1.00  0.00     0.029 A 
ATOM     54  N   UNL A   1      41.330  30.632  34.526  1.00  0.00    -0.354 N 
ATOM     55  N   UNL A   1      41.601  29.085  32.044  1.00  0.00    -0.248 NA
ATOM     56  C   UNL A   1      42.690  27.453  30.780  1.00  0.00     0.031 C 
ATOM     57  C   UNL A   1      42.739  30.206  36.191  1.00  0.00     0.029 A 
ATOM     58  C   UNL A   1      42.391  29.825  34.905  1.00  0.00     0.049 A 
ATOM     59  H   UNL A   1      40.880  30.600  33.652  1.00  0.00     0.167 HD
ATOM     60  C   UNL A   1      42.604  28.508  32.813  1.00  0.00     0.074 A 
ATOM     61  C   UNL A   1      43.218  27.484  31.995  1.00  0.00     0.031 C 
ATOM     62  C   UNL A   1      42.980  28.799  34.083  1.00  0.00     0.037 A 
BRANCH  49  63
ATOM     63  C   UNL A   1      39.725  33.356  36.698  1.00  0.00     0.064 A 
ATOM     64  C   UNL A   1      40.393  34.584  36.831  1.00  0.00     0.173 A 
ATOM     65  C   UNL A   1      38.820  32.992  37.707  1.00  0.00     0.173 A 
ATOM     66  F   UNL A   1      41.278  34.974  35.901  1.00  0.00    -0.203 F 
ATOM     67  C   UNL A   1      40.187  35.397  37.943  1.00  0.00     0.198 A 
ATOM     68  C   UNL A   1      38.593  33.822  38.802  1.00  0.00     0.198 A 
ATOM     69  F   UNL A   1      38.150  31.833  37.628  1.00  0.00    -0.203 F 
ATOM     70  F   UNL A   1      40.877  36.539  38.071  1.00  0.00    -0.200 F 
ATOM     71  C   UNL A   1      39.282  35.019  38.923  1.00  0.00     0.200 A 
ATOM     72  F   UNL A   1      37.709  33.463  39.743  1.00  0.00    -0.200 F 
ATOM     73  F   UNL A   1      39.082  35.806  39.989  1.00  0.00    -0.200 F 
ENDBRANCH  49  63
BRANCH  50  74
ATOM     74  C   UNL A   1      40.949  27.838  28.460  1.00  0.00     0.064 A 
ATOM     75  C   UNL A   1      41.789  28.283  27.430  1.00  0.00     0.173 A 
ATOM     76  C   UNL A   1      40.304  26.605  28.289  1.00  0.00     0.173 A 
ATOM     77  F   UNL A   1      42.413  29.466  27.539  1.00  0.00    -0.203 F 
ATOM     78  C   UNL A   1      41.958  27.539  26.264  1.00  0.00     0.198 A 
ATOM     79  C   UNL A   1      40.496  25.847  27.135  1.00  0.00     0.198 A 
ATOM     80  F   UNL A   1      39.496  26.130  29.247  1.00  0.00    -0.203 F 
ATOM     81  F   UNL A   1      42.729  28.011  25.276  1.00  0.00    -0.200 F 
ATOM     82  C   UNL A   1      41.315  26.318  26.120  1.00  0.00     0.200 A 
ATOM     83  F   UNL A   1      39.885  24.662  27.006  1.00  0.00    -0.200 F 
ATOM     84  F   UNL A   1      41.480  25.601  25.001  1.00  0.00    -0.200 F 
ENDBRANCH  50  74
BRANCH  62  85
ATOM     85  C   UNL A   1      44.072  27.961  34.682  1.00  0.00     0.064 A 
ATOM     86  C   UNL A   1      43.801  26.754  35.344  1.00  0.00     0.173 A 
ATOM     87  C   UNL A   1      45.411  28.364  34.571  1.00  0.00     0.173 A 
ATOM     88  F   UNL A   1      42.536  26.334  35.488  1.00  0.00    -0.203 F 
ATOM     89  C   UNL A   1      44.829  26.000  35.903  1.00  0.00     0.198 A 
ATOM     90  C   UNL A   1      46.439  27.592  35.104  1.00  0.00     0.198 A 
ATOM     91  F   UNL A   1      45.724  29.507  33.941  1.00  0.00    -0.203 F 
ATOM     92  F   UNL A   1      44.543  24.880  36.579  1.00  0.00    -0.200 F 
ATOM     93  C   UNL A   1      46.146  26.416  35.777  1.00  0.00     0.200 A 
ATOM     94  F   UNL A   1      47.712  27.989  34.972  1.00  0.00    -0.200 F 
ATOM     95  F   UNL A   1      47.134  25.687  36.316  1.00  0.00    -0.200 F 
ENDBRANCH  62  85
ENDBRANCH  36  37
ENDBRANCH  28  31
ENDBRANCH  26  27
ENDBRANCH  25  26
ENDBRANCH   1  25
TORSDOF 14
ENDMDL
