MODEL 1
REMARK VINA RESULT:     -13.5      0.000      0.000
REMARK SMILES COc1c(Cl)cc(C(=O)NCCCNC(=O)c2ccc(-c3c4nc(c(-c5c(F)c(F)c(F)c(F)c5F)c5ccc([nH]5)c(-c5c(F)c(F)c(F)c(F)c5F)c5nc(c(-c6c(F)c(F)c(F)c(F)c6F)c6ccc3[nH]6)C=C5)C=C4)cc2)cc1NC(=S)NC(=O)c1ccccc1F
REMARK SMILES IDX 11 1 10 2 8 3 9 4 7 6 3 7 4 8 81 9 5 10 6 11 80 12 2 13 1 14
REMARK SMILES IDX 82 15 83 17 84 18 85 19 86 20 87 22 88 23 89 24 93 25 90 26
REMARK SMILES IDX 92 27 94 28 91 29 12 30 13 31 14 32 15 33 16 35 17 36 18 37
REMARK SMILES IDX 79 38 19 39 78 40 20 41 21 42 22 43 72 44 23 45 77 46 71 47
REMARK SMILES IDX 73 48 24 49 76 50 70 51 69 52 25 54 57 55 37 56 56 57 38 58
REMARK SMILES IDX 41 59 55 60 74 61 39 62 40 63 54 65 75 66 42 67 26 68 27 69
REMARK SMILES IDX 35 70 28 71 29 72 33 73 36 74 30 75 31 76 34 77 32 78 58 79
REMARK SMILES IDX 59 80 67 81 60 82 61 83 65 84 68 85 62 86 63 87 66 88 64 89
REMARK SMILES IDX 43 90 44 91 52 92 45 93 46 94 50 95 53 96 47 97 48 98 51 99
REMARK SMILES IDX 49 100
REMARK H PARENT 10 5 82 16 85 21 14 34 73 53 41 64
REMARK Flexibility Score: inf
ROOT
ATOM      1  C   UNL A   1      47.873  20.760  35.241  1.00  0.00     0.118 C 
ENDROOT
BRANCH   1   2
ATOM      2  N   UNL A   1      46.631  19.970  35.428  1.00  0.00    -0.352 N 
ATOM      3  C   UNL A   1      45.819  19.100  36.345  1.00  0.00     0.251 C 
ATOM      4  O   UNL A   1      44.914  19.045  35.433  1.00  0.00    -0.269 OA
ATOM      5  H   UNL A   1      46.119  20.048  34.590  1.00  0.00     0.163 HD
BRANCH   3   6
ATOM      6  C   UNL A   1      46.034  18.288  38.327  1.00  0.00     0.043 A 
ATOM      7  C   UNL A   1      45.803  17.719  41.364  1.00  0.00     0.160 A 
ATOM      8  C   UNL A   1      46.971  18.228  40.818  1.00  0.00     0.086 A 
ATOM      9  C   UNL A   1      44.808  17.455  40.453  1.00  0.00     0.085 A 
ATOM     10  Cl  UNL A   1      48.328  18.750  41.764  1.00  0.00    -0.080 Cl
ATOM     11  C   UNL A   1      47.061  18.505  39.407  1.00  0.00     0.038 A 
ATOM     12  C   UNL A   1      45.129  17.395  39.099  1.00  0.00     0.044 A 
BRANCH   7  13
ATOM     13  O   UNL A   1      45.497  17.475  42.671  1.00  0.00    -0.493 OA
ATOM     14  C   UNL A   1      46.198  16.402  43.297  1.00  0.00     0.278 C 
ENDBRANCH   7  13
BRANCH   9  15
ATOM     15  N   UNL A   1      43.461  17.209  40.800  1.00  0.00    -0.329 N 
ATOM     16  H   UNL A   1      42.853  17.975  40.689  1.00  0.00     0.169 HD
BRANCH  15  17
ATOM     17  C   UNL A   1      42.879  16.062  41.266  1.00  0.00     0.177 C 
ATOM     18  S   UNL A   1      42.357  14.919  40.157  1.00  0.00    -0.040 S 
BRANCH  17  19
ATOM     19  N   UNL A   1      42.745  15.744  42.605  1.00  0.00    -0.299 N 
ATOM     20  C   UNL A   1      42.077  14.697  43.229  1.00  0.00     0.260 C 
ATOM     21  H   UNL A   1      43.201  16.363  43.221  1.00  0.00     0.172 HD
ATOM     22  O   UNL A   1      40.902  14.794  43.573  1.00  0.00    -0.269 OA
BRANCH  20  23
ATOM     23  C   UNL A   1      42.813  13.444  43.545  1.00  0.00     0.075 A 
ATOM     24  C   UNL A   1      43.704  13.462  45.124  1.00  0.00     0.017 A 
ATOM     25  C   UNL A   1      42.467  11.825  42.718  1.00  0.00     0.135 A 
ATOM     26  C   UNL A   1      44.148  11.912  45.944  1.00  0.00     0.001 A 
ATOM     27  C   UNL A   1      42.833  10.275  43.578  1.00  0.00     0.040 A 
ATOM     28  F   UNL A   1      41.782  11.784  41.563  1.00  0.00    -0.206 F 
ATOM     29  C   UNL A   1      43.642  10.306  45.199  1.00  0.00     0.003 A 
ENDBRANCH  20  23
ENDBRANCH  17  19
ENDBRANCH  15  17
ENDBRANCH   9  15
ENDBRANCH   3   6
ENDBRANCH   1   2
BRANCH   1  30
ATOM     30  C   UNL A   1      47.612  22.260  35.124  1.00  0.00     0.042 C 
BRANCH  30  31
ATOM     31  C   UNL A   1      46.616  22.808  36.124  1.00  0.00     0.118 C 
BRANCH  31  32
ATOM     32  N   UNL A   1      47.190  23.874  36.928  1.00  0.00    -0.352 N 
ATOM     33  C   UNL A   1      47.095  25.235  36.816  1.00  0.00     0.251 C 
ATOM     34  H   UNL A   1      47.741  23.564  37.682  1.00  0.00     0.163 HD
ATOM     35  O   UNL A   1      47.909  25.929  37.422  1.00  0.00    -0.269 OA
BRANCH  33  36
ATOM     36  C   UNL A   1      46.041  25.883  36.001  1.00  0.00     0.039 A 
ATOM     37  C   UNL A   1      46.390  27.016  35.262  1.00  0.00     0.014 A 
ATOM     38  C   UNL A   1      44.709  25.459  36.018  1.00  0.00     0.014 A 
ATOM     39  C   UNL A   1      45.416  27.703  34.539  1.00  0.00     0.010 A 
ATOM     40  C   UNL A   1      43.764  26.069  35.198  1.00  0.00     0.010 A 
ATOM     41  C   UNL A   1      44.099  27.218  34.476  1.00  0.00    -0.014 A 
BRANCH  41  42
ATOM     42  C   UNL A   1      43.081  27.927  33.662  1.00  0.00     0.031 A 
ATOM     43  C   UNL A   1      42.924  27.634  32.195  1.00  0.00     0.074 A 
ATOM     44  C   UNL A   1      42.294  28.841  34.263  1.00  0.00     0.049 A 
ATOM     45  N   UNL A   1      42.045  28.110  31.349  1.00  0.00    -0.248 NA
ATOM     46  C   UNL A   1      43.890  26.704  31.588  1.00  0.00     0.031 C 
ATOM     47  C   UNL A   1      42.402  29.250  35.665  1.00  0.00     0.029 A 
ATOM     48  N   UNL A   1      41.242  29.575  33.783  1.00  0.00    -0.354 N 
ATOM     49  C   UNL A   1      42.356  27.543  30.119  1.00  0.00     0.074 A 
ATOM     50  C   UNL A   1      43.541  26.739  30.312  1.00  0.00     0.031 C 
ATOM     51  C   UNL A   1      41.421  30.119  35.946  1.00  0.00     0.029 A 
ATOM     52  C   UNL A   1      40.649  30.368  34.734  1.00  0.00     0.049 A 
ATOM     53  H   UNL A   1      40.941  29.538  32.847  1.00  0.00     0.167 HD
ATOM     54  C   UNL A   1      41.695  27.664  28.943  1.00  0.00     0.037 A 
ATOM     55  C   UNL A   1      39.603  31.207  34.638  1.00  0.00     0.037 A 
ATOM     56  C   UNL A   1      40.510  28.465  28.767  1.00  0.00     0.049 A 
ATOM     57  C   UNL A   1      38.895  31.329  33.317  1.00  0.00     0.074 A 
ATOM     58  C   UNL A   1      39.728  28.612  27.635  1.00  0.00     0.029 A 
ATOM     59  N   UNL A   1      39.945  29.268  29.748  1.00  0.00    -0.354 N 
ATOM     60  N   UNL A   1      39.141  30.716  32.184  1.00  0.00    -0.248 NA
ATOM     61  C   UNL A   1      37.755  32.252  33.265  1.00  0.00     0.031 C 
ATOM     62  C   UNL A   1      38.740  29.563  27.907  1.00  0.00     0.029 A 
ATOM     63  C   UNL A   1      38.850  29.946  29.234  1.00  0.00     0.049 A 
ATOM     64  H   UNL A   1      40.275  29.346  30.674  1.00  0.00     0.167 HD
ATOM     65  C   UNL A   1      38.176  31.163  31.291  1.00  0.00     0.074 A 
ATOM     66  C   UNL A   1      37.319  32.069  32.028  1.00  0.00     0.031 C 
ATOM     67  C   UNL A   1      38.016  30.855  29.979  1.00  0.00     0.037 A 
BRANCH  54  68
ATOM     68  C   UNL A   1      42.242  26.930  27.750  1.00  0.00     0.064 A 
ATOM     69  C   UNL A   1      43.189  27.509  26.890  1.00  0.00     0.173 A 
ATOM     70  C   UNL A   1      41.848  25.608  27.488  1.00  0.00     0.173 A 
ATOM     71  F   UNL A   1      43.595  28.772  27.084  1.00  0.00    -0.203 F 
ATOM     72  C   UNL A   1      43.696  26.805  25.800  1.00  0.00     0.198 A 
ATOM     73  C   UNL A   1      42.386  24.893  26.421  1.00  0.00     0.198 A 
ATOM     74  F   UNL A   1      40.951  25.000  28.279  1.00  0.00    -0.203 F 
ATOM     75  F   UNL A   1      44.558  27.397  24.963  1.00  0.00    -0.200 F 
ATOM     76  C   UNL A   1      43.302  25.494  25.572  1.00  0.00     0.200 A 
ATOM     77  F   UNL A   1      42.017  23.622  26.215  1.00  0.00    -0.200 F 
ATOM     78  F   UNL A   1      43.801  24.814  24.531  1.00  0.00    -0.200 F 
ENDBRANCH  54  68
BRANCH  55  79
ATOM     79  C   UNL A   1      39.161  31.988  35.825  1.00  0.00     0.064 A 
ATOM     80  C   UNL A   1      39.647  33.280  36.069  1.00  0.00     0.173 A 
ATOM     81  C   UNL A   1      38.249  31.452  36.747  1.00  0.00     0.173 A 
ATOM     82  F   UNL A   1      40.532  33.834  35.227  1.00  0.00    -0.203 F 
ATOM     83  C   UNL A   1      39.266  33.991  37.206  1.00  0.00     0.198 A 
ATOM     84  C   UNL A   1      37.837  32.179  37.860  1.00  0.00     0.198 A 
ATOM     85  F   UNL A   1      37.747  30.223  36.557  1.00  0.00    -0.203 F 
ATOM     86  F   UNL A   1      39.796  35.197  37.447  1.00  0.00    -0.200 F 
ATOM     87  C   UNL A   1      38.356  33.442  38.097  1.00  0.00     0.200 A 
ATOM     88  F   UNL A   1      36.942  31.652  38.707  1.00  0.00    -0.200 F 
ATOM     89  F   UNL A   1      37.988  34.126  39.188  1.00  0.00    -0.200 F 
ENDBRANCH  55  79
BRANCH  67  90
ATOM     90  C   UNL A   1      36.850  31.489  29.270  1.00  0.00     0.064 A 
ATOM     91  C   UNL A   1      36.832  32.855  28.946  1.00  0.00     0.173 A 
ATOM     92  C   UNL A   1      35.733  30.719  28.911  1.00  0.00     0.173 A 
ATOM     93  F   UNL A   1      37.870  33.641  29.274  1.00  0.00    -0.203 F 
ATOM     94  C   UNL A   1      35.720  33.435  28.342  1.00  0.00     0.198 A 
ATOM     95  C   UNL A   1      34.642  31.293  28.264  1.00  0.00     0.198 A 
ATOM     96  F   UNL A   1      35.698  29.406  29.183  1.00  0.00    -0.203 F 
ATOM     97  F   UNL A   1      35.695  34.757  28.120  1.00  0.00    -0.200 F 
ATOM     98  C   UNL A   1      34.629  32.653  27.996  1.00  0.00     0.200 A 
ATOM     99  F   UNL A   1      33.598  30.531  27.910  1.00  0.00    -0.200 F 
ATOM    100  F   UNL A   1      33.559  33.212  27.417  1.00  0.00    -0.200 F 
ENDBRANCH  67  90
ENDBRANCH  41  42
ENDBRANCH  33  36
ENDBRANCH  31  32
ENDBRANCH  30  31
ENDBRANCH   1  30
TORSDOF 15
ENDMDL
MODEL 2
REMARK VINA RESULT:     -13.4     10.849     21.055
REMARK SMILES COc1c(Cl)cc(C(=O)NCCCNC(=O)c2ccc(-c3c4nc(c(-c5c(F)c(F)c(F)c(F)c5F)c5ccc([nH]5)c(-c5c(F)c(F)c(F)c(F)c5F)c5nc(c(-c6c(F)c(F)c(F)c(F)c6F)c6ccc3[nH]6)C=C5)C=C4)cc2)cc1NC(=S)NC(=O)c1ccccc1F
REMARK SMILES IDX 11 1 10 2 8 3 9 4 7 6 3 7 4 8 81 9 5 10 6 11 80 12 2 13 1 14
REMARK SMILES IDX 82 15 83 17 84 18 85 19 86 20 87 22 88 23 89 24 93 25 90 26
REMARK SMILES IDX 92 27 94 28 91 29 12 30 13 31 14 32 15 33 16 35 17 36 18 37
REMARK SMILES IDX 79 38 19 39 78 40 20 41 21 42 22 43 72 44 23 45 77 46 71 47
REMARK SMILES IDX 73 48 24 49 76 50 70 51 69 52 25 54 57 55 37 56 56 57 38 58
REMARK SMILES IDX 41 59 55 60 74 61 39 62 40 63 54 65 75 66 42 67 26 68 27 69
REMARK SMILES IDX 35 70 28 71 29 72 33 73 36 74 30 75 31 76 34 77 32 78 58 79
REMARK SMILES IDX 59 80 67 81 60 82 61 83 65 84 68 85 62 86 63 87 66 88 64 89
REMARK SMILES IDX 43 90 44 91 52 92 45 93 46 94 50 95 53 96 47 97 48 98 51 99
REMARK SMILES IDX 49 100
REMARK H PARENT 10 5 82 16 85 21 14 34 73 53 41 64
REMARK Flexibility Score: inf
ROOT
ATOM      1  C   UNL A   1      42.538  38.980  27.035  1.00  0.00     0.118 C 
ENDROOT
BRANCH   1   2
ATOM      2  N   UNL A   1      41.671  40.031  26.448  1.00  0.00    -0.352 N 
ATOM      3  C   UNL A   1      41.570  41.199  25.509  1.00  0.00     0.251 C 
ATOM      4  O   UNL A   1      40.320  41.277  25.797  1.00  0.00    -0.269 OA
ATOM      5  H   UNL A   1      40.777  39.912  26.844  1.00  0.00     0.163 HD
BRANCH   3   6
ATOM      6  C   UNL A   1      42.906  42.289  24.220  1.00  0.00     0.043 A 
ATOM      7  C   UNL A   1      44.944  43.109  22.033  1.00  0.00     0.160 A 
ATOM      8  C   UNL A   1      45.285  43.136  23.377  1.00  0.00     0.086 A 
ATOM      9  C   UNL A   1      43.644  42.741  21.776  1.00  0.00     0.085 A 
ATOM     10  Cl  UNL A   1      46.890  43.454  23.956  1.00  0.00    -0.080 Cl
ATOM     11  C   UNL A   1      44.336  42.737  24.384  1.00  0.00     0.038 A 
ATOM     12  C   UNL A   1      42.719  42.752  22.819  1.00  0.00     0.044 A 
BRANCH   7  13
ATOM     13  O   UNL A   1      45.720  43.363  20.942  1.00  0.00    -0.493 OA
ATOM     14  C   UNL A   1      46.313  44.659  20.872  1.00  0.00     0.278 C 
ENDBRANCH   7  13
BRANCH   9  15
ATOM     15  N   UNL A   1      43.162  42.372  20.502  1.00  0.00    -0.329 N 
ATOM     16  H   UNL A   1      43.026  41.406  20.369  1.00  0.00     0.169 HD
BRANCH  15  17
ATOM     17  C   UNL A   1      42.857  43.160  19.426  1.00  0.00     0.177 C 
ATOM     18  S   UNL A   1      41.304  43.776  19.297  1.00  0.00    -0.040 S 
BRANCH  17  19
ATOM     19  N   UNL A   1      43.767  43.542  18.457  1.00  0.00    -0.299 N 
ATOM     20  C   UNL A   1      43.575  44.116  17.205  1.00  0.00     0.260 C 
ATOM     21  H   UNL A   1      44.709  43.382  18.693  1.00  0.00     0.172 HD
ATOM     22  O   UNL A   1      43.431  43.433  16.195  1.00  0.00    -0.269 OA
BRANCH  20  23
ATOM     23  C   UNL A   1      43.601  45.598  17.068  1.00  0.00     0.075 A 
ATOM     24  C   UNL A   1      41.998  46.355  16.689  1.00  0.00     0.017 A 
ATOM     25  C   UNL A   1      44.971  46.655  17.722  1.00  0.00     0.135 A 
ATOM     26  C   UNL A   1      41.699  48.100  17.056  1.00  0.00     0.001 A 
ATOM     27  C   UNL A   1      44.646  48.380  18.169  1.00  0.00     0.040 A 
ATOM     28  F   UNL A   1      46.158  46.112  18.039  1.00  0.00    -0.206 F 
ATOM     29  C   UNL A   1      43.012  49.102  17.871  1.00  0.00     0.003 A 
ENDBRANCH  20  23
ENDBRANCH  17  19
ENDBRANCH  15  17
ENDBRANCH   9  15
ENDBRANCH   3   6
ENDBRANCH   1   2
BRANCH   1  30
ATOM     30  C   UNL A   1      43.727  39.550  27.805  1.00  0.00     0.042 C 
BRANCH  30  31
ATOM     31  C   UNL A   1      44.251  38.659  28.910  1.00  0.00     0.118 C 
BRANCH  31  32
ATOM     32  N   UNL A   1      45.691  38.484  28.824  1.00  0.00    -0.352 N 
ATOM     33  C   UNL A   1      46.469  37.364  28.936  1.00  0.00     0.251 C 
ATOM     34  H   UNL A   1      46.194  39.315  28.657  1.00  0.00     0.163 HD
ATOM     35  O   UNL A   1      47.675  37.506  29.131  1.00  0.00    -0.269 OA
BRANCH  33  36
ATOM     36  C   UNL A   1      45.902  36.001  28.816  1.00  0.00     0.039 A 
ATOM     37  C   UNL A   1      46.127  35.104  29.864  1.00  0.00     0.014 A 
ATOM     38  C   UNL A   1      45.237  35.560  27.668  1.00  0.00     0.014 A 
ATOM     39  C   UNL A   1      45.677  33.788  29.764  1.00  0.00     0.010 A 
ATOM     40  C   UNL A   1      44.679  34.285  27.621  1.00  0.00     0.010 A 
ATOM     41  C   UNL A   1      44.921  33.375  28.654  1.00  0.00    -0.014 A 
BRANCH  41  42
ATOM     42  C   UNL A   1      44.402  31.987  28.580  1.00  0.00     0.031 A 
ATOM     43  C   UNL A   1      43.082  31.622  29.201  1.00  0.00     0.074 A 
ATOM     44  C   UNL A   1      45.136  31.056  27.941  1.00  0.00     0.049 A 
ATOM     45  N   UNL A   1      42.446  30.478  29.175  1.00  0.00    -0.248 NA
ATOM     46  C   UNL A   1      42.391  32.668  29.974  1.00  0.00     0.031 C 
ATOM     47  C   UNL A   1      46.459  31.283  27.357  1.00  0.00     0.029 A 
ATOM     48  N   UNL A   1      44.871  29.741  27.660  1.00  0.00    -0.354 N 
ATOM     49  C   UNL A   1      41.292  30.666  29.926  1.00  0.00     0.074 A 
ATOM     50  C   UNL A   1      41.343  32.012  30.449  1.00  0.00     0.031 C 
ATOM     51  C   UNL A   1      46.865  30.165  26.739  1.00  0.00     0.029 A 
ATOM     52  C   UNL A   1      45.858  29.128  26.929  1.00  0.00     0.049 A 
ATOM     53  H   UNL A   1      44.051  29.281  27.954  1.00  0.00     0.167 HD
ATOM     54  C   UNL A   1      40.272  29.800  30.137  1.00  0.00     0.037 A 
ATOM     55  C   UNL A   1      45.943  27.868  26.467  1.00  0.00     0.037 A 
ATOM     56  C   UNL A   1      40.232  28.462  29.604  1.00  0.00     0.049 A 
ATOM     57  C   UNL A   1      44.799  26.926  26.725  1.00  0.00     0.074 A 
ATOM     58  C   UNL A   1      39.221  27.523  29.705  1.00  0.00     0.029 A 
ATOM     59  N   UNL A   1      41.257  27.868  28.880  1.00  0.00    -0.354 N 
ATOM     60  N   UNL A   1      43.671  27.144  27.357  1.00  0.00    -0.248 NA
ATOM     61  C   UNL A   1      44.937  25.565  26.195  1.00  0.00     0.031 C 
ATOM     62  C   UNL A   1      39.666  26.336  29.115  1.00  0.00     0.029 A 
ATOM     63  C   UNL A   1      40.919  26.560  28.567  1.00  0.00     0.049 A 
ATOM     64  H   UNL A   1      42.100  28.311  28.626  1.00  0.00     0.167 HD
ATOM     65  C   UNL A   1      42.956  25.956  27.282  1.00  0.00     0.074 A 
ATOM     66  C   UNL A   1      43.766  25.035  26.511  1.00  0.00     0.031 C 
ATOM     67  C   UNL A   1      41.743  25.652  27.808  1.00  0.00     0.037 A 
BRANCH  54  68
ATOM     68  C   UNL A   1      39.123  30.262  30.990  1.00  0.00     0.064 A 
ATOM     69  C   UNL A   1      39.105  30.070  32.381  1.00  0.00     0.173 A 
ATOM     70  C   UNL A   1      38.043  30.949  30.414  1.00  0.00     0.173 A 
ATOM     71  F   UNL A   1      40.105  29.412  32.985  1.00  0.00    -0.203 F 
ATOM     72  C   UNL A   1      38.038  30.521  33.156  1.00  0.00     0.198 A 
ATOM     73  C   UNL A   1      36.997  31.433  31.196  1.00  0.00     0.198 A 
ATOM     74  F   UNL A   1      38.007  31.168  29.091  1.00  0.00    -0.203 F 
ATOM     75  F   UNL A   1      38.019  30.279  34.473  1.00  0.00    -0.200 F 
ATOM     76  C   UNL A   1      36.990  31.211  32.564  1.00  0.00     0.200 A 
ATOM     77  F   UNL A   1      35.995  32.115  30.625  1.00  0.00    -0.200 F 
ATOM     78  F   UNL A   1      35.971  31.656  33.312  1.00  0.00    -0.200 F 
ENDBRANCH  54  68
BRANCH  55  79
ATOM     79  C   UNL A   1      47.148  27.430  25.712  1.00  0.00     0.064 A 
ATOM     80  C   UNL A   1      48.232  26.822  26.359  1.00  0.00     0.173 A 
ATOM     81  C   UNL A   1      47.244  27.622  24.325  1.00  0.00     0.173 A 
ATOM     82  F   UNL A   1      48.198  26.627  27.686  1.00  0.00    -0.203 F 
ATOM     83  C   UNL A   1      49.378  26.454  25.655  1.00  0.00     0.198 A 
ATOM     84  C   UNL A   1      48.371  27.217  23.616  1.00  0.00     0.198 A 
ATOM     85  F   UNL A   1      46.231  28.192  23.655  1.00  0.00    -0.203 F 
ATOM     86  F   UNL A   1      50.424  25.933  26.309  1.00  0.00    -0.200 F 
ATOM     87  C   UNL A   1      49.444  26.646  24.283  1.00  0.00     0.200 A 
ATOM     88  F   UNL A   1      48.421  27.386  22.288  1.00  0.00    -0.200 F 
ATOM     89  F   UNL A   1      50.544  26.291  23.607  1.00  0.00    -0.200 F 
ENDBRANCH  55  79
BRANCH  67  90
ATOM     90  C   UNL A   1      41.212  24.271  27.539  1.00  0.00     0.064 A 
ATOM     91  C   UNL A   1      41.754  23.134  28.158  1.00  0.00     0.173 A 
ATOM     92  C   UNL A   1      40.146  24.081  26.646  1.00  0.00     0.173 A 
ATOM     93  F   UNL A   1      42.782  23.255  29.014  1.00  0.00    -0.203 F 
ATOM     94  C   UNL A   1      41.288  21.858  27.852  1.00  0.00     0.198 A 
ATOM     95  C   UNL A   1      39.650  22.809  26.378  1.00  0.00     0.198 A 
ATOM     96  F   UNL A   1      39.579  25.132  26.034  1.00  0.00    -0.203 F 
ATOM     97  F   UNL A   1      41.879  20.784  28.393  1.00  0.00    -0.200 F 
ATOM     98  C   UNL A   1      40.233  21.697  26.967  1.00  0.00     0.200 A 
ATOM     99  F   UNL A   1      38.615  22.657  25.541  1.00  0.00    -0.200 F 
ATOM    100  F   UNL A   1      39.785  20.470  26.672  1.00  0.00    -0.200 F 
ENDBRANCH  67  90
ENDBRANCH  41  42
ENDBRANCH  33  36
ENDBRANCH  31  32
ENDBRANCH  30  31
ENDBRANCH   1  30
TORSDOF 15
ENDMDL
MODEL 3
REMARK VINA RESULT:     -13.2      8.618     16.645
REMARK SMILES COc1c(Cl)cc(C(=O)NCCCNC(=O)c2ccc(-c3c4nc(c(-c5c(F)c(F)c(F)c(F)c5F)c5ccc([nH]5)c(-c5c(F)c(F)c(F)c(F)c5F)c5nc(c(-c6c(F)c(F)c(F)c(F)c6F)c6ccc3[nH]6)C=C5)C=C4)cc2)cc1NC(=S)NC(=O)c1ccccc1F
REMARK SMILES IDX 11 1 10 2 8 3 9 4 7 6 3 7 4 8 81 9 5 10 6 11 80 12 2 13 1 14
REMARK SMILES IDX 82 15 83 17 84 18 85 19 86 20 87 22 88 23 89 24 93 25 90 26
REMARK SMILES IDX 92 27 94 28 91 29 12 30 13 31 14 32 15 33 16 35 17 36 18 37
REMARK SMILES IDX 79 38 19 39 78 40 20 41 21 42 22 43 72 44 23 45 77 46 71 47
REMARK SMILES IDX 73 48 24 49 76 50 70 51 69 52 25 54 57 55 37 56 56 57 38 58
REMARK SMILES IDX 41 59 55 60 74 61 39 62 40 63 54 65 75 66 42 67 26 68 27 69
REMARK SMILES IDX 35 70 28 71 29 72 33 73 36 74 30 75 31 76 34 77 32 78 58 79
REMARK SMILES IDX 59 80 67 81 60 82 61 83 65 84 68 85 62 86 63 87 66 88 64 89
REMARK SMILES IDX 43 90 44 91 52 92 45 93 46 94 50 95 53 96 47 97 48 98 51 99
REMARK SMILES IDX 49 100
REMARK H PARENT 10 5 82 16 85 21 14 34 73 53 41 64
REMARK Flexibility Score: inf
ROOT
ATOM      1  C   UNL A   1      33.869  30.794  27.647  1.00  0.00     0.118 C 
ENDROOT
BRANCH   1   2
ATOM      2  N   UNL A   1      32.900  29.674  27.572  1.00  0.00    -0.352 N 
ATOM      3  C   UNL A   1      32.605  28.299  27.042  1.00  0.00     0.251 C 
ATOM      4  O   UNL A   1      31.482  28.338  27.667  1.00  0.00    -0.269 OA
ATOM      5  H   UNL A   1      32.110  29.949  28.092  1.00  0.00     0.163 HD
BRANCH   3   6
ATOM      6  C   UNL A   1      33.601  26.857  25.792  1.00  0.00     0.043 A 
ATOM      7  C   UNL A   1      34.264  24.639  23.732  1.00  0.00     0.160 A 
ATOM      8  C   UNL A   1      34.398  24.415  25.094  1.00  0.00     0.086 A 
ATOM      9  C   UNL A   1      33.869  25.911  23.393  1.00  0.00     0.085 A 
ATOM     10  Cl  UNL A   1      34.770  22.866  25.782  1.00  0.00    -0.080 Cl
ATOM     11  C   UNL A   1      34.071  25.447  26.043  1.00  0.00     0.038 A 
ATOM     12  C   UNL A   1      33.953  26.923  24.348  1.00  0.00     0.044 A 
BRANCH   7  13
ATOM     13  O   UNL A   1      34.439  23.771  22.695  1.00  0.00    -0.493 OA
ATOM     14  C   UNL A   1      33.469  22.732  22.566  1.00  0.00     0.278 C 
ENDBRANCH   7  13
BRANCH   9  15
ATOM     15  N   UNL A   1      33.399  26.281  22.114  1.00  0.00    -0.329 N 
ATOM     16  H   UNL A   1      33.943  26.956  21.647  1.00  0.00     0.169 HD
BRANCH  15  17
ATOM     17  C   UNL A   1      32.300  25.840  21.431  1.00  0.00     0.177 C 
ATOM     18  S   UNL A   1      32.472  25.421  19.817  1.00  0.00    -0.040 S 
BRANCH  17  19
ATOM     19  N   UNL A   1      31.052  25.651  21.998  1.00  0.00    -0.299 N 
ATOM     20  C   UNL A   1      30.534  26.074  23.217  1.00  0.00     0.260 C 
ATOM     21  H   UNL A   1      30.425  25.131  21.446  1.00  0.00     0.172 HD
ATOM     22  O   UNL A   1      30.628  25.391  24.232  1.00  0.00    -0.269 OA
BRANCH  20  23
ATOM     23  C   UNL A   1      29.793  27.363  23.288  1.00  0.00     0.075 A 
ATOM     24  C   UNL A   1      30.605  28.755  22.459  1.00  0.00     0.017 A 
ATOM     25  C   UNL A   1      27.993  27.478  23.701  1.00  0.00     0.135 A 
ATOM     26  C   UNL A   1      29.645  30.194  21.932  1.00  0.00     0.001 A 
ATOM     27  C   UNL A   1      27.016  28.879  23.098  1.00  0.00     0.040 A 
ATOM     28  F   UNL A   1      27.361  26.448  24.288  1.00  0.00    -0.206 F 
ATOM     29  C   UNL A   1      27.822  30.222  22.189  1.00  0.00     0.003 A 
ENDBRANCH  20  23
ENDBRANCH  17  19
ENDBRANCH  15  17
ENDBRANCH   9  15
ENDBRANCH   3   6
ENDBRANCH   1   2
BRANCH   1  30
ATOM     30  C   UNL A   1      33.401  32.037  26.894  1.00  0.00     0.042 C 
BRANCH  30  31
ATOM     31  C   UNL A   1      32.116  32.645  27.413  1.00  0.00     0.118 C 
BRANCH  31  32
ATOM     32  N   UNL A   1      32.259  34.068  27.672  1.00  0.00    -0.352 N 
ATOM     33  C   UNL A   1      33.040  34.744  28.570  1.00  0.00     0.251 C 
ATOM     34  H   UNL A   1      31.697  34.644  27.105  1.00  0.00     0.163 HD
ATOM     35  O   UNL A   1      32.768  35.918  28.814  1.00  0.00    -0.269 OA
BRANCH  33  36
ATOM     36  C   UNL A   1      34.199  34.107  29.237  1.00  0.00     0.039 A 
ATOM     37  C   UNL A   1      35.471  34.353  28.714  1.00  0.00     0.014 A 
ATOM     38  C   UNL A   1      34.057  33.208  30.298  1.00  0.00     0.014 A 
ATOM     39  C   UNL A   1      36.584  33.717  29.261  1.00  0.00     0.010 A 
ATOM     40  C   UNL A   1      35.179  32.672  30.924  1.00  0.00     0.010 A 
ATOM     41  C   UNL A   1      36.452  32.894  30.391  1.00  0.00    -0.014 A 
BRANCH  41  42
ATOM     42  C   UNL A   1      37.649  32.262  30.999  1.00  0.00     0.031 A 
ATOM     43  C   UNL A   1      38.115  32.653  32.374  1.00  0.00     0.074 A 
ATOM     44  C   UNL A   1      38.314  31.325  30.295  1.00  0.00     0.049 A 
ATOM     45  N   UNL A   1      39.099  32.159  33.084  1.00  0.00    -0.248 NA
ATOM     46  C   UNL A   1      37.403  33.759  33.036  1.00  0.00     0.031 C 
ATOM     47  C   UNL A   1      37.988  30.915  28.927  1.00  0.00     0.029 A 
ATOM     48  N   UNL A   1      39.384  30.539  30.632  1.00  0.00    -0.354 N 
ATOM     49  C   UNL A   1      39.123  32.892  34.264  1.00  0.00     0.074 A 
ATOM     50  C   UNL A   1      38.101  33.907  34.151  1.00  0.00     0.031 C 
ATOM     51  C   UNL A   1      38.804  29.914  28.563  1.00  0.00     0.029 A 
ATOM     52  C   UNL A   1      39.742  29.651  29.648  1.00  0.00     0.049 A 
ATOM     53  H   UNL A   1      39.851  30.605  31.496  1.00  0.00     0.167 HD
ATOM     54  C   UNL A   1      39.912  32.716  35.351  1.00  0.00     0.037 A 
ATOM     55  C   UNL A   1      40.721  28.729  29.622  1.00  0.00     0.037 A 
ATOM     56  C   UNL A   1      40.924  31.695  35.451  1.00  0.00     0.049 A 
ATOM     57  C   UNL A   1      41.587  28.563  30.840  1.00  0.00     0.074 A 
ATOM     58  C   UNL A   1      41.737  31.390  36.527  1.00  0.00     0.029 A 
ATOM     59  N   UNL A   1      41.270  30.822  34.429  1.00  0.00    -0.354 N 
ATOM     60  N   UNL A   1      41.540  29.200  31.986  1.00  0.00    -0.248 NA
ATOM     61  C   UNL A   1      42.637  27.541  30.765  1.00  0.00     0.031 C 
ATOM     62  C   UNL A   1      42.630  30.389  36.130  1.00  0.00     0.029 A 
ATOM     63  C   UNL A   1      42.316  30.007  34.836  1.00  0.00     0.049 A 
ATOM     64  H   UNL A   1      40.837  30.787  33.545  1.00  0.00     0.167 HD
ATOM     65  C   UNL A   1      42.538  28.642  32.774  1.00  0.00     0.074 A 
ATOM     66  C   UNL A   1      43.147  27.590  31.986  1.00  0.00     0.031 C 
ATOM     67  C   UNL A   1      42.919  28.973  34.033  1.00  0.00     0.037 A 
BRANCH  54  68
ATOM     68  C   UNL A   1      39.727  33.652  36.513  1.00  0.00     0.064 A 
ATOM     69  C   UNL A   1      40.343  34.913  36.558  1.00  0.00     0.173 A 
ATOM     70  C   UNL A   1      38.882  33.303  37.578  1.00  0.00     0.173 A 
ATOM     71  F   UNL A   1      41.169  35.297  35.574  1.00  0.00    -0.203 F 
ATOM     72  C   UNL A   1      40.145  35.773  37.637  1.00  0.00     0.198 A 
ATOM     73  C   UNL A   1      38.654  34.180  38.636  1.00  0.00     0.198 A 
ATOM     74  F   UNL A   1      38.260  32.113  37.588  1.00  0.00    -0.203 F 
ATOM     75  F   UNL A   1      40.786  36.948  37.682  1.00  0.00    -0.200 F 
ATOM     76  C   UNL A   1      39.293  35.410  38.669  1.00  0.00     0.200 A 
ATOM     77  F   UNL A   1      37.817  33.834  39.623  1.00  0.00    -0.200 F 
ATOM     78  F   UNL A   1      39.092  36.243  39.700  1.00  0.00    -0.200 F 
ENDBRANCH  54  68
BRANCH  55  79
ATOM     79  C   UNL A   1      40.928  27.894  28.409  1.00  0.00     0.064 A 
ATOM     80  C   UNL A   1      41.748  28.327  27.357  1.00  0.00     0.173 A 
ATOM     81  C   UNL A   1      40.297  26.648  28.270  1.00  0.00     0.173 A 
ATOM     82  F   UNL A   1      42.363  29.517  27.432  1.00  0.00    -0.203 F 
ATOM     83  C   UNL A   1      41.904  27.562  26.202  1.00  0.00     0.198 A 
ATOM     84  C   UNL A   1      40.486  25.866  27.134  1.00  0.00     0.198 A 
ATOM     85  F   UNL A   1      39.508  26.183  29.249  1.00  0.00    -0.203 F 
ATOM     86  F   UNL A   1      42.642  28.029  25.187  1.00  0.00    -0.200 F 
ATOM     87  C   UNL A   1      41.277  26.329  26.095  1.00  0.00     0.200 A 
ATOM     88  F   UNL A   1      39.895  24.666  27.044  1.00  0.00    -0.200 F 
ATOM     89  F   UNL A   1      41.428  25.593  24.986  1.00  0.00    -0.200 F 
ENDBRANCH  55  79
BRANCH  67  90
ATOM     90  C   UNL A   1      44.033  28.164  34.641  1.00  0.00     0.064 A 
ATOM     91  C   UNL A   1      45.376  28.558  34.538  1.00  0.00     0.173 A 
ATOM     92  C   UNL A   1      43.752  26.976  35.333  1.00  0.00     0.173 A 
ATOM     93  F   UNL A   1      45.704  29.680  33.879  1.00  0.00    -0.203 F 
ATOM     94  C   UNL A   1      46.398  27.766  35.056  1.00  0.00     0.198 A 
ATOM     95  C   UNL A   1      44.772  26.211  35.892  1.00  0.00     0.198 A 
ATOM     96  F   UNL A   1      42.485  26.557  35.474  1.00  0.00    -0.203 F 
ATOM     97  F   UNL A   1      47.677  28.121  34.872  1.00  0.00    -0.200 F 
ATOM     98  C   UNL A   1      46.094  26.597  35.737  1.00  0.00     0.200 A 
ATOM     99  F   UNL A   1      44.475  25.094  36.569  1.00  0.00    -0.200 F 
ATOM    100  F   UNL A   1      47.078  25.836  36.235  1.00  0.00    -0.200 F 
ENDBRANCH  67  90
ENDBRANCH  41  42
ENDBRANCH  33  36
ENDBRANCH  31  32
ENDBRANCH  30  31
ENDBRANCH   1  30
TORSDOF 15
ENDMDL
