MODEL 1
REMARK VINA RESULT:     -13.9      0.000      0.000
REMARK SMILES Cc1ccc(NC(=O)N2CCCC[C@@H]2C(=O)NCCCNC(=O)c2ccc(-c3c4nc(c(-c5c(F)c(F)c(F)c(F)c5F)c5ccc([nH]5)c(-c5c(F)c(F)c(F)c(F)c5F)c5nc(c(-c6c(F)c(F)c(F)c(F)c6F)c6ccc3[nH]6)C=C5)C=C4)cc2)cc1
REMARK SMILES IDX 19 1 18 2 17 3 15 4 16 5 14 7 9 8 10 9 11 10 13 11 12 12
REMARK SMILES IDX 7 13 6 14 8 16 5 17 1 18 2 19 3 20 88 21 4 22 87 23 20 24
REMARK SMILES IDX 21 25 22 26 23 28 24 29 25 30 86 31 26 32 85 33 27 34 28 35
REMARK SMILES IDX 29 36 79 37 30 38 84 39 78 40 80 41 31 42 83 43 77 44 76 45
REMARK SMILES IDX 32 47 64 48 44 49 63 50 45 51 48 52 62 53 81 54 46 55 47 56
REMARK SMILES IDX 61 58 82 59 49 60 33 61 34 62 42 63 35 64 36 65 40 66 43 67
REMARK SMILES IDX 37 68 38 69 41 70 39 71 65 72 66 73 74 74 67 75 68 76 72 77
REMARK SMILES IDX 75 78 69 79 70 80 73 81 71 82 50 83 51 84 59 85 52 86 53 87
REMARK SMILES IDX 57 88 60 89 54 90 55 91 58 92 56 93
REMARK H PARENT 17 6 6 15 21 27 80 46 48 57
REMARK Flexibility Score: inf
ROOT
ATOM      1  C   UNL A   1      32.209  30.626  26.464  1.00  0.00     0.042 C 
ENDROOT
BRANCH   1   2
ATOM      2  C   UNL A   1      32.008  29.542  25.409  1.00  0.00     0.117 C 
BRANCH   2   3
ATOM      3  N   UNL A   1      33.040  29.595  24.383  1.00  0.00    -0.354 N 
ATOM      4  C   UNL A   1      33.831  28.611  23.860  1.00  0.00     0.242 C 
ATOM      5  O   UNL A   1      34.800  28.988  23.190  1.00  0.00    -0.273 OA
ATOM      6  H   UNL A   1      33.193  30.490  24.002  1.00  0.00     0.163 HD
BRANCH   4   7
ATOM      7  C   UNL A   1      33.662  27.112  24.229  1.00  0.00     0.176 C 
ATOM      8  N   UNL A   1      32.544  26.430  23.525  1.00  0.00    -0.313 N 
ATOM      9  C   UNL A   1      31.889  25.292  24.164  1.00  0.00     0.122 C 
ATOM     10  C   UNL A   1      31.738  25.409  25.669  1.00  0.00     0.022 C 
ATOM     11  C   UNL A   1      33.582  27.048  25.769  1.00  0.00     0.035 C 
ATOM     12  C   UNL A   1      33.082  25.720  26.302  1.00  0.00     0.004 C 
BRANCH   8  13
ATOM     13  C   UNL A   1      32.256  26.590  22.176  1.00  0.00     0.322 C 
ATOM     14  N   UNL A   1      31.030  27.030  21.787  1.00  0.00    -0.308 N 
ATOM     15  H   UNL A   1      30.630  26.545  21.029  1.00  0.00     0.171 HD
ATOM     16  O   UNL A   1      33.054  26.233  21.306  1.00  0.00    -0.248 OA
BRANCH  14  17
ATOM     17  C   UNL A   1      30.250  28.074  22.310  1.00  0.00     0.042 A 
ATOM     18  C   UNL A   1      27.654  31.324  23.387  1.00  0.00     0.044 C 
ATOM     19  C   UNL A   1      28.621  30.211  23.113  1.00  0.00    -0.051 A 
ATOM     20  C   UNL A   1      28.312  28.904  23.501  1.00  0.00     0.005 A 
ATOM     21  C   UNL A   1      29.793  30.446  22.386  1.00  0.00     0.005 A 
ATOM     22  C   UNL A   1      29.140  27.845  23.126  1.00  0.00     0.026 A 
ATOM     23  C   UNL A   1      30.615  29.384  22.002  1.00  0.00     0.026 A 
ENDBRANCH  14  17
ENDBRANCH   8  13
ENDBRANCH   4   7
ENDBRANCH   2   3
ENDBRANCH   1   2
BRANCH   1  24
ATOM     24  C   UNL A   1      33.268  30.271  27.491  1.00  0.00     0.118 C 
BRANCH  24  25
ATOM     25  N   UNL A   1      33.906  31.418  28.120  1.00  0.00    -0.352 N 
ATOM     26  C   UNL A   1      35.127  31.494  28.778  1.00  0.00     0.251 C 
ATOM     27  H   UNL A   1      33.400  32.261  28.071  1.00  0.00     0.163 HD
ATOM     28  O   UNL A   1      35.480  32.526  29.304  1.00  0.00    -0.269 OA
BRANCH  26  29
ATOM     29  C   UNL A   1      36.054  30.335  28.697  1.00  0.00     0.039 A 
ATOM     30  C   UNL A   1      36.366  29.668  29.888  1.00  0.00     0.014 A 
ATOM     31  C   UNL A   1      36.779  30.077  27.541  1.00  0.00     0.014 A 
ATOM     32  C   UNL A   1      37.557  28.953  29.976  1.00  0.00     0.010 A 
ATOM     33  C   UNL A   1      38.021  29.494  27.661  1.00  0.00     0.010 A 
ATOM     34  C   UNL A   1      38.434  28.983  28.895  1.00  0.00    -0.014 A 
BRANCH  34  35
ATOM     35  C   UNL A   1      39.827  28.568  28.966  1.00  0.00     0.031 A 
ATOM     36  C   UNL A   1      40.206  27.199  28.560  1.00  0.00     0.074 A 
ATOM     37  C   UNL A   1      40.779  29.479  29.271  1.00  0.00     0.049 A 
ATOM     38  N   UNL A   1      41.309  26.624  28.894  1.00  0.00    -0.248 NA
ATOM     39  C   UNL A   1      39.338  26.345  27.759  1.00  0.00     0.031 C 
ATOM     40  C   UNL A   1      42.220  29.348  29.074  1.00  0.00     0.029 A 
ATOM     41  N   UNL A   1      40.637  30.667  30.010  1.00  0.00    -0.354 N 
ATOM     42  C   UNL A   1      41.427  25.470  28.156  1.00  0.00     0.074 A 
ATOM     43  C   UNL A   1      40.149  25.313  27.505  1.00  0.00     0.031 C 
ATOM     44  C   UNL A   1      42.850  30.196  29.900  1.00  0.00     0.029 A 
ATOM     45  C   UNL A   1      41.836  30.789  30.752  1.00  0.00     0.049 A 
ATOM     46  H   UNL A   1      39.868  31.282  30.012  1.00  0.00     0.167 HD
ATOM     47  C   UNL A   1      42.642  24.852  28.090  1.00  0.00     0.037 A 
ATOM     48  C   UNL A   1      41.844  30.744  32.115  1.00  0.00     0.037 A 
ATOM     49  C   UNL A   1      43.617  25.531  28.942  1.00  0.00     0.049 A 
ATOM     50  C   UNL A   1      42.703  29.643  32.689  1.00  0.00     0.074 A 
ATOM     51  C   UNL A   1      44.608  26.462  28.679  1.00  0.00     0.029 A 
ATOM     52  N   UNL A   1      43.440  25.522  30.321  1.00  0.00    -0.354 N 
ATOM     53  N   UNL A   1      43.066  28.583  32.022  1.00  0.00    -0.248 NA
ATOM     54  C   UNL A   1      43.210  29.642  34.057  1.00  0.00     0.031 C 
ATOM     55  C   UNL A   1      45.016  27.030  29.911  1.00  0.00     0.029 A 
ATOM     56  C   UNL A   1      44.283  26.434  30.921  1.00  0.00     0.049 A 
ATOM     57  H   UNL A   1      42.802  24.946  30.801  1.00  0.00     0.167 HD
ATOM     58  C   UNL A   1      43.827  27.771  32.826  1.00  0.00     0.074 A 
ATOM     59  C   UNL A   1      43.902  28.488  34.084  1.00  0.00     0.031 C 
ATOM     60  C   UNL A   1      44.318  26.578  32.370  1.00  0.00     0.037 A 
BRANCH  47  61
ATOM     61  C   UNL A   1      43.023  23.816  27.053  1.00  0.00     0.064 A 
ATOM     62  C   UNL A   1      42.608  22.472  27.189  1.00  0.00     0.173 A 
ATOM     63  C   UNL A   1      43.836  24.063  25.933  1.00  0.00     0.173 A 
ATOM     64  F   UNL A   1      41.739  22.097  28.136  1.00  0.00    -0.203 F 
ATOM     65  C   UNL A   1      43.072  21.451  26.356  1.00  0.00     0.198 A 
ATOM     66  C   UNL A   1      44.346  23.036  25.130  1.00  0.00     0.198 A 
ATOM     67  F   UNL A   1      44.112  25.310  25.533  1.00  0.00    -0.203 F 
ATOM     68  F   UNL A   1      42.647  20.193  26.544  1.00  0.00    -0.200 F 
ATOM     69  C   UNL A   1      43.975  21.727  25.350  1.00  0.00     0.200 A 
ATOM     70  F   UNL A   1      45.199  23.330  24.137  1.00  0.00    -0.200 F 
ATOM     71  F   UNL A   1      44.456  20.744  24.579  1.00  0.00    -0.200 F 
ENDBRANCH  47  61
BRANCH  48  72
ATOM     72  C   UNL A   1      40.594  31.274  32.719  1.00  0.00     0.064 A 
ATOM     73  C   UNL A   1      40.390  32.667  32.690  1.00  0.00     0.173 A 
ATOM     74  C   UNL A   1      39.473  30.458  32.911  1.00  0.00     0.173 A 
ATOM     75  F   UNL A   1      41.434  33.491  32.508  1.00  0.00    -0.203 F 
ATOM     76  C   UNL A   1      39.109  33.212  32.715  1.00  0.00     0.198 A 
ATOM     77  C   UNL A   1      38.191  31.010  32.951  1.00  0.00     0.198 A 
ATOM     78  F   UNL A   1      39.600  29.124  32.926  1.00  0.00    -0.203 F 
ATOM     79  F   UNL A   1      38.941  34.533  32.560  1.00  0.00    -0.200 F 
ATOM     80  C   UNL A   1      38.007  32.380  32.813  1.00  0.00     0.200 A 
ATOM     81  F   UNL A   1      37.120  30.205  33.020  1.00  0.00    -0.200 F 
ATOM     82  F   UNL A   1      36.770  32.890  32.730  1.00  0.00    -0.200 F 
ENDBRANCH  48  72
BRANCH  60  83
ATOM     83  C   UNL A   1      44.955  25.463  33.180  1.00  0.00     0.064 A 
ATOM     84  C   UNL A   1      46.330  25.182  33.211  1.00  0.00     0.173 A 
ATOM     85  C   UNL A   1      44.173  24.713  34.101  1.00  0.00     0.173 A 
ATOM     86  F   UNL A   1      47.206  25.886  32.486  1.00  0.00    -0.203 F 
ATOM     87  C   UNL A   1      46.870  24.198  34.047  1.00  0.00     0.198 A 
ATOM     88  C   UNL A   1      44.724  23.781  34.979  1.00  0.00     0.198 A 
ATOM     89  F   UNL A   1      42.846  24.880  34.205  1.00  0.00    -0.203 F 
ATOM     90  F   UNL A   1      48.186  23.944  34.004  1.00  0.00    -0.200 F 
ATOM     91  C   UNL A   1      46.072  23.511  34.942  1.00  0.00     0.200 A 
ATOM     92  F   UNL A   1      43.940  23.166  35.876  1.00  0.00    -0.200 F 
ATOM     93  F   UNL A   1      46.606  22.611  35.779  1.00  0.00    -0.200 F 
ENDBRANCH  60  83
ENDBRANCH  34  35
ENDBRANCH  26  29
ENDBRANCH  24  25
ENDBRANCH   1  24
TORSDOF 12
ENDMDL
MODEL 2
REMARK VINA RESULT:     -13.7      1.538      3.159
REMARK SMILES Cc1ccc(NC(=O)N2CCCC[C@@H]2C(=O)NCCCNC(=O)c2ccc(-c3c4nc(c(-c5c(F)c(F)c(F)c(F)c5F)c5ccc([nH]5)c(-c5c(F)c(F)c(F)c(F)c5F)c5nc(c(-c6c(F)c(F)c(F)c(F)c6F)c6ccc3[nH]6)C=C5)C=C4)cc2)cc1
REMARK SMILES IDX 19 1 18 2 17 3 15 4 16 5 14 7 9 8 10 9 11 10 13 11 12 12
REMARK SMILES IDX 7 13 6 14 8 16 5 17 1 18 2 19 3 20 88 21 4 22 87 23 20 24
REMARK SMILES IDX 21 25 22 26 23 28 24 29 25 30 86 31 26 32 85 33 27 34 28 35
REMARK SMILES IDX 29 36 79 37 30 38 84 39 78 40 80 41 31 42 83 43 77 44 76 45
REMARK SMILES IDX 32 47 64 48 44 49 63 50 45 51 48 52 62 53 81 54 46 55 47 56
REMARK SMILES IDX 61 58 82 59 49 60 33 61 34 62 42 63 35 64 36 65 40 66 43 67
REMARK SMILES IDX 37 68 38 69 41 70 39 71 65 72 66 73 74 74 67 75 68 76 72 77
REMARK SMILES IDX 75 78 69 79 70 80 73 81 71 82 50 83 51 84 59 85 52 86 53 87
REMARK SMILES IDX 57 88 60 89 54 90 55 91 58 92 56 93
REMARK H PARENT 17 6 6 15 21 27 80 46 48 57
REMARK Flexibility Score: inf
ROOT
ATOM      1  C   UNL A   1      33.268  29.645  25.995  1.00  0.00     0.042 C 
ENDROOT
BRANCH   1   2
ATOM      2  C   UNL A   1      33.131  28.155  25.704  1.00  0.00     0.117 C 
BRANCH   2   3
ATOM      3  N   UNL A   1      31.842  27.842  25.102  1.00  0.00    -0.354 N 
ATOM      4  C   UNL A   1      31.204  26.646  24.927  1.00  0.00     0.242 C 
ATOM      5  O   UNL A   1      30.241  26.650  24.151  1.00  0.00    -0.273 OA
ATOM      6  H   UNL A   1      31.347  28.624  24.765  1.00  0.00     0.163 HD
BRANCH   4   7
ATOM      7  C   UNL A   1      31.752  25.310  25.498  1.00  0.00     0.176 C 
ATOM      8  N   UNL A   1      32.178  24.331  24.464  1.00  0.00    -0.313 N 
ATOM      9  C   UNL A   1      32.126  22.904  24.768  1.00  0.00     0.122 C 
ATOM     10  C   UNL A   1      30.944  22.480  25.621  1.00  0.00     0.022 C 
ATOM     11  C   UNL A   1      30.681  24.782  26.475  1.00  0.00     0.035 C 
ATOM     12  C   UNL A   1      30.877  23.332  26.875  1.00  0.00     0.004 C 
BRANCH   8  13
ATOM     13  C   UNL A   1      32.908  24.661  23.329  1.00  0.00     0.322 C 
ATOM     14  N   UNL A   1      34.253  24.846  23.412  1.00  0.00    -0.308 N 
ATOM     15  H   UNL A   1      34.600  25.631  22.930  1.00  0.00     0.171 HD
ATOM     16  O   UNL A   1      32.348  24.905  22.258  1.00  0.00    -0.248 OA
BRANCH  14  17
ATOM     17  C   UNL A   1      35.217  24.081  24.087  1.00  0.00     0.042 A 
ATOM     18  C   UNL A   1      38.547  21.979  25.806  1.00  0.00     0.044 C 
ATOM     19  C   UNL A   1      37.313  22.632  25.259  1.00  0.00    -0.051 A 
ATOM     20  C   UNL A   1      36.720  23.694  25.946  1.00  0.00     0.005 A 
ATOM     21  C   UNL A   1      36.796  22.252  24.015  1.00  0.00     0.005 A 
ATOM     22  C   UNL A   1      35.658  24.396  25.375  1.00  0.00     0.026 A 
ATOM     23  C   UNL A   1      35.740  22.963  23.439  1.00  0.00     0.026 A 
ENDBRANCH  14  17
ENDBRANCH   8  13
ENDBRANCH   4   7
ENDBRANCH   2   3
ENDBRANCH   1   2
BRANCH   1  24
ATOM     24  C   UNL A   1      33.062  29.990  27.459  1.00  0.00     0.118 C 
BRANCH  24  25
ATOM     25  N   UNL A   1      33.724  31.213  27.889  1.00  0.00    -0.352 N 
ATOM     26  C   UNL A   1      34.987  31.381  28.441  1.00  0.00     0.251 C 
ATOM     27  H   UNL A   1      33.202  32.039  27.770  1.00  0.00     0.163 HD
ATOM     28  O   UNL A   1      35.359  32.475  28.804  1.00  0.00    -0.269 OA
BRANCH  26  29
ATOM     29  C   UNL A   1      35.926  30.229  28.441  1.00  0.00     0.039 A 
ATOM     30  C   UNL A   1      36.244  29.650  29.676  1.00  0.00     0.014 A 
ATOM     31  C   UNL A   1      36.653  29.897  27.305  1.00  0.00     0.014 A 
ATOM     32  C   UNL A   1      37.442  28.955  29.812  1.00  0.00     0.010 A 
ATOM     33  C   UNL A   1      37.900  29.336  27.464  1.00  0.00     0.010 A 
ATOM     34  C   UNL A   1      38.318  28.917  28.731  1.00  0.00    -0.014 A 
BRANCH  34  35
ATOM     35  C   UNL A   1      39.715  28.521  28.829  1.00  0.00     0.031 A 
ATOM     36  C   UNL A   1      40.120  27.156  28.438  1.00  0.00     0.074 A 
ATOM     37  C   UNL A   1      40.649  29.447  29.146  1.00  0.00     0.049 A 
ATOM     38  N   UNL A   1      41.224  26.597  28.795  1.00  0.00    -0.248 NA
ATOM     39  C   UNL A   1      39.278  26.285  27.626  1.00  0.00     0.031 C 
ATOM     40  C   UNL A   1      42.095  29.334  28.976  1.00  0.00     0.029 A 
ATOM     41  N   UNL A   1      40.477  30.637  29.876  1.00  0.00    -0.354 N 
ATOM     42  C   UNL A   1      41.371  25.441  28.065  1.00  0.00     0.074 A 
ATOM     43  C   UNL A   1      40.107  25.263  27.392  1.00  0.00     0.031 C 
ATOM     44  C   UNL A   1      42.698  30.195  29.809  1.00  0.00     0.029 A 
ATOM     45  C   UNL A   1      41.661  30.779  30.638  1.00  0.00     0.049 A 
ATOM     46  H   UNL A   1      39.700  31.241  29.861  1.00  0.00     0.167 HD
ATOM     47  C   UNL A   1      42.596  24.840  28.024  1.00  0.00     0.037 A 
ATOM     48  C   UNL A   1      41.645  30.741  32.002  1.00  0.00     0.037 A 
ATOM     49  C   UNL A   1      43.545  25.535  28.890  1.00  0.00     0.049 A 
ATOM     50  C   UNL A   1      42.508  29.655  32.598  1.00  0.00     0.074 A 
ATOM     51  C   UNL A   1      44.529  26.479  28.640  1.00  0.00     0.029 A 
ATOM     52  N   UNL A   1      43.343  25.532  30.266  1.00  0.00    -0.354 N 
ATOM     53  N   UNL A   1      42.898  28.597  31.943  1.00  0.00    -0.248 NA
ATOM     54  C   UNL A   1      42.990  29.668  33.974  1.00  0.00     0.031 C 
ATOM     55  C   UNL A   1      44.907  27.059  29.876  1.00  0.00     0.029 A 
ATOM     56  C   UNL A   1      44.164  26.458  30.876  1.00  0.00     0.049 A 
ATOM     57  H   UNL A   1      42.705  24.950  30.737  1.00  0.00     0.167 HD
ATOM     58  C   UNL A   1      43.655  27.799  32.765  1.00  0.00     0.074 A 
ATOM     59  C   UNL A   1      43.697  28.524  34.020  1.00  0.00     0.031 C 
ATOM     60  C   UNL A   1      44.170  26.610  32.324  1.00  0.00     0.037 A 
BRANCH  47  61
ATOM     61  C   UNL A   1      43.010  23.803  27.000  1.00  0.00     0.064 A 
ATOM     62  C   UNL A   1      42.571  22.464  27.111  1.00  0.00     0.173 A 
ATOM     63  C   UNL A   1      43.875  24.045  25.919  1.00  0.00     0.173 A 
ATOM     64  F   UNL A   1      41.656  22.097  28.016  1.00  0.00    -0.203 F 
ATOM     65  C   UNL A   1      43.059  21.441  26.294  1.00  0.00     0.198 A 
ATOM     66  C   UNL A   1      44.407  23.015  25.135  1.00  0.00     0.198 A 
ATOM     67  F   UNL A   1      44.184  25.290  25.539  1.00  0.00    -0.203 F 
ATOM     68  F   UNL A   1      42.610  20.188  26.456  1.00  0.00    -0.200 F 
ATOM     69  C   UNL A   1      44.009  21.709  25.331  1.00  0.00     0.200 A 
ATOM     70  F   UNL A   1      45.307  23.301  24.183  1.00  0.00    -0.200 F 
ATOM     71  F   UNL A   1      44.512  20.724  24.577  1.00  0.00    -0.200 F 
ENDBRANCH  47  61
BRANCH  48  72
ATOM     72  C   UNL A   1      40.377  31.257  32.581  1.00  0.00     0.064 A 
ATOM     73  C   UNL A   1      40.149  32.646  32.528  1.00  0.00     0.173 A 
ATOM     74  C   UNL A   1      39.269  30.424  32.768  1.00  0.00     0.173 A 
ATOM     75  F   UNL A   1      41.181  33.486  32.349  1.00  0.00    -0.203 F 
ATOM     76  C   UNL A   1      38.859  33.168  32.527  1.00  0.00     0.198 A 
ATOM     77  C   UNL A   1      37.976  30.954  32.782  1.00  0.00     0.198 A 
ATOM     78  F   UNL A   1      39.419  29.093  32.804  1.00  0.00    -0.203 F 
ATOM     79  F   UNL A   1      38.669  34.483  32.350  1.00  0.00    -0.200 F 
ATOM     80  C   UNL A   1      37.770  32.318  32.621  1.00  0.00     0.200 A 
ATOM     81  F   UNL A   1      36.919  30.131  32.848  1.00  0.00    -0.200 F 
ATOM     82  F   UNL A   1      36.526  32.804  32.513  1.00  0.00    -0.200 F 
ENDBRANCH  48  72
BRANCH  60  83
ATOM     83  C   UNL A   1      44.807  25.508  33.153  1.00  0.00     0.064 A 
ATOM     84  C   UNL A   1      46.178  25.205  33.160  1.00  0.00     0.173 A 
ATOM     85  C   UNL A   1      44.035  24.799  34.112  1.00  0.00     0.173 A 
ATOM     86  F   UNL A   1      47.048  25.872  32.395  1.00  0.00    -0.203 F 
ATOM     87  C   UNL A   1      46.721  24.236  34.012  1.00  0.00     0.198 A 
ATOM     88  C   UNL A   1      44.591  23.883  35.004  1.00  0.00     0.198 A 
ATOM     89  F   UNL A   1      42.713  24.992  34.241  1.00  0.00    -0.203 F 
ATOM     90  F   UNL A   1      48.031  23.959  33.946  1.00  0.00    -0.200 F 
ATOM     91  C   UNL A   1      45.933  23.589  34.945  1.00  0.00     0.200 A 
ATOM     92  F   UNL A   1      43.817  23.308  35.937  1.00  0.00    -0.200 F 
ATOM     93  F   UNL A   1      46.470  22.705  35.795  1.00  0.00    -0.200 F 
ENDBRANCH  60  83
ENDBRANCH  34  35
ENDBRANCH  26  29
ENDBRANCH  24  25
ENDBRANCH   1  24
TORSDOF 12
ENDMDL
MODEL 3
REMARK VINA RESULT:     -13.6      1.825      3.231
REMARK SMILES Cc1ccc(NC(=O)N2CCCC[C@@H]2C(=O)NCCCNC(=O)c2ccc(-c3c4nc(c(-c5c(F)c(F)c(F)c(F)c5F)c5ccc([nH]5)c(-c5c(F)c(F)c(F)c(F)c5F)c5nc(c(-c6c(F)c(F)c(F)c(F)c6F)c6ccc3[nH]6)C=C5)C=C4)cc2)cc1
REMARK SMILES IDX 19 1 18 2 17 3 15 4 16 5 14 7 9 8 10 9 11 10 13 11 12 12
REMARK SMILES IDX 7 13 6 14 8 16 5 17 1 18 2 19 3 20 88 21 4 22 87 23 20 24
REMARK SMILES IDX 21 25 22 26 23 28 24 29 25 30 86 31 26 32 85 33 27 34 28 35
REMARK SMILES IDX 29 36 79 37 30 38 84 39 78 40 80 41 31 42 83 43 77 44 76 45
REMARK SMILES IDX 32 47 64 48 44 49 63 50 45 51 48 52 62 53 81 54 46 55 47 56
REMARK SMILES IDX 61 58 82 59 49 60 33 61 34 62 42 63 35 64 36 65 40 66 43 67
REMARK SMILES IDX 37 68 38 69 41 70 39 71 65 72 66 73 74 74 67 75 68 76 72 77
REMARK SMILES IDX 75 78 69 79 70 80 73 81 71 82 50 83 51 84 59 85 52 86 53 87
REMARK SMILES IDX 57 88 60 89 54 90 55 91 58 92 56 93
REMARK H PARENT 17 6 6 15 21 27 80 46 48 57
REMARK Flexibility Score: inf
ROOT
ATOM      1  C   UNL A   1      32.732  30.113  26.741  1.00  0.00     0.042 C 
ENDROOT
BRANCH   1   2
ATOM      2  C   UNL A   1      31.772  28.978  27.080  1.00  0.00     0.117 C 
BRANCH   2   3
ATOM      3  N   UNL A   1      32.419  27.678  26.973  1.00  0.00    -0.354 N 
ATOM      4  C   UNL A   1      32.656  26.884  25.887  1.00  0.00     0.242 C 
ATOM      5  O   UNL A   1      32.989  25.716  26.125  1.00  0.00    -0.273 OA
ATOM      6  H   UNL A   1      32.741  27.310  27.828  1.00  0.00     0.163 HD
BRANCH   4   7
ATOM      7  C   UNL A   1      32.345  27.334  24.433  1.00  0.00     0.176 C 
ATOM      8  N   UNL A   1      31.516  26.372  23.659  1.00  0.00    -0.313 N 
ATOM      9  C   UNL A   1      31.646  26.329  22.206  1.00  0.00     0.122 C 
ATOM     10  C   UNL A   1      33.057  26.538  21.689  1.00  0.00     0.022 C 
ATOM     11  C   UNL A   1      33.701  27.677  23.782  1.00  0.00     0.035 C 
ATOM     12  C   UNL A   1      33.640  27.811  22.273  1.00  0.00     0.004 C 
BRANCH   8  13
ATOM     13  C   UNL A   1      30.404  25.713  24.168  1.00  0.00     0.322 C 
ATOM     14  N   UNL A   1      30.273  24.369  24.003  1.00  0.00    -0.308 N 
ATOM     15  H   UNL A   1      29.377  24.064  23.733  1.00  0.00     0.171 HD
ATOM     16  O   UNL A   1      29.467  26.336  24.673  1.00  0.00    -0.248 OA
BRANCH  14  17
ATOM     17  C   UNL A   1      31.230  23.355  24.161  1.00  0.00     0.042 A 
ATOM     18  C   UNL A   1      33.724  19.888  24.637  1.00  0.00     0.044 C 
ATOM     19  C   UNL A   1      32.948  21.164  24.508  1.00  0.00    -0.051 A 
ATOM     20  C   UNL A   1      32.892  21.830  23.280  1.00  0.00     0.005 A 
ATOM     21  C   UNL A   1      32.194  21.653  25.581  1.00  0.00     0.005 A 
ATOM     22  C   UNL A   1      32.060  22.938  23.117  1.00  0.00     0.026 A 
ATOM     23  C   UNL A   1      31.352  22.756  25.414  1.00  0.00     0.026 A 
ENDBRANCH  14  17
ENDBRANCH   8  13
ENDBRANCH   4   7
ENDBRANCH   2   3
ENDBRANCH   1   2
BRANCH   1  24
ATOM     24  C   UNL A   1      34.139  29.881  27.260  1.00  0.00     0.118 C 
BRANCH  24  25
ATOM     25  N   UNL A   1      34.649  30.945  28.113  1.00  0.00    -0.352 N 
ATOM     26  C   UNL A   1      35.809  30.980  28.877  1.00  0.00     0.251 C 
ATOM     27  H   UNL A   1      34.094  31.757  28.153  1.00  0.00     0.163 HD
ATOM     28  O   UNL A   1      36.051  31.932  29.585  1.00  0.00    -0.269 OA
BRANCH  26  29
ATOM     29  C   UNL A   1      36.815  29.900  28.697  1.00  0.00     0.039 A 
ATOM     30  C   UNL A   1      36.948  28.958  29.724  1.00  0.00     0.014 A 
ATOM     31  C   UNL A   1      37.756  29.961  27.677  1.00  0.00     0.014 A 
ATOM     32  C   UNL A   1      38.150  28.271  29.864  1.00  0.00     0.010 A 
ATOM     33  C   UNL A   1      38.993  29.394  27.890  1.00  0.00     0.010 A 
ATOM     34  C   UNL A   1      39.207  28.595  29.018  1.00  0.00    -0.014 A 
BRANCH  34  35
ATOM     35  C   UNL A   1      40.588  28.205  29.256  1.00  0.00     0.031 A 
ATOM     36  C   UNL A   1      41.110  26.955  28.666  1.00  0.00     0.074 A 
ATOM     37  C   UNL A   1      41.419  29.058  29.898  1.00  0.00     0.049 A 
ATOM     38  N   UNL A   1      42.171  26.350  29.074  1.00  0.00    -0.248 NA
ATOM     39  C   UNL A   1      40.444  26.261  27.571  1.00  0.00     0.031 C 
ATOM     40  C   UNL A   1      42.878  29.002  29.941  1.00  0.00     0.029 A 
ATOM     41  N   UNL A   1      41.084  30.069  30.816  1.00  0.00    -0.354 N 
ATOM     42  C   UNL A   1      42.481  25.371  28.159  1.00  0.00     0.074 A 
ATOM     43  C   UNL A   1      41.344  25.320  27.271  1.00  0.00     0.031 C 
ATOM     44  C   UNL A   1      43.307  29.680  31.016  1.00  0.00     0.029 A 
ATOM     45  C   UNL A   1      42.129  30.066  31.770  1.00  0.00     0.049 A 
ATOM     46  H   UNL A   1      40.291  30.653  30.799  1.00  0.00     0.167 HD
ATOM     47  C   UNL A   1      43.723  24.808  28.193  1.00  0.00     0.037 A 
ATOM     48  C   UNL A   1      41.905  29.746  33.077  1.00  0.00     0.037 A 
ATOM     49  C   UNL A   1      44.496  25.322  29.322  1.00  0.00     0.049 A 
ATOM     50  C   UNL A   1      42.715  28.572  33.572  1.00  0.00     0.074 A 
ATOM     51  C   UNL A   1      45.462  26.309  29.428  1.00  0.00     0.029 A 
ATOM     52  N   UNL A   1      44.086  25.031  30.618  1.00  0.00    -0.354 N 
ATOM     53  N   UNL A   1      43.249  27.677  32.787  1.00  0.00    -0.248 NA
ATOM     54  C   UNL A   1      42.980  28.306  34.981  1.00  0.00     0.031 C 
ATOM     55  C   UNL A   1      45.619  26.626  30.800  1.00  0.00     0.029 A 
ATOM     56  C   UNL A   1      44.760  25.822  31.526  1.00  0.00     0.049 A 
ATOM     57  H   UNL A   1      43.410  24.356  30.855  1.00  0.00     0.167 HD
ATOM     58  C   UNL A   1      43.907  26.737  33.541  1.00  0.00     0.074 A 
ATOM     59  C   UNL A   1      43.722  27.187  34.907  1.00  0.00     0.031 C 
ATOM     60  C   UNL A   1      44.537  25.671  32.957  1.00  0.00     0.037 A 
BRANCH  47  61
ATOM     61  C   UNL A   1      44.336  24.011  27.061  1.00  0.00     0.064 A 
ATOM     62  C   UNL A   1      43.935  22.677  26.816  1.00  0.00     0.173 A 
ATOM     63  C   UNL A   1      45.357  24.476  26.213  1.00  0.00     0.173 A 
ATOM     64  F   UNL A   1      42.897  22.127  27.459  1.00  0.00    -0.203 F 
ATOM     65  C   UNL A   1      44.586  21.850  25.897  1.00  0.00     0.198 A 
ATOM     66  C   UNL A   1      46.047  23.635  25.333  1.00  0.00     0.198 A 
ATOM     67  F   UNL A   1      45.679  25.773  26.157  1.00  0.00    -0.203 F 
ATOM     68  F   UNL A   1      44.162  20.591  25.719  1.00  0.00    -0.200 F 
ATOM     69  C   UNL A   1      45.670  22.317  25.184  1.00  0.00     0.200 A 
ATOM     70  F   UNL A   1      47.080  24.116  24.625  1.00  0.00    -0.200 F 
ATOM     71  F   UNL A   1      46.325  21.513  24.337  1.00  0.00    -0.200 F 
ENDBRANCH  47  61
BRANCH  48  72
ATOM     72  C   UNL A   1      40.542  30.115  33.539  1.00  0.00     0.064 A 
ATOM     73  C   UNL A   1      40.293  31.469  33.834  1.00  0.00     0.173 A 
ATOM     74  C   UNL A   1      39.438  29.293  33.284  1.00  0.00     0.173 A 
ATOM     75  F   UNL A   1      41.319  32.298  34.085  1.00  0.00    -0.203 F 
ATOM     76  C   UNL A   1      39.011  32.005  33.747  1.00  0.00     0.198 A 
ATOM     77  C   UNL A   1      38.152  29.832  33.212  1.00  0.00     0.198 A 
ATOM     78  F   UNL A   1      39.612  28.001  32.975  1.00  0.00    -0.203 F 
ATOM     79  F   UNL A   1      38.824  33.323  33.911  1.00  0.00    -0.200 F 
ATOM     80  C   UNL A   1      37.944  31.192  33.403  1.00  0.00     0.200 A 
ATOM     81  F   UNL A   1      37.121  29.052  32.854  1.00  0.00    -0.200 F 
ATOM     82  F   UNL A   1      36.728  31.723  33.212  1.00  0.00    -0.200 F 
ENDBRANCH  48  72
BRANCH  60  83
ATOM     83  C   UNL A   1      45.089  24.431  33.637  1.00  0.00     0.064 A 
ATOM     84  C   UNL A   1      44.345  23.271  33.910  1.00  0.00     0.173 A 
ATOM     85  C   UNL A   1      46.480  24.323  33.907  1.00  0.00     0.173 A 
ATOM     86  F   UNL A   1      43.047  23.181  33.600  1.00  0.00    -0.203 F 
ATOM     87  C   UNL A   1      44.930  22.124  34.457  1.00  0.00     0.198 A 
ATOM     88  C   UNL A   1      47.070  23.156  34.391  1.00  0.00     0.198 A 
ATOM     89  F   UNL A   1      47.326  25.340  33.682  1.00  0.00    -0.203 F 
ATOM     90  F   UNL A   1      44.163  21.060  34.735  1.00  0.00    -0.200 F 
ATOM     91  C   UNL A   1      46.292  22.059  34.682  1.00  0.00     0.200 A 
ATOM     92  F   UNL A   1      48.400  23.098  34.549  1.00  0.00    -0.200 F 
ATOM     93  F   UNL A   1      46.853  20.938  35.153  1.00  0.00    -0.200 F 
ENDBRANCH  60  83
ENDBRANCH  34  35
ENDBRANCH  26  29
ENDBRANCH  24  25
ENDBRANCH   1  24
TORSDOF 12
ENDMDL
