MODEL 1
REMARK VINA RESULT:     -13.1      0.000      0.000
REMARK SMILES CCCCc1cc(S(F)(F)(F)(F)F)cc2c1O[C@@H](C(F)(F)F)C(C(=O)NCCCNC(=O)c1ccc(-c3c4nc(c(-c5c(F)c(F)c(F)c(F)c5F)c5ccc([nH]5)c(-c5c(F)c(F)c(F)c(F)c5F)c5nc(c(-c6c(F)c(F)c(F)c(F)c6F)c6ccc3[nH]6)C=C5)C=C4)cc1)=C2
REMARK SMILES IDX 27 1 26 2 24 3 25 4 23 6 5 7 6 8 16 9 7 10 15 11 17 12 14 13
REMARK SMILES IDX 96 14 18 15 4 16 3 17 2 18 1 19 8 20 9 21 10 22 11 23 12 24
REMARK SMILES IDX 13 25 19 26 20 27 21 28 22 29 28 30 29 31 30 32 31 33 32 35
REMARK SMILES IDX 33 36 34 37 95 38 35 39 94 40 36 41 37 42 38 43 88 44 39 45
REMARK SMILES IDX 93 46 87 47 89 48 40 49 92 50 86 51 85 52 41 54 73 55 53 56
REMARK SMILES IDX 72 57 54 58 57 59 71 60 90 61 55 62 56 63 70 65 91 66 58 67
REMARK SMILES IDX 42 68 43 69 51 70 44 71 45 72 49 73 52 74 46 75 47 76 50 77
REMARK SMILES IDX 48 78 74 79 75 80 83 81 76 82 77 83 81 84 84 85 78 86 79 87
REMARK SMILES IDX 82 88 80 89 59 90 60 91 68 92 61 93 62 94 66 95 69 96 63 97
REMARK SMILES IDX 64 98 67 99 65 100
REMARK H PARENT 26 5 30 34 89 53 57 64
REMARK Flexibility Score: inf
ROOT
ATOM      1  C   UNL A   1      34.480  23.938  25.715  1.00  0.00     0.118 C 
ENDROOT
BRANCH   1   2
ATOM      2  N   UNL A   1      33.557  23.159  26.553  1.00  0.00    -0.352 N 
ATOM      3  C   UNL A   1      32.181  23.631  26.766  1.00  0.00     0.251 C 
ATOM      4  O   UNL A   1      31.384  22.958  27.491  1.00  0.00    -0.270 OA
ATOM      5  H   UNL A   1      33.860  22.321  26.971  1.00  0.00     0.163 HD
BRANCH   3   6
ATOM      6  C   UNL A   1      31.714  24.926  26.122  1.00  0.00     0.067 C 
ATOM      7  C   UNL A   1      30.789  28.399  23.992  1.00  0.00    -0.004 A 
ATOM      8  C   UNL A   1      31.038  29.639  24.553  1.00  0.00     0.032 A 
ATOM      9  C   UNL A   1      31.151  27.273  24.692  1.00  0.00     0.131 A 
ATOM     10  C   UNL A   1      31.641  29.750  25.778  1.00  0.00     0.108 A 
ATOM     11  C   UNL A   1      31.744  27.347  25.940  1.00  0.00     0.019 A 
ATOM     12  O   UNL A   1      31.001  26.055  24.076  1.00  0.00    -0.475 OA
ATOM     13  C   UNL A   1      31.986  28.608  26.472  1.00  0.00     0.036 A 
ATOM     14  C   UNL A   1      32.126  26.101  26.582  1.00  0.00     0.025 C 
ATOM     15  C   UNL A   1      30.762  24.903  24.933  1.00  0.00     0.314 C 
BRANCH   7  16
ATOM     16  C   UNL A   1      30.125  28.283  22.630  1.00  0.00     0.039 C 
BRANCH  16  17
ATOM     17  C   UNL A   1      29.615  29.648  22.197  1.00  0.00     0.005 C 
BRANCH  17  18
ATOM     18  C   UNL A   1      28.100  29.680  22.302  1.00  0.00    -0.003 C 
ATOM     19  C   UNL A   1      27.683  30.743  23.306  1.00  0.00     0.004 C 
ENDBRANCH  17  18
ENDBRANCH  16  17
ENDBRANCH   7  16
BRANCH  10  20
ATOM     20  S   UNL A   1      31.980  31.382  26.483  1.00  0.00     0.310 S 
ATOM     21  F   UNL A   1      30.868  31.200  27.598  1.00  0.00    -0.094 F 
ATOM     22  F   UNL A   1      30.856  31.984  25.558  1.00  0.00    -0.094 F 
ATOM     23  F   UNL A   1      32.271  32.783  27.089  1.00  0.00    -0.094 F 
ATOM     24  F   UNL A   1      33.003  30.739  27.501  1.00  0.00    -0.094 F 
ATOM     25  F   UNL A   1      31.617  29.936  25.957  1.00  0.00    -0.094 F 
ENDBRANCH  10  20
BRANCH  15  26
ATOM     26  C   UNL A   1      30.996  23.633  24.133  1.00  0.00     0.429 C 
ATOM     27  F   UNL A   1      32.255  23.605  23.704  1.00  0.00    -0.167 F 
ATOM     28  F   UNL A   1      30.767  22.574  24.905  1.00  0.00    -0.167 F 
ATOM     29  F   UNL A   1      30.172  23.607  23.089  1.00  0.00    -0.167 F 
ENDBRANCH  15  26
ENDBRANCH   3   6
ENDBRANCH   1   2
BRANCH   1  30
ATOM     30  C   UNL A   1      35.859  23.947  26.354  1.00  0.00     0.042 C 
BRANCH  30  31
ATOM     31  C   UNL A   1      36.921  23.981  25.267  1.00  0.00     0.118 C 
BRANCH  31  32
ATOM     32  N   UNL A   1      37.769  22.785  25.372  1.00  0.00    -0.352 N 
ATOM     33  C   UNL A   1      39.027  22.840  26.129  1.00  0.00     0.251 C 
ATOM     34  H   UNL A   1      37.493  21.946  24.936  1.00  0.00     0.163 HD
ATOM     35  O   UNL A   1      39.761  21.805  26.219  1.00  0.00    -0.269 OA
BRANCH  33  36
ATOM     36  C   UNL A   1      39.454  24.134  26.802  1.00  0.00     0.039 A 
ATOM     37  C   UNL A   1      39.147  24.340  28.136  1.00  0.00     0.014 A 
ATOM     38  C   UNL A   1      40.116  25.045  26.098  1.00  0.00     0.014 A 
ATOM     39  C   UNL A   1      39.330  25.675  28.567  1.00  0.00     0.010 A 
ATOM     40  C   UNL A   1      40.379  26.284  26.631  1.00  0.00     0.010 A 
ATOM     41  C   UNL A   1      40.051  26.577  27.926  1.00  0.00    -0.014 A 
BRANCH  41  42
ATOM     42  C   UNL A   1      40.490  27.871  28.591  1.00  0.00     0.031 A 
ATOM     43  C   UNL A   1      39.532  28.868  28.782  1.00  0.00     0.074 A 
ATOM     44  C   UNL A   1      41.817  27.990  28.969  1.00  0.00     0.049 A 
ATOM     45  N   UNL A   1      39.699  30.054  29.370  1.00  0.00    -0.248 NA
ATOM     46  C   UNL A   1      38.131  28.759  28.350  1.00  0.00     0.031 C 
ATOM     47  C   UNL A   1      42.788  26.985  28.787  1.00  0.00     0.029 A 
ATOM     48  N   UNL A   1      42.432  29.064  29.572  1.00  0.00    -0.354 N 
ATOM     49  C   UNL A   1      38.546  30.728  29.383  1.00  0.00     0.074 A 
ATOM     50  C   UNL A   1      37.523  29.906  28.723  1.00  0.00     0.031 C 
ATOM     51  C   UNL A   1      43.972  27.452  29.263  1.00  0.00     0.029 A 
ATOM     52  C   UNL A   1      43.762  28.755  29.751  1.00  0.00     0.049 A 
ATOM     53  H   UNL A   1      41.995  29.908  29.831  1.00  0.00     0.167 HD
ATOM     54  C   UNL A   1      38.309  31.993  29.923  1.00  0.00     0.037 A 
ATOM     55  C   UNL A   1      44.751  29.552  30.304  1.00  0.00     0.037 A 
ATOM     56  C   UNL A   1      39.290  32.773  30.515  1.00  0.00     0.049 A 
ATOM     57  C   UNL A   1      44.526  30.842  30.791  1.00  0.00     0.074 A 
ATOM     58  C   UNL A   1      39.065  34.047  31.070  1.00  0.00     0.029 A 
ATOM     59  N   UNL A   1      40.625  32.473  30.672  1.00  0.00    -0.354 N 
ATOM     60  N   UNL A   1      43.366  31.499  30.840  1.00  0.00    -0.248 NA
ATOM     61  C   UNL A   1      45.573  31.708  31.350  1.00  0.00     0.031 C 
ATOM     62  C   UNL A   1      40.251  34.514  31.547  1.00  0.00     0.029 A 
ATOM     63  C   UNL A   1      41.235  33.539  31.296  1.00  0.00     0.049 A 
ATOM     64  H   UNL A   1      41.067  31.641  30.386  1.00  0.00     0.167 HD
ATOM     65  C   UNL A   1      43.541  32.702  31.391  1.00  0.00     0.074 A 
ATOM     66  C   UNL A   1      44.965  32.855  31.720  1.00  0.00     0.031 C 
ATOM     67  C   UNL A   1      42.571  33.675  31.636  1.00  0.00     0.037 A 
BRANCH  54  68
ATOM     68  C   UNL A   1      36.895  32.547  29.856  1.00  0.00     0.064 A 
ATOM     69  C   UNL A   1      36.500  33.300  28.762  1.00  0.00     0.173 A 
ATOM     70  C   UNL A   1      36.063  32.307  30.863  1.00  0.00     0.173 A 
ATOM     71  F   UNL A   1      37.197  33.354  27.630  1.00  0.00    -0.203 F 
ATOM     72  C   UNL A   1      35.289  34.003  28.957  1.00  0.00     0.198 A 
ATOM     73  C   UNL A   1      34.838  32.926  30.921  1.00  0.00     0.198 A 
ATOM     74  F   UNL A   1      36.419  31.459  31.824  1.00  0.00    -0.203 F 
ATOM     75  F   UNL A   1      35.019  35.011  28.132  1.00  0.00    -0.200 F 
ATOM     76  C   UNL A   1      34.408  33.730  29.901  1.00  0.00     0.200 A 
ATOM     77  F   UNL A   1      34.059  32.740  31.982  1.00  0.00    -0.200 F 
ATOM     78  F   UNL A   1      33.168  34.211  29.865  1.00  0.00    -0.200 F 
ENDBRANCH  54  68
BRANCH  55  79
ATOM     79  C   UNL A   1      46.161  28.991  30.387  1.00  0.00     0.064 A 
ATOM     80  C   UNL A   1      47.046  29.183  29.338  1.00  0.00     0.173 A 
ATOM     81  C   UNL A   1      46.521  28.322  31.477  1.00  0.00     0.173 A 
ATOM     82  F   UNL A   1      46.824  30.049  28.352  1.00  0.00    -0.203 F 
ATOM     83  C   UNL A   1      48.206  28.377  29.410  1.00  0.00     0.198 A 
ATOM     84  C   UNL A   1      47.729  27.670  31.530  1.00  0.00     0.198 A 
ATOM     85  F   UNL A   1      45.703  28.283  32.525  1.00  0.00    -0.203 F 
ATOM     86  F   UNL A   1      48.922  28.222  28.300  1.00  0.00    -0.200 F 
ATOM     87  C   UNL A   1      48.627  27.767  30.504  1.00  0.00     0.200 A 
ATOM     88  F   UNL A   1      48.028  26.932  32.595  1.00  0.00    -0.200 F 
ATOM     89  F   UNL A   1      49.859  27.276  30.602  1.00  0.00    -0.200 F 
ENDBRANCH  55  79
BRANCH  67  90
ATOM     90  C   UNL A   1      43.008  34.963  32.315  1.00  0.00     0.064 A 
ATOM     91  C   UNL A   1      42.890  35.080  33.690  1.00  0.00     0.173 A 
ATOM     92  C   UNL A   1      43.497  35.954  31.579  1.00  0.00     0.173 A 
ATOM     93  F   UNL A   1      42.650  34.044  34.488  1.00  0.00    -0.203 F 
ATOM     94  C   UNL A   1      43.047  36.402  34.168  1.00  0.00     0.198 A 
ATOM     95  C   UNL A   1      43.756  37.181  32.141  1.00  0.00     0.198 A 
ATOM     96  F   UNL A   1      43.738  35.757  30.286  1.00  0.00    -0.203 F 
ATOM     97  F   UNL A   1      42.604  36.675  35.392  1.00  0.00    -0.200 F 
ATOM     98  C   UNL A   1      43.604  37.385  33.484  1.00  0.00     0.200 A 
ATOM     99  F   UNL A   1      44.160  38.184  31.366  1.00  0.00    -0.200 F 
ATOM    100  F   UNL A   1      43.996  38.512  34.070  1.00  0.00    -0.200 F 
ENDBRANCH  67  90
ENDBRANCH  41  42
ENDBRANCH  33  36
ENDBRANCH  31  32
ENDBRANCH  30  31
ENDBRANCH   1  30
TORSDOF 15
ENDMDL
MODEL 2
REMARK VINA RESULT:     -12.4      2.654      7.836
REMARK SMILES CCCCc1cc(S(F)(F)(F)(F)F)cc2c1O[C@@H](C(F)(F)F)C(C(=O)NCCCNC(=O)c1ccc(-c3c4nc(c(-c5c(F)c(F)c(F)c(F)c5F)c5ccc([nH]5)c(-c5c(F)c(F)c(F)c(F)c5F)c5nc(c(-c6c(F)c(F)c(F)c(F)c6F)c6ccc3[nH]6)C=C5)C=C4)cc1)=C2
REMARK SMILES IDX 27 1 26 2 24 3 25 4 23 6 5 7 6 8 16 9 7 10 15 11 17 12 14 13
REMARK SMILES IDX 96 14 18 15 4 16 3 17 2 18 1 19 8 20 9 21 10 22 11 23 12 24
REMARK SMILES IDX 13 25 19 26 20 27 21 28 22 29 28 30 29 31 30 32 31 33 32 35
REMARK SMILES IDX 33 36 34 37 95 38 35 39 94 40 36 41 37 42 38 43 88 44 39 45
REMARK SMILES IDX 93 46 87 47 89 48 40 49 92 50 86 51 85 52 41 54 73 55 53 56
REMARK SMILES IDX 72 57 54 58 57 59 71 60 90 61 55 62 56 63 70 65 91 66 58 67
REMARK SMILES IDX 42 68 43 69 51 70 44 71 45 72 49 73 52 74 46 75 47 76 50 77
REMARK SMILES IDX 48 78 74 79 75 80 83 81 76 82 77 83 81 84 84 85 78 86 79 87
REMARK SMILES IDX 82 88 80 89 59 90 60 91 68 92 61 93 62 94 66 95 69 96 63 97
REMARK SMILES IDX 64 98 67 99 65 100
REMARK H PARENT 26 5 30 34 89 53 57 64
REMARK Flexibility Score: inf
ROOT
ATOM      1  C   UNL A   1      36.227  22.192  24.836  1.00  0.00     0.118 C 
ENDROOT
BRANCH   1   2
ATOM      2  N   UNL A   1      35.044  21.383  25.163  1.00  0.00    -0.352 N 
ATOM      3  C   UNL A   1      33.713  22.005  25.194  1.00  0.00     0.251 C 
ATOM      4  O   UNL A   1      32.691  21.305  25.476  1.00  0.00    -0.270 OA
ATOM      5  H   UNL A   1      35.143  20.423  25.359  1.00  0.00     0.163 HD
BRANCH   3   6
ATOM      6  C   UNL A   1      33.560  23.487  24.891  1.00  0.00     0.067 C 
ATOM      7  C   UNL A   1      33.588  27.522  23.810  1.00  0.00    -0.004 A 
ATOM      8  C   UNL A   1      33.722  28.496  24.783  1.00  0.00     0.032 A 
ATOM      9  C   UNL A   1      33.635  26.202  24.187  1.00  0.00     0.131 A 
ATOM     10  C   UNL A   1      33.905  28.157  26.098  1.00  0.00     0.108 A 
ATOM     11  C   UNL A   1      33.800  25.823  25.507  1.00  0.00     0.019 A 
ATOM     12  O   UNL A   1      33.614  25.248  23.199  1.00  0.00    -0.475 OA
ATOM     13  C   UNL A   1      33.937  26.827  26.460  1.00  0.00     0.036 A 
ATOM     14  C   UNL A   1      33.876  24.401  25.799  1.00  0.00     0.025 C 
ATOM     15  C   UNL A   1      33.040  23.954  23.538  1.00  0.00     0.314 C 
BRANCH   7  16
ATOM     16  C   UNL A   1      33.391  27.905  22.353  1.00  0.00     0.039 C 
BRANCH  16  17
ATOM     17  C   UNL A   1      32.299  28.958  22.248  1.00  0.00     0.005 C 
BRANCH  17  18
ATOM     18  C   UNL A   1      30.947  28.312  22.502  1.00  0.00    -0.003 C 
ATOM     19  C   UNL A   1      30.150  29.169  23.472  1.00  0.00     0.004 C 
ENDBRANCH  17  18
ENDBRANCH  16  17
ENDBRANCH   7  16
BRANCH  10  20
ATOM     20  S   UNL A   1      34.103  29.447  27.353  1.00  0.00     0.310 S 
ATOM     21  F   UNL A   1      33.816  30.600  26.301  1.00  0.00    -0.094 F 
ATOM     22  F   UNL A   1      35.624  29.560  26.957  1.00  0.00    -0.094 F 
ATOM     23  F   UNL A   1      34.272  30.556  28.429  1.00  0.00    -0.094 F 
ATOM     24  F   UNL A   1      32.549  29.420  27.637  1.00  0.00    -0.094 F 
ATOM     25  F   UNL A   1      33.893  28.402  26.186  1.00  0.00    -0.094 F 
ENDBRANCH  10  20
BRANCH  15  26
ATOM     26  C   UNL A   1      33.438  22.942  22.476  1.00  0.00     0.429 C 
ATOM     27  F   UNL A   1      32.857  21.774  22.737  1.00  0.00    -0.167 F 
ATOM     28  F   UNL A   1      33.048  23.375  21.281  1.00  0.00    -0.167 F 
ATOM     29  F   UNL A   1      34.760  22.790  22.483  1.00  0.00    -0.167 F 
ENDBRANCH  15  26
ENDBRANCH   3   6
ENDBRANCH   1   2
BRANCH   1  30
ATOM     30  C   UNL A   1      37.399  21.275  24.528  1.00  0.00     0.042 C 
BRANCH  30  31
ATOM     31  C   UNL A   1      38.262  21.120  25.770  1.00  0.00     0.118 C 
BRANCH  31  32
ATOM     32  N   UNL A   1      39.122  19.937  25.625  1.00  0.00    -0.352 N 
ATOM     33  C   UNL A   1      40.537  20.006  26.014  1.00  0.00     0.251 C 
ATOM     34  H   UNL A   1      38.749  19.099  25.269  1.00  0.00     0.163 HD
ATOM     35  O   UNL A   1      41.282  18.983  25.888  1.00  0.00    -0.269 OA
BRANCH  33  36
ATOM     36  C   UNL A   1      41.113  21.300  26.564  1.00  0.00     0.039 A 
ATOM     37  C   UNL A   1      41.231  21.465  27.933  1.00  0.00     0.014 A 
ATOM     38  C   UNL A   1      41.495  22.252  25.720  1.00  0.00     0.014 A 
ATOM     39  C   UNL A   1      41.499  22.796  28.330  1.00  0.00     0.010 A 
ATOM     40  C   UNL A   1      41.874  23.488  26.185  1.00  0.00     0.010 A 
ATOM     41  C   UNL A   1      41.957  23.740  27.527  1.00  0.00    -0.014 A 
BRANCH  41  42
ATOM     42  C   UNL A   1      42.542  25.035  28.064  1.00  0.00     0.031 A 
ATOM     43  C   UNL A   1      43.931  25.170  28.079  1.00  0.00     0.074 A 
ATOM     44  C   UNL A   1      41.665  26.009  28.511  1.00  0.00     0.049 A 
ATOM     45  N   UNL A   1      44.642  26.228  28.474  1.00  0.00    -0.248 NA
ATOM     46  C   UNL A   1      44.866  24.124  27.638  1.00  0.00     0.031 C 
ATOM     47  C   UNL A   1      40.262  25.884  28.491  1.00  0.00     0.029 A 
ATOM     48  N   UNL A   1      41.970  27.243  29.040  1.00  0.00    -0.354 N 
ATOM     49  C   UNL A   1      45.947  25.989  28.322  1.00  0.00     0.074 A 
ATOM     50  C   UNL A   1      46.109  24.631  27.787  1.00  0.00     0.031 C 
ATOM     51  C   UNL A   1      39.730  27.020  29.013  1.00  0.00     0.029 A 
ATOM     52  C   UNL A   1      40.791  27.876  29.366  1.00  0.00     0.049 A 
ATOM     53  H   UNL A   1      42.876  27.610  29.165  1.00  0.00     0.167 HD
ATOM     54  C   UNL A   1      47.006  26.853  28.606  1.00  0.00     0.037 A 
ATOM     55  C   UNL A   1      40.630  29.127  29.941  1.00  0.00     0.037 A 
ATOM     56  C   UNL A   1      46.842  28.121  29.141  1.00  0.00     0.049 A 
ATOM     57  C   UNL A   1      41.692  29.967  30.279  1.00  0.00     0.074 A 
ATOM     58  C   UNL A   1      47.899  29.006  29.426  1.00  0.00     0.029 A 
ATOM     59  N   UNL A   1      45.663  28.744  29.488  1.00  0.00    -0.354 N 
ATOM     60  N   UNL A   1      42.994  29.744  30.090  1.00  0.00    -0.248 NA
ATOM     61  C   UNL A   1      41.535  31.280  30.918  1.00  0.00     0.031 C 
ATOM     62  C   UNL A   1      47.366  30.144  29.948  1.00  0.00     0.029 A 
ATOM     63  C   UNL A   1      45.968  29.987  29.997  1.00  0.00     0.049 A 
ATOM     64  H   UNL A   1      44.760  28.365  29.391  1.00  0.00     0.167 HD
ATOM     65  C   UNL A   1      43.706  30.787  30.524  1.00  0.00     0.074 A 
ATOM     66  C   UNL A   1      42.778  31.786  31.069  1.00  0.00     0.031 C 
ATOM     67  C   UNL A   1      45.092  30.945  30.484  1.00  0.00     0.037 A 
BRANCH  54  68
ATOM     68  C   UNL A   1      48.418  26.375  28.313  1.00  0.00     0.064 A 
ATOM     69  C   UNL A   1      49.186  25.827  29.328  1.00  0.00     0.173 A 
ATOM     70  C   UNL A   1      48.898  26.505  27.081  1.00  0.00     0.173 A 
ATOM     71  F   UNL A   1      48.676  25.445  30.496  1.00  0.00    -0.203 F 
ATOM     72  C   UNL A   1      50.558  25.710  29.009  1.00  0.00     0.198 A 
ATOM     73  C   UNL A   1      50.220  26.243  26.813  1.00  0.00     0.198 A 
ATOM     74  F   UNL A   1      48.091  26.893  26.098  1.00  0.00    -0.203 F 
ATOM     75  F   UNL A   1      51.415  25.542  30.013  1.00  0.00    -0.200 F 
ATOM     76  C   UNL A   1      51.050  25.754  27.784  1.00  0.00     0.200 A 
ATOM     77  F   UNL A   1      50.698  26.466  25.593  1.00  0.00    -0.200 F 
ATOM     78  F   UNL A   1      52.286  25.348  27.509  1.00  0.00    -0.200 F 
ENDBRANCH  54  68
BRANCH  55  79
ATOM     79  C   UNL A   1      39.216  29.611  30.217  1.00  0.00     0.064 A 
ATOM     80  C   UNL A   1      38.502  30.266  29.228  1.00  0.00     0.173 A 
ATOM     81  C   UNL A   1      38.688  29.391  31.417  1.00  0.00     0.173 A 
ATOM     82  F   UNL A   1      38.881  30.285  27.952  1.00  0.00    -0.203 F 
ATOM     83  C   UNL A   1      37.334  30.912  29.695  1.00  0.00     0.198 A 
ATOM     84  C   UNL A   1      37.477  29.943  31.759  1.00  0.00     0.198 A 
ATOM     85  F   UNL A   1      39.338  28.631  32.293  1.00  0.00    -0.203 F 
ATOM     86  F   UNL A   1      36.790  31.846  28.919  1.00  0.00    -0.200 F 
ATOM     87  C   UNL A   1      36.745  30.653  30.848  1.00  0.00     0.200 A 
ATOM     88  F   UNL A   1      37.011  29.785  32.995  1.00  0.00    -0.200 F 
ATOM     89  F   UNL A   1      35.506  31.059  31.110  1.00  0.00    -0.200 F 
ENDBRANCH  55  79
BRANCH  67  90
ATOM     90  C   UNL A   1      45.677  32.247  31.006  1.00  0.00     0.064 A 
ATOM     91  C   UNL A   1      45.822  33.322  30.144  1.00  0.00     0.173 A 
ATOM     92  C   UNL A   1      46.038  32.334  32.281  1.00  0.00     0.173 A 
ATOM     93  F   UNL A   1      45.253  33.371  28.944  1.00  0.00    -0.203 F 
ATOM     94  C   UNL A   1      46.633  34.362  30.657  1.00  0.00     0.198 A 
ATOM     95  C   UNL A   1      46.708  33.440  32.746  1.00  0.00     0.198 A 
ATOM     96  F   UNL A   1      45.747  31.341  33.117  1.00  0.00    -0.203 F 
ATOM     97  F   UNL A   1      47.122  35.247  29.794  1.00  0.00    -0.200 F 
ATOM     98  C   UNL A   1      46.939  34.514  31.932  1.00  0.00     0.200 A 
ATOM     99  F   UNL A   1      47.138  33.465  34.004  1.00  0.00    -0.200 F 
ATOM    100  F   UNL A   1      47.444  35.652  32.400  1.00  0.00    -0.200 F 
ENDBRANCH  67  90
ENDBRANCH  41  42
ENDBRANCH  33  36
ENDBRANCH  31  32
ENDBRANCH  30  31
ENDBRANCH   1  30
TORSDOF 15
ENDMDL
MODEL 3
REMARK VINA RESULT:     -12.4      1.540      6.953
REMARK SMILES CCCCc1cc(S(F)(F)(F)(F)F)cc2c1O[C@@H](C(F)(F)F)C(C(=O)NCCCNC(=O)c1ccc(-c3c4nc(c(-c5c(F)c(F)c(F)c(F)c5F)c5ccc([nH]5)c(-c5c(F)c(F)c(F)c(F)c5F)c5nc(c(-c6c(F)c(F)c(F)c(F)c6F)c6ccc3[nH]6)C=C5)C=C4)cc1)=C2
REMARK SMILES IDX 27 1 26 2 24 3 25 4 23 6 5 7 6 8 16 9 7 10 15 11 17 12 14 13
REMARK SMILES IDX 96 14 18 15 4 16 3 17 2 18 1 19 8 20 9 21 10 22 11 23 12 24
REMARK SMILES IDX 13 25 19 26 20 27 21 28 22 29 28 30 29 31 30 32 31 33 32 35
REMARK SMILES IDX 33 36 34 37 95 38 35 39 94 40 36 41 37 42 38 43 88 44 39 45
REMARK SMILES IDX 93 46 87 47 89 48 40 49 92 50 86 51 85 52 41 54 73 55 53 56
REMARK SMILES IDX 72 57 54 58 57 59 71 60 90 61 55 62 56 63 70 65 91 66 58 67
REMARK SMILES IDX 42 68 43 69 51 70 44 71 45 72 49 73 52 74 46 75 47 76 50 77
REMARK SMILES IDX 48 78 74 79 75 80 83 81 76 82 77 83 81 84 84 85 78 86 79 87
REMARK SMILES IDX 82 88 80 89 59 90 60 91 68 92 61 93 62 94 66 95 69 96 63 97
REMARK SMILES IDX 64 98 67 99 65 100
REMARK H PARENT 26 5 30 34 89 53 57 64
REMARK Flexibility Score: inf
ROOT
ATOM      1  C   UNL A   1      35.102  23.481  24.178  1.00  0.00     0.118 C 
ENDROOT
BRANCH   1   2
ATOM      2  N   UNL A   1      34.455  22.584  25.147  1.00  0.00    -0.352 N 
ATOM      3  C   UNL A   1      33.198  22.984  25.795  1.00  0.00     0.251 C 
ATOM      4  O   UNL A   1      32.639  22.208  26.631  1.00  0.00    -0.270 OA
ATOM      5  H   UNL A   1      34.864  21.714  25.361  1.00  0.00     0.163 HD
BRANCH   3   6
ATOM      6  C   UNL A   1      32.568  24.328  25.465  1.00  0.00     0.067 C 
ATOM      7  C   UNL A   1      31.090  27.993  24.113  1.00  0.00    -0.004 A 
ATOM      8  C   UNL A   1      31.467  29.165  24.744  1.00  0.00     0.032 A 
ATOM      9  C   UNL A   1      31.632  26.807  24.544  1.00  0.00     0.131 A 
ATOM     10  C   UNL A   1      32.367  29.150  25.777  1.00  0.00     0.108 A 
ATOM     11  C   UNL A   1      32.530  26.751  25.595  1.00  0.00     0.019 A 
ATOM     12  O   UNL A   1      31.336  25.667  23.836  1.00  0.00    -0.475 OA
ATOM     13  C   UNL A   1      32.891  27.948  26.205  1.00  0.00     0.036 A 
ATOM     14  C   UNL A   1      33.076  25.453  25.951  1.00  0.00     0.025 C 
ATOM     15  C   UNL A   1      31.339  24.410  24.569  1.00  0.00     0.314 C 
BRANCH   7  16
ATOM     16  C   UNL A   1      30.095  28.018  22.964  1.00  0.00     0.039 C 
BRANCH  16  17
ATOM     17  C   UNL A   1      29.985  29.432  22.419  1.00  0.00     0.005 C 
BRANCH  17  18
ATOM     18  C   UNL A   1      28.521  29.835  22.349  1.00  0.00    -0.003 C 
ATOM     19  C   UNL A   1      28.199  30.778  23.498  1.00  0.00     0.004 C 
ENDBRANCH  17  18
ENDBRANCH  16  17
ENDBRANCH   7  16
BRANCH  10  20
ATOM     20  S   UNL A   1      32.865  30.697  26.575  1.00  0.00     0.310 S 
ATOM     21  F   UNL A   1      32.921  30.012  28.005  1.00  0.00    -0.094 F 
ATOM     22  F   UNL A   1      31.347  31.006  26.858  1.00  0.00    -0.094 F 
ATOM     23  F   UNL A   1      33.293  32.024  27.261  1.00  0.00    -0.094 F 
ATOM     24  F   UNL A   1      34.386  30.302  26.408  1.00  0.00    -0.094 F 
ATOM     25  F   UNL A   1      32.451  29.293  25.977  1.00  0.00    -0.094 F 
ENDBRANCH  10  20
BRANCH  15  26
ATOM     26  C   UNL A   1      31.367  23.258  23.579  1.00  0.00     0.429 C 
ATOM     27  F   UNL A   1      32.451  23.358  22.814  1.00  0.00    -0.167 F 
ATOM     28  F   UNL A   1      31.395  22.105  24.241  1.00  0.00    -0.167 F 
ATOM     29  F   UNL A   1      30.280  23.304  22.814  1.00  0.00    -0.167 F 
ENDBRANCH  15  26
ENDBRANCH   3   6
ENDBRANCH   1   2
BRANCH   1  30
ATOM     30  C   UNL A   1      36.600  23.224  24.173  1.00  0.00     0.042 C 
BRANCH  30  31
ATOM     31  C   UNL A   1      37.093  23.071  25.603  1.00  0.00     0.118 C 
BRANCH  31  32
ATOM     32  N   UNL A   1      37.927  21.866  25.708  1.00  0.00    -0.352 N 
ATOM     33  C   UNL A   1      39.284  21.957  26.264  1.00  0.00     0.251 C 
ATOM     34  H   UNL A   1      37.577  20.997  25.405  1.00  0.00     0.163 HD
ATOM     35  O   UNL A   1      40.007  20.915  26.354  1.00  0.00    -0.269 OA
BRANCH  33  36
ATOM     36  C   UNL A   1      39.826  23.298  26.731  1.00  0.00     0.039 A 
ATOM     37  C   UNL A   1      40.438  23.391  27.969  1.00  0.00     0.014 A 
ATOM     38  C   UNL A   1      39.704  24.360  25.941  1.00  0.00     0.014 A 
ATOM     39  C   UNL A   1      40.635  24.720  28.413  1.00  0.00     0.010 A 
ATOM     40  C   UNL A   1      40.043  25.611  26.395  1.00  0.00     0.010 A 
ATOM     41  C   UNL A   1      40.598  25.784  27.632  1.00  0.00    -0.014 A 
BRANCH  41  42
ATOM     42  C   UNL A   1      41.144  27.129  28.084  1.00  0.00     0.031 A 
ATOM     43  C   UNL A   1      42.517  27.351  27.970  1.00  0.00     0.074 A 
ATOM     44  C   UNL A   1      40.248  28.059  28.585  1.00  0.00     0.049 A 
ATOM     45  N   UNL A   1      43.190  28.462  28.274  1.00  0.00    -0.248 NA
ATOM     46  C   UNL A   1      43.475  26.353  27.471  1.00  0.00     0.031 C 
ATOM     47  C   UNL A   1      38.861  27.846  28.696  1.00  0.00     0.029 A 
ATOM     48  N   UNL A   1      40.519  29.324  29.056  1.00  0.00    -0.354 N 
ATOM     49  C   UNL A   1      44.489  28.302  28.010  1.00  0.00     0.074 A 
ATOM     50  C   UNL A   1      44.691  26.941  27.495  1.00  0.00     0.031 C 
ATOM     51  C   UNL A   1      38.304  28.961  29.237  1.00  0.00     0.029 A 
ATOM     52  C   UNL A   1      39.335  29.891  29.472  1.00  0.00     0.049 A 
ATOM     53  H   UNL A   1      41.406  29.750  29.089  1.00  0.00     0.167 HD
ATOM     54  C   UNL A   1      45.511  29.238  28.177  1.00  0.00     0.037 A 
ATOM     55  C   UNL A   1      39.144  31.146  30.030  1.00  0.00     0.037 A 
ATOM     56  C   UNL A   1      45.313  30.508  28.695  1.00  0.00     0.049 A 
ATOM     57  C   UNL A   1      40.175  32.060  30.251  1.00  0.00     0.074 A 
ATOM     58  C   UNL A   1      46.331  31.466  28.862  1.00  0.00     0.029 A 
ATOM     59  N   UNL A   1      44.132  31.065  29.133  1.00  0.00    -0.354 N 
ATOM     60  N   UNL A   1      41.467  31.914  29.951  1.00  0.00    -0.248 NA
ATOM     61  C   UNL A   1      39.990  33.379  30.871  1.00  0.00     0.031 C 
ATOM     62  C   UNL A   1      45.774  32.583  29.403  1.00  0.00     0.029 A 
ATOM     63  C   UNL A   1      44.399  32.340  29.583  1.00  0.00     0.049 A 
ATOM     64  H   UNL A   1      43.250  30.628  29.126  1.00  0.00     0.167 HD
ATOM     65  C   UNL A   1      42.146  33.011  30.293  1.00  0.00     0.074 A 
ATOM     66  C   UNL A   1      41.206  33.966  30.897  1.00  0.00     0.031 C 
ATOM     67  C   UNL A   1      43.510  33.255  30.124  1.00  0.00     0.037 A 
BRANCH  54  68
ATOM     68  C   UNL A   1      46.920  28.841  27.769  1.00  0.00     0.064 A 
ATOM     69  C   UNL A   1      47.297  28.911  26.438  1.00  0.00     0.173 A 
ATOM     70  C   UNL A   1      47.765  28.418  28.703  1.00  0.00     0.173 A 
ATOM     71  F   UNL A   1      46.587  29.556  25.516  1.00  0.00    -0.203 F 
ATOM     72  C   UNL A   1      48.505  28.235  26.148  1.00  0.00     0.198 A 
ATOM     73  C   UNL A   1      48.986  27.893  28.355  1.00  0.00     0.198 A 
ATOM     74  F   UNL A   1      47.426  28.504  29.986  1.00  0.00    -0.203 F 
ATOM     75  F   UNL A   1      48.759  27.939  24.876  1.00  0.00    -0.200 F 
ATOM     76  C   UNL A   1      49.399  27.877  27.051  1.00  0.00     0.200 A 
ATOM     77  F   UNL A   1      49.778  27.395  29.300  1.00  0.00    -0.200 F 
ATOM     78  F   UNL A   1      50.635  27.519  26.713  1.00  0.00    -0.200 F 
ENDBRANCH  54  68
BRANCH  55  79
ATOM     79  C   UNL A   1      37.732  31.548  30.422  1.00  0.00     0.064 A 
ATOM     80  C   UNL A   1      36.855  32.023  29.461  1.00  0.00     0.173 A 
ATOM     81  C   UNL A   1      37.364  31.433  31.693  1.00  0.00     0.173 A 
ATOM     82  F   UNL A   1      37.085  31.919  28.155  1.00  0.00    -0.203 F 
ATOM     83  C   UNL A   1      35.692  32.628  29.993  1.00  0.00     0.198 A 
ATOM     84  C   UNL A   1      36.154  31.926  32.118  1.00  0.00     0.198 A 
ATOM     85  F   UNL A   1      38.175  30.835  32.562  1.00  0.00    -0.203 F 
ATOM     86  F   UNL A   1      34.982  33.417  29.192  1.00  0.00    -0.200 F 
ATOM     87  C   UNL A   1      35.262  32.463  31.232  1.00  0.00     0.200 A 
ATOM     88  F   UNL A   1      35.846  31.881  33.411  1.00  0.00    -0.200 F 
ATOM     89  F   UNL A   1      34.029  32.801  31.596  1.00  0.00    -0.200 F 
ENDBRANCH  55  79
BRANCH  67  90
ATOM     90  C   UNL A   1      44.053  34.606  30.561  1.00  0.00     0.064 A 
ATOM     91  C   UNL A   1      44.555  34.754  31.843  1.00  0.00     0.173 A 
ATOM     92  C   UNL A   1      44.037  35.621  29.706  1.00  0.00     0.173 A 
ATOM     93  F   UNL A   1      44.824  33.725  32.640  1.00  0.00    -0.203 F 
ATOM     94  C   UNL A   1      44.755  36.101  32.228  1.00  0.00     0.198 A 
ATOM     95  C   UNL A   1      44.376  36.888  30.117  1.00  0.00     0.198 A 
ATOM     96  F   UNL A   1      43.689  35.410  28.440  1.00  0.00    -0.203 F 
ATOM     97  F   UNL A   1      44.883  36.361  33.525  1.00  0.00    -0.200 F 
ATOM     98  C   UNL A   1      44.824  37.118  31.388  1.00  0.00     0.200 A 
ATOM     99  F   UNL A   1      44.266  37.905  29.266  1.00  0.00    -0.200 F 
ATOM    100  F   UNL A   1      45.304  38.301  31.759  1.00  0.00    -0.200 F 
ENDBRANCH  67  90
ENDBRANCH  41  42
ENDBRANCH  33  36
ENDBRANCH  31  32
ENDBRANCH  30  31
ENDBRANCH   1  30
TORSDOF 15
ENDMDL
