MODEL 1
REMARK VINA RESULT:     -12.7      0.000      0.000
REMARK SMILES O=C(NCCCNC(=O)c1cc(-c2ccccc2)ccc1F)c1ccc(-c2c3nc(c(-c4c(F)c(F)c(F)c(F)c4F)c4ccc([nH]4)c(-c4c(F)c(F)c(F)c(F)c4F)c4nc(c(-c5c(F)c(F)c(F)c(F)c5F)c5ccc2[nH]5)C=C4)C=C3)cc1
REMARK SMILES IDX 4 1 3 2 1 3 2 4 23 6 24 7 85 8 25 9 84 10 26 11 27 12 28 13
REMARK SMILES IDX 78 14 29 15 83 16 77 17 79 18 30 19 82 20 76 21 75 22 31 24
REMARK SMILES IDX 63 25 43 26 62 27 44 28 47 29 61 30 80 31 45 32 46 33 60 35
REMARK SMILES IDX 81 36 48 37 32 38 33 39 41 40 34 41 35 42 39 43 42 44 36 45
REMARK SMILES IDX 37 46 40 47 38 48 64 49 65 50 73 51 66 52 67 53 71 54 74 55
REMARK SMILES IDX 68 56 69 57 72 58 70 59 49 60 50 61 58 62 51 63 52 64 56 65
REMARK SMILES IDX 59 66 53 67 54 68 57 69 55 70 5 71 6 72 7 73 8 74 9 76 10 77
REMARK SMILES IDX 11 78 21 79 12 80 20 81 22 82 19 83 13 84 14 85 18 86 15 87
REMARK SMILES IDX 17 88 16 89
REMARK H PARENT 3 5 79 23 47 34 7 75
REMARK Flexibility Score: inf
ROOT
ATOM      1  C   UNL A   1      33.519  29.224  24.990  1.00  0.00     0.118 C 
ENDROOT
BRANCH   1   2
ATOM      2  N   UNL A   1      32.817  30.347  25.600  1.00  0.00    -0.352 N 
ATOM      3  O   UNL A   1      32.264  31.851  27.184  1.00  0.00    -0.269 OA
ATOM      4  C   UNL A   1      33.085  31.047  26.752  1.00  0.00     0.251 C 
ATOM      5  H   UNL A   1      32.023  30.654  25.107  1.00  0.00     0.163 HD
BRANCH   4   6
ATOM      6  C   UNL A   1      34.348  30.822  27.488  1.00  0.00     0.039 A 
ATOM      7  C   UNL A   1      34.673  29.555  27.969  1.00  0.00     0.014 A 
ATOM      8  C   UNL A   1      35.234  31.887  27.680  1.00  0.00     0.014 A 
ATOM      9  C   UNL A   1      35.777  29.393  28.793  1.00  0.00     0.010 A 
ATOM     10  C   UNL A   1      36.415  31.692  28.406  1.00  0.00     0.010 A 
ATOM     11  C   UNL A   1      36.680  30.449  28.996  1.00  0.00    -0.014 A 
BRANCH  11  12
ATOM     12  C   UNL A   1      37.929  30.173  29.752  1.00  0.00     0.031 A 
ATOM     13  C   UNL A   1      38.131  30.675  31.153  1.00  0.00     0.074 A 
ATOM     14  C   UNL A   1      38.857  29.385  29.172  1.00  0.00     0.049 A 
ATOM     15  N   UNL A   1      39.134  30.453  31.966  1.00  0.00    -0.248 NA
ATOM     16  C   UNL A   1      37.084  31.540  31.719  1.00  0.00     0.031 C 
ATOM     17  C   UNL A   1      38.767  28.851  27.809  1.00  0.00     0.029 A 
ATOM     18  N   UNL A   1      40.026  28.857  29.655  1.00  0.00    -0.354 N 
ATOM     19  C   UNL A   1      38.847  31.155  33.129  1.00  0.00     0.074 A 
ATOM     20  C   UNL A   1      37.588  31.834  32.912  1.00  0.00     0.031 C 
ATOM     21  C   UNL A   1      39.786  28.008  27.598  1.00  0.00     0.029 A 
ATOM     22  C   UNL A   1      40.645  28.003  28.775  1.00  0.00     0.049 A 
ATOM     23  H   UNL A   1      40.387  29.071  30.546  1.00  0.00     0.167 HD
ATOM     24  C   UNL A   1      39.571  31.215  34.271  1.00  0.00     0.037 A 
ATOM     25  C   UNL A   1      41.785  27.297  28.896  1.00  0.00     0.037 A 
ATOM     26  C   UNL A   1      40.813  30.517  34.486  1.00  0.00     0.049 A 
ATOM     27  C   UNL A   1      42.569  27.404  30.170  1.00  0.00     0.074 A 
ATOM     28  C   UNL A   1      41.605  30.500  35.622  1.00  0.00     0.029 A 
ATOM     29  N   UNL A   1      41.441  29.710  33.549  1.00  0.00    -0.354 N 
ATOM     30  N   UNL A   1      42.279  28.064  31.264  1.00  0.00    -0.248 NA
ATOM     31  C   UNL A   1      43.847  26.682  30.221  1.00  0.00     0.031 C 
ATOM     32  C   UNL A   1      42.733  29.717  35.357  1.00  0.00     0.029 A 
ATOM     33  C   UNL A   1      42.622  29.208  34.074  1.00  0.00     0.049 A 
ATOM     34  H   UNL A   1      41.100  29.522  32.645  1.00  0.00     0.167 HD
ATOM     35  C   UNL A   1      43.334  27.837  32.134  1.00  0.00     0.074 A 
ATOM     36  C   UNL A   1      44.255  26.950  31.453  1.00  0.00     0.031 C 
ATOM     37  C   UNL A   1      43.529  28.332  33.380  1.00  0.00     0.037 A 
BRANCH  24  38
ATOM     38  C   UNL A   1      39.052  32.059  35.399  1.00  0.00     0.064 A 
ATOM     39  C   UNL A   1      39.387  33.420  35.479  1.00  0.00     0.173 A 
ATOM     40  C   UNL A   1      38.331  31.496  36.462  1.00  0.00     0.173 A 
ATOM     41  F   UNL A   1      40.082  34.003  34.492  1.00  0.00    -0.203 F 
ATOM     42  C   UNL A   1      39.040  34.179  36.593  1.00  0.00     0.198 A 
ATOM     43  C   UNL A   1      37.966  32.265  37.565  1.00  0.00     0.198 A 
ATOM     44  F   UNL A   1      37.979  30.203  36.429  1.00  0.00    -0.203 F 
ATOM     45  F   UNL A   1      39.408  35.467  36.667  1.00  0.00    -0.200 F 
ATOM     46  C   UNL A   1      38.333  33.601  37.636  1.00  0.00     0.200 A 
ATOM     47  F   UNL A   1      37.269  31.710  38.566  1.00  0.00    -0.200 F 
ATOM     48  F   UNL A   1      38.006  34.331  38.711  1.00  0.00    -0.200 F 
ENDBRANCH  24  38
BRANCH  25  49
ATOM     49  C   UNL A   1      42.242  26.437  27.775  1.00  0.00     0.064 A 
ATOM     50  C   UNL A   1      43.173  26.903  26.833  1.00  0.00     0.173 A 
ATOM     51  C   UNL A   1      41.743  25.138  27.610  1.00  0.00     0.173 A 
ATOM     52  F   UNL A   1      43.678  28.140  26.943  1.00  0.00    -0.203 F 
ATOM     53  C   UNL A   1      43.567  26.111  25.757  1.00  0.00     0.198 A 
ATOM     54  C   UNL A   1      42.164  24.335  26.552  1.00  0.00     0.198 A 
ATOM     55  F   UNL A   1      40.867  24.640  28.495  1.00  0.00    -0.203 F 
ATOM     56  F   UNL A   1      44.425  26.598  24.850  1.00  0.00    -0.200 F 
ATOM     57  C   UNL A   1      43.067  24.825  25.622  1.00  0.00     0.200 A 
ATOM     58  F   UNL A   1      41.700  23.083  26.439  1.00  0.00    -0.200 F 
ATOM     59  F   UNL A   1      43.461  24.058  24.597  1.00  0.00    -0.200 F 
ENDBRANCH  25  49
BRANCH  37  60
ATOM     60  C   UNL A   1      44.787  27.924  34.088  1.00  0.00     0.064 A 
ATOM     61  C   UNL A   1      44.813  26.775  34.892  1.00  0.00     0.173 A 
ATOM     62  C   UNL A   1      45.953  28.698  34.002  1.00  0.00     0.173 A 
ATOM     63  F   UNL A   1      43.720  26.008  35.011  1.00  0.00    -0.203 F 
ATOM     64  C   UNL A   1      45.961  26.421  35.592  1.00  0.00     0.198 A 
ATOM     65  C   UNL A   1      47.109  28.323  34.681  1.00  0.00     0.198 A 
ATOM     66  F   UNL A   1      45.980  29.795  33.232  1.00  0.00    -0.203 F 
ATOM     67  F   UNL A   1      45.958  25.334  36.376  1.00  0.00    -0.200 F 
ATOM     68  C   UNL A   1      47.110  27.190  35.481  1.00  0.00     0.200 A 
ATOM     69  F   UNL A   1      48.226  29.053  34.550  1.00  0.00    -0.200 F 
ATOM     70  F   UNL A   1      48.221  26.837  36.141  1.00  0.00    -0.200 F 
ENDBRANCH  37  60
ENDBRANCH  11  12
ENDBRANCH   4   6
ENDBRANCH   1   2
BRANCH   1  71
ATOM     71  C   UNL A   1      32.984  28.869  23.613  1.00  0.00     0.042 C 
BRANCH  71  72
ATOM     72  C   UNL A   1      34.039  28.302  22.677  1.00  0.00     0.118 C 
BRANCH  72  73
ATOM     73  N   UNL A   1      33.502  27.257  21.819  1.00  0.00    -0.352 N 
ATOM     74  C   UNL A   1      33.334  25.919  22.063  1.00  0.00     0.254 C 
ATOM     75  H   UNL A   1      33.215  27.557  20.927  1.00  0.00     0.163 HD
ATOM     76  O   UNL A   1      33.029  25.168  21.141  1.00  0.00    -0.269 OA
BRANCH  74  77
ATOM     77  C   UNL A   1      33.560  25.361  23.406  1.00  0.00     0.076 A 
ATOM     78  C   UNL A   1      34.764  24.690  23.660  1.00  0.00     0.025 A 
ATOM     79  C   UNL A   1      32.583  25.425  24.396  1.00  0.00     0.135 A 
ATOM     80  C   UNL A   1      35.017  24.130  24.923  1.00  0.00    -0.017 A 
ATOM     81  C   UNL A   1      32.831  24.924  25.665  1.00  0.00     0.041 A 
ATOM     82  F   UNL A   1      31.385  25.980  24.153  1.00  0.00    -0.206 F 
ATOM     83  C   UNL A   1      34.045  24.288  25.928  1.00  0.00     0.012 A 
BRANCH  80  84
ATOM     84  C   UNL A   1      36.237  23.350  25.176  1.00  0.00    -0.018 A 
ATOM     85  C   UNL A   1      36.411  22.057  24.657  1.00  0.00     0.009 A 
ATOM     86  C   UNL A   1      37.264  23.883  25.977  1.00  0.00     0.009 A 
ATOM     87  C   UNL A   1      37.571  21.325  24.928  1.00  0.00     0.001 A 
ATOM     88  C   UNL A   1      38.422  23.154  26.248  1.00  0.00     0.001 A 
ATOM     89  C   UNL A   1      38.575  21.874  25.723  1.00  0.00     0.000 A 
ENDBRANCH  80  84
ENDBRANCH  74  77
ENDBRANCH  72  73
ENDBRANCH  71  72
ENDBRANCH   1  71
TORSDOF 11
ENDMDL
MODEL 2
REMARK VINA RESULT:     -12.7      0.118      1.270
REMARK SMILES O=C(NCCCNC(=O)c1cc(-c2ccccc2)ccc1F)c1ccc(-c2c3nc(c(-c4c(F)c(F)c(F)c(F)c4F)c4ccc([nH]4)c(-c4c(F)c(F)c(F)c(F)c4F)c4nc(c(-c5c(F)c(F)c(F)c(F)c5F)c5ccc2[nH]5)C=C4)C=C3)cc1
REMARK SMILES IDX 4 1 3 2 1 3 2 4 23 6 24 7 85 8 25 9 84 10 26 11 27 12 28 13
REMARK SMILES IDX 78 14 29 15 83 16 77 17 79 18 30 19 82 20 76 21 75 22 31 24
REMARK SMILES IDX 63 25 43 26 62 27 44 28 47 29 61 30 80 31 45 32 46 33 60 35
REMARK SMILES IDX 81 36 48 37 32 38 33 39 41 40 34 41 35 42 39 43 42 44 36 45
REMARK SMILES IDX 37 46 40 47 38 48 64 49 65 50 73 51 66 52 67 53 71 54 74 55
REMARK SMILES IDX 68 56 69 57 72 58 70 59 49 60 50 61 58 62 51 63 52 64 56 65
REMARK SMILES IDX 59 66 53 67 54 68 57 69 55 70 5 71 6 72 7 73 8 74 9 76 10 77
REMARK SMILES IDX 11 78 21 79 12 80 20 81 22 82 19 83 13 84 14 85 18 86 15 87
REMARK SMILES IDX 17 88 16 89
REMARK H PARENT 3 5 79 23 47 34 7 75
REMARK Flexibility Score: inf
ROOT
ATOM      1  C   UNL A   1      33.392  29.195  24.981  1.00  0.00     0.118 C 
ENDROOT
BRANCH   1   2
ATOM      2  N   UNL A   1      32.687  30.310  25.601  1.00  0.00    -0.352 N 
ATOM      3  O   UNL A   1      32.137  31.806  27.195  1.00  0.00    -0.269 OA
ATOM      4  C   UNL A   1      32.962  31.011  26.752  1.00  0.00     0.251 C 
ATOM      5  H   UNL A   1      31.883  30.610  25.119  1.00  0.00     0.163 HD
BRANCH   4   6
ATOM      6  C   UNL A   1      34.236  30.797  27.471  1.00  0.00     0.039 A 
ATOM      7  C   UNL A   1      34.567  29.539  27.969  1.00  0.00     0.014 A 
ATOM      8  C   UNL A   1      35.125  31.865  27.631  1.00  0.00     0.014 A 
ATOM      9  C   UNL A   1      35.683  29.389  28.779  1.00  0.00     0.010 A 
ATOM     10  C   UNL A   1      36.316  31.681  28.343  1.00  0.00     0.010 A 
ATOM     11  C   UNL A   1      36.590  30.447  28.950  1.00  0.00    -0.014 A 
BRANCH  11  12
ATOM     12  C   UNL A   1      37.851  30.183  29.691  1.00  0.00     0.031 A 
ATOM     13  C   UNL A   1      38.065  30.692  31.088  1.00  0.00     0.074 A 
ATOM     14  C   UNL A   1      38.777  29.401  29.102  1.00  0.00     0.049 A 
ATOM     15  N   UNL A   1      39.080  30.480  31.890  1.00  0.00    -0.248 NA
ATOM     16  C   UNL A   1      37.020  31.551  31.665  1.00  0.00     0.031 C 
ATOM     17  C   UNL A   1      38.674  28.862  27.742  1.00  0.00     0.029 A 
ATOM     18  N   UNL A   1      39.956  28.883  29.573  1.00  0.00    -0.354 N 
ATOM     19  C   UNL A   1      38.803  31.183  33.053  1.00  0.00     0.074 A 
ATOM     20  C   UNL A   1      37.536  31.852  32.850  1.00  0.00     0.031 C 
ATOM     21  C   UNL A   1      39.697  28.025  27.522  1.00  0.00     0.029 A 
ATOM     22  C   UNL A   1      40.570  28.030  28.688  1.00  0.00     0.049 A 
ATOM     23  H   UNL A   1      40.326  29.103  30.459  1.00  0.00     0.167 HD
ATOM     24  C   UNL A   1      39.540  31.253  34.187  1.00  0.00     0.037 A 
ATOM     25  C   UNL A   1      41.716  27.333  28.797  1.00  0.00     0.037 A 
ATOM     26  C   UNL A   1      40.790  30.565  34.388  1.00  0.00     0.049 A 
ATOM     27  C   UNL A   1      42.515  27.450  30.061  1.00  0.00     0.074 A 
ATOM     28  C   UNL A   1      41.596  30.557  35.514  1.00  0.00     0.029 A 
ATOM     29  N   UNL A   1      41.413  29.759  33.446  1.00  0.00    -0.354 N 
ATOM     30  N   UNL A   1      42.234  28.112  31.156  1.00  0.00    -0.248 NA
ATOM     31  C   UNL A   1      43.799  26.738  30.098  1.00  0.00     0.031 C 
ATOM     32  C   UNL A   1      42.726  29.782  35.239  1.00  0.00     0.029 A 
ATOM     33  C   UNL A   1      42.604  29.268  33.959  1.00  0.00     0.049 A 
ATOM     34  H   UNL A   1      41.061  29.566  32.547  1.00  0.00     0.167 HD
ATOM     35  C   UNL A   1      43.301  27.895  32.014  1.00  0.00     0.074 A 
ATOM     36  C   UNL A   1      44.220  27.013  31.325  1.00  0.00     0.031 C 
ATOM     37  C   UNL A   1      43.508  28.396  33.256  1.00  0.00     0.037 A 
BRANCH  24  38
ATOM     38  C   UNL A   1      39.029  32.096  35.318  1.00  0.00     0.064 A 
ATOM     39  C   UNL A   1      39.352  33.461  35.388  1.00  0.00     0.173 A 
ATOM     40  C   UNL A   1      38.328  31.532  36.393  1.00  0.00     0.173 A 
ATOM     41  F   UNL A   1      40.029  34.047  34.389  1.00  0.00    -0.203 F 
ATOM     42  C   UNL A   1      39.014  34.222  36.503  1.00  0.00     0.198 A 
ATOM     43  C   UNL A   1      37.971  32.302  37.498  1.00  0.00     0.198 A 
ATOM     44  F   UNL A   1      37.987  30.235  36.370  1.00  0.00    -0.203 F 
ATOM     45  F   UNL A   1      39.371  35.513  36.568  1.00  0.00    -0.200 F 
ATOM     46  C   UNL A   1      38.326  33.642  37.558  1.00  0.00     0.200 A 
ATOM     47  F   UNL A   1      37.292  31.745  38.511  1.00  0.00    -0.200 F 
ATOM     48  F   UNL A   1      38.007  34.373  38.635  1.00  0.00    -0.200 F 
ENDBRANCH  24  38
BRANCH  25  49
ATOM     49  C   UNL A   1      42.166  26.473  27.674  1.00  0.00     0.064 A 
ATOM     50  C   UNL A   1      41.675  25.167  27.514  1.00  0.00     0.173 A 
ATOM     51  C   UNL A   1      43.113  26.929  26.748  1.00  0.00     0.173 A 
ATOM     52  F   UNL A   1      40.771  24.680  28.377  1.00  0.00    -0.203 F 
ATOM     53  C   UNL A   1      42.132  24.346  26.487  1.00  0.00     0.198 A 
ATOM     54  C   UNL A   1      43.544  26.118  25.700  1.00  0.00     0.198 A 
ATOM     55  F   UNL A   1      43.598  28.177  26.845  1.00  0.00    -0.203 F 
ATOM     56  F   UNL A   1      41.676  23.090  26.385  1.00  0.00    -0.200 F 
ATOM     57  C   UNL A   1      43.061  24.825  25.577  1.00  0.00     0.200 A 
ATOM     58  F   UNL A   1      44.422  26.593  24.806  1.00  0.00    -0.200 F 
ATOM     59  F   UNL A   1      43.486  24.040  24.577  1.00  0.00    -0.200 F 
ENDBRANCH  25  49
BRANCH  37  60
ATOM     60  C   UNL A   1      44.777  28.000  33.949  1.00  0.00     0.064 A 
ATOM     61  C   UNL A   1      44.825  26.847  34.747  1.00  0.00     0.173 A 
ATOM     62  C   UNL A   1      45.933  28.788  33.857  1.00  0.00     0.173 A 
ATOM     63  F   UNL A   1      43.743  26.066  34.872  1.00  0.00    -0.203 F 
ATOM     64  C   UNL A   1      45.985  26.503  35.434  1.00  0.00     0.198 A 
ATOM     65  C   UNL A   1      47.100  28.424  34.522  1.00  0.00     0.198 A 
ATOM     66  F   UNL A   1      45.940  29.890  33.092  1.00  0.00    -0.203 F 
ATOM     67  F   UNL A   1      46.002  25.412  36.212  1.00  0.00    -0.200 F 
ATOM     68  C   UNL A   1      47.123  27.287  35.317  1.00  0.00     0.200 A 
ATOM     69  F   UNL A   1      48.207  29.168  34.385  1.00  0.00    -0.200 F 
ATOM     70  F   UNL A   1      48.245  26.944  35.964  1.00  0.00    -0.200 F 
ENDBRANCH  37  60
ENDBRANCH  11  12
ENDBRANCH   4   6
ENDBRANCH   1   2
BRANCH   1  71
ATOM     71  C   UNL A   1      32.958  28.945  23.547  1.00  0.00     0.042 C 
BRANCH  71  72
ATOM     72  C   UNL A   1      34.038  28.310  22.685  1.00  0.00     0.118 C 
BRANCH  72  73
ATOM     73  N   UNL A   1      33.503  27.270  21.821  1.00  0.00    -0.352 N 
ATOM     74  C   UNL A   1      33.315  25.934  22.064  1.00  0.00     0.254 C 
ATOM     75  H   UNL A   1      33.235  27.571  20.922  1.00  0.00     0.163 HD
ATOM     76  O   UNL A   1      33.017  25.185  21.138  1.00  0.00    -0.269 OA
BRANCH  74  77
ATOM     77  C   UNL A   1      33.511  25.376  23.412  1.00  0.00     0.076 A 
ATOM     78  C   UNL A   1      34.714  24.716  23.696  1.00  0.00     0.025 A 
ATOM     79  C   UNL A   1      32.507  25.430  24.375  1.00  0.00     0.135 A 
ATOM     80  C   UNL A   1      34.939  24.157  24.965  1.00  0.00    -0.017 A 
ATOM     81  C   UNL A   1      32.726  24.929  25.650  1.00  0.00     0.041 A 
ATOM     82  F   UNL A   1      31.311  25.973  24.102  1.00  0.00    -0.206 F 
ATOM     83  C   UNL A   1      33.940  24.304  25.944  1.00  0.00     0.012 A 
BRANCH  80  84
ATOM     84  C   UNL A   1      36.160  23.388  25.249  1.00  0.00    -0.018 A 
ATOM     85  C   UNL A   1      37.233  23.942  25.966  1.00  0.00     0.009 A 
ATOM     86  C   UNL A   1      36.289  22.068  24.781  1.00  0.00     0.009 A 
ATOM     87  C   UNL A   1      38.392  23.198  26.208  1.00  0.00     0.001 A 
ATOM     88  C   UNL A   1      37.446  21.326  25.021  1.00  0.00     0.001 A 
ATOM     89  C   UNL A   1      38.498  21.892  25.735  1.00  0.00     0.000 A 
ENDBRANCH  80  84
ENDBRANCH  74  77
ENDBRANCH  72  73
ENDBRANCH  71  72
ENDBRANCH   1  71
TORSDOF 11
ENDMDL
MODEL 3
REMARK VINA RESULT:     -12.6      0.102      1.269
REMARK SMILES O=C(NCCCNC(=O)c1cc(-c2ccccc2)ccc1F)c1ccc(-c2c3nc(c(-c4c(F)c(F)c(F)c(F)c4F)c4ccc([nH]4)c(-c4c(F)c(F)c(F)c(F)c4F)c4nc(c(-c5c(F)c(F)c(F)c(F)c5F)c5ccc2[nH]5)C=C4)C=C3)cc1
REMARK SMILES IDX 4 1 3 2 1 3 2 4 23 6 24 7 85 8 25 9 84 10 26 11 27 12 28 13
REMARK SMILES IDX 78 14 29 15 83 16 77 17 79 18 30 19 82 20 76 21 75 22 31 24
REMARK SMILES IDX 63 25 43 26 62 27 44 28 47 29 61 30 80 31 45 32 46 33 60 35
REMARK SMILES IDX 81 36 48 37 32 38 33 39 41 40 34 41 35 42 39 43 42 44 36 45
REMARK SMILES IDX 37 46 40 47 38 48 64 49 65 50 73 51 66 52 67 53 71 54 74 55
REMARK SMILES IDX 68 56 69 57 72 58 70 59 49 60 50 61 58 62 51 63 52 64 56 65
REMARK SMILES IDX 59 66 53 67 54 68 57 69 55 70 5 71 6 72 7 73 8 74 9 76 10 77
REMARK SMILES IDX 11 78 21 79 12 80 20 81 22 82 19 83 13 84 14 85 18 86 15 87
REMARK SMILES IDX 17 88 16 89
REMARK H PARENT 3 5 79 23 47 34 7 75
REMARK Flexibility Score: inf
ROOT
ATOM      1  C   UNL A   1      33.417  29.214  25.014  1.00  0.00     0.118 C 
ENDROOT
BRANCH   1   2
ATOM      2  N   UNL A   1      32.723  30.345  25.618  1.00  0.00    -0.352 N 
ATOM      3  O   UNL A   1      32.182  31.863  27.193  1.00  0.00    -0.269 OA
ATOM      4  C   UNL A   1      32.999  31.052  26.764  1.00  0.00     0.251 C 
ATOM      5  H   UNL A   1      31.927  30.651  25.127  1.00  0.00     0.163 HD
BRANCH   4   6
ATOM      6  C   UNL A   1      34.264  30.828  27.495  1.00  0.00     0.039 A 
ATOM      7  C   UNL A   1      34.586  29.564  27.984  1.00  0.00     0.014 A 
ATOM      8  C   UNL A   1      35.155  31.892  27.675  1.00  0.00     0.014 A 
ATOM      9  C   UNL A   1      35.693  29.403  28.804  1.00  0.00     0.010 A 
ATOM     10  C   UNL A   1      36.338  31.697  28.398  1.00  0.00     0.010 A 
ATOM     11  C   UNL A   1      36.601  30.457  28.996  1.00  0.00    -0.014 A 
BRANCH  11  12
ATOM     12  C   UNL A   1      37.853  30.182  29.748  1.00  0.00     0.031 A 
ATOM     13  C   UNL A   1      38.056  30.681  31.150  1.00  0.00     0.074 A 
ATOM     14  C   UNL A   1      38.781  29.399  29.163  1.00  0.00     0.049 A 
ATOM     15  N   UNL A   1      39.062  30.459  31.960  1.00  0.00    -0.248 NA
ATOM     16  C   UNL A   1      37.010  31.542  31.721  1.00  0.00     0.031 C 
ATOM     17  C   UNL A   1      38.690  28.868  27.799  1.00  0.00     0.029 A 
ATOM     18  N   UNL A   1      39.953  28.872  29.643  1.00  0.00    -0.354 N 
ATOM     19  C   UNL A   1      38.776  31.157  33.125  1.00  0.00     0.074 A 
ATOM     20  C   UNL A   1      37.515  31.834  32.913  1.00  0.00     0.031 C 
ATOM     21  C   UNL A   1      39.710  28.027  27.584  1.00  0.00     0.029 A 
ATOM     22  C   UNL A   1      40.571  28.021  28.759  1.00  0.00     0.049 A 
ATOM     23  H   UNL A   1      40.315  29.084  30.534  1.00  0.00     0.167 HD
ATOM     24  C   UNL A   1      39.503  31.216  34.266  1.00  0.00     0.037 A 
ATOM     25  C   UNL A   1      41.713  27.317  28.875  1.00  0.00     0.037 A 
ATOM     26  C   UNL A   1      40.747  30.520  34.476  1.00  0.00     0.049 A 
ATOM     27  C   UNL A   1      42.500  27.423  30.148  1.00  0.00     0.074 A 
ATOM     28  C   UNL A   1      41.541  30.501  35.610  1.00  0.00     0.029 A 
ATOM     29  N   UNL A   1      41.375  29.717  33.535  1.00  0.00    -0.354 N 
ATOM     30  N   UNL A   1      42.211  28.079  31.244  1.00  0.00    -0.248 NA
ATOM     31  C   UNL A   1      43.780  26.703  30.194  1.00  0.00     0.031 C 
ATOM     32  C   UNL A   1      42.671  29.722  35.341  1.00  0.00     0.029 A 
ATOM     33  C   UNL A   1      42.558  29.217  34.057  1.00  0.00     0.049 A 
ATOM     34  H   UNL A   1      41.032  29.531  32.632  1.00  0.00     0.167 HD
ATOM     35  C   UNL A   1      43.269  27.852  32.111  1.00  0.00     0.074 A 
ATOM     36  C   UNL A   1      44.190  26.969  31.426  1.00  0.00     0.031 C 
ATOM     37  C   UNL A   1      43.466  28.344  33.358  1.00  0.00     0.037 A 
BRANCH  24  38
ATOM     38  C   UNL A   1      38.985  32.055  35.398  1.00  0.00     0.064 A 
ATOM     39  C   UNL A   1      39.307  33.419  35.474  1.00  0.00     0.173 A 
ATOM     40  C   UNL A   1      38.277  31.487  36.466  1.00  0.00     0.173 A 
ATOM     41  F   UNL A   1      39.990  34.009  34.482  1.00  0.00    -0.203 F 
ATOM     42  C   UNL A   1      38.962  34.176  36.591  1.00  0.00     0.198 A 
ATOM     43  C   UNL A   1      37.913  32.253  37.572  1.00  0.00     0.198 A 
ATOM     44  F   UNL A   1      37.936  30.190  36.436  1.00  0.00    -0.203 F 
ATOM     45  F   UNL A   1      39.319  35.467  36.662  1.00  0.00    -0.200 F 
ATOM     46  C   UNL A   1      38.267  33.592  37.639  1.00  0.00     0.200 A 
ATOM     47  F   UNL A   1      37.228  31.692  38.578  1.00  0.00    -0.200 F 
ATOM     48  F   UNL A   1      37.942  34.319  38.717  1.00  0.00    -0.200 F 
ENDBRANCH  24  38
BRANCH  25  49
ATOM     49  C   UNL A   1      42.170  26.461  27.751  1.00  0.00     0.064 A 
ATOM     50  C   UNL A   1      43.081  26.939  26.796  1.00  0.00     0.173 A 
ATOM     51  C   UNL A   1      41.689  25.155  27.596  1.00  0.00     0.173 A 
ATOM     52  F   UNL A   1      43.568  28.185  26.897  1.00  0.00    -0.203 F 
ATOM     53  C   UNL A   1      43.474  26.151  25.718  1.00  0.00     0.198 A 
ATOM     54  C   UNL A   1      42.110  24.355  26.535  1.00  0.00     0.198 A 
ATOM     55  F   UNL A   1      40.832  24.645  28.493  1.00  0.00    -0.203 F 
ATOM     56  F   UNL A   1      44.313  26.648  24.799  1.00  0.00    -0.200 F 
ATOM     57  C   UNL A   1      42.993  24.857  25.592  1.00  0.00     0.200 A 
ATOM     58  F   UNL A   1      41.663  23.096  26.431  1.00  0.00    -0.200 F 
ATOM     59  F   UNL A   1      43.386  24.093  24.564  1.00  0.00    -0.200 F 
ENDBRANCH  25  49
BRANCH  37  60
ATOM     60  C   UNL A   1      44.726  27.937  34.062  1.00  0.00     0.064 A 
ATOM     61  C   UNL A   1      45.895  28.700  33.929  1.00  0.00     0.173 A 
ATOM     62  C   UNL A   1      44.783  26.767  34.832  1.00  0.00     0.173 A 
ATOM     63  F   UNL A   1      45.891  29.823  33.197  1.00  0.00    -0.203 F 
ATOM     64  C   UNL A   1      47.080  28.299  34.537  1.00  0.00     0.198 A 
ATOM     65  C   UNL A   1      45.964  26.385  35.463  1.00  0.00     0.198 A 
ATOM     66  F   UNL A   1      43.686  26.015  35.001  1.00  0.00    -0.203 F 
ATOM     67  F   UNL A   1      48.194  29.028  34.378  1.00  0.00    -0.200 F 
ATOM     68  C   UNL A   1      47.113  27.147  35.309  1.00  0.00     0.200 A 
ATOM     69  F   UNL A   1      45.986  25.287  36.231  1.00  0.00    -0.200 F 
ATOM     70  F   UNL A   1      48.251  26.773  35.910  1.00  0.00    -0.200 F 
ENDBRANCH  37  60
ENDBRANCH  11  12
ENDBRANCH   4   6
ENDBRANCH   1   2
BRANCH   1  71
ATOM     71  C   UNL A   1      33.093  29.040  23.540  1.00  0.00     0.042 C 
BRANCH  71  72
ATOM     72  C   UNL A   1      34.167  28.296  22.764  1.00  0.00     0.118 C 
BRANCH  72  73
ATOM     73  N   UNL A   1      33.604  27.264  21.907  1.00  0.00    -0.352 N 
ATOM     74  C   UNL A   1      33.393  25.933  22.155  1.00  0.00     0.254 C 
ATOM     75  H   UNL A   1      33.332  27.568  21.011  1.00  0.00     0.163 HD
ATOM     76  O   UNL A   1      33.071  25.187  21.233  1.00  0.00    -0.269 OA
BRANCH  74  77
ATOM     77  C   UNL A   1      33.593  25.373  23.501  1.00  0.00     0.076 A 
ATOM     78  C   UNL A   1      34.791  24.702  23.779  1.00  0.00     0.025 A 
ATOM     79  C   UNL A   1      32.596  25.437  24.472  1.00  0.00     0.135 A 
ATOM     80  C   UNL A   1      35.020  24.142  25.046  1.00  0.00    -0.017 A 
ATOM     81  C   UNL A   1      32.819  24.935  25.746  1.00  0.00     0.041 A 
ATOM     82  F   UNL A   1      31.404  25.992  24.206  1.00  0.00    -0.206 F 
ATOM     83  C   UNL A   1      34.028  24.299  26.032  1.00  0.00     0.012 A 
BRANCH  80  84
ATOM     84  C   UNL A   1      36.235  23.362  25.323  1.00  0.00    -0.018 A 
ATOM     85  C   UNL A   1      37.333  23.917  26.000  1.00  0.00     0.009 A 
ATOM     86  C   UNL A   1      36.333  22.027  24.887  1.00  0.00     0.009 A 
ATOM     87  C   UNL A   1      38.486  23.162  26.235  1.00  0.00     0.001 A 
ATOM     88  C   UNL A   1      37.484  21.274  25.120  1.00  0.00     0.001 A 
ATOM     89  C   UNL A   1      38.561  21.842  25.794  1.00  0.00     0.000 A 
ENDBRANCH  80  84
ENDBRANCH  74  77
ENDBRANCH  72  73
ENDBRANCH  71  72
ENDBRANCH   1  71
TORSDOF 11
ENDMDL
