MODEL 1
REMARK VINA RESULT:     -13.9      0.000      0.000
REMARK SMILES Cc1ccc(/C=C(\NC(=O)c2cccc(C)c2)C(=O)NCCCNC(=O)c2ccc(-c3c4nc(c(-c5c(F)c(F)c(F)c(F)c5F)c5ccc([nH]5)c(-c5c(F)c(F)c(F)c(F)c5F)c5nc(c(-c6c(F)c(F)c(F)c(F)c6F)c6ccc3[nH]6)C=C5)C=C4)cc2)cc1
REMARK SMILES IDX 22 1 21 2 20 3 18 4 19 5 7 7 6 8 5 9 1 10 2 11 3 12 91 13
REMARK SMILES IDX 4 14 90 15 8 16 9 17 10 19 11 20 12 21 17 22 13 23 15 24
REMARK SMILES IDX 14 25 16 26 23 27 24 28 25 29 26 31 27 32 28 33 89 34 29 35
REMARK SMILES IDX 88 36 30 37 31 38 32 39 82 40 33 41 87 42 81 43 83 44 34 45
REMARK SMILES IDX 86 46 80 47 79 48 35 50 67 51 47 52 66 53 48 54 51 55 65 56
REMARK SMILES IDX 84 57 49 58 50 59 64 61 85 62 52 63 36 64 37 65 45 66 38 67
REMARK SMILES IDX 39 68 43 69 46 70 40 71 41 72 44 73 42 74 68 75 69 76 77 77
REMARK SMILES IDX 70 78 71 79 75 80 78 81 72 82 73 83 76 84 74 85 53 86 54 87
REMARK SMILES IDX 62 88 55 89 56 90 60 91 63 92 57 93 58 94 61 95 59 96
REMARK H PARENT 20 6 8 18 24 30 83 49 51 60
REMARK Flexibility Score: inf
ROOT
ATOM      1  C   UNL A   1      32.857  30.504  26.140  1.00  0.00     0.042 C 
ENDROOT
BRANCH   1   2
ATOM      2  C   UNL A   1      33.305  29.150  25.645  1.00  0.00     0.118 C 
BRANCH   2   3
ATOM      3  N   UNL A   1      32.503  28.589  24.582  1.00  0.00    -0.351 N 
ATOM      4  C   UNL A   1      32.074  27.326  24.316  1.00  0.00     0.267 C 
ATOM      5  O   UNL A   1      31.174  27.222  23.475  1.00  0.00    -0.268 OA
ATOM      6  H   UNL A   1      32.205  29.254  23.920  1.00  0.00     0.163 HD
BRANCH   4   7
ATOM      7  C   UNL A   1      32.715  26.087  24.908  1.00  0.00     0.107 C 
ATOM      8  C   UNL A   1      33.887  25.735  24.324  1.00  0.00     0.040 C 
BRANCH   8   9
ATOM      9  C   UNL A   1      34.829  24.617  24.604  1.00  0.00    -0.023 A 
ATOM     10  C   UNL A   1      37.750  21.447  25.111  1.00  0.00     0.044 C 
ATOM     11  C   UNL A   1      36.704  22.504  24.931  1.00  0.00    -0.051 A 
ATOM     12  C   UNL A   1      36.411  23.365  25.985  1.00  0.00     0.004 A 
ATOM     13  C   UNL A   1      36.029  22.674  23.721  1.00  0.00     0.004 A 
ATOM     14  C   UNL A   1      35.459  24.377  25.833  1.00  0.00     0.008 A 
ATOM     15  C   UNL A   1      35.109  23.719  23.560  1.00  0.00     0.008 A 
ENDBRANCH   8   9
BRANCH   7  16
ATOM     16  N   UNL A   1      32.258  25.396  26.000  1.00  0.00    -0.317 N 
ATOM     17  C   UNL A   1      31.984  24.079  26.283  1.00  0.00     0.255 C 
ATOM     18  H   UNL A   1      32.083  25.987  26.768  1.00  0.00     0.170 HD
ATOM     19  O   UNL A   1      31.626  23.815  27.433  1.00  0.00    -0.269 OA
BRANCH  17  20
ATOM     20  C   UNL A   1      32.002  22.992  25.274  1.00  0.00     0.040 A 
ATOM     21  C   UNL A   1      31.398  23.290  24.040  1.00  0.00     0.014 A 
ATOM     22  C   UNL A   1      32.669  21.778  25.443  1.00  0.00     0.017 A 
ATOM     23  C   UNL A   1      31.525  22.419  22.963  1.00  0.00     0.001 A 
ATOM     24  C   UNL A   1      32.816  20.905  24.354  1.00  0.00    -0.050 A 
ATOM     25  C   UNL A   1      32.244  21.237  23.117  1.00  0.00     0.003 A 
ATOM     26  C   UNL A   1      33.605  19.636  24.486  1.00  0.00     0.044 C 
ENDBRANCH  17  20
ENDBRANCH   7  16
ENDBRANCH   4   7
ENDBRANCH   2   3
ENDBRANCH   1   2
BRANCH   1  27
ATOM     27  C   UNL A   1      33.142  30.648  27.624  1.00  0.00     0.118 C 
BRANCH  27  28
ATOM     28  N   UNL A   1      34.069  31.714  28.017  1.00  0.00    -0.352 N 
ATOM     29  C   UNL A   1      35.388  31.603  28.470  1.00  0.00     0.251 C 
ATOM     30  H   UNL A   1      33.715  32.631  27.953  1.00  0.00     0.163 HD
ATOM     31  O   UNL A   1      36.061  32.583  28.684  1.00  0.00    -0.269 OA
BRANCH  29  32
ATOM     32  C   UNL A   1      35.995  30.242  28.538  1.00  0.00     0.039 A 
ATOM     33  C   UNL A   1      36.319  29.737  29.801  1.00  0.00     0.014 A 
ATOM     34  C   UNL A   1      36.578  29.709  27.399  1.00  0.00     0.014 A 
ATOM     35  C   UNL A   1      37.472  28.970  29.935  1.00  0.00     0.010 A 
ATOM     36  C   UNL A   1      37.814  29.121  27.549  1.00  0.00     0.010 A 
ATOM     37  C   UNL A   1      38.301  28.820  28.828  1.00  0.00    -0.014 A 
BRANCH  37  38
ATOM     38  C   UNL A   1      39.726  28.497  28.918  1.00  0.00     0.031 A 
ATOM     39  C   UNL A   1      40.196  27.147  28.529  1.00  0.00     0.074 A 
ATOM     40  C   UNL A   1      40.617  29.473  29.212  1.00  0.00     0.049 A 
ATOM     41  N   UNL A   1      41.377  26.681  28.754  1.00  0.00    -0.248 NA
ATOM     42  C   UNL A   1      39.320  26.174  27.891  1.00  0.00     0.031 C 
ATOM     43  C   UNL A   1      42.064  29.454  28.994  1.00  0.00     0.029 A 
ATOM     44  N   UNL A   1      40.401  30.638  29.971  1.00  0.00    -0.354 N 
ATOM     45  C   UNL A   1      41.499  25.475  28.097  1.00  0.00     0.074 A 
ATOM     46  C   UNL A   1      40.173  25.189  27.611  1.00  0.00     0.031 C 
ATOM     47  C   UNL A   1      42.641  30.348  29.813  1.00  0.00     0.029 A 
ATOM     48  C   UNL A   1      41.600  30.840  30.697  1.00  0.00     0.049 A 
ATOM     49  H   UNL A   1      39.589  31.195  29.993  1.00  0.00     0.167 HD
ATOM     50  C   UNL A   1      42.739  24.921  27.963  1.00  0.00     0.037 A 
ATOM     51  C   UNL A   1      41.640  30.751  32.058  1.00  0.00     0.037 A 
ATOM     52  C   UNL A   1      43.708  25.636  28.796  1.00  0.00     0.049 A 
ATOM     53  C   UNL A   1      42.609  29.715  32.584  1.00  0.00     0.074 A 
ATOM     54  C   UNL A   1      44.653  26.614  28.531  1.00  0.00     0.029 A 
ATOM     55  N   UNL A   1      43.565  25.591  30.180  1.00  0.00    -0.354 N 
ATOM     56  N   UNL A   1      43.062  28.716  31.879  1.00  0.00    -0.248 NA
ATOM     57  C   UNL A   1      43.089  29.694  33.963  1.00  0.00     0.031 C 
ATOM     58  C   UNL A   1      45.032  27.202  29.766  1.00  0.00     0.029 A 
ATOM     59  C   UNL A   1      44.339  26.564  30.780  1.00  0.00     0.049 A 
ATOM     60  H   UNL A   1      42.992  24.953  30.664  1.00  0.00     0.167 HD
ATOM     61  C   UNL A   1      43.821  27.903  32.682  1.00  0.00     0.074 A 
ATOM     62  C   UNL A   1      43.835  28.575  33.967  1.00  0.00     0.031 C 
ATOM     63  C   UNL A   1      44.340  26.725  32.228  1.00  0.00     0.037 A 
BRANCH  50  64
ATOM     64  C   UNL A   1      43.134  23.904  26.904  1.00  0.00     0.064 A 
ATOM     65  C   UNL A   1      42.761  22.546  27.046  1.00  0.00     0.173 A 
ATOM     66  C   UNL A   1      43.945  24.159  25.782  1.00  0.00     0.173 A 
ATOM     67  F   UNL A   1      41.912  22.149  28.002  1.00  0.00    -0.203 F 
ATOM     68  C   UNL A   1      43.252  21.535  26.211  1.00  0.00     0.198 A 
ATOM     69  C   UNL A   1      44.473  23.145  24.975  1.00  0.00     0.198 A 
ATOM     70  F   UNL A   1      44.212  25.398  25.368  1.00  0.00    -0.203 F 
ATOM     71  F   UNL A   1      42.869  20.265  26.410  1.00  0.00    -0.200 F 
ATOM     72  C   UNL A   1      44.137  21.830  25.197  1.00  0.00     0.200 A 
ATOM     73  F   UNL A   1      45.308  23.463  23.976  1.00  0.00    -0.200 F 
ATOM     74  F   UNL A   1      44.638  20.860  24.420  1.00  0.00    -0.200 F 
ENDBRANCH  50  64
BRANCH  51  75
ATOM     75  C   UNL A   1      40.346  31.084  32.714  1.00  0.00     0.064 A 
ATOM     76  C   UNL A   1      39.946  32.433  32.783  1.00  0.00     0.173 A 
ATOM     77  C   UNL A   1      39.368  30.108  32.934  1.00  0.00     0.173 A 
ATOM     78  F   UNL A   1      40.844  33.412  32.580  1.00  0.00    -0.203 F 
ATOM     79  C   UNL A   1      38.607  32.785  32.945  1.00  0.00     0.198 A 
ATOM     80  C   UNL A   1      38.030  30.464  33.113  1.00  0.00     0.198 A 
ATOM     81  F   UNL A   1      39.679  28.806  32.859  1.00  0.00    -0.203 F 
ATOM     82  F   UNL A   1      38.243  34.074  32.892  1.00  0.00    -0.200 F 
ATOM     83  C   UNL A   1      37.646  31.797  33.081  1.00  0.00     0.200 A 
ATOM     84  F   UNL A   1      37.093  29.509  33.203  1.00  0.00    -0.200 F 
ATOM     85  F   UNL A   1      36.348  32.126  33.130  1.00  0.00    -0.200 F 
ENDBRANCH  51  75
BRANCH  63  86
ATOM     86  C   UNL A   1      44.944  25.637  33.085  1.00  0.00     0.064 A 
ATOM     87  C   UNL A   1      46.315  25.331  33.112  1.00  0.00     0.173 A 
ATOM     88  C   UNL A   1      44.151  24.966  34.048  1.00  0.00     0.173 A 
ATOM     89  F   UNL A   1      47.192  25.982  32.337  1.00  0.00    -0.203 F 
ATOM     90  C   UNL A   1      46.843  24.380  33.990  1.00  0.00     0.198 A 
ATOM     91  C   UNL A   1      44.692  24.064  34.963  1.00  0.00     0.198 A 
ATOM     92  F   UNL A   1      42.833  25.190  34.147  1.00  0.00    -0.203 F 
ATOM     93  F   UNL A   1      48.153  24.094  33.948  1.00  0.00    -0.200 F 
ATOM     94  C   UNL A   1      46.036  23.758  34.924  1.00  0.00     0.200 A 
ATOM     95  F   UNL A   1      43.905  23.513  35.898  1.00  0.00    -0.200 F 
ATOM     96  F   UNL A   1      46.556  22.886  35.798  1.00  0.00    -0.200 F 
ENDBRANCH  63  86
ENDBRANCH  37  38
ENDBRANCH  29  32
ENDBRANCH  27  28
ENDBRANCH   1  27
TORSDOF 13
ENDMDL
MODEL 2
REMARK VINA RESULT:     -13.7      3.124      9.328
REMARK SMILES Cc1ccc(/C=C(\NC(=O)c2cccc(C)c2)C(=O)NCCCNC(=O)c2ccc(-c3c4nc(c(-c5c(F)c(F)c(F)c(F)c5F)c5ccc([nH]5)c(-c5c(F)c(F)c(F)c(F)c5F)c5nc(c(-c6c(F)c(F)c(F)c(F)c6F)c6ccc3[nH]6)C=C5)C=C4)cc2)cc1
REMARK SMILES IDX 22 1 21 2 20 3 18 4 19 5 7 7 6 8 5 9 1 10 2 11 3 12 91 13
REMARK SMILES IDX 4 14 90 15 8 16 9 17 10 19 11 20 12 21 17 22 13 23 15 24
REMARK SMILES IDX 14 25 16 26 23 27 24 28 25 29 26 31 27 32 28 33 89 34 29 35
REMARK SMILES IDX 88 36 30 37 31 38 32 39 82 40 33 41 87 42 81 43 83 44 34 45
REMARK SMILES IDX 86 46 80 47 79 48 35 50 67 51 47 52 66 53 48 54 51 55 65 56
REMARK SMILES IDX 84 57 49 58 50 59 64 61 85 62 52 63 36 64 37 65 45 66 38 67
REMARK SMILES IDX 39 68 43 69 46 70 40 71 41 72 44 73 42 74 68 75 69 76 77 77
REMARK SMILES IDX 70 78 71 79 75 80 78 81 72 82 73 83 76 84 74 85 53 86 54 87
REMARK SMILES IDX 62 88 55 89 56 90 60 91 63 92 57 93 58 94 61 95 59 96
REMARK H PARENT 20 6 8 18 24 30 83 49 51 60
REMARK Flexibility Score: inf
ROOT
ATOM      1  C   UNL A   1      37.050  21.540  25.788  1.00  0.00     0.042 C 
ENDROOT
BRANCH   1   2
ATOM      2  C   UNL A   1      36.046  22.666  25.837  1.00  0.00     0.118 C 
BRANCH   2   3
ATOM      3  N   UNL A   1      34.673  22.274  25.613  1.00  0.00    -0.351 N 
ATOM      4  C   UNL A   1      33.621  22.893  25.015  1.00  0.00     0.267 C 
ATOM      5  O   UNL A   1      32.650  22.178  24.744  1.00  0.00    -0.268 OA
ATOM      6  H   UNL A   1      34.457  21.378  25.962  1.00  0.00     0.163 HD
BRANCH   4   7
ATOM      7  C   UNL A   1      33.558  24.389  24.780  1.00  0.00     0.107 C 
ATOM      8  C   UNL A   1      33.245  25.111  25.884  1.00  0.00     0.040 C 
BRANCH   8   9
ATOM      9  C   UNL A   1      33.098  26.577  26.091  1.00  0.00    -0.023 A 
ATOM     10  C   UNL A   1      32.517  30.778  27.020  1.00  0.00     0.044 C 
ATOM     11  C   UNL A   1      32.683  29.333  26.660  1.00  0.00    -0.051 A 
ATOM     12  C   UNL A   1      33.914  28.880  26.196  1.00  0.00     0.004 A 
ATOM     13  C   UNL A   1      31.643  28.414  26.803  1.00  0.00     0.004 A 
ATOM     14  C   UNL A   1      34.102  27.531  25.878  1.00  0.00     0.008 A 
ATOM     15  C   UNL A   1      31.849  27.055  26.527  1.00  0.00     0.008 A 
ENDBRANCH   8   9
BRANCH   7  16
ATOM     16  N   UNL A   1      33.876  25.027  23.610  1.00  0.00    -0.317 N 
ATOM     17  C   UNL A   1      33.258  25.943  22.793  1.00  0.00     0.255 C 
ATOM     18  H   UNL A   1      34.764  24.767  23.272  1.00  0.00     0.170 HD
ATOM     19  O   UNL A   1      33.895  26.345  21.816  1.00  0.00    -0.269 OA
BRANCH  17  20
ATOM     20  C   UNL A   1      31.855  26.395  22.965  1.00  0.00     0.040 A 
ATOM     21  C   UNL A   1      30.920  25.390  23.269  1.00  0.00     0.014 A 
ATOM     22  C   UNL A   1      31.456  27.732  22.957  1.00  0.00     0.017 A 
ATOM     23  C   UNL A   1      29.620  25.723  23.638  1.00  0.00     0.001 A 
ATOM     24  C   UNL A   1      30.152  28.074  23.346  1.00  0.00    -0.050 A 
ATOM     25  C   UNL A   1      29.244  27.062  23.689  1.00  0.00     0.003 A 
ATOM     26  C   UNL A   1      29.726  29.510  23.432  1.00  0.00     0.044 C 
ENDBRANCH  17  20
ENDBRANCH   7  16
ENDBRANCH   4   7
ENDBRANCH   2   3
ENDBRANCH   1   2
BRANCH   1  27
ATOM     27  C   UNL A   1      38.356  22.018  25.179  1.00  0.00     0.118 C 
BRANCH  27  28
ATOM     28  N   UNL A   1      39.558  21.885  26.009  1.00  0.00    -0.352 N 
ATOM     29  C   UNL A   1      40.260  22.879  26.699  1.00  0.00     0.251 C 
ATOM     30  H   UNL A   1      39.919  20.973  26.090  1.00  0.00     0.163 HD
ATOM     31  O   UNL A   1      41.195  22.605  27.411  1.00  0.00    -0.269 OA
BRANCH  29  32
ATOM     32  C   UNL A   1      39.728  24.273  26.653  1.00  0.00     0.039 A 
ATOM     33  C   UNL A   1      40.532  25.255  26.066  1.00  0.00     0.014 A 
ATOM     34  C   UNL A   1      38.702  24.628  27.513  1.00  0.00     0.014 A 
ATOM     35  C   UNL A   1      40.534  26.532  26.619  1.00  0.00     0.010 A 
ATOM     36  C   UNL A   1      38.838  25.822  28.186  1.00  0.00     0.010 A 
ATOM     37  C   UNL A   1      39.811  26.749  27.789  1.00  0.00    -0.014 A 
BRANCH  37  38
ATOM     38  C   UNL A   1      40.098  27.829  28.733  1.00  0.00     0.031 A 
ATOM     39  C   UNL A   1      39.160  28.969  28.849  1.00  0.00     0.074 A 
ATOM     40  C   UNL A   1      41.136  27.708  29.595  1.00  0.00     0.049 A 
ATOM     41  N   UNL A   1      39.401  30.065  29.484  1.00  0.00    -0.248 NA
ATOM     42  C   UNL A   1      37.864  28.978  28.184  1.00  0.00     0.031 C 
ATOM     43  C   UNL A   1      41.368  28.467  30.824  1.00  0.00     0.029 A 
ATOM     44  N   UNL A   1      42.326  26.978  29.415  1.00  0.00    -0.354 N 
ATOM     45  C   UNL A   1      38.239  30.807  29.522  1.00  0.00     0.074 A 
ATOM     46  C   UNL A   1      37.326  30.101  28.661  1.00  0.00     0.031 C 
ATOM     47  C   UNL A   1      42.673  28.411  31.133  1.00  0.00     0.029 A 
ATOM     48  C   UNL A   1      43.340  27.759  30.021  1.00  0.00     0.049 A 
ATOM     49  H   UNL A   1      42.432  26.109  28.963  1.00  0.00     0.167 HD
ATOM     50  C   UNL A   1      38.170  31.878  30.365  1.00  0.00     0.037 A 
ATOM     51  C   UNL A   1      44.348  28.321  29.291  1.00  0.00     0.037 A 
ATOM     52  C   UNL A   1      39.495  32.183  30.910  1.00  0.00     0.049 A 
ATOM     53  C   UNL A   1      44.434  29.826  29.408  1.00  0.00     0.074 A 
ATOM     54  C   UNL A   1      40.119  31.897  32.113  1.00  0.00     0.029 A 
ATOM     55  N   UNL A   1      40.493  32.616  30.042  1.00  0.00    -0.354 N 
ATOM     56  N   UNL A   1      43.448  30.585  29.799  1.00  0.00    -0.248 NA
ATOM     57  C   UNL A   1      45.618  30.594  29.033  1.00  0.00     0.031 C 
ATOM     58  C   UNL A   1      41.513  32.101  31.943  1.00  0.00     0.029 A 
ATOM     59  C   UNL A   1      41.732  32.536  30.648  1.00  0.00     0.049 A 
ATOM     60  H   UNL A   1      40.339  32.935  29.124  1.00  0.00     0.167 HD
ATOM     61  C   UNL A   1      43.815  31.901  29.680  1.00  0.00     0.074 A 
ATOM     62  C   UNL A   1      45.192  31.853  29.229  1.00  0.00     0.031 C 
ATOM     63  C   UNL A   1      42.938  32.918  29.927  1.00  0.00     0.037 A 
BRANCH  50  64
ATOM     64  C   UNL A   1      36.885  32.495  30.895  1.00  0.00     0.064 A 
ATOM     65  C   UNL A   1      36.142  33.392  30.092  1.00  0.00     0.173 A 
ATOM     66  C   UNL A   1      36.370  32.330  32.195  1.00  0.00     0.173 A 
ATOM     67  F   UNL A   1      36.438  33.586  28.801  1.00  0.00    -0.203 F 
ATOM     68  C   UNL A   1      35.063  34.135  30.587  1.00  0.00     0.198 A 
ATOM     69  C   UNL A   1      35.322  33.104  32.704  1.00  0.00     0.198 A 
ATOM     70  F   UNL A   1      36.804  31.371  33.014  1.00  0.00    -0.203 F 
ATOM     71  F   UNL A   1      34.410  34.979  29.775  1.00  0.00    -0.200 F 
ATOM     72  C   UNL A   1      34.675  34.017  31.903  1.00  0.00     0.200 A 
ATOM     73  F   UNL A   1      34.944  32.947  33.981  1.00  0.00    -0.200 F 
ATOM     74  F   UNL A   1      33.667  34.753  32.390  1.00  0.00    -0.200 F 
ENDBRANCH  50  64
BRANCH  51  75
ATOM     75  C   UNL A   1      44.676  27.565  28.052  1.00  0.00     0.064 A 
ATOM     76  C   UNL A   1      45.410  26.367  28.159  1.00  0.00     0.173 A 
ATOM     77  C   UNL A   1      43.993  27.799  26.853  1.00  0.00     0.173 A 
ATOM     78  F   UNL A   1      46.085  26.092  29.288  1.00  0.00    -0.203 F 
ATOM     79  C   UNL A   1      45.363  25.397  27.161  1.00  0.00     0.198 A 
ATOM     80  C   UNL A   1      43.962  26.831  25.847  1.00  0.00     0.198 A 
ATOM     81  F   UNL A   1      43.257  28.909  26.696  1.00  0.00    -0.203 F 
ATOM     82  F   UNL A   1      45.979  24.220  27.343  1.00  0.00    -0.200 F 
ATOM     83  C   UNL A   1      44.614  25.619  26.018  1.00  0.00     0.200 A 
ATOM     84  F   UNL A   1      43.204  27.027  24.759  1.00  0.00    -0.200 F 
ATOM     85  F   UNL A   1      44.479  24.647  25.104  1.00  0.00    -0.200 F 
ENDBRANCH  51  75
BRANCH  63  86
ATOM     86  C   UNL A   1      43.146  34.371  29.567  1.00  0.00     0.064 A 
ATOM     87  C   UNL A   1      43.285  35.401  30.511  1.00  0.00     0.173 A 
ATOM     88  C   UNL A   1      43.378  34.745  28.220  1.00  0.00     0.173 A 
ATOM     89  F   UNL A   1      43.210  35.158  31.827  1.00  0.00    -0.203 F 
ATOM     90  C   UNL A   1      43.570  36.717  30.135  1.00  0.00     0.198 A 
ATOM     91  C   UNL A   1      43.722  36.045  27.854  1.00  0.00     0.198 A 
ATOM     92  F   UNL A   1      43.305  33.850  27.224  1.00  0.00    -0.203 F 
ATOM     93  F   UNL A   1      43.652  37.672  31.072  1.00  0.00    -0.200 F 
ATOM     94  C   UNL A   1      43.803  37.036  28.810  1.00  0.00     0.200 A 
ATOM     95  F   UNL A   1      44.000  36.325  26.573  1.00  0.00    -0.200 F 
ATOM     96  F   UNL A   1      44.128  38.287  28.460  1.00  0.00    -0.200 F 
ENDBRANCH  63  86
ENDBRANCH  37  38
ENDBRANCH  29  32
ENDBRANCH  27  28
ENDBRANCH   1  27
TORSDOF 13
ENDMDL
MODEL 3
REMARK VINA RESULT:     -13.5      3.554      9.576
REMARK SMILES Cc1ccc(/C=C(\NC(=O)c2cccc(C)c2)C(=O)NCCCNC(=O)c2ccc(-c3c4nc(c(-c5c(F)c(F)c(F)c(F)c5F)c5ccc([nH]5)c(-c5c(F)c(F)c(F)c(F)c5F)c5nc(c(-c6c(F)c(F)c(F)c(F)c6F)c6ccc3[nH]6)C=C5)C=C4)cc2)cc1
REMARK SMILES IDX 22 1 21 2 20 3 18 4 19 5 7 7 6 8 5 9 1 10 2 11 3 12 91 13
REMARK SMILES IDX 4 14 90 15 8 16 9 17 10 19 11 20 12 21 17 22 13 23 15 24
REMARK SMILES IDX 14 25 16 26 23 27 24 28 25 29 26 31 27 32 28 33 89 34 29 35
REMARK SMILES IDX 88 36 30 37 31 38 32 39 82 40 33 41 87 42 81 43 83 44 34 45
REMARK SMILES IDX 86 46 80 47 79 48 35 50 67 51 47 52 66 53 48 54 51 55 65 56
REMARK SMILES IDX 84 57 49 58 50 59 64 61 85 62 52 63 36 64 37 65 45 66 38 67
REMARK SMILES IDX 39 68 43 69 46 70 40 71 41 72 44 73 42 74 68 75 69 76 77 77
REMARK SMILES IDX 70 78 71 79 75 80 78 81 72 82 73 83 76 84 74 85 53 86 54 87
REMARK SMILES IDX 62 88 55 89 56 90 60 91 63 92 57 93 58 94 61 95 59 96
REMARK H PARENT 20 6 8 18 24 30 83 49 51 60
REMARK Flexibility Score: inf
ROOT
ATOM      1  C   UNL A   1      38.527  21.450  25.373  1.00  0.00     0.042 C 
ENDROOT
BRANCH   1   2
ATOM      2  C   UNL A   1      37.057  21.451  25.027  1.00  0.00     0.118 C 
BRANCH   2   3
ATOM      3  N   UNL A   1      36.161  21.538  26.157  1.00  0.00    -0.351 N 
ATOM      4  C   UNL A   1      34.869  21.946  26.283  1.00  0.00     0.267 C 
ATOM      5  O   UNL A   1      34.303  21.641  27.338  1.00  0.00    -0.268 OA
ATOM      6  H   UNL A   1      36.565  21.241  27.005  1.00  0.00     0.163 HD
BRANCH   4   7
ATOM      7  C   UNL A   1      34.169  22.820  25.263  1.00  0.00     0.107 C 
ATOM      8  C   UNL A   1      34.452  24.141  25.376  1.00  0.00     0.040 C 
BRANCH   8   9
ATOM      9  C   UNL A   1      34.000  25.316  24.582  1.00  0.00    -0.023 A 
ATOM     10  C   UNL A   1      32.873  28.953  22.497  1.00  0.00     0.044 C 
ATOM     11  C   UNL A   1      33.211  27.691  23.231  1.00  0.00    -0.051 A 
ATOM     12  C   UNL A   1      33.679  26.589  22.520  1.00  0.00     0.004 A 
ATOM     13  C   UNL A   1      33.099  27.593  24.618  1.00  0.00     0.004 A 
ATOM     14  C   UNL A   1      34.027  25.410  23.184  1.00  0.00     0.008 A 
ATOM     15  C   UNL A   1      33.492  26.424  25.284  1.00  0.00     0.008 A 
ENDBRANCH   8   9
BRANCH   7  16
ATOM     16  N   UNL A   1      33.387  22.372  24.230  1.00  0.00    -0.317 N 
ATOM     17  C   UNL A   1      32.146  22.688  23.731  1.00  0.00     0.255 C 
ATOM     18  H   UNL A   1      33.820  21.648  23.722  1.00  0.00     0.170 HD
ATOM     19  O   UNL A   1      31.778  22.087  22.719  1.00  0.00    -0.269 OA
BRANCH  17  20
ATOM     20  C   UNL A   1      31.202  23.626  24.387  1.00  0.00     0.040 A 
ATOM     21  C   UNL A   1      30.991  23.422  25.762  1.00  0.00     0.014 A 
ATOM     22  C   UNL A   1      30.628  24.730  23.755  1.00  0.00     0.017 A 
ATOM     23  C   UNL A   1      30.279  24.353  26.513  1.00  0.00     0.001 A 
ATOM     24  C   UNL A   1      29.926  25.681  24.511  1.00  0.00    -0.050 A 
ATOM     25  C   UNL A   1      29.761  25.485  25.890  1.00  0.00     0.003 A 
ATOM     26  C   UNL A   1      29.378  26.921  23.870  1.00  0.00     0.044 C 
ENDBRANCH  17  20
ENDBRANCH   7  16
ENDBRANCH   4   7
ENDBRANCH   2   3
ENDBRANCH   1   2
BRANCH   1  27
ATOM     27  C   UNL A   1      38.840  22.559  26.362  1.00  0.00     0.118 C 
BRANCH  27  28
ATOM     28  N   UNL A   1      40.255  22.776  26.681  1.00  0.00    -0.352 N 
ATOM     29  C   UNL A   1      40.902  23.969  27.022  1.00  0.00     0.251 C 
ATOM     30  H   UNL A   1      40.826  21.975  26.651  1.00  0.00     0.163 HD
ATOM     31  O   UNL A   1      42.067  23.980  27.338  1.00  0.00    -0.269 OA
BRANCH  29  32
ATOM     32  C   UNL A   1      40.077  25.207  27.134  1.00  0.00     0.039 A 
ATOM     33  C   UNL A   1      40.440  26.303  26.344  1.00  0.00     0.014 A 
ATOM     34  C   UNL A   1      39.277  25.383  28.252  1.00  0.00     0.014 A 
ATOM     35  C   UNL A   1      40.306  27.581  26.877  1.00  0.00     0.010 A 
ATOM     36  C   UNL A   1      39.321  26.617  28.862  1.00  0.00     0.010 A 
ATOM     37  C   UNL A   1      39.908  27.708  28.205  1.00  0.00    -0.014 A 
BRANCH  37  38
ATOM     38  C   UNL A   1      40.194  28.881  29.031  1.00  0.00     0.031 A 
ATOM     39  C   UNL A   1      39.184  29.959  29.146  1.00  0.00     0.074 A 
ATOM     40  C   UNL A   1      41.310  28.906  29.797  1.00  0.00     0.049 A 
ATOM     41  N   UNL A   1      39.395  31.119  29.668  1.00  0.00    -0.248 NA
ATOM     42  C   UNL A   1      37.838  29.821  28.608  1.00  0.00     0.031 C 
ATOM     43  C   UNL A   1      41.591  29.781  30.936  1.00  0.00     0.029 A 
ATOM     44  N   UNL A   1      42.533  28.248  29.563  1.00  0.00    -0.354 N 
ATOM     45  C   UNL A   1      38.188  31.779  29.759  1.00  0.00     0.074 A 
ATOM     46  C   UNL A   1      37.260  30.940  29.045  1.00  0.00     0.031 C 
ATOM     47  C   UNL A   1      42.919  29.842  31.123  1.00  0.00     0.029 A 
ATOM     48  C   UNL A   1      43.533  29.147  30.007  1.00  0.00     0.049 A 
ATOM     49  H   UNL A   1      42.664  27.354  29.172  1.00  0.00     0.167 HD
ATOM     50  C   UNL A   1      38.112  32.910  30.519  1.00  0.00     0.037 A 
ATOM     51  C   UNL A   1      44.425  29.713  29.144  1.00  0.00     0.037 A 
ATOM     52  C   UNL A   1      39.453  33.351  30.909  1.00  0.00     0.049 A 
ATOM     53  C   UNL A   1      44.405  31.226  29.134  1.00  0.00     0.074 A 
ATOM     54  C   UNL A   1      40.201  33.212  32.067  1.00  0.00     0.029 A 
ATOM     55  N   UNL A   1      40.333  33.777  29.920  1.00  0.00    -0.354 N 
ATOM     56  N   UNL A   1      43.402  31.944  29.556  1.00  0.00    -0.248 NA
ATOM     57  C   UNL A   1      45.489  32.039  28.590  1.00  0.00     0.031 C 
ATOM     58  C   UNL A   1      41.554  33.498  31.750  1.00  0.00     0.029 A 
ATOM     59  C   UNL A   1      41.623  33.836  30.410  1.00  0.00     0.049 A 
ATOM     60  H   UNL A   1      40.074  34.006  28.998  1.00  0.00     0.167 HD
ATOM     61  C   UNL A   1      43.655  33.268  29.302  1.00  0.00     0.074 A 
ATOM     62  C   UNL A   1      44.986  33.278  28.726  1.00  0.00     0.031 C 
ATOM     63  C   UNL A   1      42.727  34.239  29.550  1.00  0.00     0.037 A 
BRANCH  50  64
ATOM     64  C   UNL A   1      36.835  33.478  31.118  1.00  0.00     0.064 A 
ATOM     65  C   UNL A   1      36.561  33.315  32.496  1.00  0.00     0.173 A 
ATOM     66  C   UNL A   1      35.800  34.106  30.399  1.00  0.00     0.173 A 
ATOM     67  F   UNL A   1      37.478  32.826  33.339  1.00  0.00    -0.203 F 
ATOM     68  C   UNL A   1      35.325  33.645  33.066  1.00  0.00     0.198 A 
ATOM     69  C   UNL A   1      34.549  34.394  30.957  1.00  0.00     0.198 A 
ATOM     70  F   UNL A   1      35.965  34.537  29.148  1.00  0.00    -0.203 F 
ATOM     71  F   UNL A   1      35.126  33.452  34.378  1.00  0.00    -0.200 F 
ATOM     72  C   UNL A   1      34.307  34.152  32.290  1.00  0.00     0.200 A 
ATOM     73  F   UNL A   1      33.586  34.916  30.185  1.00  0.00    -0.200 F 
ATOM     74  F   UNL A   1      33.111  34.434  32.824  1.00  0.00    -0.200 F 
ENDBRANCH  50  64
BRANCH  51  75
ATOM     75  C   UNL A   1      44.700  28.880  27.941  1.00  0.00     0.064 A 
ATOM     76  C   UNL A   1      45.591  27.795  28.054  1.00  0.00     0.173 A 
ATOM     77  C   UNL A   1      43.855  28.910  26.826  1.00  0.00     0.173 A 
ATOM     78  F   UNL A   1      46.424  27.716  29.105  1.00  0.00    -0.203 F 
ATOM     79  C   UNL A   1      45.552  26.729  27.158  1.00  0.00     0.198 A 
ATOM     80  C   UNL A   1      43.831  27.848  25.920  1.00  0.00     0.198 A 
ATOM     81  F   UNL A   1      42.968  29.903  26.672  1.00  0.00    -0.203 F 
ATOM     82  F   UNL A   1      46.332  25.657  27.358  1.00  0.00    -0.200 F 
ATOM     83  C   UNL A   1      44.650  26.744  26.107  1.00  0.00     0.200 A 
ATOM     84  F   UNL A   1      42.930  27.842  24.927  1.00  0.00    -0.200 F 
ATOM     85  F   UNL A   1      44.534  25.676  25.305  1.00  0.00    -0.200 F 
ENDBRANCH  51  75
BRANCH  63  86
ATOM     86  C   UNL A   1      42.790  35.666  29.060  1.00  0.00     0.064 A 
ATOM     87  C   UNL A   1      42.094  36.141  27.936  1.00  0.00     0.173 A 
ATOM     88  C   UNL A   1      43.447  36.656  29.831  1.00  0.00     0.173 A 
ATOM     89  F   UNL A   1      41.334  35.329  27.190  1.00  0.00    -0.203 F 
ATOM     90  C   UNL A   1      42.107  37.492  27.574  1.00  0.00     0.198 A 
ATOM     91  C   UNL A   1      43.406  38.010  29.502  1.00  0.00     0.198 A 
ATOM     92  F   UNL A   1      44.123  36.340  30.945  1.00  0.00    -0.203 F 
ATOM     93  F   UNL A   1      41.459  37.887  26.468  1.00  0.00    -0.200 F 
ATOM     94  C   UNL A   1      42.749  38.427  28.363  1.00  0.00     0.200 A 
ATOM     95  F   UNL A   1      43.987  38.910  30.309  1.00  0.00    -0.200 F 
ATOM     96  F   UNL A   1      42.714  39.726  28.041  1.00  0.00    -0.200 F 
ENDBRANCH  63  86
ENDBRANCH  37  38
ENDBRANCH  29  32
ENDBRANCH  27  28
ENDBRANCH   1  27
TORSDOF 13
ENDMDL
