MODEL 1
REMARK VINA RESULT:     -11.6      0.000      0.000
REMARK SMILES CC(C)Cc1cc(C(=O)N[C@@H](CO)C(=O)NCCCNC(=O)c2ccc(-c3c4nc(c(-c5c(F)c(F)c(F)c(F)c5F)c5ccc([nH]5)c(-c5c(F)c(F)c(F)c(F)c5F)c5nc(c(-c6c(F)c(F)c(F)c(F)c6F)c6ccc3[nH]6)C=C5)C=C4)cc2)n(C)n1
REMARK SMILES IDX 17 1 16 2 14 3 15 4 11 6 10 7 8 8 9 9 7 11 5 12 6 13 88 14
REMARK SMILES IDX 86 15 87 16 4 17 2 18 1 19 3 20 12 21 13 22 18 24 19 25
REMARK SMILES IDX 20 26 21 27 22 29 23 30 24 31 85 32 25 33 84 34 26 35 27 36
REMARK SMILES IDX 28 37 78 38 29 39 83 40 77 41 79 42 30 43 82 44 76 45 75 46
REMARK SMILES IDX 31 48 63 49 43 50 62 51 44 52 47 53 61 54 80 55 45 56 46 57
REMARK SMILES IDX 60 59 81 60 48 61 32 62 33 63 41 64 34 65 35 66 39 67 42 68
REMARK SMILES IDX 36 69 37 70 40 71 38 72 64 73 65 74 73 75 66 76 67 77 71 78
REMARK SMILES IDX 74 79 68 80 69 81 72 82 70 83 49 84 50 85 58 86 51 87 52 88
REMARK SMILES IDX 56 89 59 90 53 91 54 92 57 93 55 94
REMARK H PARENT 16 5 10 10 13 23 20 28 79 47 47 58
REMARK Flexibility Score: inf
ROOT
ATOM      1  C   UNL A   1      31.781  30.560  26.760  1.00  0.00     0.117 C 
ENDROOT
BRANCH   1   2
ATOM      2  N   UNL A   1      33.093  30.184  27.238  1.00  0.00    -0.354 N 
ATOM      3  C   UNL A   1      33.922  29.179  26.876  1.00  0.00     0.244 C 
ATOM      4  O   UNL A   1      35.027  29.145  27.429  1.00  0.00    -0.273 OA
ATOM      5  H   UNL A   1      33.445  30.760  27.954  1.00  0.00     0.163 HD
BRANCH   3   6
ATOM      6  C   UNL A   1      33.590  28.172  25.772  1.00  0.00     0.197 C 
BRANCH   6   7
ATOM      7  N   UNL A   1      34.049  28.497  24.434  1.00  0.00    -0.337 N 
ATOM      8  C   UNL A   1      33.437  28.542  23.212  1.00  0.00     0.270 C 
ATOM      9  O   UNL A   1      34.222  28.831  22.300  1.00  0.00    -0.268 OA
ATOM     10  H   UNL A   1      35.003  28.735  24.398  1.00  0.00     0.164 HD
BRANCH   8  11
ATOM     11  C   UNL A   1      32.026  28.323  22.926  1.00  0.00     0.126 A 
ATOM     12  C   UNL A   1      29.845  28.809  22.635  1.00  0.00     0.064 A 
ATOM     13  C   UNL A   1      31.094  29.370  22.937  1.00  0.00     0.059 A 
ATOM     14  N   UNL A   1      29.931  27.483  22.629  1.00  0.00    -0.178 NA
ATOM     15  N   UNL A   1      31.251  27.250  22.530  1.00  0.00    -0.263 N 
ATOM     16  C   UNL A   1      31.563  26.081  21.741  1.00  0.00     0.174 C 
BRANCH  12  17
ATOM     17  C   UNL A   1      28.555  29.457  22.271  1.00  0.00     0.061 C 
BRANCH  17  18
ATOM     18  C   UNL A   1      28.581  30.986  22.521  1.00  0.00    -0.011 C 
ATOM     19  C   UNL A   1      28.205  31.817  21.285  1.00  0.00     0.008 C 
ATOM     20  C   UNL A   1      27.635  31.346  23.667  1.00  0.00     0.008 C 
ENDBRANCH  17  18
ENDBRANCH  12  17
ENDBRANCH   8  11
ENDBRANCH   6   7
BRANCH   6  21
ATOM     21  C   UNL A   1      33.943  26.730  26.182  1.00  0.00     0.191 C 
BRANCH  21  22
ATOM     22  O   UNL A   1      33.394  25.733  25.323  1.00  0.00    -0.394 OA
ATOM     23  H   UNL A   1      33.912  25.689  24.505  1.00  0.00     0.210 HD
ENDBRANCH  21  22
ENDBRANCH   6  21
ENDBRANCH   3   6
ENDBRANCH   1   2
BRANCH   1  24
ATOM     24  C   UNL A   1      31.591  32.065  26.782  1.00  0.00     0.042 C 
BRANCH  24  25
ATOM     25  C   UNL A   1      32.791  32.823  27.325  1.00  0.00     0.118 C 
BRANCH  25  26
ATOM     26  N   UNL A   1      32.490  34.216  27.632  1.00  0.00    -0.352 N 
ATOM     27  C   UNL A   1      33.008  35.022  28.616  1.00  0.00     0.251 C 
ATOM     28  H   UNL A   1      31.818  34.640  27.050  1.00  0.00     0.163 HD
ATOM     29  O   UNL A   1      32.509  36.118  28.852  1.00  0.00    -0.269 OA
BRANCH  27  30
ATOM     30  C   UNL A   1      34.154  34.542  29.408  1.00  0.00     0.039 A 
ATOM     31  C   UNL A   1      33.925  33.914  30.633  1.00  0.00     0.014 A 
ATOM     32  C   UNL A   1      35.452  34.674  28.911  1.00  0.00     0.014 A 
ATOM     33  C   UNL A   1      34.998  33.347  31.324  1.00  0.00     0.010 A 
ATOM     34  C   UNL A   1      36.496  34.011  29.537  1.00  0.00     0.010 A 
ATOM     35  C   UNL A   1      36.283  33.355  30.759  1.00  0.00    -0.014 A 
BRANCH  35  36
ATOM     36  C   UNL A   1      37.442  32.723  31.437  1.00  0.00     0.031 A 
ATOM     37  C   UNL A   1      38.147  31.573  30.771  1.00  0.00     0.074 A 
ATOM     38  C   UNL A   1      37.798  33.119  32.674  1.00  0.00     0.049 A 
ATOM     39  N   UNL A   1      39.088  30.794  31.238  1.00  0.00    -0.248 NA
ATOM     40  C   UNL A   1      37.700  31.223  29.412  1.00  0.00     0.031 C 
ATOM     41  C   UNL A   1      37.155  34.185  33.443  1.00  0.00     0.029 A 
ATOM     42  N   UNL A   1      38.785  32.657  33.508  1.00  0.00    -0.354 N 
ATOM     43  C   UNL A   1      39.320  29.850  30.246  1.00  0.00     0.074 A 
ATOM     44  C   UNL A   1      38.378  30.111  29.181  1.00  0.00     0.031 C 
ATOM     45  C   UNL A   1      37.781  34.314  34.625  1.00  0.00     0.029 A 
ATOM     46  C   UNL A   1      38.839  33.313  34.713  1.00  0.00     0.049 A 
ATOM     47  H   UNL A   1      39.395  31.924  33.265  1.00  0.00     0.167 HD
ATOM     48  C   UNL A   1      40.254  28.872  30.212  1.00  0.00     0.037 A 
ATOM     49  C   UNL A   1      39.652  33.122  35.770  1.00  0.00     0.037 A 
ATOM     50  C   UNL A   1      41.219  28.650  31.255  1.00  0.00     0.049 A 
ATOM     51  C   UNL A   1      40.697  32.041  35.700  1.00  0.00     0.074 A 
ATOM     52  C   UNL A   1      42.254  27.734  31.293  1.00  0.00     0.029 A 
ATOM     53  N   UNL A   1      41.271  29.366  32.443  1.00  0.00    -0.354 N 
ATOM     54  N   UNL A   1      40.950  31.194  34.731  1.00  0.00    -0.248 NA
ATOM     55  C   UNL A   1      41.575  31.894  36.869  1.00  0.00     0.031 C 
ATOM     56  C   UNL A   1      42.909  27.868  32.521  1.00  0.00     0.029 A 
ATOM     57  C   UNL A   1      42.313  28.901  33.227  1.00  0.00     0.049 A 
ATOM     58  H   UNL A   1      40.658  30.095  32.690  1.00  0.00     0.167 HD
ATOM     59  C   UNL A   1      42.033  30.438  35.158  1.00  0.00     0.074 A 
ATOM     60  C   UNL A   1      42.397  30.934  36.469  1.00  0.00     0.031 C 
ATOM     61  C   UNL A   1      42.669  29.424  34.522  1.00  0.00     0.037 A 
BRANCH  48  62
ATOM     62  C   UNL A   1      40.282  27.981  29.005  1.00  0.00     0.064 A 
ATOM     63  C   UNL A   1      39.555  26.780  28.960  1.00  0.00     0.173 A 
ATOM     64  C   UNL A   1      41.028  28.338  27.873  1.00  0.00     0.173 A 
ATOM     65  F   UNL A   1      38.837  26.385  30.022  1.00  0.00    -0.203 F 
ATOM     66  C   UNL A   1      39.603  25.954  27.840  1.00  0.00     0.198 A 
ATOM     67  C   UNL A   1      41.046  27.525  26.741  1.00  0.00     0.198 A 
ATOM     68  F   UNL A   1      41.737  29.476  27.861  1.00  0.00    -0.203 F 
ATOM     69  F   UNL A   1      38.949  24.785  27.845  1.00  0.00    -0.200 F 
ATOM     70  C   UNL A   1      40.342  26.331  26.730  1.00  0.00     0.200 A 
ATOM     71  F   UNL A   1      41.752  27.896  25.664  1.00  0.00    -0.200 F 
ATOM     72  F   UNL A   1      40.384  25.537  25.650  1.00  0.00    -0.200 F 
ENDBRANCH  48  62
BRANCH  49  73
ATOM     73  C   UNL A   1      39.534  33.994  36.968  1.00  0.00     0.064 A 
ATOM     74  C   UNL A   1      40.194  35.229  37.023  1.00  0.00     0.173 A 
ATOM     75  C   UNL A   1      38.765  33.615  38.078  1.00  0.00     0.173 A 
ATOM     76  F   UNL A   1      40.956  35.625  35.991  1.00  0.00    -0.203 F 
ATOM     77  C   UNL A   1      40.110  36.042  38.150  1.00  0.00     0.198 A 
ATOM     78  C   UNL A   1      38.661  34.443  39.194  1.00  0.00     0.198 A 
ATOM     79  F   UNL A   1      38.108  32.447  38.074  1.00  0.00    -0.203 F 
ATOM     80  F   UNL A   1      40.790  37.197  38.192  1.00  0.00    -0.200 F 
ATOM     81  C   UNL A   1      39.339  35.652  39.234  1.00  0.00     0.200 A 
ATOM     82  F   UNL A   1      37.902  34.068  40.234  1.00  0.00    -0.200 F 
ATOM     83  F   UNL A   1      39.256  36.436  40.316  1.00  0.00    -0.200 F 
ENDBRANCH  49  73
BRANCH  61  84
ATOM     84  C   UNL A   1      43.853  28.815  35.211  1.00  0.00     0.064 A 
ATOM     85  C   UNL A   1      45.153  29.300  35.010  1.00  0.00     0.173 A 
ATOM     86  C   UNL A   1      43.674  27.766  36.126  1.00  0.00     0.173 A 
ATOM     87  F   UNL A   1      45.375  30.293  34.136  1.00  0.00    -0.203 F 
ATOM     88  C   UNL A   1      46.235  28.741  35.684  1.00  0.00     0.198 A 
ATOM     89  C   UNL A   1      44.755  27.229  36.820  1.00  0.00     0.198 A 
ATOM     90  F   UNL A   1      42.449  27.272  36.358  1.00  0.00    -0.203 F 
ATOM     91  F   UNL A   1      47.474  29.191  35.445  1.00  0.00    -0.200 F 
ATOM     92  C   UNL A   1      46.034  27.712  36.594  1.00  0.00     0.200 A 
ATOM     93  F   UNL A   1      44.557  26.246  37.708  1.00  0.00    -0.200 F 
ATOM     94  F   UNL A   1      47.076  27.183  37.249  1.00  0.00    -0.200 F 
ENDBRANCH  61  84
ENDBRANCH  35  36
ENDBRANCH  27  30
ENDBRANCH  25  26
ENDBRANCH  24  25
ENDBRANCH   1  24
TORSDOF 16
ENDMDL
MODEL 2
REMARK VINA RESULT:     -11.5      0.577      7.381
REMARK SMILES CC(C)Cc1cc(C(=O)N[C@@H](CO)C(=O)NCCCNC(=O)c2ccc(-c3c4nc(c(-c5c(F)c(F)c(F)c(F)c5F)c5ccc([nH]5)c(-c5c(F)c(F)c(F)c(F)c5F)c5nc(c(-c6c(F)c(F)c(F)c(F)c6F)c6ccc3[nH]6)C=C5)C=C4)cc2)n(C)n1
REMARK SMILES IDX 17 1 16 2 14 3 15 4 11 6 10 7 8 8 9 9 7 11 5 12 6 13 88 14
REMARK SMILES IDX 86 15 87 16 4 17 2 18 1 19 3 20 12 21 13 22 18 24 19 25
REMARK SMILES IDX 20 26 21 27 22 29 23 30 24 31 85 32 25 33 84 34 26 35 27 36
REMARK SMILES IDX 28 37 78 38 29 39 83 40 77 41 79 42 30 43 82 44 76 45 75 46
REMARK SMILES IDX 31 48 63 49 43 50 62 51 44 52 47 53 61 54 80 55 45 56 46 57
REMARK SMILES IDX 60 59 81 60 48 61 32 62 33 63 41 64 34 65 35 66 39 67 42 68
REMARK SMILES IDX 36 69 37 70 40 71 38 72 64 73 65 74 73 75 66 76 67 77 71 78
REMARK SMILES IDX 74 79 68 80 69 81 72 82 70 83 49 84 50 85 58 86 51 87 52 88
REMARK SMILES IDX 56 89 59 90 53 91 54 92 57 93 55 94
REMARK H PARENT 16 5 10 10 13 23 20 28 79 47 47 58
REMARK Flexibility Score: inf
ROOT
ATOM      1  C   UNL A   1      31.806  30.844  26.585  1.00  0.00     0.117 C 
ENDROOT
BRANCH   1   2
ATOM      2  N   UNL A   1      33.024  30.384  27.217  1.00  0.00    -0.354 N 
ATOM      3  C   UNL A   1      33.802  29.306  26.978  1.00  0.00     0.244 C 
ATOM      4  O   UNL A   1      34.834  29.206  27.653  1.00  0.00    -0.273 OA
ATOM      5  H   UNL A   1      33.340  30.958  27.951  1.00  0.00     0.163 HD
BRANCH   3   6
ATOM      6  C   UNL A   1      33.513  28.288  25.872  1.00  0.00     0.197 C 
BRANCH   6   7
ATOM      7  N   UNL A   1      33.986  28.619  24.541  1.00  0.00    -0.337 N 
ATOM      8  C   UNL A   1      33.399  28.630  23.306  1.00  0.00     0.270 C 
ATOM      9  O   UNL A   1      34.191  28.942  22.408  1.00  0.00    -0.268 OA
ATOM     10  H   UNL A   1      34.931  28.895  24.522  1.00  0.00     0.164 HD
BRANCH   8  11
ATOM     11  C   UNL A   1      32.005  28.351  22.993  1.00  0.00     0.126 A 
ATOM     12  C   UNL A   1      29.801  28.732  22.713  1.00  0.00     0.064 A 
ATOM     13  C   UNL A   1      31.015  29.342  23.064  1.00  0.00     0.059 A 
ATOM     14  N   UNL A   1      29.962  27.416  22.622  1.00  0.00    -0.178 NA
ATOM     15  N   UNL A   1      31.294  27.264  22.521  1.00  0.00    -0.263 N 
ATOM     16  C   UNL A   1      31.676  26.169  21.661  1.00  0.00     0.174 C 
BRANCH  12  17
ATOM     17  C   UNL A   1      28.479  29.330  22.380  1.00  0.00     0.061 C 
BRANCH  17  18
ATOM     18  C   UNL A   1      28.525  30.879  22.372  1.00  0.00    -0.011 C 
ATOM     19  C   UNL A   1      28.083  31.499  21.038  1.00  0.00     0.008 C 
ATOM     20  C   UNL A   1      27.649  31.436  23.494  1.00  0.00     0.008 C 
ENDBRANCH  17  18
ENDBRANCH  12  17
ENDBRANCH   8  11
ENDBRANCH   6   7
BRANCH   6  21
ATOM     21  C   UNL A   1      33.893  26.856  26.293  1.00  0.00     0.191 C 
BRANCH  21  22
ATOM     22  O   UNL A   1      34.028  25.949  25.201  1.00  0.00    -0.394 OA
ATOM     23  H   UNL A   1      34.779  26.216  24.649  1.00  0.00     0.210 HD
ENDBRANCH  21  22
ENDBRANCH   6  21
ENDBRANCH   3   6
ENDBRANCH   1   2
BRANCH   1  24
ATOM     24  C   UNL A   1      31.562  32.317  26.852  1.00  0.00     0.042 C 
BRANCH  24  25
ATOM     25  C   UNL A   1      32.823  33.091  27.199  1.00  0.00     0.118 C 
BRANCH  25  26
ATOM     26  N   UNL A   1      32.544  34.426  27.713  1.00  0.00    -0.352 N 
ATOM     27  C   UNL A   1      33.069  35.063  28.812  1.00  0.00     0.251 C 
ATOM     28  H   UNL A   1      31.885  34.947  27.200  1.00  0.00     0.163 HD
ATOM     29  O   UNL A   1      32.588  36.120  29.209  1.00  0.00    -0.269 OA
BRANCH  27  30
ATOM     30  C   UNL A   1      34.200  34.446  29.527  1.00  0.00     0.039 A 
ATOM     31  C   UNL A   1      33.952  33.669  30.660  1.00  0.00     0.014 A 
ATOM     32  C   UNL A   1      35.500  34.601  29.045  1.00  0.00     0.014 A 
ATOM     33  C   UNL A   1      35.006  32.982  31.264  1.00  0.00     0.010 A 
ATOM     34  C   UNL A   1      36.523  33.828  29.573  1.00  0.00     0.010 A 
ATOM     35  C   UNL A   1      36.291  33.023  30.698  1.00  0.00    -0.014 A 
BRANCH  35  36
ATOM     36  C   UNL A   1      37.428  32.270  31.281  1.00  0.00     0.031 A 
ATOM     37  C   UNL A   1      37.930  32.638  32.650  1.00  0.00     0.074 A 
ATOM     38  C   UNL A   1      38.059  31.330  30.553  1.00  0.00     0.049 A 
ATOM     39  N   UNL A   1      38.985  32.206  33.292  1.00  0.00    -0.248 NA
ATOM     40  C   UNL A   1      37.166  33.665  33.379  1.00  0.00     0.031 C 
ATOM     41  C   UNL A   1      37.700  30.925  29.193  1.00  0.00     0.029 A 
ATOM     42  N   UNL A   1      39.148  30.551  30.853  1.00  0.00    -0.354 N 
ATOM     43  C   UNL A   1      39.025  32.928  34.477  1.00  0.00     0.074 A 
ATOM     44  C   UNL A   1      37.930  33.871  34.439  1.00  0.00     0.031 C 
ATOM     45  C   UNL A   1      38.535  29.955  28.786  1.00  0.00     0.029 A 
ATOM     46  C   UNL A   1      39.513  29.700  29.839  1.00  0.00     0.049 A 
ATOM     47  H   UNL A   1      39.623  30.600  31.713  1.00  0.00     0.167 HD
ATOM     48  C   UNL A   1      39.880  32.797  35.518  1.00  0.00     0.037 A 
ATOM     49  C   UNL A   1      40.527  28.817  29.770  1.00  0.00     0.037 A 
ATOM     50  C   UNL A   1      40.936  31.823  35.569  1.00  0.00     0.049 A 
ATOM     51  C   UNL A   1      41.452  28.674  30.949  1.00  0.00     0.074 A 
ATOM     52  C   UNL A   1      41.816  31.557  36.602  1.00  0.00     0.029 A 
ATOM     53  N   UNL A   1      41.247  30.947  34.539  1.00  0.00    -0.354 N 
ATOM     54  N   UNL A   1      41.443  29.318  32.091  1.00  0.00    -0.248 NA
ATOM     55  C   UNL A   1      42.524  27.676  30.831  1.00  0.00     0.031 C 
ATOM     56  C   UNL A   1      42.685  30.545  36.183  1.00  0.00     0.029 A 
ATOM     57  C   UNL A   1      42.316  30.147  34.908  1.00  0.00     0.049 A 
ATOM     58  H   UNL A   1      40.778  30.901  33.675  1.00  0.00     0.167 HD
ATOM     59  C   UNL A   1      42.483  28.783  32.839  1.00  0.00     0.074 A 
ATOM     60  C   UNL A   1      43.095  27.753  32.025  1.00  0.00     0.031 C 
ATOM     61  C   UNL A   1      42.895  29.114  34.087  1.00  0.00     0.037 A 
BRANCH  48  62
ATOM     62  C   UNL A   1      39.696  33.720  36.687  1.00  0.00     0.064 A 
ATOM     63  C   UNL A   1      38.889  33.370  37.782  1.00  0.00     0.173 A 
ATOM     64  C   UNL A   1      40.346  34.962  36.724  1.00  0.00     0.173 A 
ATOM     65  F   UNL A   1      38.231  32.201  37.789  1.00  0.00    -0.203 F 
ATOM     66  C   UNL A   1      38.713  34.244  38.852  1.00  0.00     0.198 A 
ATOM     67  C   UNL A   1      40.195  35.819  37.812  1.00  0.00     0.198 A 
ATOM     68  F   UNL A   1      41.133  35.345  35.706  1.00  0.00    -0.203 F 
ATOM     69  F   UNL A   1      37.890  33.912  39.856  1.00  0.00    -0.200 F 
ATOM     70  C   UNL A   1      39.371  35.463  38.869  1.00  0.00     0.200 A 
ATOM     71  F   UNL A   1      40.842  36.993  37.833  1.00  0.00    -0.200 F 
ATOM     72  F   UNL A   1      39.205  36.301  39.902  1.00  0.00    -0.200 F 
ENDBRANCH  48  62
BRANCH  49  73
ATOM     73  C   UNL A   1      40.700  27.975  28.557  1.00  0.00     0.064 A 
ATOM     74  C   UNL A   1      41.483  28.418  27.482  1.00  0.00     0.173 A 
ATOM     75  C   UNL A   1      40.091  26.716  28.444  1.00  0.00     0.173 A 
ATOM     76  F   UNL A   1      42.071  29.624  27.537  1.00  0.00    -0.203 F 
ATOM     77  C   UNL A   1      41.632  27.648  26.332  1.00  0.00     0.198 A 
ATOM     78  C   UNL A   1      40.264  25.935  27.304  1.00  0.00     0.198 A 
ATOM     79  F   UNL A   1      39.339  26.242  29.447  1.00  0.00    -0.203 F 
ATOM     80  F   UNL A   1      42.349  28.118  25.302  1.00  0.00    -0.200 F 
ATOM     81  C   UNL A   1      41.027  26.403  26.245  1.00  0.00     0.200 A 
ATOM     82  F   UNL A   1      39.689  24.726  27.230  1.00  0.00    -0.200 F 
ATOM     83  F   UNL A   1      41.174  25.661  25.140  1.00  0.00    -0.200 F 
ENDBRANCH  49  73
BRANCH  61  84
ATOM     84  C   UNL A   1      44.030  28.325  34.669  1.00  0.00     0.064 A 
ATOM     85  C   UNL A   1      43.813  27.129  35.366  1.00  0.00     0.173 A 
ATOM     86  C   UNL A   1      45.354  28.748  34.478  1.00  0.00     0.173 A 
ATOM     87  F   UNL A   1      42.565  26.691  35.586  1.00  0.00    -0.203 F 
ATOM     88  C   UNL A   1      44.883  26.394  35.872  1.00  0.00     0.198 A 
ATOM     89  C   UNL A   1      46.422  27.996  34.959  1.00  0.00     0.198 A 
ATOM     90  F   UNL A   1      45.614  29.882  33.810  1.00  0.00    -0.203 F 
ATOM     91  F   UNL A   1      44.652  25.276  36.573  1.00  0.00    -0.200 F 
ATOM     92  C   UNL A   1      46.186  26.824  35.661  1.00  0.00     0.200 A 
ATOM     93  F   UNL A   1      47.679  28.404  34.742  1.00  0.00    -0.200 F 
ATOM     94  F   UNL A   1      47.213  26.110  36.140  1.00  0.00    -0.200 F 
ENDBRANCH  61  84
ENDBRANCH  35  36
ENDBRANCH  27  30
ENDBRANCH  25  26
ENDBRANCH  24  25
ENDBRANCH   1  24
TORSDOF 16
ENDMDL
MODEL 3
REMARK VINA RESULT:     -11.5      0.425      2.043
REMARK SMILES CC(C)Cc1cc(C(=O)N[C@@H](CO)C(=O)NCCCNC(=O)c2ccc(-c3c4nc(c(-c5c(F)c(F)c(F)c(F)c5F)c5ccc([nH]5)c(-c5c(F)c(F)c(F)c(F)c5F)c5nc(c(-c6c(F)c(F)c(F)c(F)c6F)c6ccc3[nH]6)C=C5)C=C4)cc2)n(C)n1
REMARK SMILES IDX 17 1 16 2 14 3 15 4 11 6 10 7 8 8 9 9 7 11 5 12 6 13 88 14
REMARK SMILES IDX 86 15 87 16 4 17 2 18 1 19 3 20 12 21 13 22 18 24 19 25
REMARK SMILES IDX 20 26 21 27 22 29 23 30 24 31 85 32 25 33 84 34 26 35 27 36
REMARK SMILES IDX 28 37 78 38 29 39 83 40 77 41 79 42 30 43 82 44 76 45 75 46
REMARK SMILES IDX 31 48 63 49 43 50 62 51 44 52 47 53 61 54 80 55 45 56 46 57
REMARK SMILES IDX 60 59 81 60 48 61 32 62 33 63 41 64 34 65 35 66 39 67 42 68
REMARK SMILES IDX 36 69 37 70 40 71 38 72 64 73 65 74 73 75 66 76 67 77 71 78
REMARK SMILES IDX 74 79 68 80 69 81 72 82 70 83 49 84 50 85 58 86 51 87 52 88
REMARK SMILES IDX 56 89 59 90 53 91 54 92 57 93 55 94
REMARK H PARENT 16 5 10 10 13 23 20 28 79 47 47 58
REMARK Flexibility Score: inf
ROOT
ATOM      1  C   UNL A   1      31.808  30.670  26.330  1.00  0.00     0.117 C 
ENDROOT
BRANCH   1   2
ATOM      2  N   UNL A   1      33.088  30.188  26.803  1.00  0.00    -0.354 N 
ATOM      3  C   UNL A   1      33.769  29.053  26.534  1.00  0.00     0.244 C 
ATOM      4  O   UNL A   1      34.888  28.943  27.048  1.00  0.00    -0.273 OA
ATOM      5  H   UNL A   1      33.541  30.794  27.431  1.00  0.00     0.163 HD
BRANCH   3   6
ATOM      6  C   UNL A   1      33.263  27.976  25.570  1.00  0.00     0.197 C 
BRANCH   6   7
ATOM      7  N   UNL A   1      33.575  28.161  24.164  1.00  0.00    -0.337 N 
ATOM      8  C   UNL A   1      32.810  28.312  23.041  1.00  0.00     0.270 C 
ATOM      9  O   UNL A   1      33.493  28.400  22.012  1.00  0.00    -0.268 OA
ATOM     10  H   UNL A   1      34.542  28.181  23.981  1.00  0.00     0.164 HD
BRANCH   8  11
ATOM     11  C   UNL A   1      31.359  28.403  22.971  1.00  0.00     0.126 A 
ATOM     12  C   UNL A   1      29.332  29.225  22.428  1.00  0.00     0.064 A 
ATOM     13  C   UNL A   1      30.711  29.439  22.283  1.00  0.00     0.059 A 
ATOM     14  N   UNL A   1      29.112  28.251  23.304  1.00  0.00    -0.178 NA
ATOM     15  N   UNL A   1      30.297  27.622  23.386  1.00  0.00    -0.263 N 
ATOM     16  C   UNL A   1      30.170  26.196  23.572  1.00  0.00     0.174 C 
BRANCH  12  17
ATOM     17  C   UNL A   1      28.178  29.848  21.723  1.00  0.00     0.061 C 
BRANCH  17  18
ATOM     18  C   UNL A   1      27.793  31.219  22.334  1.00  0.00    -0.011 C 
ATOM     19  C   UNL A   1      28.165  31.356  23.818  1.00  0.00     0.008 C 
ATOM     20  C   UNL A   1      28.460  32.348  21.549  1.00  0.00     0.008 C 
ENDBRANCH  17  18
ENDBRANCH  12  17
ENDBRANCH   8  11
ENDBRANCH   6   7
BRANCH   6  21
ATOM     21  C   UNL A   1      33.597  26.556  26.065  1.00  0.00     0.191 C 
BRANCH  21  22
ATOM     22  O   UNL A   1      34.433  25.816  25.178  1.00  0.00    -0.394 OA
ATOM     23  H   UNL A   1      35.131  25.373  25.686  1.00  0.00     0.210 HD
ENDBRANCH  21  22
ENDBRANCH   6  21
ENDBRANCH   3   6
ENDBRANCH   1   2
BRANCH   1  24
ATOM     24  C   UNL A   1      31.499  32.052  26.873  1.00  0.00     0.042 C 
BRANCH  24  25
ATOM     25  C   UNL A   1      32.720  32.789  27.396  1.00  0.00     0.118 C 
BRANCH  25  26
ATOM     26  N   UNL A   1      32.466  34.203  27.642  1.00  0.00    -0.352 N 
ATOM     27  C   UNL A   1      33.029  35.039  28.575  1.00  0.00     0.251 C 
ATOM     28  H   UNL A   1      31.794  34.619  27.055  1.00  0.00     0.163 HD
ATOM     29  O   UNL A   1      32.567  36.160  28.769  1.00  0.00    -0.269 OA
BRANCH  27  30
ATOM     30  C   UNL A   1      34.179  34.563  29.364  1.00  0.00     0.039 A 
ATOM     31  C   UNL A   1      33.960  33.999  30.622  1.00  0.00     0.014 A 
ATOM     32  C   UNL A   1      35.469  34.635  28.835  1.00  0.00     0.014 A 
ATOM     33  C   UNL A   1      35.032  33.434  31.316  1.00  0.00     0.010 A 
ATOM     34  C   UNL A   1      36.508  33.972  29.469  1.00  0.00     0.010 A 
ATOM     35  C   UNL A   1      36.304  33.379  30.724  1.00  0.00    -0.014 A 
BRANCH  35  36
ATOM     36  C   UNL A   1      37.459  32.746  31.407  1.00  0.00     0.031 A 
ATOM     37  C   UNL A   1      38.174  31.605  30.737  1.00  0.00     0.074 A 
ATOM     38  C   UNL A   1      37.803  33.132  32.650  1.00  0.00     0.049 A 
ATOM     39  N   UNL A   1      39.115  30.825  31.205  1.00  0.00    -0.248 NA
ATOM     40  C   UNL A   1      37.740  31.264  29.372  1.00  0.00     0.031 C 
ATOM     41  C   UNL A   1      37.150  34.189  33.423  1.00  0.00     0.029 A 
ATOM     42  N   UNL A   1      38.785  32.667  33.488  1.00  0.00    -0.354 N 
ATOM     43  C   UNL A   1      39.359  29.890  30.208  1.00  0.00     0.074 A 
ATOM     44  C   UNL A   1      38.425  30.157  29.137  1.00  0.00     0.031 C 
ATOM     45  C   UNL A   1      37.765  34.311  34.611  1.00  0.00     0.029 A 
ATOM     46  C   UNL A   1      38.827  33.313  34.699  1.00  0.00     0.049 A 
ATOM     47  H   UNL A   1      39.400  31.938  33.245  1.00  0.00     0.167 HD
ATOM     48  C   UNL A   1      40.297  28.917  30.173  1.00  0.00     0.037 A 
ATOM     49  C   UNL A   1      39.631  33.116  35.761  1.00  0.00     0.037 A 
ATOM     50  C   UNL A   1      41.254  28.690  31.222  1.00  0.00     0.049 A 
ATOM     51  C   UNL A   1      40.681  32.040  35.691  1.00  0.00     0.074 A 
ATOM     52  C   UNL A   1      42.292  27.777  31.261  1.00  0.00     0.029 A 
ATOM     53  N   UNL A   1      41.293  29.395  32.416  1.00  0.00    -0.354 N 
ATOM     54  N   UNL A   1      40.945  31.203  34.717  1.00  0.00    -0.248 NA
ATOM     55  C   UNL A   1      41.550  31.887  36.866  1.00  0.00     0.031 C 
ATOM     56  C   UNL A   1      42.937  27.903  32.495  1.00  0.00     0.029 A 
ATOM     57  C   UNL A   1      42.331  28.927  33.206  1.00  0.00     0.049 A 
ATOM     58  H   UNL A   1      40.675  30.119  32.665  1.00  0.00     0.167 HD
ATOM     59  C   UNL A   1      42.028  30.447  35.147  1.00  0.00     0.074 A 
ATOM     60  C   UNL A   1      42.379  30.933  36.465  1.00  0.00     0.031 C 
ATOM     61  C   UNL A   1      42.673  29.441  34.507  1.00  0.00     0.037 A 
BRANCH  48  62
ATOM     62  C   UNL A   1      40.339  28.036  28.959  1.00  0.00     0.064 A 
ATOM     63  C   UNL A   1      41.079  28.389  27.818  1.00  0.00     0.173 A 
ATOM     64  C   UNL A   1      39.645  26.817  28.938  1.00  0.00     0.173 A 
ATOM     65  F   UNL A   1      41.747  29.552  27.780  1.00  0.00    -0.203 F 
ATOM     66  C   UNL A   1      41.094  27.571  26.692  1.00  0.00     0.198 A 
ATOM     67  C   UNL A   1      39.692  25.985  27.821  1.00  0.00     0.198 A 
ATOM     68  F   UNL A   1      38.926  26.429  30.002  1.00  0.00    -0.203 F 
ATOM     69  F   UNL A   1      41.759  27.959  25.595  1.00  0.00    -0.200 F 
ATOM     70  C   UNL A   1      40.407  26.368  26.697  1.00  0.00     0.200 A 
ATOM     71  F   UNL A   1      39.037  24.816  27.832  1.00  0.00    -0.200 F 
ATOM     72  F   UNL A   1      40.427  25.578  25.614  1.00  0.00    -0.200 F 
ENDBRANCH  48  62
BRANCH  49  73
ATOM     73  C   UNL A   1      39.499  33.977  36.966  1.00  0.00     0.064 A 
ATOM     74  C   UNL A   1      38.745  33.555  38.069  1.00  0.00     0.173 A 
ATOM     75  C   UNL A   1      40.119  35.233  37.041  1.00  0.00     0.173 A 
ATOM     76  F   UNL A   1      38.119  32.369  38.036  1.00  0.00    -0.203 F 
ATOM     77  C   UNL A   1      38.596  34.364  39.192  1.00  0.00     0.198 A 
ATOM     78  C   UNL A   1      39.991  36.030  38.177  1.00  0.00     0.198 A 
ATOM     79  F   UNL A   1      40.858  35.680  36.016  1.00  0.00    -0.203 F 
ATOM     80  F   UNL A   1      37.830  33.955  40.214  1.00  0.00    -0.200 F 
ATOM     81  C   UNL A   1      39.223  35.600  39.249  1.00  0.00     0.200 A 
ATOM     82  F   UNL A   1      40.611  37.217  38.233  1.00  0.00    -0.200 F 
ATOM     83  F   UNL A   1      39.082  36.376  40.331  1.00  0.00    -0.200 F 
ENDBRANCH  49  73
BRANCH  61  84
ATOM     84  C   UNL A   1      43.854  28.831  35.202  1.00  0.00     0.064 A 
ATOM     85  C   UNL A   1      43.715  27.737  36.068  1.00  0.00     0.173 A 
ATOM     86  C   UNL A   1      45.147  29.315  34.954  1.00  0.00     0.173 A 
ATOM     87  F   UNL A   1      42.498  27.247  36.347  1.00  0.00    -0.203 F 
ATOM     88  C   UNL A   1      44.827  27.164  36.679  1.00  0.00     0.198 A 
ATOM     89  C   UNL A   1      46.259  28.722  35.543  1.00  0.00     0.198 A 
ATOM     90  F   UNL A   1      45.333  30.355  34.126  1.00  0.00    -0.203 F 
ATOM     91  F   UNL A   1      44.668  26.148  37.537  1.00  0.00    -0.200 F 
ATOM     92  C   UNL A   1      46.098  27.652  36.409  1.00  0.00     0.200 A 
ATOM     93  F   UNL A   1      47.487  29.184  35.270  1.00  0.00    -0.200 F 
ATOM     94  F   UNL A   1      47.168  27.092  36.990  1.00  0.00    -0.200 F 
ENDBRANCH  61  84
ENDBRANCH  35  36
ENDBRANCH  27  30
ENDBRANCH  25  26
ENDBRANCH  24  25
ENDBRANCH   1  24
TORSDOF 16
ENDMDL
