MODEL 1
REMARK VINA RESULT:     -11.2      0.000      0.000
REMARK SMILES C[C@@H](CCC(=O)NCCCNC(=O)c1ccc(-c2c3nc(c(-c4c(F)c(F)c(F)c(F)c4F)c4ccc([nH]4)c(-c4c(F)c(F)c(F)c(F)c4F)c4nc(c(-c5c(F)c(F)c(F)c(F)c5F)c5ccc2[nH]5)C=C4)C=C3)cc1)CC[NH+]1CCCCC1
REMARK SMILES IDX 5 1 6 2 7 3 4 5 3 6 2 7 1 8 77 9 78 10 79 11 80 12 84 13
REMARK SMILES IDX 81 15 83 16 82 17 8 18 9 19 10 20 11 21 12 22 13 24 14 25
REMARK SMILES IDX 15 26 76 27 16 28 75 29 17 30 18 31 19 32 69 33 20 34 74 35
REMARK SMILES IDX 68 36 70 37 21 38 73 39 67 40 66 41 22 43 54 44 34 45 53 46
REMARK SMILES IDX 35 47 38 48 52 49 71 50 36 51 37 52 51 54 72 55 39 56 23 57
REMARK SMILES IDX 24 58 32 59 25 60 26 61 30 62 33 63 27 64 28 65 31 66 29 67
REMARK SMILES IDX 55 68 56 69 64 70 57 71 58 72 62 73 65 74 59 75 60 76 63 77
REMARK SMILES IDX 61 78 40 79 41 80 49 81 42 82 43 83 47 84 50 85 44 86 45 87
REMARK SMILES IDX 48 88 46 89
REMARK H PARENT 7 4 79 14 11 23 70 42 38 53
REMARK Flexibility Score: inf
ROOT
ATOM      1  C   UNL A   1      32.175  26.210  26.094  1.00  0.00     0.220 C 
ATOM      2  O   UNL A   1      31.485  25.583  26.894  1.00  0.00    -0.275 OA
ATOM      3  N   UNL A   1      32.631  27.437  26.478  1.00  0.00    -0.356 N 
ATOM      4  H   UNL A   1      32.321  27.717  27.370  1.00  0.00     0.163 HD
ENDROOT
BRANCH   1   5
ATOM      5  C   UNL A   1      32.482  25.644  24.723  1.00  0.00     0.100 C 
BRANCH   5   6
ATOM      6  C   UNL A   1      31.520  26.132  23.623  1.00  0.00     0.013 C 
BRANCH   6   7
ATOM      7  C   UNL A   1      32.124  26.972  22.462  1.00  0.00    -0.008 C 
ATOM      8  C   UNL A   1      33.652  26.921  22.505  1.00  0.00     0.008 C 
BRANCH   7   9
ATOM      9  C   UNL A   1      31.479  28.371  22.401  1.00  0.00     0.065 C 
BRANCH   9  10
ATOM     10  C   UNL A   1      30.275  28.709  23.296  1.00  0.00     0.262 C 
BRANCH  10  11
ATOM     11  N   UNL A   1      29.315  29.739  22.923  1.00  0.00    -0.335 N 
ATOM     12  C   UNL A   1      29.239  30.852  23.864  1.00  0.00     0.262 C 
ATOM     13  C   UNL A   1      29.401  30.176  21.532  1.00  0.00     0.262 C 
ATOM     14  H   UNL A   1      28.416  29.261  22.994  1.00  0.00     0.348 HD
ATOM     15  C   UNL A   1      28.013  31.714  23.578  1.00  0.00     0.062 C 
ATOM     16  C   UNL A   1      28.188  31.035  21.173  1.00  0.00     0.062 C 
ATOM     17  C   UNL A   1      28.024  32.206  22.137  1.00  0.00     0.012 C 
ENDBRANCH  10  11
ENDBRANCH   9  10
ENDBRANCH   7   9
ENDBRANCH   6   7
ENDBRANCH   5   6
ENDBRANCH   1   5
BRANCH   3  18
ATOM     18  C   UNL A   1      33.487  28.408  25.821  1.00  0.00     0.117 C 
BRANCH  18  19
ATOM     19  C   UNL A   1      32.836  29.776  25.577  1.00  0.00     0.042 C 
BRANCH  19  20
ATOM     20  C   UNL A   1      31.914  30.294  26.694  1.00  0.00     0.118 C 
BRANCH  20  21
ATOM     21  N   UNL A   1      32.096  31.724  26.879  1.00  0.00    -0.352 N 
ATOM     22  C   UNL A   1      33.034  32.525  27.468  1.00  0.00     0.251 C 
ATOM     23  H   UNL A   1      31.362  32.246  26.481  1.00  0.00     0.163 HD
ATOM     24  O   UNL A   1      32.692  33.699  27.645  1.00  0.00    -0.269 OA
BRANCH  22  25
ATOM     25  C   UNL A   1      34.418  32.136  27.875  1.00  0.00     0.039 A 
ATOM     26  C   UNL A   1      34.567  30.825  28.363  1.00  0.00     0.014 A 
ATOM     27  C   UNL A   1      35.512  32.999  27.987  1.00  0.00     0.014 A 
ATOM     28  C   UNL A   1      35.746  30.401  28.989  1.00  0.00     0.010 A 
ATOM     29  C   UNL A   1      36.722  32.555  28.578  1.00  0.00     0.010 A 
ATOM     30  C   UNL A   1      36.844  31.262  29.119  1.00  0.00    -0.014 A 
BRANCH  30  31
ATOM     31  C   UNL A   1      38.058  30.780  29.854  1.00  0.00     0.031 A 
ATOM     32  C   UNL A   1      38.301  31.139  31.302  1.00  0.00     0.074 A 
ATOM     33  C   UNL A   1      38.919  29.929  29.259  1.00  0.00     0.049 A 
ATOM     34  N   UNL A   1      39.224  30.694  32.125  1.00  0.00    -0.248 NA
ATOM     35  C   UNL A   1      37.396  32.127  31.903  1.00  0.00     0.031 C 
ATOM     36  C   UNL A   1      38.838  29.489  27.867  1.00  0.00     0.029 A 
ATOM     37  N   UNL A   1      40.017  29.264  29.756  1.00  0.00    -0.354 N 
ATOM     38  C   UNL A   1      39.011  31.345  33.335  1.00  0.00     0.074 A 
ATOM     39  C   UNL A   1      37.895  32.245  33.127  1.00  0.00     0.031 C 
ATOM     40  C   UNL A   1      39.817  28.599  27.632  1.00  0.00     0.029 A 
ATOM     41  C   UNL A   1      40.612  28.422  28.847  1.00  0.00     0.049 A 
ATOM     42  H   UNL A   1      40.345  29.379  30.677  1.00  0.00     0.167 HD
ATOM     43  C   UNL A   1      39.666  31.200  34.515  1.00  0.00     0.037 A 
ATOM     44  C   UNL A   1      41.669  27.594  28.968  1.00  0.00     0.037 A 
ATOM     45  C   UNL A   1      40.767  30.299  34.754  1.00  0.00     0.049 A 
ATOM     46  C   UNL A   1      42.386  27.460  30.285  1.00  0.00     0.074 A 
ATOM     47  C   UNL A   1      41.447  30.063  35.940  1.00  0.00     0.029 A 
ATOM     48  N   UNL A   1      41.355  29.490  33.796  1.00  0.00    -0.354 N 
ATOM     49  N   UNL A   1      42.129  28.033  31.433  1.00  0.00    -0.248 NA
ATOM     50  C   UNL A   1      43.542  26.547  30.321  1.00  0.00     0.031 C 
ATOM     51  C   UNL A   1      42.474  29.145  35.689  1.00  0.00     0.029 A 
ATOM     52  C   UNL A   1      42.404  28.773  34.358  1.00  0.00     0.049 A 
ATOM     53  H   UNL A   1      41.072  29.430  32.856  1.00  0.00     0.167 HD
ATOM     54  C   UNL A   1      43.068  27.536  32.329  1.00  0.00     0.074 A 
ATOM     55  C   UNL A   1      43.892  26.598  31.598  1.00  0.00     0.031 C 
ATOM     56  C   UNL A   1      43.229  27.836  33.640  1.00  0.00     0.037 A 
BRANCH  43  57
ATOM     57  C   UNL A   1      39.212  32.045  35.671  1.00  0.00     0.064 A 
ATOM     58  C   UNL A   1      38.315  31.552  36.631  1.00  0.00     0.173 A 
ATOM     59  C   UNL A   1      39.738  33.332  35.863  1.00  0.00     0.173 A 
ATOM     60  F   UNL A   1      37.783  30.329  36.492  1.00  0.00    -0.203 F 
ATOM     61  C   UNL A   1      37.945  32.326  37.729  1.00  0.00     0.198 A 
ATOM     62  C   UNL A   1      39.385  34.092  36.976  1.00  0.00     0.198 A 
ATOM     63  F   UNL A   1      40.613  33.843  34.983  1.00  0.00    -0.203 F 
ATOM     64  F   UNL A   1      37.061  31.848  38.616  1.00  0.00    -0.200 F 
ATOM     65  C   UNL A   1      38.486  33.591  37.904  1.00  0.00     0.200 A 
ATOM     66  F   UNL A   1      39.922  35.308  37.153  1.00  0.00    -0.200 F 
ATOM     67  F   UNL A   1      38.138  34.329  38.968  1.00  0.00    -0.200 F 
ENDBRANCH  43  57
BRANCH  44  68
ATOM     68  C   UNL A   1      42.113  26.793  27.798  1.00  0.00     0.064 A 
ATOM     69  C   UNL A   1      41.589  25.515  27.555  1.00  0.00     0.173 A 
ATOM     70  C   UNL A   1      43.091  27.277  26.918  1.00  0.00     0.173 A 
ATOM     71  F   UNL A   1      40.674  24.998  28.389  1.00  0.00    -0.203 F 
ATOM     72  C   UNL A   1      42.038  24.746  26.485  1.00  0.00     0.198 A 
ATOM     73  C   UNL A   1      43.520  26.518  25.832  1.00  0.00     0.198 A 
ATOM     74  F   UNL A   1      43.629  28.490  27.113  1.00  0.00    -0.203 F 
ATOM     75  F   UNL A   1      41.556  23.510  26.302  1.00  0.00    -0.200 F 
ATOM     76  C   UNL A   1      42.999  25.251  25.620  1.00  0.00     0.200 A 
ATOM     77  F   UNL A   1      44.442  27.012  24.995  1.00  0.00    -0.200 F 
ATOM     78  F   UNL A   1      43.430  24.511  24.590  1.00  0.00    -0.200 F 
ENDBRANCH  44  68
BRANCH  56  79
ATOM     79  C   UNL A   1      44.323  27.124  34.386  1.00  0.00     0.064 A 
ATOM     80  C   UNL A   1      44.108  25.881  35.000  1.00  0.00     0.173 A 
ATOM     81  C   UNL A   1      45.606  27.685  34.478  1.00  0.00     0.173 A 
ATOM     82  F   UNL A   1      42.897  25.306  34.955  1.00  0.00    -0.203 F 
ATOM     83  C   UNL A   1      45.127  25.241  35.704  1.00  0.00     0.198 A 
ATOM     84  C   UNL A   1      46.630  27.030  35.159  1.00  0.00     0.198 A 
ATOM     85  F   UNL A   1      45.870  28.868  33.905  1.00  0.00    -0.203 F 
ATOM     86  F   UNL A   1      44.883  24.080  36.326  1.00  0.00    -0.200 F 
ATOM     87  C   UNL A   1      46.387  25.814  35.779  1.00  0.00     0.200 A 
ATOM     88  F   UNL A   1      47.851  27.581  35.223  1.00  0.00    -0.200 F 
ATOM     89  F   UNL A   1      47.365  25.199  36.458  1.00  0.00    -0.200 F 
ENDBRANCH  56  79
ENDBRANCH  30  31
ENDBRANCH  22  25
ENDBRANCH  20  21
ENDBRANCH  19  20
ENDBRANCH  18  19
ENDBRANCH   3  18
TORSDOF 15
ENDMDL
MODEL 2
REMARK VINA RESULT:     -11.1      1.912      4.221
REMARK SMILES C[C@@H](CCC(=O)NCCCNC(=O)c1ccc(-c2c3nc(c(-c4c(F)c(F)c(F)c(F)c4F)c4ccc([nH]4)c(-c4c(F)c(F)c(F)c(F)c4F)c4nc(c(-c5c(F)c(F)c(F)c(F)c5F)c5ccc2[nH]5)C=C4)C=C3)cc1)CC[NH+]1CCCCC1
REMARK SMILES IDX 5 1 6 2 7 3 4 5 3 6 2 7 1 8 77 9 78 10 79 11 80 12 84 13
REMARK SMILES IDX 81 15 83 16 82 17 8 18 9 19 10 20 11 21 12 22 13 24 14 25
REMARK SMILES IDX 15 26 76 27 16 28 75 29 17 30 18 31 19 32 69 33 20 34 74 35
REMARK SMILES IDX 68 36 70 37 21 38 73 39 67 40 66 41 22 43 54 44 34 45 53 46
REMARK SMILES IDX 35 47 38 48 52 49 71 50 36 51 37 52 51 54 72 55 39 56 23 57
REMARK SMILES IDX 24 58 32 59 25 60 26 61 30 62 33 63 27 64 28 65 31 66 29 67
REMARK SMILES IDX 55 68 56 69 64 70 57 71 58 72 62 73 65 74 59 75 60 76 63 77
REMARK SMILES IDX 61 78 40 79 41 80 49 81 42 82 43 83 47 84 50 85 44 86 45 87
REMARK SMILES IDX 48 88 46 89
REMARK H PARENT 7 4 79 14 11 23 70 42 38 53
REMARK Flexibility Score: inf
ROOT
ATOM      1  C   UNL A   1      31.735  24.666  26.465  1.00  0.00     0.220 C 
ATOM      2  O   UNL A   1      31.540  23.874  27.384  1.00  0.00    -0.275 OA
ATOM      3  N   UNL A   1      31.138  25.890  26.548  1.00  0.00    -0.356 N 
ATOM      4  H   UNL A   1      30.566  26.003  27.342  1.00  0.00     0.163 HD
ENDROOT
BRANCH   1   5
ATOM      5  C   UNL A   1      32.590  24.281  25.276  1.00  0.00     0.100 C 
BRANCH   5   6
ATOM      6  C   UNL A   1      33.983  23.749  25.664  1.00  0.00     0.013 C 
BRANCH   6   7
ATOM      7  C   UNL A   1      34.228  22.219  25.534  1.00  0.00    -0.008 C 
ATOM      8  C   UNL A   1      34.409  21.587  26.916  1.00  0.00     0.008 C 
BRANCH   7   9
ATOM      9  C   UNL A   1      35.324  21.923  24.490  1.00  0.00     0.065 C 
BRANCH   9  10
ATOM     10  C   UNL A   1      36.439  22.949  24.226  1.00  0.00     0.262 C 
BRANCH  10  11
ATOM     11  N   UNL A   1      37.642  22.993  25.047  1.00  0.00    -0.335 N 
ATOM     12  C   UNL A   1      37.597  23.983  26.119  1.00  0.00     0.262 C 
ATOM     13  C   UNL A   1      38.118  21.688  25.498  1.00  0.00     0.262 C 
ATOM     14  H   UNL A   1      38.357  23.325  24.399  1.00  0.00     0.348 HD
ATOM     15  C   UNL A   1      38.984  24.185  26.720  1.00  0.00     0.062 C 
ATOM     16  C   UNL A   1      39.518  21.817  26.101  1.00  0.00     0.062 C 
ATOM     17  C   UNL A   1      39.557  22.862  27.211  1.00  0.00     0.012 C 
ENDBRANCH  10  11
ENDBRANCH   9  10
ENDBRANCH   7   9
ENDBRANCH   6   7
ENDBRANCH   5   6
ENDBRANCH   1   5
BRANCH   3  18
ATOM     18  C   UNL A   1      31.188  27.058  25.687  1.00  0.00     0.117 C 
BRANCH  18  19
ATOM     19  C   UNL A   1      31.413  28.387  26.421  1.00  0.00     0.042 C 
BRANCH  19  20
ATOM     20  C   UNL A   1      32.750  29.094  26.143  1.00  0.00     0.118 C 
BRANCH  20  21
ATOM     21  N   UNL A   1      32.678  30.490  26.542  1.00  0.00    -0.352 N 
ATOM     22  C   UNL A   1      33.439  31.333  27.304  1.00  0.00     0.251 C 
ATOM     23  H   UNL A   1      31.884  30.940  26.174  1.00  0.00     0.163 HD
ATOM     24  O   UNL A   1      32.894  32.395  27.623  1.00  0.00    -0.269 OA
BRANCH  22  25
ATOM     25  C   UNL A   1      34.850  31.116  27.745  1.00  0.00     0.039 A 
ATOM     26  C   UNL A   1      35.179  29.800  28.116  1.00  0.00     0.014 A 
ATOM     27  C   UNL A   1      35.793  32.116  27.994  1.00  0.00     0.014 A 
ATOM     28  C   UNL A   1      36.385  29.495  28.761  1.00  0.00     0.010 A 
ATOM     29  C   UNL A   1      37.034  31.801  28.604  1.00  0.00     0.010 A 
ATOM     30  C   UNL A   1      37.332  30.493  29.028  1.00  0.00    -0.014 A 
BRANCH  30  31
ATOM     31  C   UNL A   1      38.576  30.126  29.778  1.00  0.00     0.031 A 
ATOM     32  C   UNL A   1      38.804  30.577  31.203  1.00  0.00     0.074 A 
ATOM     33  C   UNL A   1      39.485  29.299  29.222  1.00  0.00     0.049 A 
ATOM     34  N   UNL A   1      39.757  30.234  32.041  1.00  0.00    -0.248 NA
ATOM     35  C   UNL A   1      37.843  31.539  31.758  1.00  0.00     0.031 C 
ATOM     36  C   UNL A   1      39.425  28.780  27.857  1.00  0.00     0.029 A 
ATOM     37  N   UNL A   1      40.624  28.729  29.745  1.00  0.00    -0.354 N 
ATOM     38  C   UNL A   1      39.510  30.935  33.216  1.00  0.00     0.074 A 
ATOM     39  C   UNL A   1      38.340  31.753  32.970  1.00  0.00     0.031 C 
ATOM     40  C   UNL A   1      40.455  27.940  27.661  1.00  0.00     0.029 A 
ATOM     41  C   UNL A   1      41.265  27.878  28.877  1.00  0.00     0.049 A 
ATOM     42  H   UNL A   1      40.949  28.913  30.656  1.00  0.00     0.167 HD
ATOM     43  C   UNL A   1      40.179  30.893  34.396  1.00  0.00     0.037 A 
ATOM     44  C   UNL A   1      42.372  27.123  29.034  1.00  0.00     0.037 A 
ATOM     45  C   UNL A   1      41.334  30.075  34.675  1.00  0.00     0.049 A 
ATOM     46  C   UNL A   1      43.102  27.104  30.351  1.00  0.00     0.074 A 
ATOM     47  C   UNL A   1      42.032  29.945  35.866  1.00  0.00     0.029 A 
ATOM     48  N   UNL A   1      41.966  29.253  33.756  1.00  0.00    -0.354 N 
ATOM     49  N   UNL A   1      42.815  27.722  31.468  1.00  0.00    -0.248 NA
ATOM     50  C   UNL A   1      44.312  26.266  30.426  1.00  0.00     0.031 C 
ATOM     51  C   UNL A   1      43.113  29.080  35.656  1.00  0.00     0.029 A 
ATOM     52  C   UNL A   1      43.059  28.633  34.347  1.00  0.00     0.049 A 
ATOM     53  H   UNL A   1      41.682  29.126  32.823  1.00  0.00     0.167 HD
ATOM     54  C   UNL A   1      43.788  27.331  32.382  1.00  0.00     0.074 A 
ATOM     55  C   UNL A   1      44.664  26.407  31.695  1.00  0.00     0.031 C 
ATOM     56  C   UNL A   1      43.936  27.711  33.674  1.00  0.00     0.037 A 
BRANCH  43  57
ATOM     57  C   UNL A   1      39.678  31.770  35.510  1.00  0.00     0.064 A 
ATOM     58  C   UNL A   1      40.152  33.080  35.680  1.00  0.00     0.173 A 
ATOM     59  C   UNL A   1      38.660  31.323  36.366  1.00  0.00     0.173 A 
ATOM     60  F   UNL A   1      41.125  33.554  34.888  1.00  0.00    -0.203 F 
ATOM     61  C   UNL A   1      39.640  33.902  36.681  1.00  0.00     0.198 A 
ATOM     62  C   UNL A   1      38.133  32.157  37.349  1.00  0.00     0.198 A 
ATOM     63  F   UNL A   1      38.160  30.085  36.234  1.00  0.00    -0.203 F 
ATOM     64  F   UNL A   1      40.130  35.138  36.848  1.00  0.00    -0.200 F 
ATOM     65  C   UNL A   1      38.627  33.442  37.509  1.00  0.00     0.200 A 
ATOM     66  F   UNL A   1      37.141  31.718  38.137  1.00  0.00    -0.200 F 
ATOM     67  F   UNL A   1      38.127  34.239  38.465  1.00  0.00    -0.200 F 
ENDBRANCH  43  57
BRANCH  44  68
ATOM     68  C   UNL A   1      42.859  26.289  27.905  1.00  0.00     0.064 A 
ATOM     69  C   UNL A   1      42.522  24.930  27.812  1.00  0.00     0.173 A 
ATOM     70  C   UNL A   1      43.693  26.826  26.915  1.00  0.00     0.173 A 
ATOM     71  F   UNL A   1      41.753  24.365  28.754  1.00  0.00    -0.203 F 
ATOM     72  C   UNL A   1      43.015  24.138  26.778  1.00  0.00     0.198 A 
ATOM     73  C   UNL A   1      44.163  26.039  25.866  1.00  0.00     0.198 A 
ATOM     74  F   UNL A   1      44.049  28.118  26.965  1.00  0.00    -0.203 F 
ATOM     75  F   UNL A   1      42.718  22.833  26.738  1.00  0.00    -0.200 F 
ATOM     76  C   UNL A   1      43.830  24.694  25.803  1.00  0.00     0.200 A 
ATOM     77  F   UNL A   1      44.943  26.581  24.922  1.00  0.00    -0.200 F 
ATOM     78  F   UNL A   1      44.304  23.932  24.809  1.00  0.00    -0.200 F 
ENDBRANCH  44  68
BRANCH  56  79
ATOM     79  C   UNL A   1      45.075  27.108  34.448  1.00  0.00     0.064 A 
ATOM     80  C   UNL A   1      44.933  25.901  35.149  1.00  0.00     0.173 A 
ATOM     81  C   UNL A   1      46.329  27.738  34.479  1.00  0.00     0.173 A 
ATOM     82  F   UNL A   1      43.753  25.264  35.164  1.00  0.00    -0.203 F 
ATOM     83  C   UNL A   1      45.993  25.364  35.877  1.00  0.00     0.198 A 
ATOM     84  C   UNL A   1      47.395  27.184  35.186  1.00  0.00     0.198 A 
ATOM     85  F   UNL A   1      46.524  28.890  33.822  1.00  0.00    -0.203 F 
ATOM     86  F   UNL A   1      45.817  24.237  36.581  1.00  0.00    -0.200 F 
ATOM     87  C   UNL A   1      47.223  26.003  35.892  1.00  0.00     0.200 A 
ATOM     88  F   UNL A   1      48.586  27.799  35.191  1.00  0.00    -0.200 F 
ATOM     89  F   UNL A   1      48.241  25.486  36.595  1.00  0.00    -0.200 F 
ENDBRANCH  56  79
ENDBRANCH  30  31
ENDBRANCH  22  25
ENDBRANCH  20  21
ENDBRANCH  19  20
ENDBRANCH  18  19
ENDBRANCH   3  18
TORSDOF 15
ENDMDL
MODEL 3
REMARK VINA RESULT:     -11.0      1.861      4.450
REMARK SMILES C[C@@H](CCC(=O)NCCCNC(=O)c1ccc(-c2c3nc(c(-c4c(F)c(F)c(F)c(F)c4F)c4ccc([nH]4)c(-c4c(F)c(F)c(F)c(F)c4F)c4nc(c(-c5c(F)c(F)c(F)c(F)c5F)c5ccc2[nH]5)C=C4)C=C3)cc1)CC[NH+]1CCCCC1
REMARK SMILES IDX 5 1 6 2 7 3 4 5 3 6 2 7 1 8 77 9 78 10 79 11 80 12 84 13
REMARK SMILES IDX 81 15 83 16 82 17 8 18 9 19 10 20 11 21 12 22 13 24 14 25
REMARK SMILES IDX 15 26 76 27 16 28 75 29 17 30 18 31 19 32 69 33 20 34 74 35
REMARK SMILES IDX 68 36 70 37 21 38 73 39 67 40 66 41 22 43 54 44 34 45 53 46
REMARK SMILES IDX 35 47 38 48 52 49 71 50 36 51 37 52 51 54 72 55 39 56 23 57
REMARK SMILES IDX 24 58 32 59 25 60 26 61 30 62 33 63 27 64 28 65 31 66 29 67
REMARK SMILES IDX 55 68 56 69 64 70 57 71 58 72 62 73 65 74 59 75 60 76 63 77
REMARK SMILES IDX 61 78 40 79 41 80 49 81 42 82 43 83 47 84 50 85 44 86 45 87
REMARK SMILES IDX 48 88 46 89
REMARK H PARENT 7 4 79 14 11 23 70 42 38 53
REMARK Flexibility Score: inf
ROOT
ATOM      1  C   UNL A   1      33.294  26.506  22.027  1.00  0.00     0.220 C 
ATOM      2  O   UNL A   1      33.074  25.959  20.949  1.00  0.00    -0.275 OA
ATOM      3  N   UNL A   1      33.632  27.828  22.008  1.00  0.00    -0.356 N 
ATOM      4  H   UNL A   1      33.701  28.209  21.102  1.00  0.00     0.163 HD
ENDROOT
BRANCH   1   5
ATOM      5  C   UNL A   1      33.214  25.728  23.324  1.00  0.00     0.100 C 
BRANCH   5   6
ATOM      6  C   UNL A   1      33.875  24.338  23.252  1.00  0.00     0.013 C 
BRANCH   6   7
ATOM      7  C   UNL A   1      34.065  23.564  24.587  1.00  0.00    -0.008 C 
ATOM      8  C   UNL A   1      32.861  23.780  25.506  1.00  0.00     0.008 C 
BRANCH   7   9
ATOM      9  C   UNL A   1      35.455  23.842  25.191  1.00  0.00     0.065 C 
BRANCH   9  10
ATOM     10  C   UNL A   1      36.718  23.275  24.522  1.00  0.00     0.262 C 
BRANCH  10  11
ATOM     11  N   UNL A   1      37.970  23.133  25.253  1.00  0.00    -0.335 N 
ATOM     12  C   UNL A   1      38.125  24.075  26.358  1.00  0.00     0.262 C 
ATOM     13  C   UNL A   1      38.305  21.761  25.625  1.00  0.00     0.262 C 
ATOM     14  H   UNL A   1      38.676  23.400  24.567  1.00  0.00     0.348 HD
ATOM     15  C   UNL A   1      39.564  24.076  26.863  1.00  0.00     0.062 C 
ATOM     16  C   UNL A   1      39.748  21.688  26.128  1.00  0.00     0.062 C 
ATOM     17  C   UNL A   1      39.996  22.672  27.267  1.00  0.00     0.012 C 
ENDBRANCH  10  11
ENDBRANCH   9  10
ENDBRANCH   7   9
ENDBRANCH   6   7
ENDBRANCH   5   6
ENDBRANCH   1   5
BRANCH   3  18
ATOM     18  C   UNL A   1      33.907  28.778  23.070  1.00  0.00     0.117 C 
BRANCH  18  19
ATOM     19  C   UNL A   1      32.697  29.131  23.945  1.00  0.00     0.042 C 
BRANCH  19  20
ATOM     20  C   UNL A   1      32.904  29.009  25.465  1.00  0.00     0.118 C 
BRANCH  20  21
ATOM     21  N   UNL A   1      32.653  30.286  26.113  1.00  0.00    -0.352 N 
ATOM     22  C   UNL A   1      33.283  31.044  27.061  1.00  0.00     0.251 C 
ATOM     23  H   UNL A   1      31.825  30.709  25.791  1.00  0.00     0.163 HD
ATOM     24  O   UNL A   1      32.606  31.959  27.542  1.00  0.00    -0.269 OA
BRANCH  22  25
ATOM     25  C   UNL A   1      34.693  30.902  27.533  1.00  0.00     0.039 A 
ATOM     26  C   UNL A   1      35.056  29.625  27.998  1.00  0.00     0.014 A 
ATOM     27  C   UNL A   1      35.602  31.945  27.724  1.00  0.00     0.014 A 
ATOM     28  C   UNL A   1      36.261  29.402  28.677  1.00  0.00     0.010 A 
ATOM     29  C   UNL A   1      36.843  31.710  28.369  1.00  0.00     0.010 A 
ATOM     30  C   UNL A   1      37.174  30.444  28.885  1.00  0.00    -0.014 A 
BRANCH  30  31
ATOM     31  C   UNL A   1      38.419  30.168  29.674  1.00  0.00     0.031 A 
ATOM     32  C   UNL A   1      38.572  30.640  31.103  1.00  0.00     0.074 A 
ATOM     33  C   UNL A   1      39.399  29.404  29.150  1.00  0.00     0.049 A 
ATOM     34  N   UNL A   1      39.521  30.367  31.970  1.00  0.00    -0.248 NA
ATOM     35  C   UNL A   1      37.530  31.534  31.623  1.00  0.00     0.031 C 
ATOM     36  C   UNL A   1      39.416  28.877  27.787  1.00  0.00     0.029 A 
ATOM     37  N   UNL A   1      40.559  28.917  29.710  1.00  0.00    -0.354 N 
ATOM     38  C   UNL A   1      39.191  31.054  33.133  1.00  0.00     0.074 A 
ATOM     39  C   UNL A   1      37.974  31.787  32.848  1.00  0.00     0.031 C 
ATOM     40  C   UNL A   1      40.508  28.111  27.627  1.00  0.00     0.029 A 
ATOM     41  C   UNL A   1      41.283  28.110  28.867  1.00  0.00     0.049 A 
ATOM     42  H   UNL A   1      40.843  29.128  30.629  1.00  0.00     0.167 HD
ATOM     43  C   UNL A   1      39.825  31.064  34.333  1.00  0.00     0.037 A 
ATOM     44  C   UNL A   1      42.435  27.435  29.061  1.00  0.00     0.037 A 
ATOM     45  C   UNL A   1      41.026  30.329  34.650  1.00  0.00     0.049 A 
ATOM     46  C   UNL A   1      43.125  27.472  30.398  1.00  0.00     0.074 A 
ATOM     47  C   UNL A   1      41.696  30.253  35.862  1.00  0.00     0.029 A 
ATOM     48  N   UNL A   1      41.741  29.550  33.756  1.00  0.00    -0.354 N 
ATOM     49  N   UNL A   1      42.763  28.073  31.503  1.00  0.00    -0.248 NA
ATOM     50  C   UNL A   1      44.387  26.721  30.514  1.00  0.00     0.031 C 
ATOM     51  C   UNL A   1      42.839  29.464  35.689  1.00  0.00     0.029 A 
ATOM     52  C   UNL A   1      42.857  29.010  34.382  1.00  0.00     0.049 A 
ATOM     53  H   UNL A   1      41.494  29.399  32.815  1.00  0.00     0.167 HD
ATOM     54  C   UNL A   1      43.732  27.754  32.447  1.00  0.00     0.074 A 
ATOM     55  C   UNL A   1      44.691  26.891  31.792  1.00  0.00     0.031 C 
ATOM     56  C   UNL A   1      43.815  28.148  33.741  1.00  0.00     0.037 A 
BRANCH  43  57
ATOM     57  C   UNL A   1      39.232  31.908  35.426  1.00  0.00     0.064 A 
ATOM     58  C   UNL A   1      38.368  31.361  36.387  1.00  0.00     0.173 A 
ATOM     59  C   UNL A   1      39.593  33.258  35.558  1.00  0.00     0.173 A 
ATOM     60  F   UNL A   1      37.993  30.077  36.304  1.00  0.00    -0.203 F 
ATOM     61  C   UNL A   1      37.870  32.142  37.428  1.00  0.00     0.198 A 
ATOM     62  C   UNL A   1      39.113  34.028  36.615  1.00  0.00     0.198 A 
ATOM     63  F   UNL A   1      40.430  33.824  34.676  1.00  0.00    -0.203 F 
ATOM     64  F   UNL A   1      37.020  31.608  38.316  1.00  0.00    -0.200 F 
ATOM     65  C   UNL A   1      38.248  33.471  37.545  1.00  0.00     0.200 A 
ATOM     66  F   UNL A   1      39.493  35.308  36.737  1.00  0.00    -0.200 F 
ATOM     67  F   UNL A   1      37.777  34.217  38.555  1.00  0.00    -0.200 F 
ENDBRANCH  43  57
BRANCH  44  68
ATOM     68  C   UNL A   1      43.012  26.632  27.951  1.00  0.00     0.064 A 
ATOM     69  C   UNL A   1      43.737  27.243  26.917  1.00  0.00     0.173 A 
ATOM     70  C   UNL A   1      42.824  25.245  27.889  1.00  0.00     0.173 A 
ATOM     71  F   UNL A   1      43.914  28.572  26.918  1.00  0.00    -0.203 F 
ATOM     72  C   UNL A   1      44.238  26.496  25.854  1.00  0.00     0.198 A 
ATOM     73  C   UNL A   1      43.351  24.495  26.839  1.00  0.00     0.198 A 
ATOM     74  F   UNL A   1      42.132  24.617  28.849  1.00  0.00    -0.203 F 
ATOM     75  F   UNL A   1      44.886  27.109  24.854  1.00  0.00    -0.200 F 
ATOM     76  C   UNL A   1      44.050  25.122  25.819  1.00  0.00     0.200 A 
ATOM     77  F   UNL A   1      43.173  23.167  26.813  1.00  0.00    -0.200 F 
ATOM     78  F   UNL A   1      44.533  24.404  24.797  1.00  0.00    -0.200 F 
ENDBRANCH  44  68
BRANCH  56  79
ATOM     79  C   UNL A   1      44.970  27.629  34.551  1.00  0.00     0.064 A 
ATOM     80  C   UNL A   1      46.167  28.350  34.674  1.00  0.00     0.173 A 
ATOM     81  C   UNL A   1      44.874  26.402  35.225  1.00  0.00     0.173 A 
ATOM     82  F   UNL A   1      46.317  29.523  34.040  1.00  0.00    -0.203 F 
ATOM     83  C   UNL A   1      47.236  27.848  35.414  1.00  0.00     0.198 A 
ATOM     84  C   UNL A   1      45.935  25.915  35.986  1.00  0.00     0.198 A 
ATOM     85  F   UNL A   1      43.751  25.673  35.148  1.00  0.00    -0.203 F 
ATOM     86  F   UNL A   1      48.388  28.530  35.473  1.00  0.00    -0.200 F 
ATOM     87  C   UNL A   1      47.118  26.634  36.072  1.00  0.00     0.200 A 
ATOM     88  F   UNL A   1      45.815  24.745  36.630  1.00  0.00    -0.200 F 
ATOM     89  F   UNL A   1      48.147  26.150  36.782  1.00  0.00    -0.200 F 
ENDBRANCH  56  79
ENDBRANCH  30  31
ENDBRANCH  22  25
ENDBRANCH  20  21
ENDBRANCH  19  20
ENDBRANCH  18  19
ENDBRANCH   3  18
TORSDOF 15
ENDMDL
