MODEL 1
REMARK VINA RESULT:     -12.5      0.000      0.000
REMARK SMILES O=C(C[C@H]1CN(S(=O)(=O)c2cc(F)cc(F)c2)CCO1)NCCCNC(=O)c1ccc(-c2c3nc(c(-c4c(F)c(F)c(F)c(F)c4F)c4ccc([nH]4)c(-c4c(F)c(F)c(F)c(F)c4F)c4nc(c(-c5c(F)c(F)c(F)c(F)c5F)c5ccc2[nH]5)C=C4)C=C3)cc1
REMARK SMILES IDX 22 1 21 2 1 3 2 4 3 6 4 7 5 8 20 9 6 10 19 11 18 12 7 13
REMARK SMILES IDX 8 14 9 15 10 16 11 17 17 18 12 19 15 20 13 21 14 22 16 23
REMARK SMILES IDX 23 24 24 25 25 26 26 27 27 29 28 30 29 31 90 32 30 33 89 34
REMARK SMILES IDX 31 35 32 36 33 37 83 38 34 39 88 40 82 41 84 42 35 43 87 44
REMARK SMILES IDX 81 45 80 46 36 48 68 49 48 50 67 51 49 52 52 53 66 54 85 55
REMARK SMILES IDX 50 56 51 57 65 59 86 60 53 61 37 62 38 63 46 64 39 65 40 66
REMARK SMILES IDX 44 67 47 68 41 69 42 70 45 71 43 72 69 73 70 74 78 75 71 76
REMARK SMILES IDX 72 77 76 78 79 79 73 80 74 81 77 82 75 83 54 84 55 85 63 86
REMARK SMILES IDX 56 87 57 88 61 89 64 90 58 91 59 92 62 93 60 94
REMARK H PARENT 21 5 25 28 84 47 52 58
REMARK Flexibility Score: inf
ROOT
ATOM      1  C   UNL A   1      34.067  28.091  23.741  1.00  0.00     0.117 C 
ENDROOT
BRANCH   1   2
ATOM      2  N   UNL A   1      33.595  26.715  23.686  1.00  0.00    -0.356 N 
ATOM      3  O   UNL A   1      33.725  26.194  21.456  1.00  0.00    -0.275 OA
ATOM      4  C   UNL A   1      33.595  25.826  22.617  1.00  0.00     0.222 C 
ATOM      5  H   UNL A   1      33.222  26.364  24.525  1.00  0.00     0.163 HD
BRANCH   4   6
ATOM      6  C   UNL A   1      33.384  24.319  22.978  1.00  0.00     0.133 C 
BRANCH   6   7
ATOM      7  C   UNL A   1      31.931  23.928  23.294  1.00  0.00     0.142 C 
ATOM      8  C   UNL A   1      31.837  22.541  23.856  1.00  0.00     0.135 C 
ATOM      9  O   UNL A   1      31.216  24.854  24.136  1.00  0.00    -0.375 OA
ATOM     10  N   UNL A   1      32.285  22.479  25.343  1.00  0.00    -0.193 NA
ATOM     11  C   UNL A   1      30.711  24.430  25.433  1.00  0.00     0.177 C 
ATOM     12  C   UNL A   1      30.992  22.992  25.955  1.00  0.00     0.131 C 
BRANCH  10  13
ATOM     13  S   UNL A   1      33.596  23.287  26.306  1.00  0.00     0.243 S 
ATOM     14  O   UNL A   1      33.472  24.721  26.159  1.00  0.00    -0.207 OA
ATOM     15  O   UNL A   1      33.436  22.694  27.618  1.00  0.00    -0.207 OA
BRANCH  13  16
ATOM     16  C   UNL A   1      35.316  22.893  25.875  1.00  0.00     0.088 A 
ATOM     17  C   UNL A   1      36.371  23.787  26.128  1.00  0.00     0.061 A 
ATOM     18  C   UNL A   1      35.660  21.581  25.517  1.00  0.00     0.061 A 
ATOM     19  C   UNL A   1      37.690  23.446  25.802  1.00  0.00     0.127 A 
ATOM     20  C   UNL A   1      36.997  21.247  25.249  1.00  0.00     0.127 A 
ATOM     21  F   UNL A   1      38.662  24.359  25.938  1.00  0.00    -0.207 F 
ATOM     22  C   UNL A   1      38.014  22.183  25.342  1.00  0.00     0.078 A 
ATOM     23  F   UNL A   1      37.299  19.998  24.870  1.00  0.00    -0.207 F 
ENDBRANCH  13  16
ENDBRANCH  10  13
ENDBRANCH   6   7
ENDBRANCH   4   6
ENDBRANCH   1   2
BRANCH   1  24
ATOM     24  C   UNL A   1      32.976  29.137  24.150  1.00  0.00     0.042 C 
BRANCH  24  25
ATOM     25  C   UNL A   1      32.367  29.215  25.583  1.00  0.00     0.118 C 
BRANCH  25  26
ATOM     26  N   UNL A   1      32.103  30.565  26.047  1.00  0.00    -0.352 N 
ATOM     27  C   UNL A   1      32.795  31.432  26.862  1.00  0.00     0.251 C 
ATOM     28  H   UNL A   1      31.256  30.935  25.709  1.00  0.00     0.163 HD
ATOM     29  O   UNL A   1      32.248  32.509  27.116  1.00  0.00    -0.269 OA
BRANCH  27  30
ATOM     30  C   UNL A   1      34.132  31.185  27.489  1.00  0.00     0.039 A 
ATOM     31  C   UNL A   1      34.386  29.877  27.937  1.00  0.00     0.014 A 
ATOM     32  C   UNL A   1      35.033  32.187  27.863  1.00  0.00     0.014 A 
ATOM     33  C   UNL A   1      35.515  29.568  28.719  1.00  0.00     0.010 A 
ATOM     34  C   UNL A   1      36.181  31.871  28.644  1.00  0.00     0.010 A 
ATOM     35  C   UNL A   1      36.442  30.557  29.083  1.00  0.00    -0.014 A 
BRANCH  35  36
ATOM     36  C   UNL A   1      37.685  30.179  29.845  1.00  0.00     0.031 A 
ATOM     37  C   UNL A   1      37.975  30.680  31.243  1.00  0.00     0.074 A 
ATOM     38  C   UNL A   1      38.577  29.333  29.285  1.00  0.00     0.049 A 
ATOM     39  N   UNL A   1      39.005  30.424  32.021  1.00  0.00    -0.248 NA
ATOM     40  C   UNL A   1      36.987  31.581  31.847  1.00  0.00     0.031 C 
ATOM     41  C   UNL A   1      38.447  28.743  27.955  1.00  0.00     0.029 A 
ATOM     42  N   UNL A   1      39.765  28.818  29.760  1.00  0.00    -0.354 N 
ATOM     43  C   UNL A   1      38.791  31.131  33.201  1.00  0.00     0.074 A 
ATOM     44  C   UNL A   1      37.543  31.849  33.023  1.00  0.00     0.031 C 
ATOM     45  C   UNL A   1      39.497  27.941  27.723  1.00  0.00     0.029 A 
ATOM     46  C   UNL A   1      40.401  27.982  28.872  1.00  0.00     0.049 A 
ATOM     47  H   UNL A   1      40.124  29.029  30.651  1.00  0.00     0.167 HD
ATOM     48  C   UNL A   1      39.550  31.173  34.327  1.00  0.00     0.037 A 
ATOM     49  C   UNL A   1      41.577  27.326  28.950  1.00  0.00     0.037 A 
ATOM     50  C   UNL A   1      40.789  30.457  34.529  1.00  0.00     0.049 A 
ATOM     51  C   UNL A   1      42.425  27.425  30.192  1.00  0.00     0.074 A 
ATOM     52  C   UNL A   1      41.594  30.428  35.660  1.00  0.00     0.029 A 
ATOM     53  N   UNL A   1      41.408  29.648  33.589  1.00  0.00    -0.354 N 
ATOM     54  N   UNL A   1      42.188  28.073  31.303  1.00  0.00    -0.248 NA
ATOM     55  C   UNL A   1      43.702  26.693  30.189  1.00  0.00     0.031 C 
ATOM     56  C   UNL A   1      42.721  29.648  35.386  1.00  0.00     0.029 A 
ATOM     57  C   UNL A   1      42.593  29.139  34.106  1.00  0.00     0.049 A 
ATOM     58  H   UNL A   1      41.059  29.462  32.688  1.00  0.00     0.167 HD
ATOM     59  C   UNL A   1      43.266  27.808  32.140  1.00  0.00     0.074 A 
ATOM     60  C   UNL A   1      44.156  26.930  31.412  1.00  0.00     0.031 C 
ATOM     61  C   UNL A   1      43.486  28.256  33.399  1.00  0.00     0.037 A 
BRANCH  48  62
ATOM     62  C   UNL A   1      39.077  32.033  35.469  1.00  0.00     0.064 A 
ATOM     63  C   UNL A   1      39.468  33.379  35.559  1.00  0.00     0.173 A 
ATOM     64  C   UNL A   1      38.333  31.497  36.530  1.00  0.00     0.173 A 
ATOM     65  F   UNL A   1      40.201  33.937  34.585  1.00  0.00    -0.203 F 
ATOM     66  C   UNL A   1      39.139  34.151  36.672  1.00  0.00     0.198 A 
ATOM     67  C   UNL A   1      37.982  32.280  37.629  1.00  0.00     0.198 A 
ATOM     68  F   UNL A   1      37.939  30.215  36.499  1.00  0.00    -0.203 F 
ATOM     69  F   UNL A   1      39.557  35.422  36.753  1.00  0.00    -0.200 F 
ATOM     70  C   UNL A   1      38.393  33.603  37.704  1.00  0.00     0.200 A 
ATOM     71  F   UNL A   1      37.248  31.753  38.619  1.00  0.00    -0.200 F 
ATOM     72  F   UNL A   1      38.070  34.348  38.770  1.00  0.00    -0.200 F 
ENDBRANCH  48  62
BRANCH  49  73
ATOM     73  C   UNL A   1      42.024  26.489  27.805  1.00  0.00     0.064 A 
ATOM     74  C   UNL A   1      41.550  25.181  27.630  1.00  0.00     0.173 A 
ATOM     75  C   UNL A   1      42.948  26.978  26.870  1.00  0.00     0.173 A 
ATOM     76  F   UNL A   1      40.662  24.667  28.494  1.00  0.00    -0.203 F 
ATOM     77  C   UNL A   1      42.005  24.384  26.581  1.00  0.00     0.198 A 
ATOM     78  C   UNL A   1      43.379  26.191  25.805  1.00  0.00     0.198 A 
ATOM     79  F   UNL A   1      43.406  28.235  26.977  1.00  0.00    -0.203 F 
ATOM     80  F   UNL A   1      41.563  23.124  26.460  1.00  0.00    -0.200 F 
ATOM     81  C   UNL A   1      42.915  24.891  25.667  1.00  0.00     0.200 A 
ATOM     82  F   UNL A   1      44.237  26.694  24.907  1.00  0.00    -0.200 F 
ATOM     83  F   UNL A   1      43.343  24.129  24.651  1.00  0.00    -0.200 F 
ENDBRANCH  49  73
BRANCH  61  84
ATOM     84  C   UNL A   1      44.725  27.787  34.109  1.00  0.00     0.064 A 
ATOM     85  C   UNL A   1      45.921  28.517  34.011  1.00  0.00     0.173 A 
ATOM     86  C   UNL A   1      44.752  26.583  34.830  1.00  0.00     0.173 A 
ATOM     87  F   UNL A   1      45.954  29.672  33.331  1.00  0.00    -0.203 F 
ATOM     88  C   UNL A   1      47.097  28.053  34.597  1.00  0.00     0.198 A 
ATOM     89  C   UNL A   1      45.925  26.136  35.437  1.00  0.00     0.198 A 
ATOM     90  F   UNL A   1      43.636  25.853  34.966  1.00  0.00    -0.203 F 
ATOM     91  F   UNL A   1      48.232  28.754  34.464  1.00  0.00    -0.200 F 
ATOM     92  C   UNL A   1      47.097  26.866  35.312  1.00  0.00     0.200 A 
ATOM     93  F   UNL A   1      45.918  25.000  36.148  1.00  0.00    -0.200 F 
ATOM     94  F   UNL A   1      48.228  26.426  35.884  1.00  0.00    -0.200 F 
ENDBRANCH  61  84
ENDBRANCH  35  36
ENDBRANCH  27  30
ENDBRANCH  25  26
ENDBRANCH  24  25
ENDBRANCH   1  24
TORSDOF 13
ENDMDL
MODEL 2
REMARK VINA RESULT:     -12.3      0.319      7.320
REMARK SMILES O=C(C[C@H]1CN(S(=O)(=O)c2cc(F)cc(F)c2)CCO1)NCCCNC(=O)c1ccc(-c2c3nc(c(-c4c(F)c(F)c(F)c(F)c4F)c4ccc([nH]4)c(-c4c(F)c(F)c(F)c(F)c4F)c4nc(c(-c5c(F)c(F)c(F)c(F)c5F)c5ccc2[nH]5)C=C4)C=C3)cc1
REMARK SMILES IDX 22 1 21 2 1 3 2 4 3 6 4 7 5 8 20 9 6 10 19 11 18 12 7 13
REMARK SMILES IDX 8 14 9 15 10 16 11 17 17 18 12 19 15 20 13 21 14 22 16 23
REMARK SMILES IDX 23 24 24 25 25 26 26 27 27 29 28 30 29 31 90 32 30 33 89 34
REMARK SMILES IDX 31 35 32 36 33 37 83 38 34 39 88 40 82 41 84 42 35 43 87 44
REMARK SMILES IDX 81 45 80 46 36 48 68 49 48 50 67 51 49 52 52 53 66 54 85 55
REMARK SMILES IDX 50 56 51 57 65 59 86 60 53 61 37 62 38 63 46 64 39 65 40 66
REMARK SMILES IDX 44 67 47 68 41 69 42 70 45 71 43 72 69 73 70 74 78 75 71 76
REMARK SMILES IDX 72 77 76 78 79 79 73 80 74 81 77 82 75 83 54 84 55 85 63 86
REMARK SMILES IDX 56 87 57 88 61 89 64 90 58 91 59 92 62 93 60 94
REMARK H PARENT 21 5 25 28 84 47 52 58
REMARK Flexibility Score: inf
ROOT
ATOM      1  C   UNL A   1      34.056  28.044  23.749  1.00  0.00     0.117 C 
ENDROOT
BRANCH   1   2
ATOM      2  N   UNL A   1      33.479  26.709  23.693  1.00  0.00    -0.356 N 
ATOM      3  O   UNL A   1      33.781  26.087  21.507  1.00  0.00    -0.275 OA
ATOM      4  C   UNL A   1      33.509  25.778  22.661  1.00  0.00     0.222 C 
ATOM      5  H   UNL A   1      32.998  26.423  24.503  1.00  0.00     0.163 HD
BRANCH   4   6
ATOM      6  C   UNL A   1      33.140  24.310  23.049  1.00  0.00     0.133 C 
BRANCH   6   7
ATOM      7  C   UNL A   1      31.667  24.095  23.439  1.00  0.00     0.142 C 
ATOM      8  C   UNL A   1      31.447  22.750  24.064  1.00  0.00     0.135 C 
ATOM      9  O   UNL A   1      31.096  25.128  24.266  1.00  0.00    -0.375 OA
ATOM     10  N   UNL A   1      31.950  22.697  25.533  1.00  0.00    -0.193 NA
ATOM     11  C   UNL A   1      30.605  24.813  25.600  1.00  0.00     0.177 C 
ATOM     12  C   UNL A   1      30.749  23.375  26.172  1.00  0.00     0.131 C 
BRANCH  10  13
ATOM     13  S   UNL A   1      33.382  23.392  26.408  1.00  0.00     0.243 S 
ATOM     14  O   UNL A   1      33.390  24.828  26.233  1.00  0.00    -0.207 OA
ATOM     15  O   UNL A   1      33.236  22.843  27.741  1.00  0.00    -0.207 OA
BRANCH  13  16
ATOM     16  C   UNL A   1      35.031  22.823  25.899  1.00  0.00     0.088 A 
ATOM     17  C   UNL A   1      36.184  23.600  26.108  1.00  0.00     0.061 A 
ATOM     18  C   UNL A   1      35.219  21.485  25.522  1.00  0.00     0.061 A 
ATOM     19  C   UNL A   1      37.444  23.125  25.721  1.00  0.00     0.127 A 
ATOM     20  C   UNL A   1      36.501  21.015  25.194  1.00  0.00     0.127 A 
ATOM     21  F   UNL A   1      38.511  23.931  25.817  1.00  0.00    -0.207 F 
ATOM     22  C   UNL A   1      37.613  21.839  25.244  1.00  0.00     0.078 A 
ATOM     23  F   UNL A   1      36.652  19.744  24.799  1.00  0.00    -0.207 F 
ENDBRANCH  13  16
ENDBRANCH  10  13
ENDBRANCH   6   7
ENDBRANCH   4   6
ENDBRANCH   1   2
BRANCH   1  24
ATOM     24  C   UNL A   1      33.044  29.174  24.137  1.00  0.00     0.042 C 
BRANCH  24  25
ATOM     25  C   UNL A   1      32.255  29.185  25.482  1.00  0.00     0.118 C 
BRANCH  25  26
ATOM     26  N   UNL A   1      31.993  30.511  26.010  1.00  0.00    -0.352 N 
ATOM     27  C   UNL A   1      32.692  31.342  26.857  1.00  0.00     0.251 C 
ATOM     28  H   UNL A   1      31.142  30.894  25.700  1.00  0.00     0.163 HD
ATOM     29  O   UNL A   1      32.147  32.405  27.166  1.00  0.00    -0.269 OA
BRANCH  27  30
ATOM     30  C   UNL A   1      34.037  31.070  27.457  1.00  0.00     0.039 A 
ATOM     31  C   UNL A   1      34.242  29.783  27.985  1.00  0.00     0.014 A 
ATOM     32  C   UNL A   1      34.997  32.047  27.735  1.00  0.00     0.014 A 
ATOM     33  C   UNL A   1      35.382  29.470  28.750  1.00  0.00     0.010 A 
ATOM     34  C   UNL A   1      36.155  31.726  28.499  1.00  0.00     0.010 A 
ATOM     35  C   UNL A   1      36.367  30.433  29.018  1.00  0.00    -0.014 A 
BRANCH  35  36
ATOM     36  C   UNL A   1      37.616  30.044  29.765  1.00  0.00     0.031 A 
ATOM     37  C   UNL A   1      38.660  29.111  29.191  1.00  0.00     0.074 A 
ATOM     38  C   UNL A   1      37.848  30.565  30.990  1.00  0.00     0.049 A 
ATOM     39  N   UNL A   1      39.791  28.700  29.723  1.00  0.00    -0.248 NA
ATOM     40  C   UNL A   1      38.405  28.569  27.851  1.00  0.00     0.031 C 
ATOM     41  C   UNL A   1      36.957  31.492  31.684  1.00  0.00     0.029 A 
ATOM     42  N   UNL A   1      38.899  30.397  31.866  1.00  0.00    -0.354 N 
ATOM     43  C   UNL A   1      40.380  27.853  28.788  1.00  0.00     0.074 A 
ATOM     44  C   UNL A   1      39.464  27.789  27.665  1.00  0.00     0.031 C 
ATOM     45  C   UNL A   1      37.499  31.822  32.867  1.00  0.00     0.029 A 
ATOM     46  C   UNL A   1      38.762  31.103  33.039  1.00  0.00     0.049 A 
ATOM     47  H   UNL A   1      39.675  29.825  31.672  1.00  0.00     0.167 HD
ATOM     48  C   UNL A   1      41.570  27.200  28.851  1.00  0.00     0.037 A 
ATOM     49  C   UNL A   1      39.542  31.170  34.137  1.00  0.00     0.037 A 
ATOM     50  C   UNL A   1      42.501  27.259  29.954  1.00  0.00     0.049 A 
ATOM     51  C   UNL A   1      40.835  30.399  34.202  1.00  0.00     0.074 A 
ATOM     52  C   UNL A   1      43.742  26.647  30.069  1.00  0.00     0.029 A 
ATOM     53  N   UNL A   1      42.303  27.963  31.132  1.00  0.00    -0.354 N 
ATOM     54  N   UNL A   1      41.384  29.631  33.296  1.00  0.00    -0.248 NA
ATOM     55  C   UNL A   1      41.618  30.511  35.443  1.00  0.00     0.031 C 
ATOM     56  C   UNL A   1      44.267  26.937  31.332  1.00  0.00     0.029 A 
ATOM     57  C   UNL A   1      43.384  27.779  31.984  1.00  0.00     0.049 A 
ATOM     58  H   UNL A   1      41.512  28.512  31.334  1.00  0.00     0.167 HD
ATOM     59  C   UNL A   1      42.585  29.193  33.842  1.00  0.00     0.074 A 
ATOM     60  C   UNL A   1      42.692  29.788  35.156  1.00  0.00     0.031 C 
ATOM     61  C   UNL A   1      43.511  28.372  33.291  1.00  0.00     0.037 A 
BRANCH  48  62
ATOM     62  C   UNL A   1      41.967  26.337  27.682  1.00  0.00     0.064 A 
ATOM     63  C   UNL A   1      41.468  25.029  27.558  1.00  0.00     0.173 A 
ATOM     64  C   UNL A   1      42.923  26.762  26.749  1.00  0.00     0.173 A 
ATOM     65  F   UNL A   1      40.569  24.562  28.436  1.00  0.00    -0.203 F 
ATOM     66  C   UNL A   1      41.922  24.179  26.551  1.00  0.00     0.198 A 
ATOM     67  C   UNL A   1      43.354  25.917  25.726  1.00  0.00     0.198 A 
ATOM     68  F   UNL A   1      43.437  27.998  26.825  1.00  0.00    -0.203 F 
ATOM     69  F   UNL A   1      41.460  22.922  26.478  1.00  0.00    -0.200 F 
ATOM     70  C   UNL A   1      42.860  24.625  25.633  1.00  0.00     0.200 A 
ATOM     71  F   UNL A   1      44.250  26.355  24.832  1.00  0.00    -0.200 F 
ATOM     72  F   UNL A   1      43.290  23.809  24.661  1.00  0.00    -0.200 F 
ENDBRANCH  48  62
BRANCH  49  73
ATOM     73  C   UNL A   1      39.122  32.024  35.280  1.00  0.00     0.064 A 
ATOM     74  C   UNL A   1      39.441  33.390  35.324  1.00  0.00     0.173 A 
ATOM     75  C   UNL A   1      38.408  31.487  36.359  1.00  0.00     0.173 A 
ATOM     76  F   UNL A   1      40.120  33.953  34.314  1.00  0.00    -0.203 F 
ATOM     77  C   UNL A   1      39.086  34.177  36.417  1.00  0.00     0.198 A 
ATOM     78  C   UNL A   1      38.027  32.282  37.438  1.00  0.00     0.198 A 
ATOM     79  F   UNL A   1      38.052  30.193  36.348  1.00  0.00    -0.203 F 
ATOM     80  F   UNL A   1      39.436  35.471  36.450  1.00  0.00    -0.200 F 
ATOM     81  C   UNL A   1      38.375  33.624  37.471  1.00  0.00     0.200 A 
ATOM     82  F   UNL A   1      37.315  31.750  38.442  1.00  0.00    -0.200 F 
ATOM     83  F   UNL A   1      38.022  34.385  38.516  1.00  0.00    -0.200 F 
ENDBRANCH  49  73
BRANCH  61  84
ATOM     84  C   UNL A   1      44.755  28.079  34.083  1.00  0.00     0.064 A 
ATOM     85  C   UNL A   1      45.893  28.892  33.947  1.00  0.00     0.173 A 
ATOM     86  C   UNL A   1      44.850  26.959  34.924  1.00  0.00     0.173 A 
ATOM     87  F   UNL A   1      45.860  29.972  33.153  1.00  0.00    -0.203 F 
ATOM     88  C   UNL A   1      47.078  28.587  34.612  1.00  0.00     0.198 A 
ATOM     89  C   UNL A   1      46.030  26.673  35.609  1.00  0.00     0.198 A 
ATOM     90  F   UNL A   1      43.790  26.157  35.100  1.00  0.00    -0.203 F 
ATOM     91  F   UNL A   1      48.159  29.362  34.441  1.00  0.00    -0.200 F 
ATOM     92  C   UNL A   1      47.145  27.481  35.445  1.00  0.00     0.200 A 
ATOM     93  F   UNL A   1      46.085  25.617  36.432  1.00  0.00    -0.200 F 
ATOM     94  F   UNL A   1      48.284  27.195  36.092  1.00  0.00    -0.200 F 
ENDBRANCH  61  84
ENDBRANCH  35  36
ENDBRANCH  27  30
ENDBRANCH  25  26
ENDBRANCH  24  25
ENDBRANCH   1  24
TORSDOF 13
ENDMDL
MODEL 3
REMARK VINA RESULT:     -12.2      2.770      4.093
REMARK SMILES O=C(C[C@H]1CN(S(=O)(=O)c2cc(F)cc(F)c2)CCO1)NCCCNC(=O)c1ccc(-c2c3nc(c(-c4c(F)c(F)c(F)c(F)c4F)c4ccc([nH]4)c(-c4c(F)c(F)c(F)c(F)c4F)c4nc(c(-c5c(F)c(F)c(F)c(F)c5F)c5ccc2[nH]5)C=C4)C=C3)cc1
REMARK SMILES IDX 22 1 21 2 1 3 2 4 3 6 4 7 5 8 20 9 6 10 19 11 18 12 7 13
REMARK SMILES IDX 8 14 9 15 10 16 11 17 17 18 12 19 15 20 13 21 14 22 16 23
REMARK SMILES IDX 23 24 24 25 25 26 26 27 27 29 28 30 29 31 90 32 30 33 89 34
REMARK SMILES IDX 31 35 32 36 33 37 83 38 34 39 88 40 82 41 84 42 35 43 87 44
REMARK SMILES IDX 81 45 80 46 36 48 68 49 48 50 67 51 49 52 52 53 66 54 85 55
REMARK SMILES IDX 50 56 51 57 65 59 86 60 53 61 37 62 38 63 46 64 39 65 40 66
REMARK SMILES IDX 44 67 47 68 41 69 42 70 45 71 43 72 69 73 70 74 78 75 71 76
REMARK SMILES IDX 72 77 76 78 79 79 73 80 74 81 77 82 75 83 54 84 55 85 63 86
REMARK SMILES IDX 56 87 57 88 61 89 64 90 58 91 59 92 62 93 60 94
REMARK H PARENT 21 5 25 28 84 47 52 58
REMARK Flexibility Score: inf
ROOT
ATOM      1  C   UNL A   1      33.464  27.750  24.392  1.00  0.00     0.117 C 
ENDROOT
BRANCH   1   2
ATOM      2  N   UNL A   1      33.137  26.361  24.104  1.00  0.00    -0.356 N 
ATOM      3  O   UNL A   1      33.978  26.041  21.994  1.00  0.00    -0.275 OA
ATOM      4  C   UNL A   1      33.530  25.568  23.032  1.00  0.00     0.222 C 
ATOM      5  H   UNL A   1      32.554  25.920  24.763  1.00  0.00     0.163 HD
BRANCH   4   6
ATOM      6  C   UNL A   1      33.335  24.027  23.210  1.00  0.00     0.133 C 
BRANCH   6   7
ATOM      7  C   UNL A   1      31.889  23.587  23.490  1.00  0.00     0.142 C 
ATOM      8  C   UNL A   1      31.827  22.189  24.029  1.00  0.00     0.135 C 
ATOM      9  O   UNL A   1      31.129  24.478  24.331  1.00  0.00    -0.375 OA
ATOM     10  N   UNL A   1      32.245  22.118  25.524  1.00  0.00    -0.193 NA
ATOM     11  C   UNL A   1      30.611  24.018  25.611  1.00  0.00     0.177 C 
ATOM     12  C   UNL A   1      30.925  22.581  26.116  1.00  0.00     0.131 C 
BRANCH  10  13
ATOM     13  S   UNL A   1      33.511  22.951  26.526  1.00  0.00     0.243 S 
ATOM     14  O   UNL A   1      33.348  24.382  26.396  1.00  0.00    -0.207 OA
ATOM     15  O   UNL A   1      33.340  22.335  27.827  1.00  0.00    -0.207 OA
BRANCH  13  16
ATOM     16  C   UNL A   1      35.251  22.613  26.128  1.00  0.00     0.088 A 
ATOM     17  C   UNL A   1      35.664  21.388  25.574  1.00  0.00     0.061 A 
ATOM     18  C   UNL A   1      36.180  23.664  26.124  1.00  0.00     0.061 A 
ATOM     19  C   UNL A   1      37.010  21.164  25.260  1.00  0.00     0.127 A 
ATOM     20  C   UNL A   1      37.513  23.429  25.751  1.00  0.00     0.127 A 
ATOM     21  F   UNL A   1      37.400  19.949  24.849  1.00  0.00    -0.207 F 
ATOM     22  C   UNL A   1      37.950  22.173  25.362  1.00  0.00     0.078 A 
ATOM     23  F   UNL A   1      38.394  24.438  25.791  1.00  0.00    -0.207 F 
ENDBRANCH  13  16
ENDBRANCH  10  13
ENDBRANCH   6   7
ENDBRANCH   4   6
ENDBRANCH   1   2
BRANCH   1  24
ATOM     24  C   UNL A   1      34.120  27.986  25.795  1.00  0.00     0.042 C 
BRANCH  24  25
ATOM     25  C   UNL A   1      33.292  28.288  27.081  1.00  0.00     0.118 C 
BRANCH  25  26
ATOM     26  N   UNL A   1      33.407  29.654  27.559  1.00  0.00    -0.352 N 
ATOM     27  C   UNL A   1      34.455  30.389  28.065  1.00  0.00     0.251 C 
ATOM     28  H   UNL A   1      32.562  30.157  27.510  1.00  0.00     0.163 HD
ATOM     29  O   UNL A   1      34.195  31.533  28.448  1.00  0.00    -0.269 OA
BRANCH  27  30
ATOM     30  C   UNL A   1      35.871  29.927  28.218  1.00  0.00     0.039 A 
ATOM     31  C   UNL A   1      36.272  29.542  29.509  1.00  0.00     0.014 A 
ATOM     32  C   UNL A   1      36.864  30.069  27.243  1.00  0.00     0.014 A 
ATOM     33  C   UNL A   1      37.621  29.283  29.819  1.00  0.00     0.010 A 
ATOM     34  C   UNL A   1      38.226  29.797  27.556  1.00  0.00     0.010 A 
ATOM     35  C   UNL A   1      38.627  29.398  28.847  1.00  0.00    -0.014 A 
BRANCH  35  36
ATOM     36  C   UNL A   1      40.047  29.030  29.187  1.00  0.00     0.031 A 
ATOM     37  C   UNL A   1      40.946  29.914  30.026  1.00  0.00     0.074 A 
ATOM     38  C   UNL A   1      40.550  27.851  28.761  1.00  0.00     0.049 A 
ATOM     39  N   UNL A   1      42.190  29.713  30.405  1.00  0.00    -0.248 NA
ATOM     40  C   UNL A   1      40.379  31.182  30.499  1.00  0.00     0.031 C 
ATOM     41  C   UNL A   1      39.818  26.873  27.959  1.00  0.00     0.029 A 
ATOM     42  N   UNL A   1      41.787  27.270  28.942  1.00  0.00    -0.354 N 
ATOM     43  C   UNL A   1      42.555  30.826  31.157  1.00  0.00     0.074 A 
ATOM     44  C   UNL A   1      41.405  31.711  31.157  1.00  0.00     0.031 C 
ATOM     45  C   UNL A   1      40.608  25.812  27.728  1.00  0.00     0.029 A 
ATOM     46  C   UNL A   1      41.919  26.044  28.333  1.00  0.00     0.049 A 
ATOM     47  H   UNL A   1      42.510  27.693  29.460  1.00  0.00     0.167 HD
ATOM     48  C   UNL A   1      43.726  31.084  31.796  1.00  0.00     0.037 A 
ATOM     49  C   UNL A   1      42.965  25.196  28.251  1.00  0.00     0.037 A 
ATOM     50  C   UNL A   1      44.878  30.212  31.818  1.00  0.00     0.049 A 
ATOM     51  C   UNL A   1      44.270  25.526  28.928  1.00  0.00     0.074 A 
ATOM     52  C   UNL A   1      46.087  30.398  32.474  1.00  0.00     0.029 A 
ATOM     53  N   UNL A   1      44.974  28.996  31.160  1.00  0.00    -0.354 N 
ATOM     54  N   UNL A   1      44.580  26.567  29.657  1.00  0.00    -0.248 NA
ATOM     55  C   UNL A   1      45.367  24.557  28.774  1.00  0.00     0.031 C 
ATOM     56  C   UNL A   1      46.929  29.324  32.171  1.00  0.00     0.029 A 
ATOM     57  C   UNL A   1      46.227  28.436  31.375  1.00  0.00     0.049 A 
ATOM     58  H   UNL A   1      44.259  28.589  30.621  1.00  0.00     0.167 HD
ATOM     59  C   UNL A   1      45.892  26.368  30.071  1.00  0.00     0.074 A 
ATOM     60  C   UNL A   1      46.319  25.100  29.520  1.00  0.00     0.031 C 
ATOM     61  C   UNL A   1      46.664  27.171  30.842  1.00  0.00     0.037 A 
BRANCH  48  62
ATOM     62  C   UNL A   1      43.852  32.384  32.546  1.00  0.00     0.064 A 
ATOM     63  C   UNL A   1      43.420  32.483  33.880  1.00  0.00     0.173 A 
ATOM     64  C   UNL A   1      44.292  33.555  31.914  1.00  0.00     0.173 A 
ATOM     65  F   UNL A   1      42.967  31.399  34.526  1.00  0.00    -0.203 F 
ATOM     66  C   UNL A   1      43.417  33.707  34.546  1.00  0.00     0.198 A 
ATOM     67  C   UNL A   1      44.313  34.773  32.593  1.00  0.00     0.198 A 
ATOM     68  F   UNL A   1      44.709  33.519  30.640  1.00  0.00    -0.203 F 
ATOM     69  F   UNL A   1      42.963  33.783  35.805  1.00  0.00    -0.200 F 
ATOM     70  C   UNL A   1      43.868  34.850  33.903  1.00  0.00     0.200 A 
ATOM     71  F   UNL A   1      44.763  35.874  31.975  1.00  0.00    -0.200 F 
ATOM     72  F   UNL A   1      43.871  36.026  34.547  1.00  0.00    -0.200 F 
ENDBRANCH  48  62
BRANCH  49  73
ATOM     73  C   UNL A   1      42.815  23.922  27.497  1.00  0.00     0.064 A 
ATOM     74  C   UNL A   1      43.187  23.826  26.148  1.00  0.00     0.173 A 
ATOM     75  C   UNL A   1      42.281  22.780  28.109  1.00  0.00     0.173 A 
ATOM     76  F   UNL A   1      43.707  24.890  25.518  1.00  0.00    -0.203 F 
ATOM     77  C   UNL A   1      43.003  22.645  25.433  1.00  0.00     0.198 A 
ATOM     78  C   UNL A   1      42.125  21.590  27.401  1.00  0.00     0.198 A 
ATOM     79  F   UNL A   1      41.940  22.813  29.406  1.00  0.00    -0.203 F 
ATOM     80  F   UNL A   1      43.332  22.592  24.135  1.00  0.00    -0.200 F 
ATOM     81  C   UNL A   1      42.477  21.527  26.061  1.00  0.00     0.200 A 
ATOM     82  F   UNL A   1      41.643  20.503  28.019  1.00  0.00    -0.200 F 
ATOM     83  F   UNL A   1      42.311  20.386  25.376  1.00  0.00    -0.200 F 
ENDBRANCH  49  73
BRANCH  61  84
ATOM     84  C   UNL A   1      48.052  26.703  31.181  1.00  0.00     0.064 A 
ATOM     85  C   UNL A   1      49.146  27.091  30.389  1.00  0.00     0.173 A 
ATOM     86  C   UNL A   1      48.296  25.819  32.243  1.00  0.00     0.173 A 
ATOM     87  F   UNL A   1      48.971  27.930  29.359  1.00  0.00    -0.203 F 
ATOM     88  C   UNL A   1      50.426  26.602  30.642  1.00  0.00     0.198 A 
ATOM     89  C   UNL A   1      49.583  25.353  32.508  1.00  0.00     0.198 A 
ATOM     90  F   UNL A   1      47.290  25.426  33.038  1.00  0.00    -0.203 F 
ATOM     91  F   UNL A   1      51.448  26.964  29.853  1.00  0.00    -0.200 F 
ATOM     92  C   UNL A   1      50.644  25.737  31.703  1.00  0.00     0.200 A 
ATOM     93  F   UNL A   1      49.796  24.536  33.549  1.00  0.00    -0.200 F 
ATOM     94  F   UNL A   1      51.878  25.274  31.950  1.00  0.00    -0.200 F 
ENDBRANCH  61  84
ENDBRANCH  35  36
ENDBRANCH  27  30
ENDBRANCH  25  26
ENDBRANCH  24  25
ENDBRANCH   1  24
TORSDOF 13
ENDMDL
