MODEL 1
REMARK VINA RESULT:     -11.1      0.000      0.000
REMARK SMILES CC(C)[C@@H](NC(=O)[C@H]1CC[C@@H](C(C)C)CC1)C(=O)NCCCNC(=O)c1ccc(-c2c3nc(c(-c4c(F)c(F)c(F)c(F)c4F)c4ccc([nH]4)c(-c4c(F)c(F)c(F)c(F)c4F)c4nc(c(-c5c(F)c(F)c(F)c(F)c5F)c5ccc2[nH]5)C=C4)C=C3)cc1
REMARK SMILES IDX 20 1 19 2 17 3 18 4 4 6 5 7 6 8 7 9 8 11 11 12 15 13 10 14
REMARK SMILES IDX 16 15 9 16 12 17 13 18 14 19 2 20 1 21 3 22 21 23 22 24
REMARK SMILES IDX 23 25 24 26 25 28 26 29 27 30 88 31 28 32 87 33 29 34 30 35
REMARK SMILES IDX 31 36 81 37 32 38 86 39 80 40 82 41 33 42 85 43 79 44 78 45
REMARK SMILES IDX 34 47 66 48 46 49 65 50 47 51 50 52 64 53 83 54 48 55 49 56
REMARK SMILES IDX 63 58 84 59 51 60 35 61 36 62 44 63 37 64 38 65 42 66 45 67
REMARK SMILES IDX 39 68 40 69 43 70 41 71 67 72 68 73 76 74 69 75 70 76 74 77
REMARK SMILES IDX 77 78 71 79 72 80 75 81 73 82 52 83 53 84 61 85 54 86 55 87
REMARK SMILES IDX 59 88 62 89 56 90 57 91 60 92 58 93
REMARK H PARENT 19 5 5 10 23 27 82 46 50 57
REMARK Flexibility Score: inf
ROOT
ATOM      1  C   UNL A   1      41.965  20.524  27.688  1.00  0.00     0.117 C 
ENDROOT
BRANCH   1   2
ATOM      2  N   UNL A   1      41.990  19.281  26.961  1.00  0.00    -0.354 N 
ATOM      3  C   UNL A   1      42.868  18.838  26.016  1.00  0.00     0.242 C 
ATOM      4  O   UNL A   1      42.662  17.693  25.603  1.00  0.00    -0.273 OA
ATOM      5  H   UNL A   1      41.263  18.655  27.180  1.00  0.00     0.163 HD
BRANCH   3   6
ATOM      6  C   UNL A   1      44.137  19.669  25.606  1.00  0.00     0.173 C 
BRANCH   6   7
ATOM      7  N   UNL A   1      43.762  20.831  24.793  1.00  0.00    -0.344 N 
ATOM      8  C   UNL A   1      43.965  22.168  24.876  1.00  0.00     0.223 C 
ATOM      9  O   UNL A   1      43.309  22.833  24.061  1.00  0.00    -0.275 OA
ATOM     10  H   UNL A   1      43.240  20.579  23.998  1.00  0.00     0.164 HD
BRANCH   8  11
ATOM     11  C   UNL A   1      44.871  22.926  25.876  1.00  0.00     0.078 C 
ATOM     12  C   UNL A   1      44.659  25.862  26.622  1.00  0.00    -0.009 C 
ATOM     13  C   UNL A   1      43.746  24.796  27.252  1.00  0.00     0.004 C 
ATOM     14  C   UNL A   1      45.294  25.395  25.303  1.00  0.00     0.004 C 
ATOM     15  C   UNL A   1      44.257  23.362  27.197  1.00  0.00     0.014 C 
ATOM     16  C   UNL A   1      45.842  23.974  25.327  1.00  0.00     0.014 C 
BRANCH  12  17
ATOM     17  C   UNL A   1      43.974  27.272  26.477  1.00  0.00    -0.014 C 
ATOM     18  C   UNL A   1      44.878  28.483  26.757  1.00  0.00     0.007 C 
ATOM     19  C   UNL A   1      43.291  27.476  25.118  1.00  0.00     0.007 C 
ENDBRANCH  12  17
ENDBRANCH   8  11
ENDBRANCH   6   7
BRANCH   6  20
ATOM     20  C   UNL A   1      45.139  18.729  24.864  1.00  0.00     0.015 C 
ATOM     21  C   UNL A   1      45.205  18.927  23.347  1.00  0.00     0.010 C 
ATOM     22  C   UNL A   1      46.562  18.864  25.435  1.00  0.00     0.010 C 
ENDBRANCH   6  20
ENDBRANCH   3   6
ENDBRANCH   1   2
BRANCH   1  23
ATOM     23  C   UNL A   1      40.671  21.285  27.505  1.00  0.00     0.042 C 
BRANCH  23  24
ATOM     24  C   UNL A   1      40.765  22.296  26.380  1.00  0.00     0.118 C 
BRANCH  24  25
ATOM     25  N   UNL A   1      39.461  22.677  25.850  1.00  0.00    -0.352 N 
ATOM     26  C   UNL A   1      38.698  23.786  26.137  1.00  0.00     0.251 C 
ATOM     27  H   UNL A   1      39.072  22.055  25.195  1.00  0.00     0.163 HD
ATOM     28  O   UNL A   1      37.560  23.886  25.702  1.00  0.00    -0.269 OA
BRANCH  26  29
ATOM     29  C   UNL A   1      39.257  24.835  27.016  1.00  0.00     0.039 A 
ATOM     30  C   UNL A   1      40.007  25.866  26.447  1.00  0.00     0.014 A 
ATOM     31  C   UNL A   1      38.991  24.830  28.387  1.00  0.00     0.014 A 
ATOM     32  C   UNL A   1      40.426  26.929  27.247  1.00  0.00     0.010 A 
ATOM     33  C   UNL A   1      39.304  25.943  29.153  1.00  0.00     0.010 A 
ATOM     34  C   UNL A   1      40.040  26.998  28.597  1.00  0.00    -0.014 A 
BRANCH  34  35
ATOM     35  C   UNL A   1      40.419  28.154  29.447  1.00  0.00     0.031 A 
ATOM     36  C   UNL A   1      41.795  28.224  30.050  1.00  0.00     0.074 A 
ATOM     37  C   UNL A   1      39.507  29.106  29.719  1.00  0.00     0.049 A 
ATOM     38  N   UNL A   1      42.310  29.138  30.834  1.00  0.00    -0.248 NA
ATOM     39  C   UNL A   1      42.702  27.098  29.773  1.00  0.00     0.031 C 
ATOM     40  C   UNL A   1      38.114  29.104  29.266  1.00  0.00     0.029 A 
ATOM     41  N   UNL A   1      39.617  30.266  30.444  1.00  0.00    -0.354 N 
ATOM     42  C   UNL A   1      43.583  28.685  31.154  1.00  0.00     0.074 A 
ATOM     43  C   UNL A   1      43.738  27.384  30.546  1.00  0.00     0.031 C 
ATOM     44  C   UNL A   1      37.513  30.230  29.682  1.00  0.00     0.029 A 
ATOM     45  C   UNL A   1      38.469  31.020  30.452  1.00  0.00     0.049 A 
ATOM     46  H   UNL A   1      40.440  30.533  30.913  1.00  0.00     0.167 HD
ATOM     47  C   UNL A   1      44.551  29.314  31.862  1.00  0.00     0.037 A 
ATOM     48  C   UNL A   1      38.224  32.222  31.007  1.00  0.00     0.037 A 
ATOM     49  C   UNL A   1      44.408  30.627  32.427  1.00  0.00     0.049 A 
ATOM     50  C   UNL A   1      39.335  32.927  31.734  1.00  0.00     0.074 A 
ATOM     51  C   UNL A   1      45.347  31.386  33.105  1.00  0.00     0.029 A 
ATOM     52  N   UNL A   1      43.246  31.383  32.371  1.00  0.00    -0.354 N 
ATOM     53  N   UNL A   1      40.563  32.526  31.961  1.00  0.00    -0.248 NA
ATOM     54  C   UNL A   1      39.030  34.262  32.269  1.00  0.00     0.031 C 
ATOM     55  C   UNL A   1      44.741  32.589  33.486  1.00  0.00     0.029 A 
ATOM     56  C   UNL A   1      43.441  32.597  33.010  1.00  0.00     0.049 A 
ATOM     57  H   UNL A   1      42.406  31.099  31.942  1.00  0.00     0.167 HD
ATOM     58  C   UNL A   1      41.185  33.565  32.639  1.00  0.00     0.074 A 
ATOM     59  C   UNL A   1      40.204  34.624  32.766  1.00  0.00     0.031 C 
ATOM     60  C   UNL A   1      42.450  33.638  33.118  1.00  0.00     0.037 A 
BRANCH  47  61
ATOM     61  C   UNL A   1      45.854  28.590  32.040  1.00  0.00     0.064 A 
ATOM     62  C   UNL A   1      46.078  27.735  33.131  1.00  0.00     0.173 A 
ATOM     63  C   UNL A   1      46.889  28.740  31.104  1.00  0.00     0.173 A 
ATOM     64  F   UNL A   1      45.127  27.569  34.064  1.00  0.00    -0.203 F 
ATOM     65  C   UNL A   1      47.299  27.087  33.298  1.00  0.00     0.198 A 
ATOM     66  C   UNL A   1      48.097  28.066  31.257  1.00  0.00     0.198 A 
ATOM     67  F   UNL A   1      46.729  29.543  30.042  1.00  0.00    -0.203 F 
ATOM     68  F   UNL A   1      47.507  26.324  34.380  1.00  0.00    -0.200 F 
ATOM     69  C   UNL A   1      48.305  27.248  32.359  1.00  0.00     0.200 A 
ATOM     70  F   UNL A   1      49.066  28.212  30.342  1.00  0.00    -0.200 F 
ATOM     71  F   UNL A   1      49.478  26.620  32.518  1.00  0.00    -0.200 F 
ENDBRANCH  47  61
BRANCH  48  72
ATOM     72  C   UNL A   1      36.894  32.862  30.837  1.00  0.00     0.064 A 
ATOM     73  C   UNL A   1      36.585  33.575  29.670  1.00  0.00     0.173 A 
ATOM     74  C   UNL A   1      35.910  32.782  31.833  1.00  0.00     0.173 A 
ATOM     75  F   UNL A   1      37.501  33.695  28.697  1.00  0.00    -0.203 F 
ATOM     76  C   UNL A   1      35.351  34.203  29.514  1.00  0.00     0.198 A 
ATOM     77  C   UNL A   1      34.666  33.388  31.664  1.00  0.00     0.198 A 
ATOM     78  F   UNL A   1      36.154  32.105  32.965  1.00  0.00    -0.203 F 
ATOM     79  F   UNL A   1      35.100  34.917  28.408  1.00  0.00    -0.200 F 
ATOM     80  C   UNL A   1      34.391  34.105  30.509  1.00  0.00     0.200 A 
ATOM     81  F   UNL A   1      33.736  33.281  32.623  1.00  0.00    -0.200 F 
ATOM     82  F   UNL A   1      33.204  34.709  30.359  1.00  0.00    -0.200 F 
ENDBRANCH  48  72
BRANCH  60  83
ATOM     83  C   UNL A   1      42.850  34.917  33.793  1.00  0.00     0.064 A 
ATOM     84  C   UNL A   1      42.775  35.068  35.186  1.00  0.00     0.173 A 
ATOM     85  C   UNL A   1      43.324  36.000  33.037  1.00  0.00     0.173 A 
ATOM     86  F   UNL A   1      42.315  34.065  35.950  1.00  0.00    -0.203 F 
ATOM     87  C   UNL A   1      43.126  36.270  35.793  1.00  0.00     0.198 A 
ATOM     88  C   UNL A   1      43.703  37.189  33.652  1.00  0.00     0.198 A 
ATOM     89  F   UNL A   1      43.422  35.903  31.703  1.00  0.00    -0.203 F 
ATOM     90  F   UNL A   1      42.990  36.412  37.120  1.00  0.00    -0.200 F 
ATOM     91  C   UNL A   1      43.593  37.327  35.028  1.00  0.00     0.200 A 
ATOM     92  F   UNL A   1      44.167  38.205  32.912  1.00  0.00    -0.200 F 
ATOM     93  F   UNL A   1      43.928  38.484  35.615  1.00  0.00    -0.200 F 
ENDBRANCH  60  83
ENDBRANCH  34  35
ENDBRANCH  26  29
ENDBRANCH  24  25
ENDBRANCH  23  24
ENDBRANCH   1  23
TORSDOF 14
ENDMDL
MODEL 2
REMARK VINA RESULT:     -10.8      5.119     10.600
REMARK SMILES CC(C)[C@@H](NC(=O)[C@H]1CC[C@@H](C(C)C)CC1)C(=O)NCCCNC(=O)c1ccc(-c2c3nc(c(-c4c(F)c(F)c(F)c(F)c4F)c4ccc([nH]4)c(-c4c(F)c(F)c(F)c(F)c4F)c4nc(c(-c5c(F)c(F)c(F)c(F)c5F)c5ccc2[nH]5)C=C4)C=C3)cc1
REMARK SMILES IDX 20 1 19 2 17 3 18 4 4 6 5 7 6 8 7 9 8 11 11 12 15 13 10 14
REMARK SMILES IDX 16 15 9 16 12 17 13 18 14 19 2 20 1 21 3 22 21 23 22 24
REMARK SMILES IDX 23 25 24 26 25 28 26 29 27 30 88 31 28 32 87 33 29 34 30 35
REMARK SMILES IDX 31 36 81 37 32 38 86 39 80 40 82 41 33 42 85 43 79 44 78 45
REMARK SMILES IDX 34 47 66 48 46 49 65 50 47 51 50 52 64 53 83 54 48 55 49 56
REMARK SMILES IDX 63 58 84 59 51 60 35 61 36 62 44 63 37 64 38 65 42 66 45 67
REMARK SMILES IDX 39 68 40 69 43 70 41 71 67 72 68 73 76 74 69 75 70 76 74 77
REMARK SMILES IDX 77 78 71 79 72 80 75 81 73 82 52 83 53 84 61 85 54 86 55 87
REMARK SMILES IDX 59 88 62 89 56 90 57 91 60 92 58 93
REMARK H PARENT 19 5 5 10 23 27 82 46 50 57
REMARK Flexibility Score: inf
ROOT
ATOM      1  C   UNL A   1      31.200  30.448  25.298  1.00  0.00     0.117 C 
ENDROOT
BRANCH   1   2
ATOM      2  N   UNL A   1      30.318  30.353  24.163  1.00  0.00    -0.354 N 
ATOM      3  C   UNL A   1      29.989  29.272  23.400  1.00  0.00     0.242 C 
ATOM      4  O   UNL A   1      29.154  29.488  22.516  1.00  0.00    -0.273 OA
ATOM      5  H   UNL A   1      29.886  31.197  23.899  1.00  0.00     0.163 HD
BRANCH   3   6
ATOM      6  C   UNL A   1      30.516  27.830  23.730  1.00  0.00     0.173 C 
BRANCH   6   7
ATOM      7  N   UNL A   1      30.824  27.090  22.501  1.00  0.00    -0.344 N 
ATOM      8  C   UNL A   1      31.959  26.687  21.881  1.00  0.00     0.223 C 
ATOM      9  O   UNL A   1      31.781  26.235  20.740  1.00  0.00    -0.275 OA
ATOM     10  H   UNL A   1      30.013  26.823  22.012  1.00  0.00     0.164 HD
BRANCH   8  11
ATOM     11  C   UNL A   1      33.408  26.767  22.416  1.00  0.00     0.078 C 
ATOM     12  C   UNL A   1      34.291  28.035  25.030  1.00  0.00    -0.009 C 
ATOM     13  C   UNL A   1      33.695  26.617  24.975  1.00  0.00     0.004 C 
ATOM     14  C   UNL A   1      33.946  28.871  23.789  1.00  0.00     0.004 C 
ATOM     15  C   UNL A   1      33.765  25.916  23.624  1.00  0.00     0.014 C 
ATOM     16  C   UNL A   1      34.091  28.135  22.463  1.00  0.00     0.014 C 
BRANCH  12  17
ATOM     17  C   UNL A   1      33.965  28.803  26.365  1.00  0.00    -0.014 C 
ATOM     18  C   UNL A   1      32.890  28.161  27.256  1.00  0.00     0.007 C 
ATOM     19  C   UNL A   1      35.206  29.081  27.222  1.00  0.00     0.007 C 
ENDBRANCH  12  17
ENDBRANCH   8  11
ENDBRANCH   6   7
BRANCH   6  20
ATOM     20  C   UNL A   1      29.458  27.093  24.612  1.00  0.00     0.015 C 
ATOM     21  C   UNL A   1      28.229  26.586  23.854  1.00  0.00     0.010 C 
ATOM     22  C   UNL A   1      30.086  25.909  25.369  1.00  0.00     0.010 C 
ENDBRANCH   6  20
ENDBRANCH   3   6
ENDBRANCH   1   2
BRANCH   1  23
ATOM     23  C   UNL A   1      31.010  31.728  26.083  1.00  0.00     0.042 C 
BRANCH  23  24
ATOM     24  C   UNL A   1      32.245  32.088  26.883  1.00  0.00     0.118 C 
BRANCH  24  25
ATOM     25  N   UNL A   1      32.281  33.495  27.266  1.00  0.00    -0.352 N 
ATOM     26  C   UNL A   1      33.192  34.156  28.058  1.00  0.00     0.251 C 
ATOM     27  H   UNL A   1      31.551  34.051  26.908  1.00  0.00     0.163 HD
ATOM     28  O   UNL A   1      33.000  35.316  28.391  1.00  0.00    -0.269 OA
BRANCH  26  29
ATOM     29  C   UNL A   1      34.387  33.429  28.538  1.00  0.00     0.039 A 
ATOM     30  C   UNL A   1      35.649  33.982  28.319  1.00  0.00     0.014 A 
ATOM     31  C   UNL A   1      34.254  32.236  29.252  1.00  0.00     0.014 A 
ATOM     32  C   UNL A   1      36.771  33.373  28.882  1.00  0.00     0.010 A 
ATOM     33  C   UNL A   1      35.352  31.701  29.909  1.00  0.00     0.010 A 
ATOM     34  C   UNL A   1      36.626  32.252  29.717  1.00  0.00    -0.014 A 
BRANCH  34  35
ATOM     35  C   UNL A   1      37.800  31.631  30.379  1.00  0.00     0.031 A 
ATOM     36  C   UNL A   1      38.168  32.027  31.783  1.00  0.00     0.074 A 
ATOM     37  C   UNL A   1      38.564  30.757  29.696  1.00  0.00     0.049 A 
ATOM     38  N   UNL A   1      39.164  31.615  32.525  1.00  0.00    -0.248 NA
ATOM     39  C   UNL A   1      37.331  33.054  32.426  1.00  0.00     0.031 C 
ATOM     40  C   UNL A   1      38.362  30.361  28.301  1.00  0.00     0.029 A 
ATOM     41  N   UNL A   1      39.667  30.040  30.087  1.00  0.00    -0.354 N 
ATOM     42  C   UNL A   1      39.082  32.345  33.704  1.00  0.00     0.074 A 
ATOM     43  C   UNL A   1      37.989  33.277  33.552  1.00  0.00     0.031 C 
ATOM     44  C   UNL A   1      39.278  29.439  27.967  1.00  0.00     0.029 A 
ATOM     45  C   UNL A   1      40.147  29.198  29.115  1.00  0.00     0.049 A 
ATOM     46  H   UNL A   1      40.074  30.121  30.980  1.00  0.00     0.167 HD
ATOM     47  C   UNL A   1      39.829  32.225  34.827  1.00  0.00     0.037 A 
ATOM     48  C   UNL A   1      41.166  28.319  29.154  1.00  0.00     0.037 A 
ATOM     49  C   UNL A   1      40.886  31.265  34.989  1.00  0.00     0.049 A 
ATOM     50  C   UNL A   1      41.940  28.159  30.435  1.00  0.00     0.074 A 
ATOM     51  C   UNL A   1      41.662  31.012  36.107  1.00  0.00     0.029 A 
ATOM     52  N   UNL A   1      41.312  30.392  33.999  1.00  0.00    -0.354 N 
ATOM     53  N   UNL A   1      41.801  28.797  31.573  1.00  0.00    -0.248 NA
ATOM     54  C   UNL A   1      43.002  27.145  30.440  1.00  0.00     0.031 C 
ATOM     55  C   UNL A   1      42.579  30.005  35.782  1.00  0.00     0.029 A 
ATOM     56  C   UNL A   1      42.346  29.603  34.477  1.00  0.00     0.049 A 
ATOM     57  H   UNL A   1      40.937  30.341  33.090  1.00  0.00     0.167 HD
ATOM     58  C   UNL A   1      42.736  28.245  32.436  1.00  0.00     0.074 A 
ATOM     59  C   UNL A   1      43.421  27.204  31.696  1.00  0.00     0.031 C 
ATOM     60  C   UNL A   1      43.009  28.570  33.723  1.00  0.00     0.037 A 
BRANCH  47  61
ATOM     61  C   UNL A   1      39.505  33.142  35.971  1.00  0.00     0.064 A 
ATOM     62  C   UNL A   1      40.102  34.407  36.092  1.00  0.00     0.173 A 
ATOM     63  C   UNL A   1      38.577  32.760  36.952  1.00  0.00     0.173 A 
ATOM     64  F   UNL A   1      41.008  34.814  35.189  1.00  0.00    -0.203 F 
ATOM     65  C   UNL A   1      39.811  35.239  37.169  1.00  0.00     0.198 A 
ATOM     66  C   UNL A   1      38.265  33.608  38.012  1.00  0.00     0.198 A 
ATOM     67  F   UNL A   1      37.976  31.563  36.886  1.00  0.00    -0.203 F 
ATOM     68  F   UNL A   1      40.441  36.416  37.292  1.00  0.00    -0.200 F 
ATOM     69  C   UNL A   1      38.889  34.842  38.124  1.00  0.00     0.200 A 
ATOM     70  F   UNL A   1      37.364  33.229  38.929  1.00  0.00    -0.200 F 
ATOM     71  F   UNL A   1      38.607  35.646  39.159  1.00  0.00    -0.200 F 
ENDBRANCH  47  61
BRANCH  48  72
ATOM     72  C   UNL A   1      41.469  27.476  27.969  1.00  0.00     0.064 A 
ATOM     73  C   UNL A   1      42.387  27.904  27.001  1.00  0.00     0.173 A 
ATOM     74  C   UNL A   1      40.847  26.235  27.775  1.00  0.00     0.173 A 
ATOM     75  F   UNL A   1      42.994  29.094  27.133  1.00  0.00    -0.203 F 
ATOM     76  C   UNL A   1      42.655  27.135  25.871  1.00  0.00     0.198 A 
ATOM     77  C   UNL A   1      41.137  25.452  26.658  1.00  0.00     0.198 A 
ATOM     78  F   UNL A   1      39.966  25.776  28.677  1.00  0.00    -0.203 F 
ATOM     79  F   UNL A   1      43.503  27.590  24.938  1.00  0.00    -0.200 F 
ATOM     80  C   UNL A   1      42.034  25.907  25.703  1.00  0.00     0.200 A 
ATOM     81  F   UNL A   1      40.543  24.261  26.505  1.00  0.00    -0.200 F 
ATOM     82  F   UNL A   1      42.293  25.166  24.617  1.00  0.00    -0.200 F 
ENDBRANCH  48  72
BRANCH  60  83
ATOM     83  C   UNL A   1      44.071  27.769  34.417  1.00  0.00     0.064 A 
ATOM     84  C   UNL A   1      43.774  26.566  35.075  1.00  0.00     0.173 A 
ATOM     85  C   UNL A   1      45.404  28.207  34.413  1.00  0.00     0.173 A 
ATOM     86  F   UNL A   1      42.512  26.114  35.118  1.00  0.00    -0.203 F 
ATOM     87  C   UNL A   1      44.768  25.850  35.734  1.00  0.00     0.198 A 
ATOM     88  C   UNL A   1      46.400  27.470  35.047  1.00  0.00     0.198 A 
ATOM     89  F   UNL A   1      45.741  29.346  33.790  1.00  0.00    -0.203 F 
ATOM     90  F   UNL A   1      44.451  24.734  36.407  1.00  0.00    -0.200 F 
ATOM     91  C   UNL A   1      46.079  26.299  35.717  1.00  0.00     0.200 A 
ATOM     92  F   UNL A   1      47.669  27.899  35.018  1.00  0.00    -0.200 F 
ATOM     93  F   UNL A   1      47.034  25.609  36.355  1.00  0.00    -0.200 F 
ENDBRANCH  60  83
ENDBRANCH  34  35
ENDBRANCH  26  29
ENDBRANCH  24  25
ENDBRANCH  23  24
ENDBRANCH   1  23
TORSDOF 14
ENDMDL
MODEL 3
REMARK VINA RESULT:     -10.8      5.060     10.927
REMARK SMILES CC(C)[C@@H](NC(=O)[C@H]1CC[C@@H](C(C)C)CC1)C(=O)NCCCNC(=O)c1ccc(-c2c3nc(c(-c4c(F)c(F)c(F)c(F)c4F)c4ccc([nH]4)c(-c4c(F)c(F)c(F)c(F)c4F)c4nc(c(-c5c(F)c(F)c(F)c(F)c5F)c5ccc2[nH]5)C=C4)C=C3)cc1
REMARK SMILES IDX 20 1 19 2 17 3 18 4 4 6 5 7 6 8 7 9 8 11 11 12 15 13 10 14
REMARK SMILES IDX 16 15 9 16 12 17 13 18 14 19 2 20 1 21 3 22 21 23 22 24
REMARK SMILES IDX 23 25 24 26 25 28 26 29 27 30 88 31 28 32 87 33 29 34 30 35
REMARK SMILES IDX 31 36 81 37 32 38 86 39 80 40 82 41 33 42 85 43 79 44 78 45
REMARK SMILES IDX 34 47 66 48 46 49 65 50 47 51 50 52 64 53 83 54 48 55 49 56
REMARK SMILES IDX 63 58 84 59 51 60 35 61 36 62 44 63 37 64 38 65 42 66 45 67
REMARK SMILES IDX 39 68 40 69 43 70 41 71 67 72 68 73 76 74 69 75 70 76 74 77
REMARK SMILES IDX 77 78 71 79 72 80 75 81 73 82 52 83 53 84 61 85 54 86 55 87
REMARK SMILES IDX 59 88 62 89 56 90 57 91 60 92 58 93
REMARK H PARENT 19 5 5 10 23 27 82 46 50 57
REMARK Flexibility Score: inf
ROOT
ATOM      1  C   UNL A   1      31.656  30.522  26.484  1.00  0.00     0.117 C 
ENDROOT
BRANCH   1   2
ATOM      2  N   UNL A   1      32.303  30.090  25.272  1.00  0.00    -0.354 N 
ATOM      3  C   UNL A   1      31.802  29.388  24.216  1.00  0.00     0.242 C 
ATOM      4  O   UNL A   1      32.591  29.208  23.283  1.00  0.00    -0.273 OA
ATOM      5  H   UNL A   1      33.251  30.341  25.194  1.00  0.00     0.163 HD
BRANCH   3   6
ATOM      6  C   UNL A   1      30.288  28.979  24.133  1.00  0.00     0.173 C 
BRANCH   6   7
ATOM      7  N   UNL A   1      30.146  27.577  23.726  1.00  0.00    -0.344 N 
ATOM      8  C   UNL A   1      30.405  26.377  24.301  1.00  0.00     0.223 C 
ATOM      9  O   UNL A   1      30.309  25.412  23.529  1.00  0.00    -0.275 OA
ATOM     10  H   UNL A   1      29.772  27.485  22.820  1.00  0.00     0.164 HD
BRANCH   8  11
ATOM     11  C   UNL A   1      30.832  26.103  25.762  1.00  0.00     0.078 C 
ATOM     12  C   UNL A   1      32.884  24.061  26.681  1.00  0.00    -0.009 C 
ATOM     13  C   UNL A   1      33.298  25.437  26.130  1.00  0.00     0.004 C 
ATOM     14  C   UNL A   1      31.457  23.663  26.273  1.00  0.00     0.004 C 
ATOM     15  C   UNL A   1      32.232  26.524  26.181  1.00  0.00     0.014 C 
ATOM     16  C   UNL A   1      30.424  24.774  26.402  1.00  0.00     0.014 C 
BRANCH  12  17
ATOM     17  C   UNL A   1      33.923  22.920  26.370  1.00  0.00    -0.014 C 
ATOM     18  C   UNL A   1      35.371  23.382  26.147  1.00  0.00     0.007 C 
ATOM     19  C   UNL A   1      33.924  21.800  27.418  1.00  0.00     0.007 C 
ENDBRANCH  12  17
ENDBRANCH   8  11
ENDBRANCH   6   7
BRANCH   6  20
ATOM     20  C   UNL A   1      29.553  29.952  23.157  1.00  0.00     0.015 C 
ATOM     21  C   UNL A   1      28.383  29.333  22.389  1.00  0.00     0.010 C 
ATOM     22  C   UNL A   1      29.046  31.205  23.892  1.00  0.00     0.010 C 
ENDBRANCH   6  20
ENDBRANCH   3   6
ENDBRANCH   1   2
BRANCH   1  23
ATOM     23  C   UNL A   1      31.485  32.024  26.555  1.00  0.00     0.042 C 
BRANCH  23  24
ATOM     24  C   UNL A   1      32.659  32.693  27.240  1.00  0.00     0.118 C 
BRANCH  24  25
ATOM     25  N   UNL A   1      32.377  34.070  27.632  1.00  0.00    -0.352 N 
ATOM     26  C   UNL A   1      32.979  34.836  28.603  1.00  0.00     0.251 C 
ATOM     27  H   UNL A   1      31.654  34.513  27.133  1.00  0.00     0.163 HD
ATOM     28  O   UNL A   1      32.529  35.934  28.896  1.00  0.00    -0.269 OA
BRANCH  26  29
ATOM     29  C   UNL A   1      34.155  34.295  29.320  1.00  0.00     0.039 A 
ATOM     30  C   UNL A   1      33.952  33.447  30.409  1.00  0.00     0.014 A 
ATOM     31  C   UNL A   1      35.448  34.580  28.878  1.00  0.00     0.014 A 
ATOM     32  C   UNL A   1      35.050  32.828  31.008  1.00  0.00     0.010 A 
ATOM     33  C   UNL A   1      36.523  33.872  29.395  1.00  0.00     0.010 A 
ATOM     34  C   UNL A   1      36.340  33.002  30.478  1.00  0.00    -0.014 A 
BRANCH  34  35
ATOM     35  C   UNL A   1      37.510  32.298  31.059  1.00  0.00     0.031 A 
ATOM     36  C   UNL A   1      37.988  32.650  32.441  1.00  0.00     0.074 A 
ATOM     37  C   UNL A   1      38.173  31.388  30.320  1.00  0.00     0.049 A 
ATOM     38  N   UNL A   1      39.000  32.165  33.115  1.00  0.00    -0.248 NA
ATOM     39  C   UNL A   1      37.260  33.718  33.146  1.00  0.00     0.031 C 
ATOM     40  C   UNL A   1      37.860  31.026  28.936  1.00  0.00     0.029 A 
ATOM     41  N   UNL A   1      39.249  30.597  30.634  1.00  0.00    -0.354 N 
ATOM     42  C   UNL A   1      39.038  32.881  34.304  1.00  0.00     0.074 A 
ATOM     43  C   UNL A   1      37.999  33.882  34.231  1.00  0.00     0.031 C 
ATOM     44  C   UNL A   1      38.693  30.052  28.536  1.00  0.00     0.029 A 
ATOM     45  C   UNL A   1      39.614  29.741  29.625  1.00  0.00     0.049 A 
ATOM     46  H   UNL A   1      39.716  30.639  31.500  1.00  0.00     0.167 HD
ATOM     47  C   UNL A   1      39.843  32.698  35.377  1.00  0.00     0.037 A 
ATOM     48  C   UNL A   1      40.575  28.798  29.591  1.00  0.00     0.037 A 
ATOM     49  C   UNL A   1      40.845  31.671  35.463  1.00  0.00     0.049 A 
ATOM     50  C   UNL A   1      41.415  28.571  30.819  1.00  0.00     0.074 A 
ATOM     51  C   UNL A   1      41.670  31.353  36.527  1.00  0.00     0.029 A 
ATOM     52  N   UNL A   1      41.152  30.787  34.439  1.00  0.00    -0.354 N 
ATOM     53  N   UNL A   1      41.387  29.200  31.970  1.00  0.00    -0.248 NA
ATOM     54  C   UNL A   1      42.408  27.491  30.747  1.00  0.00     0.031 C 
ATOM     55  C   UNL A   1      42.499  30.295  36.135  1.00  0.00     0.029 A 
ATOM     56  C   UNL A   1      42.161  29.928  34.843  1.00  0.00     0.049 A 
ATOM     57  H   UNL A   1      40.719  30.773  33.555  1.00  0.00     0.167 HD
ATOM     58  C   UNL A   1      42.336  28.577  32.767  1.00  0.00     0.074 A 
ATOM     59  C   UNL A   1      42.907  27.506  31.975  1.00  0.00     0.031 C 
ATOM     60  C   UNL A   1      42.708  28.865  34.038  1.00  0.00     0.037 A 
BRANCH  47  61
ATOM     61  C   UNL A   1      39.649  33.617  36.549  1.00  0.00     0.064 A 
ATOM     62  C   UNL A   1      40.296  34.861  36.622  1.00  0.00     0.173 A 
ATOM     63  C   UNL A   1      38.800  33.258  37.606  1.00  0.00     0.173 A 
ATOM     64  F   UNL A   1      41.132  35.246  35.645  1.00  0.00    -0.203 F 
ATOM     65  C   UNL A   1      40.127  35.695  37.724  1.00  0.00     0.198 A 
ATOM     66  C   UNL A   1      38.608  34.108  38.692  1.00  0.00     0.198 A 
ATOM     67  F   UNL A   1      38.156  32.081  37.587  1.00  0.00    -0.203 F 
ATOM     68  F   UNL A   1      40.802  36.851  37.796  1.00  0.00    -0.200 F 
ATOM     69  C   UNL A   1      39.279  35.321  38.755  1.00  0.00     0.200 A 
ATOM     70  F   UNL A   1      37.779  33.751  39.683  1.00  0.00    -0.200 F 
ATOM     71  F   UNL A   1      39.114  36.126  39.813  1.00  0.00    -0.200 F 
ENDBRANCH  47  61
BRANCH  48  72
ATOM     72  C   UNL A   1      40.749  27.955  28.380  1.00  0.00     0.064 A 
ATOM     73  C   UNL A   1      40.094  26.721  28.266  1.00  0.00     0.173 A 
ATOM     74  C   UNL A   1      41.572  28.359  27.319  1.00  0.00     0.173 A 
ATOM     75  F   UNL A   1      39.311  26.284  29.263  1.00  0.00    -0.203 F 
ATOM     76  C   UNL A   1      40.274  25.911  27.147  1.00  0.00     0.198 A 
ATOM     77  C   UNL A   1      41.730  27.559  26.188  1.00  0.00     0.198 A 
ATOM     78  F   UNL A   1      42.215  29.534  27.377  1.00  0.00    -0.203 F 
ATOM     79  F   UNL A   1      39.672  24.715  27.085  1.00  0.00    -0.200 F 
ATOM     80  C   UNL A   1      41.088  26.333  26.107  1.00  0.00     0.200 A 
ATOM     81  F   UNL A   1      42.507  27.976  25.179  1.00  0.00    -0.200 F 
ATOM     82  F   UNL A   1      41.260  25.553  25.030  1.00  0.00    -0.200 F 
ENDBRANCH  48  72
BRANCH  60  83
ATOM     83  C   UNL A   1      43.758  27.989  34.656  1.00  0.00     0.064 A 
ATOM     84  C   UNL A   1      45.118  28.330  34.615  1.00  0.00     0.173 A 
ATOM     85  C   UNL A   1      43.395  26.799  35.305  1.00  0.00     0.173 A 
ATOM     86  F   UNL A   1      45.514  29.451  33.993  1.00  0.00    -0.203 F 
ATOM     87  C   UNL A   1      46.080  27.493  35.171  1.00  0.00     0.198 A 
ATOM     88  C   UNL A   1      44.359  25.981  35.887  1.00  0.00     0.198 A 
ATOM     89  F   UNL A   1      42.107  26.433  35.378  1.00  0.00    -0.203 F 
ATOM     90  F   UNL A   1      47.379  27.809  35.069  1.00  0.00    -0.200 F 
ATOM     91  C   UNL A   1      45.701  26.322  35.809  1.00  0.00     0.200 A 
ATOM     92  F   UNL A   1      43.989  24.857  36.515  1.00  0.00    -0.200 F 
ATOM     93  F   UNL A   1      46.629  25.516  36.342  1.00  0.00    -0.200 F 
ENDBRANCH  60  83
ENDBRANCH  34  35
ENDBRANCH  26  29
ENDBRANCH  24  25
ENDBRANCH  23  24
ENDBRANCH   1  23
TORSDOF 14
ENDMDL
