MODEL 1
REMARK VINA RESULT:     -13.7      0.000      0.000
REMARK SMILES O=C(NCCCNC(=O)[C@@H](Cc1ccc(O)cc1)Nc1c2ccccc2nc2ccccc12)c1ccc(-c2c3nc(c(-c4c(F)c(F)c(F)c(F)c4F)c4ccc([nH]4)c(-c4c(F)c(F)c(F)c(F)c4F)c4nc(c(-c5c(F)c(F)c(F)c(F)c5F)c5ccc2[nH]5)C=C4)C=C3)cc1
REMARK SMILES IDX 5 1 4 2 3 3 1 4 2 5 34 7 35 8 96 9 36 10 95 11 37 12 38 13
REMARK SMILES IDX 39 14 89 15 40 16 94 17 88 18 90 19 41 20 93 21 87 22 86 23
REMARK SMILES IDX 42 25 74 26 54 27 73 28 55 29 58 30 72 31 91 32 56 33 57 34
REMARK SMILES IDX 71 36 92 37 59 38 43 39 44 40 52 41 45 42 46 43 50 44 53 45
REMARK SMILES IDX 47 46 48 47 51 48 49 49 75 50 76 51 84 52 77 53 78 54 82 55
REMARK SMILES IDX 85 56 79 57 80 58 83 59 81 60 60 61 61 62 69 63 62 64 63 65
REMARK SMILES IDX 67 66 70 67 64 68 65 69 68 70 66 71 6 72 7 73 8 74 9 76
REMARK SMILES IDX 10 77 11 78 12 79 13 80 18 81 14 82 17 83 15 84 16 85 19 87
REMARK SMILES IDX 20 89 21 90 33 91 22 92 26 93 28 94 32 95 23 96 25 97 27 98
REMARK SMILES IDX 29 99 31 100 24 101 30 102
REMARK H PARENT 3 6 90 24 58 35 7 75 16 86 19 88
REMARK Flexibility Score: inf
ROOT
ATOM      1  C   UNL A   1      32.620  27.677  25.736  1.00  0.00     0.042 C 
ENDROOT
BRANCH   1   2
ATOM      2  C   UNL A   1      33.493  28.765  25.134  1.00  0.00     0.118 C 
BRANCH   2   3
ATOM      3  N   UNL A   1      33.010  30.090  25.495  1.00  0.00    -0.352 N 
ATOM      4  O   UNL A   1      32.452  31.795  26.826  1.00  0.00    -0.269 OA
ATOM      5  C   UNL A   1      33.236  30.869  26.603  1.00  0.00     0.251 C 
ATOM      6  H   UNL A   1      32.416  30.501  24.827  1.00  0.00     0.163 HD
BRANCH   5   7
ATOM      7  C   UNL A   1      34.380  30.655  27.531  1.00  0.00     0.039 A 
ATOM      8  C   UNL A   1      34.606  29.439  28.175  1.00  0.00     0.014 A 
ATOM      9  C   UNL A   1      35.345  31.667  27.652  1.00  0.00     0.014 A 
ATOM     10  C   UNL A   1      35.706  29.275  29.017  1.00  0.00     0.010 A 
ATOM     11  C   UNL A   1      36.509  31.462  28.407  1.00  0.00     0.010 A 
ATOM     12  C   UNL A   1      36.697  30.264  29.106  1.00  0.00    -0.014 A 
BRANCH  12  13
ATOM     13  C   UNL A   1      37.958  29.962  29.838  1.00  0.00     0.031 A 
ATOM     14  C   UNL A   1      38.212  30.491  31.220  1.00  0.00     0.074 A 
ATOM     15  C   UNL A   1      38.877  29.171  29.243  1.00  0.00     0.049 A 
ATOM     16  N   UNL A   1      39.244  30.288  32.003  1.00  0.00    -0.248 NA
ATOM     17  C   UNL A   1      37.186  31.370  31.799  1.00  0.00     0.031 C 
ATOM     18  C   UNL A   1      38.764  28.623  27.890  1.00  0.00     0.029 A 
ATOM     19  N   UNL A   1      40.069  28.669  29.702  1.00  0.00    -0.354 N 
ATOM     20  C   UNL A   1      39.003  31.027  33.153  1.00  0.00     0.074 A 
ATOM     21  C   UNL A   1      37.737  31.704  32.958  1.00  0.00     0.031 C 
ATOM     22  C   UNL A   1      39.803  27.813  27.652  1.00  0.00     0.029 A 
ATOM     23  C   UNL A   1      40.693  27.833  28.807  1.00  0.00     0.049 A 
ATOM     24  H   UNL A   1      40.443  28.888  30.586  1.00  0.00     0.167 HD
ATOM     25  C   UNL A   1      39.763  31.122  34.271  1.00  0.00     0.037 A 
ATOM     26  C   UNL A   1      41.858  27.163  28.896  1.00  0.00     0.037 A 
ATOM     27  C   UNL A   1      41.011  30.428  34.472  1.00  0.00     0.049 A 
ATOM     28  C   UNL A   1      42.676  27.285  30.148  1.00  0.00     0.074 A 
ATOM     29  C   UNL A   1      41.831  30.431  35.588  1.00  0.00     0.029 A 
ATOM     30  N   UNL A   1      41.620  29.607  33.533  1.00  0.00    -0.354 N 
ATOM     31  N   UNL A   1      42.415  27.958  31.241  1.00  0.00    -0.248 NA
ATOM     32  C   UNL A   1      43.953  26.561  30.177  1.00  0.00     0.031 C 
ATOM     33  C   UNL A   1      42.954  29.644  35.310  1.00  0.00     0.029 A 
ATOM     34  C   UNL A   1      42.814  29.115  34.039  1.00  0.00     0.049 A 
ATOM     35  H   UNL A   1      41.258  29.404  32.641  1.00  0.00     0.167 HD
ATOM     36  C   UNL A   1      43.486  27.732  32.092  1.00  0.00     0.074 A 
ATOM     37  C   UNL A   1      44.391  26.839  31.397  1.00  0.00     0.031 C 
ATOM     38  C   UNL A   1      43.703  28.227  33.334  1.00  0.00     0.037 A 
BRANCH  25  39
ATOM     39  C   UNL A   1      39.275  32.019  35.371  1.00  0.00     0.064 A 
ATOM     40  C   UNL A   1      38.467  31.537  36.411  1.00  0.00     0.173 A 
ATOM     41  C   UNL A   1      39.665  33.367  35.414  1.00  0.00     0.173 A 
ATOM     42  F   UNL A   1      38.061  30.259  36.413  1.00  0.00    -0.203 F 
ATOM     43  C   UNL A   1      38.049  32.376  37.442  1.00  0.00     0.198 A 
ATOM     44  C   UNL A   1      39.267  34.196  36.459  1.00  0.00     0.198 A 
ATOM     45  F   UNL A   1      40.445  33.876  34.448  1.00  0.00    -0.203 F 
ATOM     46  F   UNL A   1      37.249  31.902  38.407  1.00  0.00    -0.200 F 
ATOM     47  C   UNL A   1      38.456  33.703  37.469  1.00  0.00     0.200 A 
ATOM     48  F   UNL A   1      39.671  35.474  36.490  1.00  0.00    -0.200 F 
ATOM     49  F   UNL A   1      38.061  34.505  38.466  1.00  0.00    -0.200 F 
ENDBRANCH  25  39
BRANCH  26  50
ATOM     50  C   UNL A   1      42.310  26.316  27.763  1.00  0.00     0.064 A 
ATOM     51  C   UNL A   1      41.791  25.028  27.570  1.00  0.00     0.173 A 
ATOM     52  C   UNL A   1      43.258  26.782  26.839  1.00  0.00     0.173 A 
ATOM     53  F   UNL A   1      40.898  24.530  28.438  1.00  0.00    -0.203 F 
ATOM     54  C   UNL A   1      42.209  24.235  26.504  1.00  0.00     0.198 A 
ATOM     55  C   UNL A   1      43.653  26.000  25.756  1.00  0.00     0.198 A 
ATOM     56  F   UNL A   1      43.782  28.008  26.976  1.00  0.00    -0.203 F 
ATOM     57  F   UNL A   1      41.724  22.994  26.364  1.00  0.00    -0.200 F 
ATOM     58  C   UNL A   1      43.134  24.725  25.594  1.00  0.00     0.200 A 
ATOM     59  F   UNL A   1      44.533  26.483  24.870  1.00  0.00    -0.200 F 
ATOM     60  F   UNL A   1      43.527  23.966  24.562  1.00  0.00    -0.200 F 
ENDBRANCH  26  50
BRANCH  38  61
ATOM     61  C   UNL A   1      44.960  27.795  34.028  1.00  0.00     0.064 A 
ATOM     62  C   UNL A   1      46.147  28.535  33.924  1.00  0.00     0.173 A 
ATOM     63  C   UNL A   1      44.971  26.640  34.826  1.00  0.00     0.173 A 
ATOM     64  F   UNL A   1      46.190  29.636  33.158  1.00  0.00    -0.203 F 
ATOM     65  C   UNL A   1      47.306  28.123  34.576  1.00  0.00     0.198 A 
ATOM     66  C   UNL A   1      46.126  26.245  35.495  1.00  0.00     0.198 A 
ATOM     67  F   UNL A   1      43.862  25.900  34.959  1.00  0.00    -0.203 F 
ATOM     68  F   UNL A   1      48.441  28.820  34.425  1.00  0.00    -0.200 F 
ATOM     69  C   UNL A   1      47.292  26.982  35.365  1.00  0.00     0.200 A 
ATOM     70  F   UNL A   1      46.110  25.148  36.265  1.00  0.00    -0.200 F 
ATOM     71  F   UNL A   1      48.409  26.588  35.992  1.00  0.00    -0.200 F 
ENDBRANCH  38  61
ENDBRANCH  12  13
ENDBRANCH   5   7
ENDBRANCH   2   3
ENDBRANCH   1   2
BRANCH   1  72
ATOM     72  C   UNL A   1      33.231  26.284  25.650  1.00  0.00     0.117 C 
BRANCH  72  73
ATOM     73  N   UNL A   1      32.595  25.387  26.593  1.00  0.00    -0.354 N 
ATOM     74  C   UNL A   1      31.914  24.219  26.431  1.00  0.00     0.242 C 
ATOM     75  H   UNL A   1      32.669  25.678  27.531  1.00  0.00     0.163 HD
ATOM     76  O   UNL A   1      31.230  23.870  27.404  1.00  0.00    -0.273 OA
BRANCH  74  77
ATOM     77  C   UNL A   1      31.943  23.336  25.155  1.00  0.00     0.173 C 
BRANCH  77  78
ATOM     78  C   UNL A   1      30.874  23.699  24.092  1.00  0.00     0.070 C 
BRANCH  78  79
ATOM     79  C   UNL A   1      30.730  25.093  23.520  1.00  0.00    -0.045 A 
ATOM     80  C   UNL A   1      29.805  26.024  24.014  1.00  0.00     0.007 A 
ATOM     81  C   UNL A   1      31.623  25.518  22.520  1.00  0.00     0.007 A 
ATOM     82  C   UNL A   1      29.669  27.286  23.423  1.00  0.00     0.046 A 
ATOM     83  C   UNL A   1      31.508  26.787  21.944  1.00  0.00     0.046 A 
ATOM     84  C   UNL A   1      30.507  27.645  22.374  1.00  0.00     0.115 A 
BRANCH  84  85
ATOM     85  O   UNL A   1      30.365  28.835  21.722  1.00  0.00    -0.508 OA
ATOM     86  H   UNL A   1      30.969  29.074  21.047  1.00  0.00     0.293 HD
ENDBRANCH  84  85
ENDBRANCH  78  79
ENDBRANCH  77  78
BRANCH  77  87
ATOM     87  N   UNL A   1      33.296  23.166  24.616  1.00  0.00    -0.372 N 
ATOM     88  H   UNL A   1      33.614  23.905  24.049  1.00  0.00     0.161 HD
BRANCH  87  89
ATOM     89  C   UNL A   1      34.206  22.113  24.783  1.00  0.00     0.054 A 
ATOM     90  C   UNL A   1      33.908  20.722  24.566  1.00  0.00     0.024 A 
ATOM     91  C   UNL A   1      35.539  22.468  25.205  1.00  0.00     0.024 A 
ATOM     92  C   UNL A   1      32.668  20.152  24.154  1.00  0.00     0.012 A 
ATOM     93  C   UNL A   1      34.969  19.805  24.741  1.00  0.00     0.073 A 
ATOM     94  C   UNL A   1      36.492  21.438  25.306  1.00  0.00     0.073 A 
ATOM     95  C   UNL A   1      35.975  23.783  25.544  1.00  0.00     0.012 A 
ATOM     96  C   UNL A   1      32.478  18.779  23.975  1.00  0.00     0.001 A 
ATOM     97  C   UNL A   1      34.769  18.444  24.547  1.00  0.00     0.029 A 
ATOM     98  N   UNL A   1      36.209  20.157  25.078  1.00  0.00    -0.248 NA
ATOM     99  C   UNL A   1      37.801  21.732  25.664  1.00  0.00     0.029 A 
ATOM    100  C   UNL A   1      37.294  24.058  25.913  1.00  0.00     0.001 A 
ATOM    101  C   UNL A   1      33.536  17.918  24.175  1.00  0.00     0.002 A 
ATOM    102  C   UNL A   1      38.216  23.028  25.961  1.00  0.00     0.002 A 
ENDBRANCH  87  89
ENDBRANCH  77  87
ENDBRANCH  74  77
ENDBRANCH  72  73
ENDBRANCH   1  72
TORSDOF 15
ENDMDL
MODEL 2
REMARK VINA RESULT:     -13.5      2.670      3.651
REMARK SMILES O=C(NCCCNC(=O)[C@@H](Cc1ccc(O)cc1)Nc1c2ccccc2nc2ccccc12)c1ccc(-c2c3nc(c(-c4c(F)c(F)c(F)c(F)c4F)c4ccc([nH]4)c(-c4c(F)c(F)c(F)c(F)c4F)c4nc(c(-c5c(F)c(F)c(F)c(F)c5F)c5ccc2[nH]5)C=C4)C=C3)cc1
REMARK SMILES IDX 5 1 4 2 3 3 1 4 2 5 34 7 35 8 96 9 36 10 95 11 37 12 38 13
REMARK SMILES IDX 39 14 89 15 40 16 94 17 88 18 90 19 41 20 93 21 87 22 86 23
REMARK SMILES IDX 42 25 74 26 54 27 73 28 55 29 58 30 72 31 91 32 56 33 57 34
REMARK SMILES IDX 71 36 92 37 59 38 43 39 44 40 52 41 45 42 46 43 50 44 53 45
REMARK SMILES IDX 47 46 48 47 51 48 49 49 75 50 76 51 84 52 77 53 78 54 82 55
REMARK SMILES IDX 85 56 79 57 80 58 83 59 81 60 60 61 61 62 69 63 62 64 63 65
REMARK SMILES IDX 67 66 70 67 64 68 65 69 68 70 66 71 6 72 7 73 8 74 9 76
REMARK SMILES IDX 10 77 11 78 12 79 13 80 18 81 14 82 17 83 15 84 16 85 19 87
REMARK SMILES IDX 20 89 21 90 33 91 22 92 26 93 28 94 32 95 23 96 25 97 27 98
REMARK SMILES IDX 29 99 31 100 24 101 30 102
REMARK H PARENT 3 6 90 24 58 35 7 75 16 86 19 88
REMARK Flexibility Score: inf
ROOT
ATOM      1  C   UNL A   1      33.363  27.920  25.782  1.00  0.00     0.042 C 
ENDROOT
BRANCH   1   2
ATOM      2  C   UNL A   1      33.289  28.286  27.255  1.00  0.00     0.118 C 
BRANCH   2   3
ATOM      3  N   UNL A   1      33.423  29.722  27.451  1.00  0.00    -0.352 N 
ATOM      4  O   UNL A   1      34.157  31.624  28.363  1.00  0.00    -0.269 OA
ATOM      5  C   UNL A   1      34.427  30.473  28.012  1.00  0.00     0.251 C 
ATOM      6  H   UNL A   1      32.659  30.249  27.124  1.00  0.00     0.163 HD
BRANCH   5   7
ATOM      7  C   UNL A   1      35.814  29.969  28.201  1.00  0.00     0.039 A 
ATOM      8  C   UNL A   1      36.817  30.157  27.251  1.00  0.00     0.014 A 
ATOM      9  C   UNL A   1      36.161  29.407  29.440  1.00  0.00     0.014 A 
ATOM     10  C   UNL A   1      38.111  29.689  27.481  1.00  0.00     0.010 A 
ATOM     11  C   UNL A   1      37.487  29.041  29.716  1.00  0.00     0.010 A 
ATOM     12  C   UNL A   1      38.476  29.170  28.733  1.00  0.00    -0.014 A 
BRANCH  12  13
ATOM     13  C   UNL A   1      39.911  28.888  29.010  1.00  0.00     0.031 A 
ATOM     14  C   UNL A   1      40.758  29.834  29.813  1.00  0.00     0.074 A 
ATOM     15  C   UNL A   1      40.446  27.740  28.544  1.00  0.00     0.049 A 
ATOM     16  N   UNL A   1      42.014  29.714  30.171  1.00  0.00    -0.248 NA
ATOM     17  C   UNL A   1      40.124  31.080  30.267  1.00  0.00     0.031 C 
ATOM     18  C   UNL A   1      39.738  26.757  27.721  1.00  0.00     0.029 A 
ATOM     19  N   UNL A   1      41.692  27.191  28.711  1.00  0.00    -0.354 N 
ATOM     20  C   UNL A   1      42.325  30.872  30.870  1.00  0.00     0.074 A 
ATOM     21  C   UNL A   1      41.134  31.696  30.867  1.00  0.00     0.031 C 
ATOM     22  C   UNL A   1      40.533  25.700  27.511  1.00  0.00     0.029 A 
ATOM     23  C   UNL A   1      41.831  25.955  28.125  1.00  0.00     0.049 A 
ATOM     24  H   UNL A   1      42.419  27.639  29.202  1.00  0.00     0.167 HD
ATOM     25  C   UNL A   1      43.494  31.209  31.468  1.00  0.00     0.037 A 
ATOM     26  C   UNL A   1      42.886  25.120  28.075  1.00  0.00     0.037 A 
ATOM     27  C   UNL A   1      44.671  30.377  31.489  1.00  0.00     0.049 A 
ATOM     28  C   UNL A   1      44.166  25.520  28.749  1.00  0.00     0.074 A 
ATOM     29  C   UNL A   1      45.888  30.617  32.104  1.00  0.00     0.029 A 
ATOM     30  N   UNL A   1      44.777  29.141  30.867  1.00  0.00    -0.354 N 
ATOM     31  N   UNL A   1      44.432  26.602  29.438  1.00  0.00    -0.248 NA
ATOM     32  C   UNL A   1      45.295  24.587  28.633  1.00  0.00     0.031 C 
ATOM     33  C   UNL A   1      46.743  29.547  31.821  1.00  0.00     0.029 A 
ATOM     34  C   UNL A   1      46.046  28.618  31.068  1.00  0.00     0.049 A 
ATOM     35  H   UNL A   1      44.059  28.701  30.358  1.00  0.00     0.167 HD
ATOM     36  C   UNL A   1      45.751  26.478  29.847  1.00  0.00     0.074 A 
ATOM     37  C   UNL A   1      46.225  25.203  29.350  1.00  0.00     0.031 C 
ATOM     38  C   UNL A   1      46.503  27.347  30.565  1.00  0.00     0.037 A 
BRANCH  25  39
ATOM     39  C   UNL A   1      43.568  32.547  32.145  1.00  0.00     0.064 A 
ATOM     40  C   UNL A   1      43.268  32.701  33.506  1.00  0.00     0.173 A 
ATOM     41  C   UNL A   1      43.998  33.679  31.434  1.00  0.00     0.173 A 
ATOM     42  F   UNL A   1      42.847  31.652  34.227  1.00  0.00    -0.203 F 
ATOM     43  C   UNL A   1      43.375  33.945  34.126  1.00  0.00     0.198 A 
ATOM     44  C   UNL A   1      44.128  34.914  32.063  1.00  0.00     0.198 A 
ATOM     45  F   UNL A   1      44.307  33.583  30.132  1.00  0.00    -0.203 F 
ATOM     46  F   UNL A   1      43.049  34.076  35.419  1.00  0.00    -0.200 F 
ATOM     47  C   UNL A   1      43.811  35.048  33.407  1.00  0.00     0.200 A 
ATOM     48  F   UNL A   1      44.563  35.976  31.370  1.00  0.00    -0.200 F 
ATOM     49  F   UNL A   1      43.922  36.240  34.007  1.00  0.00    -0.200 F 
ENDBRANCH  25  39
BRANCH  26  50
ATOM     50  C   UNL A   1      42.767  23.823  27.362  1.00  0.00     0.064 A 
ATOM     51  C   UNL A   1      43.158  23.697  26.021  1.00  0.00     0.173 A 
ATOM     52  C   UNL A   1      42.279  22.678  28.009  1.00  0.00     0.173 A 
ATOM     53  F   UNL A   1      43.613  24.768  25.353  1.00  0.00    -0.203 F 
ATOM     54  C   UNL A   1      43.054  22.479  25.352  1.00  0.00     0.198 A 
ATOM     55  C   UNL A   1      42.204  21.454  27.348  1.00  0.00     0.198 A 
ATOM     56  F   UNL A   1      41.896  22.745  29.292  1.00  0.00    -0.203 F 
ATOM     57  F   UNL A   1      43.400  22.396  24.060  1.00  0.00    -0.200 F 
ATOM     58  C   UNL A   1      42.585  21.358  26.018  1.00  0.00     0.200 A 
ATOM     59  F   UNL A   1      41.766  20.369  28.000  1.00  0.00    -0.200 F 
ATOM     60  F   UNL A   1      42.496  20.184  25.378  1.00  0.00    -0.200 F 
ENDBRANCH  26  50
BRANCH  38  61
ATOM     61  C   UNL A   1      47.912  26.936  30.871  1.00  0.00     0.064 A 
ATOM     62  C   UNL A   1      48.986  27.348  30.069  1.00  0.00     0.173 A 
ATOM     63  C   UNL A   1      48.193  26.139  31.991  1.00  0.00     0.173 A 
ATOM     64  F   UNL A   1      48.765  28.095  28.976  1.00  0.00    -0.203 F 
ATOM     65  C   UNL A   1      50.289  26.960  30.366  1.00  0.00     0.198 A 
ATOM     66  C   UNL A   1      49.500  25.774  32.299  1.00  0.00     0.198 A 
ATOM     67  F   UNL A   1      47.200  25.722  32.790  1.00  0.00    -0.203 F 
ATOM     68  F   UNL A   1      51.296  27.327  29.560  1.00  0.00    -0.200 F 
ATOM     69  C   UNL A   1      50.546  26.179  31.483  1.00  0.00     0.200 A 
ATOM     70  F   UNL A   1      49.749  25.027  33.383  1.00  0.00    -0.200 F 
ATOM     71  F   UNL A   1      51.801  25.807  31.768  1.00  0.00    -0.200 F 
ENDBRANCH  38  61
ENDBRANCH  12  13
ENDBRANCH   5   7
ENDBRANCH   2   3
ENDBRANCH   1   2
BRANCH   1  72
ATOM     72  C   UNL A   1      33.588  26.434  25.531  1.00  0.00     0.117 C 
BRANCH  72  73
ATOM     73  N   UNL A   1      32.834  25.637  26.477  1.00  0.00    -0.354 N 
ATOM     74  C   UNL A   1      32.091  24.506  26.335  1.00  0.00     0.242 C 
ATOM     75  H   UNL A   1      32.866  25.979  27.400  1.00  0.00     0.163 HD
ATOM     76  O   UNL A   1      31.323  24.258  27.276  1.00  0.00    -0.273 OA
BRANCH  74  77
ATOM     77  C   UNL A   1      32.145  23.546  25.115  1.00  0.00     0.173 C 
BRANCH  77  78
ATOM     78  C   UNL A   1      31.109  23.854  24.004  1.00  0.00     0.070 C 
BRANCH  78  79
ATOM     79  C   UNL A   1      30.878  25.250  23.464  1.00  0.00    -0.045 A 
ATOM     80  C   UNL A   1      29.901  26.112  23.983  1.00  0.00     0.007 A 
ATOM     81  C   UNL A   1      31.738  25.750  22.470  1.00  0.00     0.007 A 
ATOM     82  C   UNL A   1      29.687  27.376  23.421  1.00  0.00     0.046 A 
ATOM     83  C   UNL A   1      31.544  27.021  21.923  1.00  0.00     0.046 A 
ATOM     84  C   UNL A   1      30.496  27.809  22.377  1.00  0.00     0.115 A 
BRANCH  84  85
ATOM     85  O   UNL A   1      30.280  29.002  21.753  1.00  0.00    -0.508 OA
ATOM     86  H   UNL A   1      30.850  29.726  21.918  1.00  0.00     0.293 HD
ENDBRANCH  84  85
ENDBRANCH  78  79
ENDBRANCH  77  78
BRANCH  77  87
ATOM     87  N   UNL A   1      33.510  23.332  24.625  1.00  0.00    -0.372 N 
ATOM     88  H   UNL A   1      33.875  24.064  24.078  1.00  0.00     0.161 HD
BRANCH  87  89
ATOM     89  C   UNL A   1      34.375  22.246  24.816  1.00  0.00     0.054 A 
ATOM     90  C   UNL A   1      34.025  20.865  24.609  1.00  0.00     0.024 A 
ATOM     91  C   UNL A   1      35.715  22.552  25.254  1.00  0.00     0.024 A 
ATOM     92  C   UNL A   1      32.770  20.341  24.184  1.00  0.00     0.012 A 
ATOM     93  C   UNL A   1      35.046  19.909  24.808  1.00  0.00     0.073 A 
ATOM     94  C   UNL A   1      36.625  21.485  25.379  1.00  0.00     0.073 A 
ATOM     95  C   UNL A   1      36.198  23.852  25.586  1.00  0.00     0.012 A 
ATOM     96  C   UNL A   1      32.527  18.975  24.015  1.00  0.00     0.001 A 
ATOM     97  C   UNL A   1      34.795  18.555  24.624  1.00  0.00     0.029 A 
ATOM     98  N   UNL A   1      36.294  20.215  25.159  1.00  0.00    -0.248 NA
ATOM     99  C   UNL A   1      37.939  21.731  25.753  1.00  0.00     0.029 A 
ATOM    100  C   UNL A   1      37.521  24.078  25.972  1.00  0.00     0.001 A 
ATOM    101  C   UNL A   1      33.547  18.075  24.239  1.00  0.00     0.002 A 
ATOM    102  C   UNL A   1      38.401  23.012  26.044  1.00  0.00     0.002 A 
ENDBRANCH  87  89
ENDBRANCH  77  87
ENDBRANCH  74  77
ENDBRANCH  72  73
ENDBRANCH   1  72
TORSDOF 15
ENDMDL
MODEL 3
REMARK VINA RESULT:     -13.3      2.559      3.974
REMARK SMILES O=C(NCCCNC(=O)[C@@H](Cc1ccc(O)cc1)Nc1c2ccccc2nc2ccccc12)c1ccc(-c2c3nc(c(-c4c(F)c(F)c(F)c(F)c4F)c4ccc([nH]4)c(-c4c(F)c(F)c(F)c(F)c4F)c4nc(c(-c5c(F)c(F)c(F)c(F)c5F)c5ccc2[nH]5)C=C4)C=C3)cc1
REMARK SMILES IDX 5 1 4 2 3 3 1 4 2 5 34 7 35 8 96 9 36 10 95 11 37 12 38 13
REMARK SMILES IDX 39 14 89 15 40 16 94 17 88 18 90 19 41 20 93 21 87 22 86 23
REMARK SMILES IDX 42 25 74 26 54 27 73 28 55 29 58 30 72 31 91 32 56 33 57 34
REMARK SMILES IDX 71 36 92 37 59 38 43 39 44 40 52 41 45 42 46 43 50 44 53 45
REMARK SMILES IDX 47 46 48 47 51 48 49 49 75 50 76 51 84 52 77 53 78 54 82 55
REMARK SMILES IDX 85 56 79 57 80 58 83 59 81 60 60 61 61 62 69 63 62 64 63 65
REMARK SMILES IDX 67 66 70 67 64 68 65 69 68 70 66 71 6 72 7 73 8 74 9 76
REMARK SMILES IDX 10 77 11 78 12 79 13 80 18 81 14 82 17 83 15 84 16 85 19 87
REMARK SMILES IDX 20 89 21 90 33 91 22 92 26 93 28 94 32 95 23 96 25 97 27 98
REMARK SMILES IDX 29 99 31 100 24 101 30 102
REMARK H PARENT 3 6 90 24 58 35 7 75 16 86 19 88
REMARK Flexibility Score: inf
ROOT
ATOM      1  C   UNL A   1      33.420  27.891  25.736  1.00  0.00     0.042 C 
ENDROOT
BRANCH   1   2
ATOM      2  C   UNL A   1      33.313  28.250  27.209  1.00  0.00     0.118 C 
BRANCH   2   3
ATOM      3  N   UNL A   1      33.424  29.687  27.412  1.00  0.00    -0.352 N 
ATOM      4  O   UNL A   1      34.117  31.596  28.343  1.00  0.00    -0.269 OA
ATOM      5  C   UNL A   1      34.408  30.450  27.992  1.00  0.00     0.251 C 
ATOM      6  H   UNL A   1      32.658  30.204  27.073  1.00  0.00     0.163 HD
BRANCH   5   7
ATOM      7  C   UNL A   1      35.799  29.964  28.203  1.00  0.00     0.039 A 
ATOM      8  C   UNL A   1      36.814  30.164  27.269  1.00  0.00     0.014 A 
ATOM      9  C   UNL A   1      36.134  29.408  29.448  1.00  0.00     0.014 A 
ATOM     10  C   UNL A   1      38.110  29.713  27.519  1.00  0.00     0.010 A 
ATOM     11  C   UNL A   1      37.460  29.059  29.745  1.00  0.00     0.010 A 
ATOM     12  C   UNL A   1      38.462  29.201  28.777  1.00  0.00    -0.014 A 
BRANCH  12  13
ATOM     13  C   UNL A   1      39.896  28.938  29.076  1.00  0.00     0.031 A 
ATOM     14  C   UNL A   1      40.711  29.881  29.916  1.00  0.00     0.074 A 
ATOM     15  C   UNL A   1      40.461  27.810  28.596  1.00  0.00     0.049 A 
ATOM     16  N   UNL A   1      41.961  29.775  30.295  1.00  0.00    -0.248 NA
ATOM     17  C   UNL A   1      40.046  31.105  30.383  1.00  0.00     0.031 C 
ATOM     18  C   UNL A   1      39.786  26.833  27.739  1.00  0.00     0.029 A 
ATOM     19  N   UNL A   1      41.714  27.279  28.776  1.00  0.00    -0.354 N 
ATOM     20  C   UNL A   1      42.238  30.922  31.026  1.00  0.00     0.074 A 
ATOM     21  C   UNL A   1      41.033  31.725  31.016  1.00  0.00     0.031 C 
ATOM     22  C   UNL A   1      40.605  25.794  27.522  1.00  0.00     0.029 A 
ATOM     23  C   UNL A   1      41.885  26.059  28.166  1.00  0.00     0.049 A 
ATOM     24  H   UNL A   1      42.422  27.729  29.290  1.00  0.00     0.167 HD
ATOM     25  C   UNL A   1      43.389  31.267  31.653  1.00  0.00     0.037 A 
ATOM     26  C   UNL A   1      42.956  25.243  28.120  1.00  0.00     0.037 A 
ATOM     27  C   UNL A   1      44.580  30.455  31.680  1.00  0.00     0.049 A 
ATOM     28  C   UNL A   1      44.215  25.651  28.827  1.00  0.00     0.074 A 
ATOM     29  C   UNL A   1      45.780  30.704  32.323  1.00  0.00     0.029 A 
ATOM     30  N   UNL A   1      44.721  29.235  31.034  1.00  0.00    -0.354 N 
ATOM     31  N   UNL A   1      44.448  26.723  29.544  1.00  0.00    -0.248 NA
ATOM     32  C   UNL A   1      45.363  24.741  28.713  1.00  0.00     0.031 C 
ATOM     33  C   UNL A   1      46.660  29.655  32.035  1.00  0.00     0.029 A 
ATOM     34  C   UNL A   1      45.995  28.730  31.248  1.00  0.00     0.049 A 
ATOM     35  H   UNL A   1      44.020  28.794  30.501  1.00  0.00     0.167 HD
ATOM     36  C   UNL A   1      45.761  26.613  29.976  1.00  0.00     0.074 A 
ATOM     37  C   UNL A   1      46.267  25.357  29.461  1.00  0.00     0.031 C 
ATOM     38  C   UNL A   1      46.483  27.479  30.727  1.00  0.00     0.037 A 
BRANCH  25  39
ATOM     39  C   UNL A   1      43.426  32.591  32.360  1.00  0.00     0.064 A 
ATOM     40  C   UNL A   1      43.104  32.710  33.719  1.00  0.00     0.173 A 
ATOM     41  C   UNL A   1      43.843  33.747  31.680  1.00  0.00     0.173 A 
ATOM     42  F   UNL A   1      42.694  31.637  34.411  1.00  0.00    -0.203 F 
ATOM     43  C   UNL A   1      43.176  33.941  34.368  1.00  0.00     0.198 A 
ATOM     44  C   UNL A   1      43.938  34.970  32.338  1.00  0.00     0.198 A 
ATOM     45  F   UNL A   1      44.172  33.686  30.381  1.00  0.00    -0.203 F 
ATOM     46  F   UNL A   1      42.830  34.037  35.659  1.00  0.00    -0.200 F 
ATOM     47  C   UNL A   1      43.600  35.068  33.679  1.00  0.00     0.200 A 
ATOM     48  F   UNL A   1      44.361  36.056  31.674  1.00  0.00    -0.200 F 
ATOM     49  F   UNL A   1      43.678  36.249  34.307  1.00  0.00    -0.200 F 
ENDBRANCH  25  39
BRANCH  26  50
ATOM     50  C   UNL A   1      42.875  23.960  27.376  1.00  0.00     0.064 A 
ATOM     51  C   UNL A   1      43.269  23.877  26.033  1.00  0.00     0.173 A 
ATOM     52  C   UNL A   1      42.418  22.788  27.996  1.00  0.00     0.173 A 
ATOM     53  F   UNL A   1      43.694  24.975  25.391  1.00  0.00    -0.203 F 
ATOM     54  C   UNL A   1      43.200  22.672  25.336  1.00  0.00     0.198 A 
ATOM     55  C   UNL A   1      42.378  21.578  27.307  1.00  0.00     0.198 A 
ATOM     56  F   UNL A   1      42.033  22.814  29.280  1.00  0.00    -0.203 F 
ATOM     57  F   UNL A   1      43.549  22.628  24.044  1.00  0.00    -0.200 F 
ATOM     58  C   UNL A   1      42.762  21.523  25.976  1.00  0.00     0.200 A 
ATOM     59  F   UNL A   1      41.970  20.466  27.934  1.00  0.00    -0.200 F 
ATOM     60  F   UNL A   1      42.707  20.362  25.309  1.00  0.00    -0.200 F 
ENDBRANCH  26  50
BRANCH  38  61
ATOM     61  C   UNL A   1      47.894  27.086  31.052  1.00  0.00     0.064 A 
ATOM     62  C   UNL A   1      48.970  27.486  30.247  1.00  0.00     0.173 A 
ATOM     63  C   UNL A   1      48.173  26.320  32.194  1.00  0.00     0.173 A 
ATOM     64  F   UNL A   1      48.750  28.202  29.133  1.00  0.00    -0.203 F 
ATOM     65  C   UNL A   1      50.274  27.114  30.561  1.00  0.00     0.198 A 
ATOM     66  C   UNL A   1      49.481  25.972  32.519  1.00  0.00     0.198 A 
ATOM     67  F   UNL A   1      47.179  25.916  32.997  1.00  0.00    -0.203 F 
ATOM     68  F   UNL A   1      51.283  27.469  29.752  1.00  0.00    -0.200 F 
ATOM     69  C   UNL A   1      50.529  26.364  31.699  1.00  0.00     0.200 A 
ATOM     70  F   UNL A   1      49.728  25.255  33.623  1.00  0.00    -0.200 F 
ATOM     71  F   UNL A   1      51.785  26.009  32.001  1.00  0.00    -0.200 F 
ENDBRANCH  38  61
ENDBRANCH  12  13
ENDBRANCH   5   7
ENDBRANCH   2   3
ENDBRANCH   1   2
BRANCH   1  72
ATOM     72  C   UNL A   1      33.653  26.406  25.484  1.00  0.00     0.117 C 
BRANCH  72  73
ATOM     73  N   UNL A   1      32.966  25.605  26.477  1.00  0.00    -0.354 N 
ATOM     74  C   UNL A   1      32.179  24.500  26.376  1.00  0.00     0.242 C 
ATOM     75  H   UNL A   1      33.094  25.921  27.401  1.00  0.00     0.163 HD
ATOM     76  O   UNL A   1      31.494  24.248  27.379  1.00  0.00    -0.273 OA
BRANCH  74  77
ATOM     77  C   UNL A   1      32.090  23.572  25.135  1.00  0.00     0.173 C 
BRANCH  77  78
ATOM     78  C   UNL A   1      30.937  23.911  24.155  1.00  0.00     0.070 C 
BRANCH  78  79
ATOM     79  C   UNL A   1      30.739  25.294  23.571  1.00  0.00    -0.045 A 
ATOM     80  C   UNL A   1      29.818  26.213  24.093  1.00  0.00     0.007 A 
ATOM     81  C   UNL A   1      31.578  25.722  22.527  1.00  0.00     0.007 A 
ATOM     82  C   UNL A   1      29.630  27.463  23.492  1.00  0.00     0.046 A 
ATOM     83  C   UNL A   1      31.411  26.980  21.939  1.00  0.00     0.046 A 
ATOM     84  C   UNL A   1      30.413  27.824  22.402  1.00  0.00     0.115 A 
BRANCH  84  85
ATOM     85  O   UNL A   1      30.218  29.001  21.741  1.00  0.00    -0.508 OA
ATOM     86  H   UNL A   1      29.602  29.046  21.037  1.00  0.00     0.293 HD
ENDBRANCH  84  85
ENDBRANCH  78  79
ENDBRANCH  77  78
BRANCH  77  87
ATOM     87  N   UNL A   1      33.390  23.368  24.488  1.00  0.00    -0.372 N 
ATOM     88  H   UNL A   1      33.624  24.035  23.803  1.00  0.00     0.161 HD
BRANCH  87  89
ATOM     89  C   UNL A   1      34.352  22.370  24.696  1.00  0.00     0.054 A 
ATOM     90  C   UNL A   1      35.701  22.604  25.140  1.00  0.00     0.024 A 
ATOM     91  C   UNL A   1      33.943  21.011  24.440  1.00  0.00     0.024 A 
ATOM     92  C   UNL A   1      36.311  23.854  25.446  1.00  0.00     0.012 A 
ATOM     93  C   UNL A   1      36.515  21.466  25.338  1.00  0.00     0.073 A 
ATOM     94  C   UNL A   1      34.866  19.984  24.714  1.00  0.00     0.073 A 
ATOM     95  C   UNL A   1      32.676  20.614  23.917  1.00  0.00     0.012 A 
ATOM     96  C   UNL A   1      37.638  23.976  25.869  1.00  0.00     0.001 A 
ATOM     97  C   UNL A   1      37.829  21.600  25.771  1.00  0.00     0.029 A 
ATOM     98  N   UNL A   1      36.103  20.213  25.149  1.00  0.00    -0.248 NA
ATOM     99  C   UNL A   1      34.507  18.656  24.529  1.00  0.00     0.029 A 
ATOM    100  C   UNL A   1      32.337  19.273  23.726  1.00  0.00     0.001 A 
ATOM    101  C   UNL A   1      38.403  22.841  26.030  1.00  0.00     0.002 A 
ATOM    102  C   UNL A   1      33.253  18.287  24.046  1.00  0.00     0.002 A 
ENDBRANCH  87  89
ENDBRANCH  77  87
ENDBRANCH  74  77
ENDBRANCH  72  73
ENDBRANCH   1  72
TORSDOF 15
ENDMDL
