MODEL 1
REMARK VINA RESULT:     -12.0      0.000      0.000
REMARK SMILES COc1cccc(OC)c1[C@@H](C(=O)NCCCNC(=O)c1ccc(-c2c3nc(c(-c4c(F)c(F)c(F)c(F)c4F)c4ccc([nH]4)c(-c4c(F)c(F)c(F)c(F)c4F)c4nc(c(-c5c(F)c(F)c(F)c(F)c5F)c5ccc2[nH]5)C=C4)C=C3)cc1)[N@@H+](C)Cc1c(C)n[nH]c1C
REMARK SMILES IDX 15 1 14 2 12 3 13 4 11 6 10 7 3 8 4 9 5 10 7 11 6 12 2 13
REMARK SMILES IDX 1 14 8 15 9 16 84 17 85 18 86 20 87 21 88 22 92 23 89 24
REMARK SMILES IDX 90 25 91 26 93 27 16 29 17 30 18 31 19 32 20 34 21 35 22 36
REMARK SMILES IDX 83 37 23 38 82 39 24 40 25 41 26 42 76 43 27 44 81 45 75 46
REMARK SMILES IDX 77 47 28 48 80 49 74 50 73 51 29 53 61 54 41 55 60 56 42 57
REMARK SMILES IDX 45 58 59 59 78 60 43 61 44 62 58 64 79 65 46 66 30 67 31 68
REMARK SMILES IDX 39 69 32 70 33 71 37 72 40 73 34 74 35 75 38 76 36 77 62 78
REMARK SMILES IDX 63 79 71 80 64 81 65 82 69 83 72 84 66 85 67 86 70 87 68 88
REMARK SMILES IDX 47 89 48 90 56 91 49 92 50 93 54 94 57 95 51 96 52 97 55 98
REMARK SMILES IDX 53 99
REMARK H PARENT 14 5 84 19 91 28 18 33 77 52 45 63
REMARK Flexibility Score: inf
ROOT
ATOM      1  C   UNL A   1      31.392  29.814  25.425  1.00  0.00     0.118 C 
ENDROOT
BRANCH   1   2
ATOM      2  N   UNL A   1      32.494  29.619  24.517  1.00  0.00    -0.351 N 
ATOM      3  C   UNL A   1      32.656  28.943  23.354  1.00  0.00     0.283 C 
ATOM      4  O   UNL A   1      33.671  29.328  22.751  1.00  0.00    -0.268 OA
ATOM      5  H   UNL A   1      33.314  30.080  24.807  1.00  0.00     0.163 HD
BRANCH   3   6
ATOM      6  C   UNL A   1      31.672  27.912  22.717  1.00  0.00     0.313 C 
BRANCH   6   7
ATOM      7  C   UNL A   1      30.137  27.961  22.991  1.00  0.00     0.103 A 
ATOM      8  C   UNL A   1      29.511  26.967  23.801  1.00  0.00     0.132 A 
ATOM      9  C   UNL A   1      28.120  26.942  24.006  1.00  0.00     0.047 A 
ATOM     10  C   UNL A   1      27.308  27.941  23.499  1.00  0.00     0.008 A 
ATOM     11  C   UNL A   1      29.261  28.955  22.467  1.00  0.00     0.132 A 
ATOM     12  C   UNL A   1      27.883  28.954  22.750  1.00  0.00     0.047 A 
BRANCH   8  13
ATOM     13  O   UNL A   1      30.118  25.826  24.267  1.00  0.00    -0.496 OA
ATOM     14  C   UNL A   1      30.018  25.568  25.659  1.00  0.00     0.278 C 
ENDBRANCH   8  13
BRANCH  11  15
ATOM     15  O   UNL A   1      29.789  29.904  21.646  1.00  0.00    -0.496 OA
ATOM     16  C   UNL A   1      29.149  31.162  21.472  1.00  0.00     0.278 C 
ENDBRANCH  11  15
ENDBRANCH   6   7
BRANCH   6  17
ATOM     17  N   UNL A   1      32.294  26.552  22.548  1.00  0.00    -0.319 N 
ATOM     18  C   UNL A   1      32.049  25.952  21.234  1.00  0.00     0.333 C 
ATOM     19  H   UNL A   1      31.743  26.116  23.288  1.00  0.00     0.349 HD
BRANCH  17  20
ATOM     20  C   UNL A   1      33.635  26.210  23.049  1.00  0.00     0.303 C 
BRANCH  20  21
ATOM     21  C   UNL A   1      33.861  25.178  24.142  1.00  0.00     0.050 A 
ATOM     22  C   UNL A   1      34.446  23.858  24.169  1.00  0.00     0.068 A 
ATOM     23  C   UNL A   1      33.722  25.459  25.505  1.00  0.00     0.041 A 
ATOM     24  C   UNL A   1      35.011  22.969  23.125  1.00  0.00     0.069 C 
ATOM     25  N   UNL A   1      34.531  23.362  25.413  1.00  0.00    -0.180 NA
ATOM     26  N   UNL A   1      34.040  24.323  26.183  1.00  0.00    -0.282 N 
ATOM     27  C   UNL A   1      33.378  26.700  26.240  1.00  0.00     0.066 C 
ATOM     28  H   UNL A   1      33.918  24.224  27.155  1.00  0.00     0.190 HD
ENDBRANCH  20  21
ENDBRANCH  17  20
ENDBRANCH   6  17
ENDBRANCH   3   6
ENDBRANCH   1   2
BRANCH   1  29
ATOM     29  C   UNL A   1      31.314  31.220  25.996  1.00  0.00     0.042 C 
BRANCH  29  30
ATOM     30  C   UNL A   1      32.502  31.593  26.878  1.00  0.00     0.118 C 
BRANCH  30  31
ATOM     31  N   UNL A   1      32.563  33.015  27.180  1.00  0.00    -0.352 N 
ATOM     32  C   UNL A   1      33.384  33.739  28.002  1.00  0.00     0.251 C 
ATOM     33  H   UNL A   1      31.890  33.556  26.706  1.00  0.00     0.163 HD
ATOM     34  O   UNL A   1      33.111  34.914  28.231  1.00  0.00    -0.269 OA
BRANCH  32  35
ATOM     35  C   UNL A   1      34.585  33.139  28.625  1.00  0.00     0.039 A 
ATOM     36  C   UNL A   1      34.403  32.301  29.729  1.00  0.00     0.014 A 
ATOM     37  C   UNL A   1      35.877  33.449  28.195  1.00  0.00     0.014 A 
ATOM     38  C   UNL A   1      35.509  31.744  30.372  1.00  0.00     0.010 A 
ATOM     39  C   UNL A   1      36.978  32.829  28.787  1.00  0.00     0.010 A 
ATOM     40  C   UNL A   1      36.807  31.983  29.890  1.00  0.00    -0.014 A 
BRANCH  40  41
ATOM     41  C   UNL A   1      37.982  31.356  30.548  1.00  0.00     0.031 A 
ATOM     42  C   UNL A   1      38.355  31.722  31.958  1.00  0.00     0.074 A 
ATOM     43  C   UNL A   1      38.730  30.472  29.861  1.00  0.00     0.049 A 
ATOM     44  N   UNL A   1      39.339  31.272  32.697  1.00  0.00    -0.248 NA
ATOM     45  C   UNL A   1      37.530  32.745  32.619  1.00  0.00     0.031 C 
ATOM     46  C   UNL A   1      38.503  30.076  28.470  1.00  0.00     0.029 A 
ATOM     47  N   UNL A   1      39.830  29.746  30.238  1.00  0.00    -0.354 N 
ATOM     48  C   UNL A   1      39.255  31.960  33.900  1.00  0.00     0.074 A 
ATOM     49  C   UNL A   1      38.161  32.898  33.774  1.00  0.00     0.031 C 
ATOM     50  C   UNL A   1      39.414  29.155  28.122  1.00  0.00     0.029 A 
ATOM     51  C   UNL A   1      40.305  28.916  29.253  1.00  0.00     0.049 A 
ATOM     52  H   UNL A   1      40.240  29.813  31.131  1.00  0.00     0.167 HD
ATOM     53  C   UNL A   1      40.009  31.808  35.016  1.00  0.00     0.037 A 
ATOM     54  C   UNL A   1      41.338  28.054  29.264  1.00  0.00     0.037 A 
ATOM     55  C   UNL A   1      41.084  30.860  35.147  1.00  0.00     0.049 A 
ATOM     56  C   UNL A   1      42.142  27.887  30.523  1.00  0.00     0.074 A 
ATOM     57  C   UNL A   1      41.875  30.595  36.251  1.00  0.00     0.029 A 
ATOM     58  N   UNL A   1      41.519  30.016  34.135  1.00  0.00    -0.354 N 
ATOM     59  N   UNL A   1      42.011  28.493  31.677  1.00  0.00    -0.248 NA
ATOM     60  C   UNL A   1      43.231  26.900  30.486  1.00  0.00     0.031 C 
ATOM     61  C   UNL A   1      42.814  29.619  35.897  1.00  0.00     0.029 A 
ATOM     62  C   UNL A   1      42.576  29.240  34.585  1.00  0.00     0.049 A 
ATOM     63  H   UNL A   1      41.134  29.974  33.229  1.00  0.00     0.167 HD
ATOM     64  C   UNL A   1      42.975  27.943  32.510  1.00  0.00     0.074 A 
ATOM     65  C   UNL A   1      43.674  26.940  31.734  1.00  0.00     0.031 C 
ATOM     66  C   UNL A   1      43.256  28.240  33.803  1.00  0.00     0.037 A 
BRANCH  53  67
ATOM     67  C   UNL A   1      39.690  32.687  36.192  1.00  0.00     0.064 A 
ATOM     68  C   UNL A   1      40.347  33.912  36.392  1.00  0.00     0.173 A 
ATOM     69  C   UNL A   1      38.696  32.319  37.109  1.00  0.00     0.173 A 
ATOM     70  F   UNL A   1      41.313  34.305  35.550  1.00  0.00    -0.203 F 
ATOM     71  C   UNL A   1      40.037  34.721  37.482  1.00  0.00     0.198 A 
ATOM     72  C   UNL A   1      38.368  33.146  38.182  1.00  0.00     0.198 A 
ATOM     73  F   UNL A   1      38.033  31.162  36.962  1.00  0.00    -0.203 F 
ATOM     74  F   UNL A   1      40.710  35.864  37.678  1.00  0.00    -0.200 F 
ATOM     75  C   UNL A   1      39.044  34.341  38.372  1.00  0.00     0.200 A 
ATOM     76  F   UNL A   1      37.399  32.783  39.033  1.00  0.00    -0.200 F 
ATOM     77  F   UNL A   1      38.742  35.125  39.416  1.00  0.00    -0.200 F 
ENDBRANCH  53  67
BRANCH  54  78
ATOM     78  C   UNL A   1      41.640  27.246  28.054  1.00  0.00     0.064 A 
ATOM     79  C   UNL A   1      42.548  27.707  27.090  1.00  0.00     0.173 A 
ATOM     80  C   UNL A   1      41.028  26.004  27.834  1.00  0.00     0.173 A 
ATOM     81  F   UNL A   1      43.144  28.899  27.248  1.00  0.00    -0.203 F 
ATOM     82  C   UNL A   1      42.817  26.966  25.941  1.00  0.00     0.198 A 
ATOM     83  C   UNL A   1      41.319  25.251  26.699  1.00  0.00     0.198 A 
ATOM     84  F   UNL A   1      40.157  25.516  28.730  1.00  0.00    -0.203 F 
ATOM     85  F   UNL A   1      43.653  27.451  25.015  1.00  0.00    -0.200 F 
ATOM     86  C   UNL A   1      42.206  25.736  25.750  1.00  0.00     0.200 A 
ATOM     87  F   UNL A   1      40.737  24.057  26.524  1.00  0.00    -0.200 F 
ATOM     88  F   UNL A   1      42.466  25.022  24.646  1.00  0.00    -0.200 F 
ENDBRANCH  54  78
BRANCH  66  89
ATOM     89  C   UNL A   1      44.340  27.443  34.467  1.00  0.00     0.064 A 
ATOM     90  C   UNL A   1      45.674  27.876  34.480  1.00  0.00     0.173 A 
ATOM     91  C   UNL A   1      44.036  26.233  35.109  1.00  0.00     0.173 A 
ATOM     92  F   UNL A   1      46.018  29.019  33.867  1.00  0.00    -0.203 F 
ATOM     93  C   UNL A   1      46.670  27.110  35.079  1.00  0.00     0.198 A 
ATOM     94  C   UNL A   1      45.030  25.484  35.733  1.00  0.00     0.198 A 
ATOM     95  F   UNL A   1      42.775  25.776  35.132  1.00  0.00    -0.203 F 
ATOM     96  F   UNL A   1      47.947  27.515  35.026  1.00  0.00    -0.200 F 
ATOM     97  C   UNL A   1      46.347  25.917  35.709  1.00  0.00     0.200 A 
ATOM     98  F   UNL A   1      44.714  24.338  36.352  1.00  0.00    -0.200 F 
ATOM     99  F   UNL A   1      47.307  25.179  36.283  1.00  0.00    -0.200 F 
ENDBRANCH  66  89
ENDBRANCH  40  41
ENDBRANCH  32  35
ENDBRANCH  30  31
ENDBRANCH  29  30
ENDBRANCH   1  29
TORSDOF 16
ENDMDL
MODEL 2
REMARK VINA RESULT:     -11.9      4.946     10.460
REMARK SMILES COc1cccc(OC)c1[C@@H](C(=O)NCCCNC(=O)c1ccc(-c2c3nc(c(-c4c(F)c(F)c(F)c(F)c4F)c4ccc([nH]4)c(-c4c(F)c(F)c(F)c(F)c4F)c4nc(c(-c5c(F)c(F)c(F)c(F)c5F)c5ccc2[nH]5)C=C4)C=C3)cc1)[N@@H+](C)Cc1c(C)n[nH]c1C
REMARK SMILES IDX 15 1 14 2 12 3 13 4 11 6 10 7 3 8 4 9 5 10 7 11 6 12 2 13
REMARK SMILES IDX 1 14 8 15 9 16 84 17 85 18 86 20 87 21 88 22 92 23 89 24
REMARK SMILES IDX 90 25 91 26 93 27 16 29 17 30 18 31 19 32 20 34 21 35 22 36
REMARK SMILES IDX 83 37 23 38 82 39 24 40 25 41 26 42 76 43 27 44 81 45 75 46
REMARK SMILES IDX 77 47 28 48 80 49 74 50 73 51 29 53 61 54 41 55 60 56 42 57
REMARK SMILES IDX 45 58 59 59 78 60 43 61 44 62 58 64 79 65 46 66 30 67 31 68
REMARK SMILES IDX 39 69 32 70 33 71 37 72 40 73 34 74 35 75 38 76 36 77 62 78
REMARK SMILES IDX 63 79 71 80 64 81 65 82 69 83 72 84 66 85 67 86 70 87 68 88
REMARK SMILES IDX 47 89 48 90 56 91 49 92 50 93 54 94 57 95 51 96 52 97 55 98
REMARK SMILES IDX 53 99
REMARK H PARENT 14 5 84 19 91 28 18 33 77 52 45 63
REMARK Flexibility Score: inf
ROOT
ATOM      1  C   UNL A   1      35.818  20.614  24.847  1.00  0.00     0.118 C 
ENDROOT
BRANCH   1   2
ATOM      2  N   UNL A   1      35.309  21.107  26.102  1.00  0.00    -0.351 N 
ATOM      3  C   UNL A   1      34.068  21.312  26.607  1.00  0.00     0.283 C 
ATOM      4  O   UNL A   1      34.103  21.429  27.843  1.00  0.00    -0.268 OA
ATOM      5  H   UNL A   1      36.023  21.351  26.734  1.00  0.00     0.163 HD
BRANCH   3   6
ATOM      6  C   UNL A   1      32.715  21.275  25.829  1.00  0.00     0.313 C 
BRANCH   6   7
ATOM      7  C   UNL A   1      32.532  20.424  24.535  1.00  0.00     0.103 A 
ATOM      8  C   UNL A   1      32.356  21.056  23.268  1.00  0.00     0.132 A 
ATOM      9  C   UNL A   1      32.116  20.319  22.095  1.00  0.00     0.047 A 
ATOM     10  C   UNL A   1      32.130  18.936  22.109  1.00  0.00     0.008 A 
ATOM     11  C   UNL A   1      32.513  19.000  24.509  1.00  0.00     0.132 A 
ATOM     12  C   UNL A   1      32.349  18.281  23.310  1.00  0.00     0.047 A 
BRANCH   8  13
ATOM     13  O   UNL A   1      32.170  22.404  23.074  1.00  0.00    -0.496 OA
ATOM     14  C   UNL A   1      33.200  23.103  22.392  1.00  0.00     0.278 C 
ENDBRANCH   8  13
BRANCH  11  15
ATOM     15  O   UNL A   1      32.626  18.336  25.692  1.00  0.00    -0.496 OA
ATOM     16  C   UNL A   1      32.733  16.919  25.731  1.00  0.00     0.278 C 
ENDBRANCH  11  15
ENDBRANCH   6   7
BRANCH   6  17
ATOM     17  N   UNL A   1      31.976  22.584  25.898  1.00  0.00    -0.319 N 
ATOM     18  C   UNL A   1      30.557  22.443  26.234  1.00  0.00     0.333 C 
ATOM     19  H   UNL A   1      32.127  22.816  24.916  1.00  0.00     0.349 HD
BRANCH  17  20
ATOM     20  C   UNL A   1      32.547  23.802  26.496  1.00  0.00     0.303 C 
BRANCH  20  21
ATOM     21  C   UNL A   1      32.877  25.038  25.675  1.00  0.00     0.050 A 
ATOM     22  C   UNL A   1      32.201  26.292  25.435  1.00  0.00     0.068 A 
ATOM     23  C   UNL A   1      34.141  25.283  25.129  1.00  0.00     0.041 A 
ATOM     24  C   UNL A   1      30.891  26.845  25.857  1.00  0.00     0.069 C 
ATOM     25  N   UNL A   1      32.947  27.144  24.715  1.00  0.00    -0.180 NA
ATOM     26  N   UNL A   1      34.080  26.490  24.502  1.00  0.00    -0.282 N 
ATOM     27  C   UNL A   1      35.416  24.530  25.183  1.00  0.00     0.066 C 
ATOM     28  H   UNL A   1      34.810  26.844  23.944  1.00  0.00     0.190 HD
ENDBRANCH  20  21
ENDBRANCH  17  20
ENDBRANCH   6  17
ENDBRANCH   3   6
ENDBRANCH   1   2
BRANCH   1  29
ATOM     29  C   UNL A   1      37.007  19.682  24.995  1.00  0.00     0.042 C 
BRANCH  29  30
ATOM     30  C   UNL A   1      38.300  20.390  25.390  1.00  0.00     0.118 C 
BRANCH  30  31
ATOM     31  N   UNL A   1      39.383  19.469  25.702  1.00  0.00    -0.352 N 
ATOM     32  C   UNL A   1      40.674  19.680  26.104  1.00  0.00     0.251 C 
ATOM     33  H   UNL A   1      39.142  18.518  25.608  1.00  0.00     0.163 HD
ATOM     34  O   UNL A   1      41.455  18.732  26.123  1.00  0.00    -0.269 OA
BRANCH  32  35
ATOM     35  C   UNL A   1      41.152  21.021  26.507  1.00  0.00     0.039 A 
ATOM     36  C   UNL A   1      41.588  21.893  25.505  1.00  0.00     0.014 A 
ATOM     37  C   UNL A   1      41.254  21.401  27.848  1.00  0.00     0.014 A 
ATOM     38  C   UNL A   1      42.083  23.153  25.841  1.00  0.00     0.010 A 
ATOM     39  C   UNL A   1      41.674  22.689  28.179  1.00  0.00     0.010 A 
ATOM     40  C   UNL A   1      42.106  23.573  27.181  1.00  0.00    -0.014 A 
BRANCH  40  41
ATOM     41  C   UNL A   1      42.594  24.930  27.537  1.00  0.00     0.031 A 
ATOM     42  C   UNL A   1      44.020  25.324  27.273  1.00  0.00     0.074 A 
ATOM     43  C   UNL A   1      41.752  25.801  28.125  1.00  0.00     0.049 A 
ATOM     44  N   UNL A   1      44.620  26.465  27.506  1.00  0.00    -0.248 NA
ATOM     45  C   UNL A   1      44.897  24.296  26.691  1.00  0.00     0.031 C 
ATOM     46  C   UNL A   1      40.361  25.519  28.483  1.00  0.00     0.029 A 
ATOM     47  N   UNL A   1      41.941  27.099  28.523  1.00  0.00    -0.354 N 
ATOM     48  C   UNL A   1      45.939  26.289  27.109  1.00  0.00     0.074 A 
ATOM     49  C   UNL A   1      46.068  24.916  26.672  1.00  0.00     0.031 C 
ATOM     50  C   UNL A   1      39.813  26.622  29.017  1.00  0.00     0.029 A 
ATOM     51  C   UNL A   1      40.820  27.677  29.065  1.00  0.00     0.049 A 
ATOM     52  H   UNL A   1      42.799  27.573  28.429  1.00  0.00     0.167 HD
ATOM     53  C   UNL A   1      46.946  27.196  27.090  1.00  0.00     0.037 A 
ATOM     54  C   UNL A   1      40.623  28.921  29.539  1.00  0.00     0.037 A 
ATOM     55  C   UNL A   1      46.811  28.567  27.505  1.00  0.00     0.049 A 
ATOM     56  C   UNL A   1      41.750  29.915  29.482  1.00  0.00     0.074 A 
ATOM     57  C   UNL A   1      47.758  29.577  27.478  1.00  0.00     0.029 A 
ATOM     58  N   UNL A   1      45.651  29.124  28.024  1.00  0.00    -0.354 N 
ATOM     59  N   UNL A   1      42.974  29.757  29.041  1.00  0.00    -0.248 NA
ATOM     60  C   UNL A   1      41.462  31.269  29.976  1.00  0.00     0.031 C 
ATOM     61  C   UNL A   1      47.182  30.734  28.016  1.00  0.00     0.029 A 
ATOM     62  C   UNL A   1      45.862  30.459  28.333  1.00  0.00     0.049 A 
ATOM     63  H   UNL A   1      44.801  28.642  28.153  1.00  0.00     0.167 HD
ATOM     64  C   UNL A   1      43.591  30.993  29.174  1.00  0.00     0.074 A 
ATOM     65  C   UNL A   1      42.601  31.896  29.723  1.00  0.00     0.031 C 
ATOM     66  C   UNL A   1      44.864  31.348  28.870  1.00  0.00     0.037 A 
BRANCH  53  67
ATOM     67  C   UNL A   1      48.287  26.732  26.595  1.00  0.00     0.064 A 
ATOM     68  C   UNL A   1      48.686  26.929  25.264  1.00  0.00     0.173 A 
ATOM     69  C   UNL A   1      49.195  26.116  27.468  1.00  0.00     0.173 A 
ATOM     70  F   UNL A   1      47.851  27.503  24.386  1.00  0.00    -0.203 F 
ATOM     71  C   UNL A   1      49.935  26.501  24.820  1.00  0.00     0.198 A 
ATOM     72  C   UNL A   1      50.455  25.717  27.027  1.00  0.00     0.198 A 
ATOM     73  F   UNL A   1      48.867  25.910  28.753  1.00  0.00    -0.203 F 
ATOM     74  F   UNL A   1      50.276  26.657  23.533  1.00  0.00    -0.200 F 
ATOM     75  C   UNL A   1      50.821  25.902  25.703  1.00  0.00     0.200 A 
ATOM     76  F   UNL A   1      51.315  25.150  27.886  1.00  0.00    -0.200 F 
ATOM     77  F   UNL A   1      52.024  25.498  25.275  1.00  0.00    -0.200 F 
ENDBRANCH  53  67
BRANCH  54  78
ATOM     78  C   UNL A   1      39.289  29.310  30.065  1.00  0.00     0.064 A 
ATOM     79  C   UNL A   1      38.327  29.891  29.226  1.00  0.00     0.173 A 
ATOM     80  C   UNL A   1      38.951  29.115  31.411  1.00  0.00     0.173 A 
ATOM     81  F   UNL A   1      38.613  30.116  27.935  1.00  0.00    -0.203 F 
ATOM     82  C   UNL A   1      37.084  30.281  29.719  1.00  0.00     0.198 A 
ATOM     83  C   UNL A   1      37.697  29.479  31.897  1.00  0.00     0.198 A 
ATOM     84  F   UNL A   1      39.834  28.556  32.252  1.00  0.00    -0.203 F 
ATOM     85  F   UNL A   1      36.200  30.875  28.908  1.00  0.00    -0.200 F 
ATOM     86  C   UNL A   1      36.768  30.069  31.053  1.00  0.00     0.200 A 
ATOM     87  F   UNL A   1      37.390  29.260  33.182  1.00  0.00    -0.200 F 
ATOM     88  F   UNL A   1      35.571  30.442  31.527  1.00  0.00    -0.200 F 
ENDBRANCH  54  78
BRANCH  66  89
ATOM     89  C   UNL A   1      45.242  32.784  29.086  1.00  0.00     0.064 A 
ATOM     90  C   UNL A   1      45.816  33.223  30.288  1.00  0.00     0.173 A 
ATOM     91  C   UNL A   1      45.036  33.731  28.071  1.00  0.00     0.173 A 
ATOM     92  F   UNL A   1      46.020  32.360  31.295  1.00  0.00    -0.203 F 
ATOM     93  C   UNL A   1      46.137  34.565  30.480  1.00  0.00     0.198 A 
ATOM     94  C   UNL A   1      45.386  35.066  28.256  1.00  0.00     0.198 A 
ATOM     95  F   UNL A   1      44.497  33.361  26.900  1.00  0.00    -0.203 F 
ATOM     96  F   UNL A   1      46.629  34.972  31.658  1.00  0.00    -0.200 F 
ATOM     97  C   UNL A   1      45.926  35.484  29.462  1.00  0.00     0.200 A 
ATOM     98  F   UNL A   1      45.194  35.949  27.267  1.00  0.00    -0.200 F 
ATOM     99  F   UNL A   1      46.233  36.774  29.649  1.00  0.00    -0.200 F 
ENDBRANCH  66  89
ENDBRANCH  40  41
ENDBRANCH  32  35
ENDBRANCH  30  31
ENDBRANCH  29  30
ENDBRANCH   1  29
TORSDOF 16
ENDMDL
MODEL 3
REMARK VINA RESULT:     -11.8      0.377      2.291
REMARK SMILES COc1cccc(OC)c1[C@@H](C(=O)NCCCNC(=O)c1ccc(-c2c3nc(c(-c4c(F)c(F)c(F)c(F)c4F)c4ccc([nH]4)c(-c4c(F)c(F)c(F)c(F)c4F)c4nc(c(-c5c(F)c(F)c(F)c(F)c5F)c5ccc2[nH]5)C=C4)C=C3)cc1)[N@@H+](C)Cc1c(C)n[nH]c1C
REMARK SMILES IDX 15 1 14 2 12 3 13 4 11 6 10 7 3 8 4 9 5 10 7 11 6 12 2 13
REMARK SMILES IDX 1 14 8 15 9 16 84 17 85 18 86 20 87 21 88 22 92 23 89 24
REMARK SMILES IDX 90 25 91 26 93 27 16 29 17 30 18 31 19 32 20 34 21 35 22 36
REMARK SMILES IDX 83 37 23 38 82 39 24 40 25 41 26 42 76 43 27 44 81 45 75 46
REMARK SMILES IDX 77 47 28 48 80 49 74 50 73 51 29 53 61 54 41 55 60 56 42 57
REMARK SMILES IDX 45 58 59 59 78 60 43 61 44 62 58 64 79 65 46 66 30 67 31 68
REMARK SMILES IDX 39 69 32 70 33 71 37 72 40 73 34 74 35 75 38 76 36 77 62 78
REMARK SMILES IDX 63 79 71 80 64 81 65 82 69 83 72 84 66 85 67 86 70 87 68 88
REMARK SMILES IDX 47 89 48 90 56 91 49 92 50 93 54 94 57 95 51 96 52 97 55 98
REMARK SMILES IDX 53 99
REMARK H PARENT 14 5 84 19 91 28 18 33 77 52 45 63
REMARK Flexibility Score: inf
ROOT
ATOM      1  C   UNL A   1      31.463  29.569  25.295  1.00  0.00     0.118 C 
ENDROOT
BRANCH   1   2
ATOM      2  N   UNL A   1      32.485  29.417  24.290  1.00  0.00    -0.351 N 
ATOM      3  C   UNL A   1      32.542  28.812  23.079  1.00  0.00     0.283 C 
ATOM      4  O   UNL A   1      33.512  29.221  22.420  1.00  0.00    -0.268 OA
ATOM      5  H   UNL A   1      33.334  29.848  24.541  1.00  0.00     0.163 HD
BRANCH   3   6
ATOM      6  C   UNL A   1      31.491  27.836  22.463  1.00  0.00     0.313 C 
BRANCH   6   7
ATOM      7  C   UNL A   1      29.975  27.925  22.819  1.00  0.00     0.103 A 
ATOM      8  C   UNL A   1      29.190  29.034  22.385  1.00  0.00     0.132 A 
ATOM      9  C   UNL A   1      27.840  29.180  22.751  1.00  0.00     0.047 A 
ATOM     10  C   UNL A   1      27.191  28.199  23.479  1.00  0.00     0.008 A 
ATOM     11  C   UNL A   1      29.275  26.952  23.589  1.00  0.00     0.132 A 
ATOM     12  C   UNL A   1      27.903  27.080  23.878  1.00  0.00     0.047 A 
BRANCH   8  13
ATOM     13  O   UNL A   1      29.683  30.167  21.783  1.00  0.00    -0.496 OA
ATOM     14  C   UNL A   1      28.775  31.243  21.598  1.00  0.00     0.278 C 
ENDBRANCH   8  13
BRANCH  11  15
ATOM     15  O   UNL A   1      29.979  25.893  24.076  1.00  0.00    -0.496 OA
ATOM     16  C   UNL A   1      30.041  25.633  25.472  1.00  0.00     0.278 C 
ENDBRANCH  11  15
ENDBRANCH   6   7
BRANCH   6  17
ATOM     17  N   UNL A   1      32.056  26.463  22.216  1.00  0.00    -0.319 N 
ATOM     18  C   UNL A   1      31.801  25.954  20.866  1.00  0.00     0.333 C 
ATOM     19  H   UNL A   1      31.480  26.008  22.924  1.00  0.00     0.349 HD
BRANCH  17  20
ATOM     20  C   UNL A   1      33.377  26.035  22.706  1.00  0.00     0.303 C 
BRANCH  20  21
ATOM     21  C   UNL A   1      33.549  25.185  23.955  1.00  0.00     0.050 A 
ATOM     22  C   UNL A   1      33.676  25.486  25.362  1.00  0.00     0.068 A 
ATOM     23  C   UNL A   1      33.372  23.798  23.972  1.00  0.00     0.041 A 
ATOM     24  C   UNL A   1      33.739  26.749  26.136  1.00  0.00     0.069 C 
ATOM     25  N   UNL A   1      33.694  24.379  26.121  1.00  0.00    -0.180 NA
ATOM     26  N   UNL A   1      33.564  23.384  25.254  1.00  0.00    -0.282 N 
ATOM     27  C   UNL A   1      32.984  22.827  22.921  1.00  0.00     0.066 C 
ATOM     28  H   UNL A   1      33.602  22.436  25.514  1.00  0.00     0.190 HD
ENDBRANCH  20  21
ENDBRANCH  17  20
ENDBRANCH   6  17
ENDBRANCH   3   6
ENDBRANCH   1   2
BRANCH   1  29
ATOM     29  C   UNL A   1      31.376  30.973  25.867  1.00  0.00     0.042 C 
BRANCH  29  30
ATOM     30  C   UNL A   1      32.530  31.333  26.799  1.00  0.00     0.118 C 
BRANCH  30  31
ATOM     31  N   UNL A   1      32.617  32.759  27.075  1.00  0.00    -0.352 N 
ATOM     32  C   UNL A   1      33.417  33.477  27.922  1.00  0.00     0.251 C 
ATOM     33  H   UNL A   1      31.984  33.308  26.558  1.00  0.00     0.163 HD
ATOM     34  O   UNL A   1      33.168  34.664  28.114  1.00  0.00    -0.269 OA
BRANCH  32  35
ATOM     35  C   UNL A   1      34.569  32.857  28.615  1.00  0.00     0.039 A 
ATOM     36  C   UNL A   1      35.852  33.135  28.135  1.00  0.00     0.014 A 
ATOM     37  C   UNL A   1      34.403  31.953  29.667  1.00  0.00     0.014 A 
ATOM     38  C   UNL A   1      36.965  32.543  28.733  1.00  0.00     0.010 A 
ATOM     39  C   UNL A   1      35.519  31.424  30.315  1.00  0.00     0.010 A 
ATOM     40  C   UNL A   1      36.810  31.701  29.846  1.00  0.00    -0.014 A 
BRANCH  40  41
ATOM     41  C   UNL A   1      37.997  31.103  30.510  1.00  0.00     0.031 A 
ATOM     42  C   UNL A   1      38.341  31.461  31.929  1.00  0.00     0.074 A 
ATOM     43  C   UNL A   1      38.781  30.254  29.820  1.00  0.00     0.049 A 
ATOM     44  N   UNL A   1      39.329  31.032  32.674  1.00  0.00    -0.248 NA
ATOM     45  C   UNL A   1      37.475  32.447  32.594  1.00  0.00     0.031 C 
ATOM     46  C   UNL A   1      38.584  29.871  28.421  1.00  0.00     0.029 A 
ATOM     47  N   UNL A   1      39.899  29.557  30.201  1.00  0.00    -0.354 N 
ATOM     48  C   UNL A   1      39.209  31.699  33.885  1.00  0.00     0.074 A 
ATOM     49  C   UNL A   1      38.087  32.603  33.760  1.00  0.00     0.031 C 
ATOM     50  C   UNL A   1      39.529  28.984  28.071  1.00  0.00     0.029 A 
ATOM     51  C   UNL A   1      40.413  28.758  29.210  1.00  0.00     0.049 A 
ATOM     52  H   UNL A   1      40.296  29.625  31.099  1.00  0.00     0.167 HD
ATOM     53  C   UNL A   1      39.954  31.555  35.008  1.00  0.00     0.037 A 
ATOM     54  C   UNL A   1      41.473  27.929  29.222  1.00  0.00     0.037 A 
ATOM     55  C   UNL A   1      41.057  30.640  35.140  1.00  0.00     0.049 A 
ATOM     56  C   UNL A   1      42.266  27.769  30.489  1.00  0.00     0.074 A 
ATOM     57  C   UNL A   1      41.843  30.386  36.250  1.00  0.00     0.029 A 
ATOM     58  N   UNL A   1      41.531  29.826  34.122  1.00  0.00    -0.354 N 
ATOM     59  N   UNL A   1      42.101  28.355  31.649  1.00  0.00    -0.248 NA
ATOM     60  C   UNL A   1      43.386  26.818  30.451  1.00  0.00     0.031 C 
ATOM     61  C   UNL A   1      42.817  29.445  35.894  1.00  0.00     0.029 A 
ATOM     62  C   UNL A   1      42.607  29.078  34.575  1.00  0.00     0.049 A 
ATOM     63  H   UNL A   1      41.159  29.785  33.211  1.00  0.00     0.167 HD
ATOM     64  C   UNL A   1      43.073  27.823  32.487  1.00  0.00     0.074 A 
ATOM     65  C   UNL A   1      43.813  26.855  31.705  1.00  0.00     0.031 C 
ATOM     66  C   UNL A   1      43.328  28.111  33.787  1.00  0.00     0.037 A 
BRANCH  53  67
ATOM     67  C   UNL A   1      39.593  32.407  36.193  1.00  0.00     0.064 A 
ATOM     68  C   UNL A   1      40.253  33.618  36.455  1.00  0.00     0.173 A 
ATOM     69  C   UNL A   1      38.554  32.027  37.055  1.00  0.00     0.173 A 
ATOM     70  F   UNL A   1      41.261  34.022  35.667  1.00  0.00    -0.203 F 
ATOM     71  C   UNL A   1      39.904  34.402  37.552  1.00  0.00     0.198 A 
ATOM     72  C   UNL A   1      38.188  32.829  38.134  1.00  0.00     0.198 A 
ATOM     73  F   UNL A   1      37.886  30.883  36.847  1.00  0.00    -0.203 F 
ATOM     74  F   UNL A   1      40.581  35.530  37.808  1.00  0.00    -0.200 F 
ATOM     75  C   UNL A   1      38.868  34.010  38.386  1.00  0.00     0.200 A 
ATOM     76  F   UNL A   1      37.178  32.455  38.931  1.00  0.00    -0.200 F 
ATOM     77  F   UNL A   1      38.529  34.770  39.436  1.00  0.00    -0.200 F 
ENDBRANCH  53  67
BRANCH  54  78
ATOM     78  C   UNL A   1      41.815  27.149  28.005  1.00  0.00     0.064 A 
ATOM     79  C   UNL A   1      41.238  25.893  27.769  1.00  0.00     0.173 A 
ATOM     80  C   UNL A   1      42.726  27.638  27.058  1.00  0.00     0.173 A 
ATOM     81  F   UNL A   1      40.377  25.376  28.657  1.00  0.00    -0.203 F 
ATOM     82  C   UNL A   1      41.574  25.146  26.642  1.00  0.00     0.198 A 
ATOM     83  C   UNL A   1      43.040  26.903  25.916  1.00  0.00     0.198 A 
ATOM     84  F   UNL A   1      43.300  28.837  27.234  1.00  0.00    -0.203 F 
ATOM     85  F   UNL A   1      41.043  23.930  26.464  1.00  0.00    -0.200 F 
ATOM     86  C   UNL A   1      42.471  25.655  25.714  1.00  0.00     0.200 A 
ATOM     87  F   UNL A   1      43.896  27.403  25.015  1.00  0.00    -0.200 F 
ATOM     88  F   UNL A   1      42.792  24.937  24.629  1.00  0.00    -0.200 F 
ENDBRANCH  54  78
BRANCH  66  89
ATOM     89  C   UNL A   1      44.429  27.340  34.453  1.00  0.00     0.064 A 
ATOM     90  C   UNL A   1      44.194  26.106  35.077  1.00  0.00     0.173 A 
ATOM     91  C   UNL A   1      45.741  27.838  34.457  1.00  0.00     0.173 A 
ATOM     92  F   UNL A   1      42.955  25.593  35.114  1.00  0.00    -0.203 F 
ATOM     93  C   UNL A   1      45.224  25.416  35.712  1.00  0.00     0.198 A 
ATOM     94  C   UNL A   1      46.774  27.131  35.067  1.00  0.00     0.198 A 
ATOM     95  F   UNL A   1      46.021  29.010  33.868  1.00  0.00    -0.203 F 
ATOM     96  F   UNL A   1      44.963  24.268  36.354  1.00  0.00    -0.200 F 
ATOM     97  C   UNL A   1      46.513  25.927  35.703  1.00  0.00     0.200 A 
ATOM     98  F   UNL A   1      48.021  27.620  35.046  1.00  0.00    -0.200 F 
ATOM     99  F   UNL A   1      47.503  25.264  36.317  1.00  0.00    -0.200 F 
ENDBRANCH  66  89
ENDBRANCH  40  41
ENDBRANCH  32  35
ENDBRANCH  30  31
ENDBRANCH  29  30
ENDBRANCH   1  29
TORSDOF 16
ENDMDL
