MODEL 1
REMARK VINA RESULT:     -13.0      0.000      0.000
REMARK SMILES CCOc1ccccc1[C@@H](C(=O)NCCCNC(=O)c1ccc(-c2c3nc(c(-c4c(F)c(F)c(F)c(F)c4F)c4ccc([nH]4)c(-c4c(F)c(F)c(F)c(F)c4F)c4nc(c(-c5c(F)c(F)c(F)c(F)c5F)c5ccc2[nH]5)C=C4)C=C3)cc1)[NH+]1CCC(C(=O)N2CCCC2)CC1
REMARK SMILES IDX 14 1 13 2 11 3 12 4 10 6 9 7 4 8 5 9 6 10 8 11 7 12 3 13
REMARK SMILES IDX 2 14 1 15 83 16 84 17 95 18 85 20 94 21 86 22 87 23 88 24
REMARK SMILES IDX 89 25 90 26 93 27 91 28 92 29 15 30 16 31 17 32 18 33 19 35
REMARK SMILES IDX 20 36 21 37 82 38 22 39 81 40 23 41 24 42 25 43 75 44 26 45
REMARK SMILES IDX 80 46 74 47 76 48 27 49 79 50 73 51 72 52 28 54 60 55 40 56
REMARK SMILES IDX 59 57 41 58 44 59 58 60 77 61 42 62 43 63 57 65 78 66 45 67
REMARK SMILES IDX 29 68 30 69 38 70 31 71 32 72 36 73 39 74 33 75 34 76 37 77
REMARK SMILES IDX 35 78 61 79 62 80 70 81 63 82 64 83 68 84 71 85 65 86 66 87
REMARK SMILES IDX 69 88 67 89 46 90 47 91 55 92 48 93 49 94 53 95 56 96 50 97
REMARK SMILES IDX 51 98 54 99 52 100
REMARK H PARENT 13 5 83 19 17 34 76 53 44 64
REMARK Flexibility Score: inf
ROOT
ATOM      1  C   UNL A   1      31.844  30.807  26.092  1.00  0.00     0.118 C 
ENDROOT
BRANCH   1   2
ATOM      2  N   UNL A   1      31.862  29.577  26.852  1.00  0.00    -0.351 N 
ATOM      3  C   UNL A   1      31.774  28.279  26.424  1.00  0.00     0.283 C 
ATOM      4  O   UNL A   1      31.731  27.435  27.326  1.00  0.00    -0.268 OA
ATOM      5  H   UNL A   1      31.950  29.690  27.827  1.00  0.00     0.163 HD
BRANCH   3   6
ATOM      6  C   UNL A   1      31.817  27.939  24.898  1.00  0.00     0.309 C 
BRANCH   6   7
ATOM      7  C   UNL A   1      30.471  27.993  24.185  1.00  0.00     0.061 A 
ATOM      8  C   UNL A   1      29.555  26.923  24.250  1.00  0.00     0.128 A 
ATOM      9  C   UNL A   1      28.286  27.030  23.677  1.00  0.00     0.047 A 
ATOM     10  C   UNL A   1      27.912  28.204  23.023  1.00  0.00     0.004 A 
ATOM     11  C   UNL A   1      30.093  29.141  23.466  1.00  0.00     0.014 A 
ATOM     12  C   UNL A   1      28.823  29.250  22.900  1.00  0.00     0.001 A 
BRANCH   8  13
ATOM     13  O   UNL A   1      29.978  25.669  24.600  1.00  0.00    -0.493 OA
BRANCH  13  14
ATOM     14  C   UNL A   1      29.602  25.204  25.895  1.00  0.00     0.226 C 
ATOM     15  C   UNL A   1      30.647  24.183  26.341  1.00  0.00     0.049 C 
ENDBRANCH  13  14
ENDBRANCH   8  13
ENDBRANCH   6   7
BRANCH   6  16
ATOM     16  N   UNL A   1      32.617  26.701  24.618  1.00  0.00    -0.321 N 
ATOM     17  C   UNL A   1      33.163  26.562  23.261  1.00  0.00     0.263 C 
ATOM     18  C   UNL A   1      33.683  26.476  25.599  1.00  0.00     0.263 C 
ATOM     19  H   UNL A   1      31.904  25.976  24.703  1.00  0.00     0.349 HD
ATOM     20  C   UNL A   1      33.559  25.097  23.057  1.00  0.00     0.075 C 
ATOM     21  C   UNL A   1      34.226  25.057  25.490  1.00  0.00     0.075 C 
ATOM     22  C   UNL A   1      34.635  24.692  24.056  1.00  0.00     0.090 C 
BRANCH  22  23
ATOM     23  C   UNL A   1      35.156  23.254  24.084  1.00  0.00     0.226 C 
ATOM     24  O   UNL A   1      36.381  23.080  24.130  1.00  0.00    -0.275 OA
ATOM     25  N   UNL A   1      34.304  22.213  24.354  1.00  0.00    -0.342 N 
ATOM     26  C   UNL A   1      32.983  21.909  23.842  1.00  0.00     0.119 C 
ATOM     27  C   UNL A   1      34.733  21.157  25.254  1.00  0.00     0.119 C 
ATOM     28  C   UNL A   1      32.330  21.188  25.002  1.00  0.00     0.023 C 
ATOM     29  C   UNL A   1      33.475  20.341  25.550  1.00  0.00     0.023 C 
ENDBRANCH  22  23
ENDBRANCH   6  16
ENDBRANCH   3   6
ENDBRANCH   1   2
BRANCH   1  30
ATOM     30  C   UNL A   1      31.565  32.014  26.980  1.00  0.00     0.042 C 
BRANCH  30  31
ATOM     31  C   UNL A   1      32.813  32.841  27.250  1.00  0.00     0.118 C 
BRANCH  31  32
ATOM     32  N   UNL A   1      32.496  34.203  27.663  1.00  0.00    -0.352 N 
ATOM     33  C   UNL A   1      33.034  34.944  28.683  1.00  0.00     0.251 C 
ATOM     34  H   UNL A   1      31.799  34.653  27.135  1.00  0.00     0.163 HD
ATOM     35  O   UNL A   1      32.528  36.016  29.004  1.00  0.00    -0.269 OA
BRANCH  33  36
ATOM     36  C   UNL A   1      34.213  34.436  29.411  1.00  0.00     0.039 A 
ATOM     37  C   UNL A   1      34.028  33.804  30.643  1.00  0.00     0.014 A 
ATOM     38  C   UNL A   1      35.495  34.576  28.873  1.00  0.00     0.014 A 
ATOM     39  C   UNL A   1      35.127  33.257  31.309  1.00  0.00     0.010 A 
ATOM     40  C   UNL A   1      36.573  33.964  29.497  1.00  0.00     0.010 A 
ATOM     41  C   UNL A   1      36.403  33.305  30.724  1.00  0.00    -0.014 A 
BRANCH  41  42
ATOM     42  C   UNL A   1      37.588  32.704  31.384  1.00  0.00     0.031 A 
ATOM     43  C   UNL A   1      38.319  31.580  30.704  1.00  0.00     0.074 A 
ATOM     44  C   UNL A   1      37.948  33.104  32.618  1.00  0.00     0.049 A 
ATOM     45  N   UNL A   1      39.270  30.810  31.167  1.00  0.00    -0.248 NA
ATOM     46  C   UNL A   1      37.901  31.260  29.330  1.00  0.00     0.031 C 
ATOM     47  C   UNL A   1      37.292  34.159  33.393  1.00  0.00     0.029 A 
ATOM     48  N   UNL A   1      38.940  32.649  33.451  1.00  0.00    -0.354 N 
ATOM     49  C   UNL A   1      39.548  29.906  30.149  1.00  0.00     0.074 A 
ATOM     50  C   UNL A   1      38.629  30.185  29.069  1.00  0.00     0.031 C 
ATOM     51  C   UNL A   1      37.902  34.272  34.584  1.00  0.00     0.029 A 
ATOM     52  C   UNL A   1      38.959  33.270  34.676  1.00  0.00     0.049 A 
ATOM     53  H   UNL A   1      39.578  31.944  33.195  1.00  0.00     0.167 HD
ATOM     54  C   UNL A   1      40.503  28.947  30.111  1.00  0.00     0.037 A 
ATOM     55  C   UNL A   1      39.727  33.039  35.757  1.00  0.00     0.037 A 
ATOM     56  C   UNL A   1      41.430  28.691  31.180  1.00  0.00     0.049 A 
ATOM     57  C   UNL A   1      40.774  31.957  35.694  1.00  0.00     0.074 A 
ATOM     58  C   UNL A   1      42.454  27.762  31.232  1.00  0.00     0.029 A 
ATOM     59  N   UNL A   1      41.448  29.374  32.388  1.00  0.00    -0.354 N 
ATOM     60  N   UNL A   1      41.057  31.136  34.711  1.00  0.00    -0.248 NA
ATOM     61  C   UNL A   1      41.614  31.775  36.886  1.00  0.00     0.031 C 
ATOM     62  C   UNL A   1      43.068  27.857  32.484  1.00  0.00     0.029 A 
ATOM     63  C   UNL A   1      42.462  28.882  33.193  1.00  0.00     0.049 A 
ATOM     64  H   UNL A   1      40.832  30.101  32.635  1.00  0.00     0.167 HD
ATOM     65  C   UNL A   1      42.127  30.368  35.151  1.00  0.00     0.074 A 
ATOM     66  C   UNL A   1      42.450  30.827  36.485  1.00  0.00     0.031 C 
ATOM     67  C   UNL A   1      42.784  29.374  34.507  1.00  0.00     0.037 A 
BRANCH  54  68
ATOM     68  C   UNL A   1      40.603  28.115  28.866  1.00  0.00     0.064 A 
ATOM     69  C   UNL A   1      39.892  26.913  28.730  1.00  0.00     0.173 A 
ATOM     70  C   UNL A   1      41.385  28.541  27.782  1.00  0.00     0.173 A 
ATOM     71  F   UNL A   1      39.141  26.454  29.742  1.00  0.00    -0.203 F 
ATOM     72  C   UNL A   1      39.980  26.155  27.565  1.00  0.00     0.198 A 
ATOM     73  C   UNL A   1      41.445  27.798  26.606  1.00  0.00     0.198 A 
ATOM     74  F   UNL A   1      42.081  29.686  27.857  1.00  0.00    -0.203 F 
ATOM     75  F   UNL A   1      39.330  24.987  27.477  1.00  0.00    -0.200 F 
ATOM     76  C   UNL A   1      40.749  26.602  26.501  1.00  0.00     0.200 A 
ATOM     77  F   UNL A   1      42.177  28.237  25.573  1.00  0.00    -0.200 F 
ATOM     78  F   UNL A   1      40.825  25.877  25.377  1.00  0.00    -0.200 F 
ENDBRANCH  54  68
BRANCH  55  79
ATOM     79  C   UNL A   1      39.540  33.843  36.994  1.00  0.00     0.064 A 
ATOM     80  C   UNL A   1      38.750  33.367  38.051  1.00  0.00     0.173 A 
ATOM     81  C   UNL A   1      40.124  35.110  37.137  1.00  0.00     0.173 A 
ATOM     82  F   UNL A   1      38.155  32.170  37.955  1.00  0.00    -0.203 F 
ATOM     83  C   UNL A   1      38.527  34.142  39.188  1.00  0.00     0.198 A 
ATOM     84  C   UNL A   1      39.926  35.870  38.288  1.00  0.00     0.198 A 
ATOM     85  F   UNL A   1      40.895  35.609  36.159  1.00  0.00    -0.203 F 
ATOM     86  F   UNL A   1      37.721  33.686  40.157  1.00  0.00    -0.200 F 
ATOM     87  C   UNL A   1      39.118  35.390  39.308  1.00  0.00     0.200 A 
ATOM     88  F   UNL A   1      40.513  37.068  38.407  1.00  0.00    -0.200 F 
ATOM     89  F   UNL A   1      38.901  36.135  40.401  1.00  0.00    -0.200 F 
ENDBRANCH  55  79
BRANCH  67  90
ATOM     90  C   UNL A   1      43.958  28.752  35.206  1.00  0.00     0.064 A 
ATOM     91  C   UNL A   1      43.814  27.637  36.044  1.00  0.00     0.173 A 
ATOM     92  C   UNL A   1      45.253  29.242  34.979  1.00  0.00     0.173 A 
ATOM     93  F   UNL A   1      42.595  27.141  36.304  1.00  0.00    -0.203 F 
ATOM     94  C   UNL A   1      44.923  27.049  36.645  1.00  0.00     0.198 A 
ATOM     95  C   UNL A   1      46.362  28.633  35.557  1.00  0.00     0.198 A 
ATOM     96  F   UNL A   1      45.444  30.303  34.179  1.00  0.00    -0.203 F 
ATOM     97  F   UNL A   1      44.760  26.008  37.475  1.00  0.00    -0.200 F 
ATOM     98  C   UNL A   1      46.195  27.540  36.393  1.00  0.00     0.200 A 
ATOM     99  F   UNL A   1      47.592  29.100  35.300  1.00  0.00    -0.200 F 
ATOM    100  F   UNL A   1      47.263  26.962  36.961  1.00  0.00    -0.200 F 
ENDBRANCH  67  90
ENDBRANCH  41  42
ENDBRANCH  33  36
ENDBRANCH  31  32
ENDBRANCH  30  31
ENDBRANCH   1  30
TORSDOF 15
ENDMDL
MODEL 2
REMARK VINA RESULT:     -12.8      5.239     11.135
REMARK SMILES CCOc1ccccc1[C@@H](C(=O)NCCCNC(=O)c1ccc(-c2c3nc(c(-c4c(F)c(F)c(F)c(F)c4F)c4ccc([nH]4)c(-c4c(F)c(F)c(F)c(F)c4F)c4nc(c(-c5c(F)c(F)c(F)c(F)c5F)c5ccc2[nH]5)C=C4)C=C3)cc1)[NH+]1CCC(C(=O)N2CCCC2)CC1
REMARK SMILES IDX 14 1 13 2 11 3 12 4 10 6 9 7 4 8 5 9 6 10 8 11 7 12 3 13
REMARK SMILES IDX 2 14 1 15 83 16 84 17 95 18 85 20 94 21 86 22 87 23 88 24
REMARK SMILES IDX 89 25 90 26 93 27 91 28 92 29 15 30 16 31 17 32 18 33 19 35
REMARK SMILES IDX 20 36 21 37 82 38 22 39 81 40 23 41 24 42 25 43 75 44 26 45
REMARK SMILES IDX 80 46 74 47 76 48 27 49 79 50 73 51 72 52 28 54 60 55 40 56
REMARK SMILES IDX 59 57 41 58 44 59 58 60 77 61 42 62 43 63 57 65 78 66 45 67
REMARK SMILES IDX 29 68 30 69 38 70 31 71 32 72 36 73 39 74 33 75 34 76 37 77
REMARK SMILES IDX 35 78 61 79 62 80 70 81 63 82 64 83 68 84 71 85 65 86 66 87
REMARK SMILES IDX 69 88 67 89 46 90 47 91 55 92 48 93 49 94 53 95 56 96 50 97
REMARK SMILES IDX 51 98 54 99 52 100
REMARK H PARENT 13 5 83 19 17 34 76 53 44 64
REMARK Flexibility Score: inf
ROOT
ATOM      1  C   UNL A   1      36.924  20.660  25.339  1.00  0.00     0.118 C 
ENDROOT
BRANCH   1   2
ATOM      2  N   UNL A   1      36.730  21.846  24.532  1.00  0.00    -0.351 N 
ATOM      3  C   UNL A   1      35.577  22.516  24.219  1.00  0.00     0.283 C 
ATOM      4  O   UNL A   1      35.721  23.457  23.431  1.00  0.00    -0.268 OA
ATOM      5  H   UNL A   1      37.553  22.229  24.150  1.00  0.00     0.163 HD
BRANCH   3   6
ATOM      6  C   UNL A   1      34.224  22.134  24.904  1.00  0.00     0.309 C 
BRANCH   6   7
ATOM      7  C   UNL A   1      33.436  21.031  24.208  1.00  0.00     0.061 A 
ATOM      8  C   UNL A   1      32.658  21.286  23.060  1.00  0.00     0.128 A 
ATOM      9  C   UNL A   1      32.025  20.246  22.376  1.00  0.00     0.047 A 
ATOM     10  C   UNL A   1      32.153  18.933  22.830  1.00  0.00     0.004 A 
ATOM     11  C   UNL A   1      33.497  19.707  24.681  1.00  0.00     0.014 A 
ATOM     12  C   UNL A   1      32.871  18.668  23.993  1.00  0.00     0.001 A 
BRANCH   8  13
ATOM     13  O   UNL A   1      32.256  22.562  22.765  1.00  0.00    -0.493 OA
BRANCH  13  14
ATOM     14  C   UNL A   1      32.903  23.199  21.665  1.00  0.00     0.226 C 
ATOM     15  C   UNL A   1      32.903  24.702  21.935  1.00  0.00     0.049 C 
ENDBRANCH  13  14
ENDBRANCH   8  13
ENDBRANCH   6   7
BRANCH   6  16
ATOM     16  N   UNL A   1      33.412  23.344  25.261  1.00  0.00    -0.321 N 
ATOM     17  C   UNL A   1      32.284  23.134  26.179  1.00  0.00     0.263 C 
ATOM     18  C   UNL A   1      34.231  24.460  25.741  1.00  0.00     0.263 C 
ATOM     19  H   UNL A   1      32.992  23.579  24.361  1.00  0.00     0.349 HD
ATOM     20  C   UNL A   1      31.359  24.349  26.081  1.00  0.00     0.075 C 
ATOM     21  C   UNL A   1      33.427  25.755  25.751  1.00  0.00     0.075 C 
ATOM     22  C   UNL A   1      32.096  25.615  26.501  1.00  0.00     0.090 C 
BRANCH  22  23
ATOM     23  C   UNL A   1      31.392  26.971  26.435  1.00  0.00     0.226 C 
ATOM     24  O   UNL A   1      31.403  27.682  27.448  1.00  0.00    -0.275 OA
ATOM     25  N   UNL A   1      31.031  27.507  25.224  1.00  0.00    -0.342 N 
ATOM     26  C   UNL A   1      30.368  26.913  24.081  1.00  0.00     0.119 C 
ATOM     27  C   UNL A   1      31.264  28.919  24.972  1.00  0.00     0.119 C 
ATOM     28  C   UNL A   1      30.943  27.691  22.916  1.00  0.00     0.023 C 
ATOM     29  C   UNL A   1      31.023  29.108  23.475  1.00  0.00     0.023 C 
ENDBRANCH  22  23
ENDBRANCH   6  16
ENDBRANCH   3   6
ENDBRANCH   1   2
BRANCH   1  30
ATOM     30  C   UNL A   1      38.234  19.958  25.001  1.00  0.00     0.042 C 
BRANCH  30  31
ATOM     31  C   UNL A   1      39.326  20.238  26.022  1.00  0.00     0.118 C 
BRANCH  31  32
ATOM     32  N   UNL A   1      40.351  19.202  26.035  1.00  0.00    -0.352 N 
ATOM     33  C   UNL A   1      41.712  19.334  26.126  1.00  0.00     0.251 C 
ATOM     34  H   UNL A   1      40.019  18.278  25.971  1.00  0.00     0.163 HD
ATOM     35  O   UNL A   1      42.443  18.362  25.947  1.00  0.00    -0.269 OA
BRANCH  33  36
ATOM     36  C   UNL A   1      42.300  20.656  26.416  1.00  0.00     0.039 A 
ATOM     37  C   UNL A   1      42.677  21.479  25.353  1.00  0.00     0.014 A 
ATOM     38  C   UNL A   1      42.469  21.083  27.736  1.00  0.00     0.014 A 
ATOM     39  C   UNL A   1      43.169  22.759  25.613  1.00  0.00     0.010 A 
ATOM     40  C   UNL A   1      42.883  22.384  27.990  1.00  0.00     0.010 A 
ATOM     41  C   UNL A   1      43.245  23.233  26.933  1.00  0.00    -0.014 A 
BRANCH  41  42
ATOM     42  C   UNL A   1      43.728  24.600  27.246  1.00  0.00     0.031 A 
ATOM     43  C   UNL A   1      42.755  25.627  27.754  1.00  0.00     0.074 A 
ATOM     44  C   UNL A   1      45.006  24.938  26.994  1.00  0.00     0.049 A 
ATOM     45  N   UNL A   1      42.925  26.911  27.936  1.00  0.00    -0.248 NA
ATOM     46  C   UNL A   1      41.399  25.149  28.069  1.00  0.00     0.031 C 
ATOM     47  C   UNL A   1      46.033  24.037  26.466  1.00  0.00     0.029 A 
ATOM     48  N   UNL A   1      45.654  26.141  27.121  1.00  0.00    -0.354 N 
ATOM     49  C   UNL A   1      41.696  27.394  28.367  1.00  0.00     0.074 A 
ATOM     50  C   UNL A   1      40.775  26.280  28.364  1.00  0.00     0.031 C 
ATOM     51  C   UNL A   1      47.181  24.719  26.320  1.00  0.00     0.029 A 
ATOM     52  C   UNL A   1      46.961  26.111  26.698  1.00  0.00     0.049 A 
ATOM     53  H   UNL A   1      45.225  26.950  27.483  1.00  0.00     0.167 HD
ATOM     54  C   UNL A   1      41.373  28.651  28.756  1.00  0.00     0.037 A 
ATOM     55  C   UNL A   1      47.869  27.101  26.604  1.00  0.00     0.037 A 
ATOM     56  C   UNL A   1      42.300  29.750  28.779  1.00  0.00     0.049 A 
ATOM     57  C   UNL A   1      47.480  28.493  27.030  1.00  0.00     0.074 A 
ATOM     58  C   UNL A   1      42.082  31.055  29.181  1.00  0.00     0.029 A 
ATOM     59  N   UNL A   1      43.628  29.668  28.386  1.00  0.00    -0.354 N 
ATOM     60  N   UNL A   1      46.327  28.930  27.476  1.00  0.00    -0.248 NA
ATOM     61  C   UNL A   1      48.521  29.528  26.948  1.00  0.00     0.031 C 
ATOM     62  C   UNL A   1      43.268  31.773  28.998  1.00  0.00     0.029 A 
ATOM     63  C   UNL A   1      44.240  30.902  28.532  1.00  0.00     0.049 A 
ATOM     64  H   UNL A   1      44.071  28.853  28.055  1.00  0.00     0.167 HD
ATOM     65  C   UNL A   1      46.514  30.276  27.761  1.00  0.00     0.074 A 
ATOM     66  C   UNL A   1      47.893  30.583  27.447  1.00  0.00     0.031 C 
ATOM     67  C   UNL A   1      45.623  31.178  28.241  1.00  0.00     0.037 A 
BRANCH  54  68
ATOM     68  C   UNL A   1      39.962  28.899  29.203  1.00  0.00     0.064 A 
ATOM     69  C   UNL A   1      38.963  29.282  28.294  1.00  0.00     0.173 A 
ATOM     70  C   UNL A   1      39.593  28.714  30.543  1.00  0.00     0.173 A 
ATOM     71  F   UNL A   1      39.266  29.485  27.004  1.00  0.00    -0.203 F 
ATOM     72  C   UNL A   1      37.653  29.496  28.716  1.00  0.00     0.198 A 
ATOM     73  C   UNL A   1      38.275  28.896  30.956  1.00  0.00     0.198 A 
ATOM     74  F   UNL A   1      40.507  28.343  31.452  1.00  0.00    -0.203 F 
ATOM     75  F   UNL A   1      36.728  29.907  27.839  1.00  0.00    -0.200 F 
ATOM     76  C   UNL A   1      37.309  29.294  30.043  1.00  0.00     0.200 A 
ATOM     77  F   UNL A   1      37.940  28.688  32.236  1.00  0.00    -0.200 F 
ATOM     78  F   UNL A   1      36.046  29.490  30.446  1.00  0.00    -0.200 F 
ENDBRANCH  54  68
BRANCH  55  79
ATOM     79  C   UNL A   1      49.234  26.818  26.086  1.00  0.00     0.064 A 
ATOM     80  C   UNL A   1      49.548  27.020  24.734  1.00  0.00     0.173 A 
ATOM     81  C   UNL A   1      50.243  26.320  26.922  1.00  0.00     0.173 A 
ATOM     82  F   UNL A   1      48.612  27.476  23.890  1.00  0.00    -0.203 F 
ATOM     83  C   UNL A   1      50.810  26.703  24.233  1.00  0.00     0.198 A 
ATOM     84  C   UNL A   1      51.514  26.035  26.426  1.00  0.00     0.198 A 
ATOM     85  F   UNL A   1      49.998  26.116  28.224  1.00  0.00    -0.203 F 
ATOM     86  F   UNL A   1      51.064  26.851  22.925  1.00  0.00    -0.200 F 
ATOM     87  C   UNL A   1      51.793  26.215  25.079  1.00  0.00     0.200 A 
ATOM     88  F   UNL A   1      52.466  25.579  27.251  1.00  0.00    -0.200 F 
ATOM     89  F   UNL A   1      53.005  25.909  24.597  1.00  0.00    -0.200 F 
ENDBRANCH  55  79
BRANCH  67  90
ATOM     90  C   UNL A   1      46.121  32.566  28.518  1.00  0.00     0.064 A 
ATOM     91  C   UNL A   1      46.049  33.582  27.554  1.00  0.00     0.173 A 
ATOM     92  C   UNL A   1      46.618  32.896  29.788  1.00  0.00     0.173 A 
ATOM     93  F   UNL A   1      45.595  33.313  26.321  1.00  0.00    -0.203 F 
ATOM     94  C   UNL A   1      46.474  34.875  27.849  1.00  0.00     0.198 A 
ATOM     95  C   UNL A   1      47.014  34.195  30.088  1.00  0.00     0.198 A 
ATOM     96  F   UNL A   1      46.700  31.960  30.746  1.00  0.00    -0.203 F 
ATOM     97  F   UNL A   1      46.434  35.823  26.902  1.00  0.00    -0.200 F 
ATOM     98  C   UNL A   1      46.947  35.182  29.117  1.00  0.00     0.200 A 
ATOM     99  F   UNL A   1      47.455  34.493  31.318  1.00  0.00    -0.200 F 
ATOM    100  F   UNL A   1      47.341  36.431  29.402  1.00  0.00    -0.200 F 
ENDBRANCH  67  90
ENDBRANCH  41  42
ENDBRANCH  33  36
ENDBRANCH  31  32
ENDBRANCH  30  31
ENDBRANCH   1  30
TORSDOF 15
ENDMDL
MODEL 3
REMARK VINA RESULT:     -12.8      4.918     10.339
REMARK SMILES CCOc1ccccc1[C@@H](C(=O)NCCCNC(=O)c1ccc(-c2c3nc(c(-c4c(F)c(F)c(F)c(F)c4F)c4ccc([nH]4)c(-c4c(F)c(F)c(F)c(F)c4F)c4nc(c(-c5c(F)c(F)c(F)c(F)c5F)c5ccc2[nH]5)C=C4)C=C3)cc1)[NH+]1CCC(C(=O)N2CCCC2)CC1
REMARK SMILES IDX 14 1 13 2 11 3 12 4 10 6 9 7 4 8 5 9 6 10 8 11 7 12 3 13
REMARK SMILES IDX 2 14 1 15 83 16 84 17 95 18 85 20 94 21 86 22 87 23 88 24
REMARK SMILES IDX 89 25 90 26 93 27 91 28 92 29 15 30 16 31 17 32 18 33 19 35
REMARK SMILES IDX 20 36 21 37 82 38 22 39 81 40 23 41 24 42 25 43 75 44 26 45
REMARK SMILES IDX 80 46 74 47 76 48 27 49 79 50 73 51 72 52 28 54 60 55 40 56
REMARK SMILES IDX 59 57 41 58 44 59 58 60 77 61 42 62 43 63 57 65 78 66 45 67
REMARK SMILES IDX 29 68 30 69 38 70 31 71 32 72 36 73 39 74 33 75 34 76 37 77
REMARK SMILES IDX 35 78 61 79 62 80 70 81 63 82 64 83 68 84 71 85 65 86 66 87
REMARK SMILES IDX 69 88 67 89 46 90 47 91 55 92 48 93 49 94 53 95 56 96 50 97
REMARK SMILES IDX 51 98 54 99 52 100
REMARK H PARENT 13 5 83 19 17 34 76 53 44 64
REMARK Flexibility Score: inf
ROOT
ATOM      1  C   UNL A   1      37.827  22.039  25.501  1.00  0.00     0.118 C 
ENDROOT
BRANCH   1   2
ATOM      2  N   UNL A   1      37.293  22.634  24.295  1.00  0.00    -0.351 N 
ATOM      3  C   UNL A   1      35.993  22.777  23.888  1.00  0.00     0.283 C 
ATOM      4  O   UNL A   1      35.852  23.254  22.757  1.00  0.00    -0.268 OA
ATOM      5  H   UNL A   1      37.967  22.989  23.671  1.00  0.00     0.163 HD
BRANCH   3   6
ATOM      6  C   UNL A   1      34.813  22.430  24.854  1.00  0.00     0.309 C 
BRANCH   6   7
ATOM      7  C   UNL A   1      33.985  21.215  24.455  1.00  0.00     0.061 A 
ATOM      8  C   UNL A   1      32.948  21.306  23.503  1.00  0.00     0.128 A 
ATOM      9  C   UNL A   1      32.268  20.164  23.072  1.00  0.00     0.047 A 
ATOM     10  C   UNL A   1      32.606  18.913  23.590  1.00  0.00     0.004 A 
ATOM     11  C   UNL A   1      34.264  19.952  25.006  1.00  0.00     0.014 A 
ATOM     12  C   UNL A   1      33.589  18.811  24.571  1.00  0.00     0.001 A 
BRANCH   8  13
ATOM     13  O   UNL A   1      32.383  22.517  23.206  1.00  0.00    -0.493 OA
BRANCH  13  14
ATOM     14  C   UNL A   1      32.629  23.037  21.900  1.00  0.00     0.226 C 
ATOM     15  C   UNL A   1      32.800  24.549  22.028  1.00  0.00     0.049 C 
ENDBRANCH  13  14
ENDBRANCH   8  13
ENDBRANCH   6   7
BRANCH   6  16
ATOM     16  N   UNL A   1      34.003  23.641  25.212  1.00  0.00    -0.321 N 
ATOM     17  C   UNL A   1      33.178  23.548  26.424  1.00  0.00     0.263 C 
ATOM     18  C   UNL A   1      34.802  24.869  25.258  1.00  0.00     0.263 C 
ATOM     19  H   UNL A   1      33.344  23.681  24.434  1.00  0.00     0.349 HD
ATOM     20  C   UNL A   1      32.141  24.673  26.381  1.00  0.00     0.075 C 
ATOM     21  C   UNL A   1      33.901  26.099  25.270  1.00  0.00     0.075 C 
ATOM     22  C   UNL A   1      32.830  26.032  26.367  1.00  0.00     0.090 C 
BRANCH  22  23
ATOM     23  C   UNL A   1      32.000  27.313  26.270  1.00  0.00     0.226 C 
ATOM     24  O   UNL A   1      32.181  28.190  27.124  1.00  0.00    -0.275 OA
ATOM     25  N   UNL A   1      31.310  27.606  25.120  1.00  0.00    -0.342 N 
ATOM     26  C   UNL A   1      30.456  26.784  24.287  1.00  0.00     0.119 C 
ATOM     27  C   UNL A   1      31.335  28.963  24.601  1.00  0.00     0.119 C 
ATOM     28  C   UNL A   1      30.656  27.378  22.909  1.00  0.00     0.023 C 
ATOM     29  C   UNL A   1      30.726  28.873  23.202  1.00  0.00     0.023 C 
ENDBRANCH  22  23
ENDBRANCH   6  16
ENDBRANCH   3   6
ENDBRANCH   1   2
BRANCH   1  30
ATOM     30  C   UNL A   1      38.544  20.727  25.212  1.00  0.00     0.042 C 
BRANCH  30  31
ATOM     31  C   UNL A   1      39.354  20.229  26.400  1.00  0.00     0.118 C 
BRANCH  31  32
ATOM     32  N   UNL A   1      40.444  19.350  25.998  1.00  0.00    -0.352 N 
ATOM     33  C   UNL A   1      41.784  19.624  25.900  1.00  0.00     0.251 C 
ATOM     34  H   UNL A   1      40.183  18.430  25.764  1.00  0.00     0.163 HD
ATOM     35  O   UNL A   1      42.546  18.815  25.377  1.00  0.00    -0.269 OA
BRANCH  33  36
ATOM     36  C   UNL A   1      42.305  20.909  26.407  1.00  0.00     0.039 A 
ATOM     37  C   UNL A   1      42.614  21.922  25.497  1.00  0.00     0.014 A 
ATOM     38  C   UNL A   1      42.478  21.113  27.779  1.00  0.00     0.014 A 
ATOM     39  C   UNL A   1      43.041  23.165  25.967  1.00  0.00     0.010 A 
ATOM     40  C   UNL A   1      42.826  22.373  28.248  1.00  0.00     0.010 A 
ATOM     41  C   UNL A   1      43.119  23.409  27.348  1.00  0.00    -0.014 A 
BRANCH  41  42
ATOM     42  C   UNL A   1      43.533  24.728  27.886  1.00  0.00     0.031 A 
ATOM     43  C   UNL A   1      42.485  25.759  28.200  1.00  0.00     0.074 A 
ATOM     44  C   UNL A   1      44.840  25.026  28.008  1.00  0.00     0.049 A 
ATOM     45  N   UNL A   1      42.631  27.018  28.522  1.00  0.00    -0.248 NA
ATOM     46  C   UNL A   1      41.083  25.320  28.105  1.00  0.00     0.031 C 
ATOM     47  C   UNL A   1      45.949  24.120  27.700  1.00  0.00     0.029 A 
ATOM     48  N   UNL A   1      45.459  26.187  28.398  1.00  0.00    -0.354 N 
ATOM     49  C   UNL A   1      41.343  27.524  28.650  1.00  0.00     0.074 A 
ATOM     50  C   UNL A   1      40.430  26.454  28.315  1.00  0.00     0.031 C 
ATOM     51  C   UNL A   1      47.110  24.759  27.917  1.00  0.00     0.029 A 
ATOM     52  C   UNL A   1      46.830  26.129  28.334  1.00  0.00     0.049 A 
ATOM     53  H   UNL A   1      44.968  26.986  28.697  1.00  0.00     0.167 HD
ATOM     54  C   UNL A   1      40.958  28.763  29.039  1.00  0.00     0.037 A 
ATOM     55  C   UNL A   1      47.754  27.082  28.563  1.00  0.00     0.037 A 
ATOM     56  C   UNL A   1      41.872  29.815  29.394  1.00  0.00     0.049 A 
ATOM     57  C   UNL A   1      47.299  28.456  28.981  1.00  0.00     0.074 A 
ATOM     58  C   UNL A   1      41.586  31.097  29.827  1.00  0.00     0.029 A 
ATOM     59  N   UNL A   1      43.254  29.702  29.361  1.00  0.00    -0.354 N 
ATOM     60  N   UNL A   1      46.080  28.912  29.140  1.00  0.00    -0.248 NA
ATOM     61  C   UNL A   1      48.348  29.447  29.260  1.00  0.00     0.031 C 
ATOM     62  C   UNL A   1      42.794  31.772  30.022  1.00  0.00     0.029 A 
ATOM     63  C   UNL A   1      43.834  30.895  29.761  1.00  0.00     0.049 A 
ATOM     64  H   UNL A   1      43.750  28.894  29.094  1.00  0.00     0.167 HD
ATOM     65  C   UNL A   1      46.215  30.225  29.571  1.00  0.00     0.074 A 
ATOM     66  C   UNL A   1      47.635  30.491  29.658  1.00  0.00     0.031 C 
ATOM     67  C   UNL A   1      45.251  31.128  29.869  1.00  0.00     0.037 A 
BRANCH  54  68
ATOM     68  C   UNL A   1      39.486  29.041  29.115  1.00  0.00     0.064 A 
ATOM     69  C   UNL A   1      38.786  28.953  30.328  1.00  0.00     0.173 A 
ATOM     70  C   UNL A   1      38.772  29.436  27.974  1.00  0.00     0.173 A 
ATOM     71  F   UNL A   1      39.419  28.566  31.446  1.00  0.00    -0.203 F 
ATOM     72  C   UNL A   1      37.422  29.227  30.392  1.00  0.00     0.198 A 
ATOM     73  C   UNL A   1      37.415  29.741  28.047  1.00  0.00     0.198 A 
ATOM     74  F   UNL A   1      39.393  29.541  26.789  1.00  0.00    -0.203 F 
ATOM     75  F   UNL A   1      36.767  29.091  31.552  1.00  0.00    -0.200 F 
ATOM     76  C   UNL A   1      36.741  29.629  29.254  1.00  0.00     0.200 A 
ATOM     77  F   UNL A   1      36.760  30.142  26.949  1.00  0.00    -0.200 F 
ATOM     78  F   UNL A   1      35.430  29.902  29.318  1.00  0.00    -0.200 F 
ENDBRANCH  54  68
BRANCH  55  79
ATOM     79  C   UNL A   1      49.200  26.776  28.403  1.00  0.00     0.064 A 
ATOM     80  C   UNL A   1      49.979  26.378  29.499  1.00  0.00     0.173 A 
ATOM     81  C   UNL A   1      49.839  26.895  27.160  1.00  0.00     0.173 A 
ATOM     82  F   UNL A   1      49.419  26.267  30.712  1.00  0.00    -0.203 F 
ATOM     83  C   UNL A   1      51.346  26.144  29.364  1.00  0.00     0.198 A 
ATOM     84  C   UNL A   1      51.200  26.629  27.020  1.00  0.00     0.198 A 
ATOM     85  F   UNL A   1      49.139  27.265  26.077  1.00  0.00    -0.203 F 
ATOM     86  F   UNL A   1      52.077  25.822  30.441  1.00  0.00    -0.200 F 
ATOM     87  C   UNL A   1      51.955  26.265  28.125  1.00  0.00     0.200 A 
ATOM     88  F   UNL A   1      51.780  26.732  25.817  1.00  0.00    -0.200 F 
ATOM     89  F   UNL A   1      53.269  26.042  27.996  1.00  0.00    -0.200 F 
ENDBRANCH  55  79
BRANCH  67  90
ATOM     90  C   UNL A   1      45.690  32.470  30.377  1.00  0.00     0.064 A 
ATOM     91  C   UNL A   1      45.953  32.696  31.736  1.00  0.00     0.173 A 
ATOM     92  C   UNL A   1      45.912  33.525  29.479  1.00  0.00     0.173 A 
ATOM     93  F   UNL A   1      45.742  31.724  32.636  1.00  0.00    -0.203 F 
ATOM     94  C   UNL A   1      46.404  33.937  32.178  1.00  0.00     0.198 A 
ATOM     95  C   UNL A   1      46.392  34.754  29.921  1.00  0.00     0.198 A 
ATOM     96  F   UNL A   1      45.682  33.356  28.168  1.00  0.00    -0.203 F 
ATOM     97  F   UNL A   1      46.611  34.145  33.486  1.00  0.00    -0.200 F 
ATOM     98  C   UNL A   1      46.632  34.960  31.270  1.00  0.00     0.200 A 
ATOM     99  F   UNL A   1      46.627  35.736  29.040  1.00  0.00    -0.200 F 
ATOM    100  F   UNL A   1      47.081  36.149  31.697  1.00  0.00    -0.200 F 
ENDBRANCH  67  90
ENDBRANCH  41  42
ENDBRANCH  33  36
ENDBRANCH  31  32
ENDBRANCH  30  31
ENDBRANCH   1  30
TORSDOF 15
ENDMDL
