MODEL 1
REMARK VINA RESULT:     -11.4      0.000      0.000
REMARK SMILES C[C@](Nc1ncc([N+](=O)[O-])cc1Br)(C(=O)NCCCNC(=O)c1ccc(-c2c3nc(c(-c4c(F)c(F)c(F)c(F)c4F)c4ccc([nH]4)c(-c4c(F)c(F)c(F)c(F)c4F)c4nc(c(-c5c(F)c(F)c(F)c(F)c5F)c5ccc2[nH]5)C=C4)C=C3)cc1)C1CC1
REMARK SMILES IDX 17 1 16 2 14 3 15 4 2 6 1 7 86 8 87 9 88 10 3 11 4 13 5 14
REMARK SMILES IDX 12 15 6 16 11 17 13 18 7 19 8 20 9 21 10 22 18 23 19 24
REMARK SMILES IDX 20 25 21 26 22 28 23 29 24 30 85 31 25 32 84 33 26 34 27 35
REMARK SMILES IDX 28 36 78 37 29 38 83 39 77 40 79 41 30 42 82 43 76 44 75 45
REMARK SMILES IDX 31 47 63 48 43 49 62 50 44 51 47 52 61 53 80 54 45 55 46 56
REMARK SMILES IDX 60 58 81 59 48 60 32 61 33 62 41 63 34 64 35 65 39 66 42 67
REMARK SMILES IDX 36 68 37 69 40 70 38 71 64 72 65 73 73 74 66 75 67 76 71 77
REMARK SMILES IDX 74 78 68 79 69 80 72 81 70 82 49 83 50 84 58 85 51 86 52 87
REMARK SMILES IDX 56 88 59 89 53 90 54 91 57 92 55 93
REMARK H PARENT 16 5 3 12 20 27 79 46 47 57
REMARK Flexibility Score: inf
ROOT
ATOM      1  C   UNL A   1      34.576  24.909  25.150  1.00  0.00     0.117 C 
ENDROOT
BRANCH   1   2
ATOM      2  N   UNL A   1      33.353  24.652  25.886  1.00  0.00    -0.354 N 
ATOM      3  C   UNL A   1      32.391  25.505  26.349  1.00  0.00     0.245 C 
ATOM      4  O   UNL A   1      31.428  24.972  26.915  1.00  0.00    -0.272 OA
ATOM      5  H   UNL A   1      33.189  23.703  26.088  1.00  0.00     0.163 HD
BRANCH   3   6
ATOM      6  C   UNL A   1      32.479  27.063  26.146  1.00  0.00     0.118 C 
ATOM      7  C   UNL A   1      31.338  27.728  26.958  1.00  0.00     0.046 C 
BRANCH   6   8
ATOM      8  C   UNL A   1      33.858  27.565  26.632  1.00  0.00     0.024 C 
ATOM      9  C   UNL A   1      34.595  28.701  25.952  1.00  0.00     0.007 C 
ATOM     10  C   UNL A   1      34.103  28.868  27.362  1.00  0.00     0.007 C 
ENDBRANCH   6   8
BRANCH   6  11
ATOM     11  N   UNL A   1      32.258  27.390  24.693  1.00  0.00    -0.355 N 
ATOM     12  H   UNL A   1      32.970  27.215  24.037  1.00  0.00     0.163 HD
BRANCH  11  13
ATOM     13  C   UNL A   1      31.056  27.938  24.282  1.00  0.00     0.141 A 
ATOM     14  N   UNL A   1      31.024  29.286  24.400  1.00  0.00    -0.231 NA
ATOM     15  C   UNL A   1      30.012  27.226  23.672  1.00  0.00     0.067 A 
ATOM     16  C   UNL A   1      30.030  29.956  23.769  1.00  0.00     0.199 A 
ATOM     17  C   UNL A   1      28.992  27.929  23.028  1.00  0.00     0.106 A 
ATOM     18  Br  UNL A   1      29.914  25.333  23.700  1.00  0.00    -0.047 Br
ATOM     19  C   UNL A   1      29.034  29.323  23.046  1.00  0.00     0.288 A 
BRANCH  19  20
ATOM     20  N   UNL A   1      28.077  30.115  22.288  1.00  0.00     0.064 N 
ATOM     21  O   UNL A   1      28.068  29.979  21.057  1.00  0.00    -0.258 OA
ATOM     22  O   UNL A   1      27.319  30.860  22.922  1.00  0.00    -0.258 OA
ENDBRANCH  19  20
ENDBRANCH  11  13
ENDBRANCH   6  11
ENDBRANCH   3   6
ENDBRANCH   1   2
BRANCH   1  23
ATOM     23  C   UNL A   1      35.803  24.303  25.808  1.00  0.00     0.042 C 
BRANCH  23  24
ATOM     24  C   UNL A   1      36.885  23.860  24.835  1.00  0.00     0.118 C 
BRANCH  24  25
ATOM     25  N   UNL A   1      37.712  22.775  25.350  1.00  0.00    -0.352 N 
ATOM     26  C   UNL A   1      38.838  22.809  26.129  1.00  0.00     0.251 C 
ATOM     27  H   UNL A   1      37.412  21.873  25.097  1.00  0.00     0.163 HD
ATOM     28  O   UNL A   1      39.477  21.769  26.317  1.00  0.00    -0.269 OA
BRANCH  26  29
ATOM     29  C   UNL A   1      39.313  24.072  26.731  1.00  0.00     0.039 A 
ATOM     30  C   UNL A   1      40.076  24.948  25.952  1.00  0.00     0.014 A 
ATOM     31  C   UNL A   1      39.040  24.390  28.063  1.00  0.00     0.014 A 
ATOM     32  C   UNL A   1      40.512  26.161  26.490  1.00  0.00     0.010 A 
ATOM     33  C   UNL A   1      39.385  25.641  28.567  1.00  0.00     0.010 A 
ATOM     34  C   UNL A   1      40.143  26.531  27.794  1.00  0.00    -0.014 A 
BRANCH  34  35
ATOM     35  C   UNL A   1      40.576  27.823  28.384  1.00  0.00     0.031 A 
ATOM     36  C   UNL A   1      42.021  28.033  28.750  1.00  0.00     0.074 A 
ATOM     37  C   UNL A   1      39.668  28.782  28.644  1.00  0.00     0.049 A 
ATOM     38  N   UNL A   1      42.589  29.056  29.338  1.00  0.00    -0.248 NA
ATOM     39  C   UNL A   1      42.948  26.930  28.444  1.00  0.00     0.031 C 
ATOM     40  C   UNL A   1      38.230  28.680  28.384  1.00  0.00     0.029 A 
ATOM     41  N   UNL A   1      39.817  30.030  29.196  1.00  0.00    -0.354 N 
ATOM     42  C   UNL A   1      43.925  28.710  29.488  1.00  0.00     0.074 A 
ATOM     43  C   UNL A   1      44.074  27.362  28.989  1.00  0.00     0.031 C 
ATOM     44  C   UNL A   1      37.636  29.827  28.750  1.00  0.00     0.029 A 
ATOM     45  C   UNL A   1      38.641  30.729  29.305  1.00  0.00     0.049 A 
ATOM     46  H   UNL A   1      40.686  30.390  29.487  1.00  0.00     0.167 HD
ATOM     47  C   UNL A   1      44.945  29.460  29.972  1.00  0.00     0.037 A 
ATOM     48  C   UNL A   1      38.401  31.960  29.798  1.00  0.00     0.037 A 
ATOM     49  C   UNL A   1      44.800  30.815  30.435  1.00  0.00     0.049 A 
ATOM     50  C   UNL A   1      39.552  32.777  30.320  1.00  0.00     0.074 A 
ATOM     51  C   UNL A   1      45.779  31.682  30.888  1.00  0.00     0.029 A 
ATOM     52  N   UNL A   1      43.596  31.501  30.500  1.00  0.00    -0.354 N 
ATOM     53  N   UNL A   1      40.824  32.465  30.394  1.00  0.00    -0.248 NA
ATOM     54  C   UNL A   1      39.235  34.123  30.818  1.00  0.00     0.031 C 
ATOM     55  C   UNL A   1      45.161  32.877  31.268  1.00  0.00     0.029 A 
ATOM     56  C   UNL A   1      43.804  32.775  31.002  1.00  0.00     0.049 A 
ATOM     57  H   UNL A   1      42.722  31.135  30.230  1.00  0.00     0.167 HD
ATOM     58  C   UNL A   1      41.461  33.585  30.914  1.00  0.00     0.074 A 
ATOM     59  C   UNL A   1      40.438  34.587  31.124  1.00  0.00     0.031 C 
ATOM     60  C   UNL A   1      42.776  33.765  31.190  1.00  0.00     0.037 A 
BRANCH  47  61
ATOM     61  C   UNL A   1      46.308  28.832  30.017  1.00  0.00     0.064 A 
ATOM     62  C   UNL A   1      46.761  28.136  31.148  1.00  0.00     0.173 A 
ATOM     63  C   UNL A   1      47.163  28.904  28.906  1.00  0.00     0.173 A 
ATOM     64  F   UNL A   1      45.989  28.048  32.242  1.00  0.00    -0.203 F 
ATOM     65  C   UNL A   1      48.031  27.564  31.178  1.00  0.00     0.198 A 
ATOM     66  C   UNL A   1      48.419  28.302  28.927  1.00  0.00     0.198 A 
ATOM     67  F   UNL A   1      46.778  29.552  27.797  1.00  0.00    -0.203 F 
ATOM     68  F   UNL A   1      48.463  26.954  32.290  1.00  0.00    -0.200 F 
ATOM     69  C   UNL A   1      48.856  27.641  30.066  1.00  0.00     0.200 A 
ATOM     70  F   UNL A   1      49.209  28.365  27.846  1.00  0.00    -0.200 F 
ATOM     71  F   UNL A   1      50.075  27.086  30.094  1.00  0.00    -0.200 F 
ENDBRANCH  47  61
BRANCH  48  72
ATOM     72  C   UNL A   1      37.020  32.509  29.788  1.00  0.00     0.064 A 
ATOM     73  C   UNL A   1      36.549  33.249  28.694  1.00  0.00     0.173 A 
ATOM     74  C   UNL A   1      36.148  32.316  30.869  1.00  0.00     0.173 A 
ATOM     75  F   UNL A   1      37.352  33.476  27.644  1.00  0.00    -0.203 F 
ATOM     76  C   UNL A   1      35.266  33.794  28.692  1.00  0.00     0.198 A 
ATOM     77  C   UNL A   1      34.856  32.838  30.853  1.00  0.00     0.198 A 
ATOM     78  F   UNL A   1      36.548  31.611  31.938  1.00  0.00    -0.203 F 
ATOM     79  F   UNL A   1      34.859  34.537  27.654  1.00  0.00    -0.200 F 
ATOM     80  C   UNL A   1      34.420  33.584  29.769  1.00  0.00     0.200 A 
ATOM     81  F   UNL A   1      34.035  32.620  31.890  1.00  0.00    -0.200 F 
ATOM     82  F   UNL A   1      33.186  34.107  29.766  1.00  0.00    -0.200 F 
ENDBRANCH  48  72
BRANCH  60  83
ATOM     83  C   UNL A   1      43.193  35.112  31.705  1.00  0.00     0.064 A 
ATOM     84  C   UNL A   1      43.158  35.424  33.072  1.00  0.00     0.173 A 
ATOM     85  C   UNL A   1      43.671  36.091  30.820  1.00  0.00     0.173 A 
ATOM     86  F   UNL A   1      42.696  34.529  33.958  1.00  0.00    -0.203 F 
ATOM     87  C   UNL A   1      43.561  36.675  33.530  1.00  0.00     0.198 A 
ATOM     88  C   UNL A   1      44.103  37.329  31.285  1.00  0.00     0.198 A 
ATOM     89  F   UNL A   1      43.732  35.840  29.503  1.00  0.00    -0.203 F 
ATOM     90  F   UNL A   1      43.471  36.970  34.835  1.00  0.00    -0.200 F 
ATOM     91  C   UNL A   1      44.040  37.624  32.638  1.00  0.00     0.200 A 
ATOM     92  F   UNL A   1      44.578  38.239  30.423  1.00  0.00    -0.200 F 
ATOM     93  F   UNL A   1      44.433  38.825  33.082  1.00  0.00    -0.200 F 
ENDBRANCH  60  83
ENDBRANCH  34  35
ENDBRANCH  26  29
ENDBRANCH  24  25
ENDBRANCH  23  24
ENDBRANCH   1  23
TORSDOF 14
ENDMDL
MODEL 2
REMARK VINA RESULT:     -11.2      4.216      8.070
REMARK SMILES C[C@](Nc1ncc([N+](=O)[O-])cc1Br)(C(=O)NCCCNC(=O)c1ccc(-c2c3nc(c(-c4c(F)c(F)c(F)c(F)c4F)c4ccc([nH]4)c(-c4c(F)c(F)c(F)c(F)c4F)c4nc(c(-c5c(F)c(F)c(F)c(F)c5F)c5ccc2[nH]5)C=C4)C=C3)cc1)C1CC1
REMARK SMILES IDX 17 1 16 2 14 3 15 4 2 6 1 7 86 8 87 9 88 10 3 11 4 13 5 14
REMARK SMILES IDX 12 15 6 16 11 17 13 18 7 19 8 20 9 21 10 22 18 23 19 24
REMARK SMILES IDX 20 25 21 26 22 28 23 29 24 30 85 31 25 32 84 33 26 34 27 35
REMARK SMILES IDX 28 36 78 37 29 38 83 39 77 40 79 41 30 42 82 43 76 44 75 45
REMARK SMILES IDX 31 47 63 48 43 49 62 50 44 51 47 52 61 53 80 54 45 55 46 56
REMARK SMILES IDX 60 58 81 59 48 60 32 61 33 62 41 63 34 64 35 65 39 66 42 67
REMARK SMILES IDX 36 68 37 69 40 70 38 71 64 72 65 73 73 74 66 75 67 76 71 77
REMARK SMILES IDX 74 78 68 79 69 80 72 81 70 82 49 83 50 84 58 85 51 86 52 87
REMARK SMILES IDX 56 88 59 89 53 90 54 91 57 92 55 93
REMARK H PARENT 16 5 3 12 20 27 79 46 47 57
REMARK Flexibility Score: inf
ROOT
ATOM      1  C   UNL A   1      31.579  30.803  26.029  1.00  0.00     0.117 C 
ENDROOT
BRANCH   1   2
ATOM      2  N   UNL A   1      31.472  29.796  27.068  1.00  0.00    -0.354 N 
ATOM      3  C   UNL A   1      31.468  28.432  26.995  1.00  0.00     0.245 C 
ATOM      4  O   UNL A   1      31.403  27.837  28.078  1.00  0.00    -0.272 OA
ATOM      5  H   UNL A   1      31.387  30.158  27.979  1.00  0.00     0.163 HD
BRANCH   3   6
ATOM      6  C   UNL A   1      31.574  27.662  25.627  1.00  0.00     0.118 C 
ATOM      7  C   UNL A   1      30.920  28.534  24.523  1.00  0.00     0.046 C 
BRANCH   6   8
ATOM      8  C   UNL A   1      33.061  27.398  25.302  1.00  0.00     0.024 C 
ATOM      9  C   UNL A   1      33.872  28.308  24.402  1.00  0.00     0.007 C 
ATOM     10  C   UNL A   1      34.229  28.185  25.857  1.00  0.00     0.007 C 
ENDBRANCH   6   8
BRANCH   6  11
ATOM     11  N   UNL A   1      30.796  26.377  25.716  1.00  0.00    -0.355 N 
ATOM     12  H   UNL A   1      29.825  26.400  25.871  1.00  0.00     0.163 HD
BRANCH  11  13
ATOM     13  C   UNL A   1      31.447  25.163  25.582  1.00  0.00     0.141 A 
ATOM     14  N   UNL A   1      31.777  24.609  26.773  1.00  0.00    -0.231 NA
ATOM     15  C   UNL A   1      31.637  24.478  24.373  1.00  0.00     0.067 A 
ATOM     16  C   UNL A   1      32.150  23.306  26.786  1.00  0.00     0.199 A 
ATOM     17  C   UNL A   1      32.024  23.138  24.401  1.00  0.00     0.106 A 
ATOM     18  Br  UNL A   1      31.407  25.308  22.683  1.00  0.00    -0.047 Br
ATOM     19  C   UNL A   1      32.242  22.536  25.640  1.00  0.00     0.288 A 
BRANCH  19  20
ATOM     20  N   UNL A   1      32.521  21.112  25.747  1.00  0.00     0.064 N 
ATOM     21  O   UNL A   1      33.467  20.766  26.468  1.00  0.00    -0.258 OA
ATOM     22  O   UNL A   1      31.784  20.334  25.128  1.00  0.00    -0.258 OA
ENDBRANCH  19  20
ENDBRANCH  11  13
ENDBRANCH   6  11
ENDBRANCH   3   6
ENDBRANCH   1   2
BRANCH   1  23
ATOM     23  C   UNL A   1      31.384  32.216  26.550  1.00  0.00     0.042 C 
BRANCH  23  24
ATOM     24  C   UNL A   1      32.638  32.852  27.132  1.00  0.00     0.118 C 
BRANCH  24  25
ATOM     25  N   UNL A   1      32.419  34.205  27.626  1.00  0.00    -0.352 N 
ATOM     26  C   UNL A   1      33.006  34.877  28.667  1.00  0.00     0.251 C 
ATOM     27  H   UNL A   1      31.741  34.720  27.133  1.00  0.00     0.163 HD
ATOM     28  O   UNL A   1      32.552  35.971  29.015  1.00  0.00    -0.269 OA
BRANCH  26  29
ATOM     29  C   UNL A   1      34.159  34.304  29.392  1.00  0.00     0.039 A 
ATOM     30  C   UNL A   1      33.925  33.556  30.551  1.00  0.00     0.014 A 
ATOM     31  C   UNL A   1      35.469  34.520  28.961  1.00  0.00     0.014 A 
ATOM     32  C   UNL A   1      34.997  32.980  31.238  1.00  0.00     0.010 A 
ATOM     33  C   UNL A   1      36.526  33.864  29.584  1.00  0.00     0.010 A 
ATOM     34  C   UNL A   1      36.305  33.104  30.742  1.00  0.00    -0.014 A 
BRANCH  34  35
ATOM     35  C   UNL A   1      37.460  32.487  31.440  1.00  0.00     0.031 A 
ATOM     36  C   UNL A   1      38.201  31.344  30.798  1.00  0.00     0.074 A 
ATOM     37  C   UNL A   1      37.806  32.908  32.671  1.00  0.00     0.049 A 
ATOM     38  N   UNL A   1      39.187  30.624  31.270  1.00  0.00    -0.248 NA
ATOM     39  C   UNL A   1      37.751  30.935  29.457  1.00  0.00     0.031 C 
ATOM     40  C   UNL A   1      37.135  33.971  33.422  1.00  0.00     0.029 A 
ATOM     41  N   UNL A   1      38.805  32.487  33.513  1.00  0.00    -0.354 N 
ATOM     42  C   UNL A   1      39.457  29.670  30.297  1.00  0.00     0.074 A 
ATOM     43  C   UNL A   1      38.493  29.861  29.236  1.00  0.00     0.031 C 
ATOM     44  C   UNL A   1      37.758  34.137  34.600  1.00  0.00     0.029 A 
ATOM     45  C   UNL A   1      38.846  33.169  34.704  1.00  0.00     0.049 A 
ATOM     46  H   UNL A   1      39.433  31.764  33.285  1.00  0.00     0.167 HD
ATOM     47  C   UNL A   1      40.438  28.737  30.275  1.00  0.00     0.037 A 
ATOM     48  C   UNL A   1      39.669  33.027  35.761  1.00  0.00     0.037 A 
ATOM     49  C   UNL A   1      41.418  28.573  31.316  1.00  0.00     0.049 A 
ATOM     50  C   UNL A   1      40.759  31.990  35.708  1.00  0.00     0.074 A 
ATOM     51  C   UNL A   1      42.490  27.699  31.363  1.00  0.00     0.029 A 
ATOM     52  N   UNL A   1      41.446  29.304  32.494  1.00  0.00    -0.354 N 
ATOM     53  N   UNL A   1      41.047  31.139  34.753  1.00  0.00    -0.248 NA
ATOM     54  C   UNL A   1      41.643  31.901  36.878  1.00  0.00     0.031 C 
ATOM     55  C   UNL A   1      43.140  27.871  32.589  1.00  0.00     0.029 A 
ATOM     56  C   UNL A   1      42.506  28.890  33.283  1.00  0.00     0.049 A 
ATOM     57  H   UNL A   1      40.806  30.013  32.734  1.00  0.00     0.167 HD
ATOM     58  C   UNL A   1      42.164  30.440  35.190  1.00  0.00     0.074 A 
ATOM     59  C   UNL A   1      42.509  30.974  36.490  1.00  0.00     0.031 C 
ATOM     60  C   UNL A   1      42.843  29.444  34.569  1.00  0.00     0.037 A 
BRANCH  47  61
ATOM     61  C   UNL A   1      40.505  27.827  29.082  1.00  0.00     0.064 A 
ATOM     62  C   UNL A   1      39.716  26.670  28.994  1.00  0.00     0.173 A 
ATOM     63  C   UNL A   1      41.348  28.129  28.001  1.00  0.00     0.173 A 
ATOM     64  F   UNL A   1      38.902  26.328  30.004  1.00  0.00    -0.203 F 
ATOM     65  C   UNL A   1      39.792  25.832  27.884  1.00  0.00     0.198 A 
ATOM     66  C   UNL A   1      41.397  27.306  26.879  1.00  0.00     0.198 A 
ATOM     67  F   UNL A   1      42.120  29.226  28.031  1.00  0.00    -0.203 F 
ATOM     68  F   UNL A   1      39.072  24.703  27.849  1.00  0.00    -0.200 F 
ATOM     69  C   UNL A   1      40.627  26.154  26.825  1.00  0.00     0.200 A 
ATOM     70  F   UNL A   1      42.194  27.626  25.850  1.00  0.00    -0.200 F 
ATOM     71  F   UNL A   1      40.696  25.349  25.755  1.00  0.00    -0.200 F 
ENDBRANCH  47  61
BRANCH  48  72
ATOM     72  C   UNL A   1      39.519  33.913  36.945  1.00  0.00     0.064 A 
ATOM     73  C   UNL A   1      40.122  35.178  36.977  1.00  0.00     0.173 A 
ATOM     74  C   UNL A   1      38.780  33.515  38.068  1.00  0.00     0.173 A 
ATOM     75  F   UNL A   1      40.855  35.597  35.935  1.00  0.00    -0.203 F 
ATOM     76  C   UNL A   1      40.012  36.001  38.097  1.00  0.00     0.198 A 
ATOM     77  C   UNL A   1      38.647  34.350  39.176  1.00  0.00     0.198 A 
ATOM     78  F   UNL A   1      38.178  32.316  38.086  1.00  0.00    -0.203 F 
ATOM     79  F   UNL A   1      40.639  37.184  38.120  1.00  0.00    -0.200 F 
ATOM     80  C   UNL A   1      39.271  35.588  39.193  1.00  0.00     0.200 A 
ATOM     81  F   UNL A   1      37.917  33.953  40.228  1.00  0.00    -0.200 F 
ATOM     82  F   UNL A   1      39.164  36.380  40.268  1.00  0.00    -0.200 F 
ENDBRANCH  48  72
BRANCH  60  83
ATOM     83  C   UNL A   1      44.057  28.900  35.265  1.00  0.00     0.064 A 
ATOM     84  C   UNL A   1      45.329  29.462  35.079  1.00  0.00     0.173 A 
ATOM     85  C   UNL A   1      43.937  27.827  36.161  1.00  0.00     0.173 A 
ATOM     86  F   UNL A   1      45.500  30.480  34.223  1.00  0.00    -0.203 F 
ATOM     87  C   UNL A   1      46.440  28.950  35.744  1.00  0.00     0.198 A 
ATOM     88  C   UNL A   1      45.045  27.339  36.848  1.00  0.00     0.198 A 
ATOM     89  F   UNL A   1      42.741  27.259  36.380  1.00  0.00    -0.203 F 
ATOM     90  F   UNL A   1      47.655  29.469  35.513  1.00  0.00    -0.200 F 
ATOM     91  C   UNL A   1      46.296  27.895  36.633  1.00  0.00     0.200 A 
ATOM     92  F   UNL A   1      44.900  26.329  37.717  1.00  0.00    -0.200 F 
ATOM     93  F   UNL A   1      47.366  27.409  37.277  1.00  0.00    -0.200 F 
ENDBRANCH  60  83
ENDBRANCH  34  35
ENDBRANCH  26  29
ENDBRANCH  24  25
ENDBRANCH  23  24
ENDBRANCH   1  23
TORSDOF 14
ENDMDL
MODEL 3
REMARK VINA RESULT:     -11.2      4.098      9.081
REMARK SMILES C[C@](Nc1ncc([N+](=O)[O-])cc1Br)(C(=O)NCCCNC(=O)c1ccc(-c2c3nc(c(-c4c(F)c(F)c(F)c(F)c4F)c4ccc([nH]4)c(-c4c(F)c(F)c(F)c(F)c4F)c4nc(c(-c5c(F)c(F)c(F)c(F)c5F)c5ccc2[nH]5)C=C4)C=C3)cc1)C1CC1
REMARK SMILES IDX 17 1 16 2 14 3 15 4 2 6 1 7 86 8 87 9 88 10 3 11 4 13 5 14
REMARK SMILES IDX 12 15 6 16 11 17 13 18 7 19 8 20 9 21 10 22 18 23 19 24
REMARK SMILES IDX 20 25 21 26 22 28 23 29 24 30 85 31 25 32 84 33 26 34 27 35
REMARK SMILES IDX 28 36 78 37 29 38 83 39 77 40 79 41 30 42 82 43 76 44 75 45
REMARK SMILES IDX 31 47 63 48 43 49 62 50 44 51 47 52 61 53 80 54 45 55 46 56
REMARK SMILES IDX 60 58 81 59 48 60 32 61 33 62 41 63 34 64 35 65 39 66 42 67
REMARK SMILES IDX 36 68 37 69 40 70 38 71 64 72 65 73 73 74 66 75 67 76 71 77
REMARK SMILES IDX 74 78 68 79 69 80 72 81 70 82 49 83 50 84 58 85 51 86 52 87
REMARK SMILES IDX 56 88 59 89 53 90 54 91 57 92 55 93
REMARK H PARENT 16 5 3 12 20 27 79 46 47 57
REMARK Flexibility Score: inf
ROOT
ATOM      1  C   UNL A   1      32.273  27.567  26.991  1.00  0.00     0.117 C 
ENDROOT
BRANCH   1   2
ATOM      2  N   UNL A   1      31.296  26.500  26.878  1.00  0.00    -0.354 N 
ATOM      3  C   UNL A   1      31.265  25.396  26.072  1.00  0.00     0.245 C 
ATOM      4  O   UNL A   1      30.303  24.636  26.241  1.00  0.00    -0.272 OA
ATOM      5  H   UNL A   1      30.526  26.586  27.484  1.00  0.00     0.163 HD
BRANCH   3   6
ATOM      6  C   UNL A   1      32.394  25.090  25.021  1.00  0.00     0.118 C 
ATOM      7  C   UNL A   1      32.103  23.709  24.377  1.00  0.00     0.046 C 
BRANCH   6   8
ATOM      8  C   UNL A   1      32.408  26.200  23.945  1.00  0.00     0.024 C 
ATOM      9  C   UNL A   1      33.651  27.004  23.623  1.00  0.00     0.007 C 
ATOM     10  C   UNL A   1      33.064  26.088  22.586  1.00  0.00     0.007 C 
ENDBRANCH   6   8
BRANCH   6  11
ATOM     11  N   UNL A   1      33.720  24.995  25.727  1.00  0.00    -0.355 N 
ATOM     12  H   UNL A   1      34.014  25.723  26.319  1.00  0.00     0.163 HD
BRANCH  11  13
ATOM     13  C   UNL A   1      34.526  23.885  25.541  1.00  0.00     0.141 A 
ATOM     14  N   UNL A   1      35.419  24.046  24.536  1.00  0.00    -0.231 NA
ATOM     15  C   UNL A   1      34.544  22.753  26.370  1.00  0.00     0.067 A 
ATOM     16  C   UNL A   1      36.441  23.161  24.447  1.00  0.00     0.199 A 
ATOM     17  C   UNL A   1      35.601  21.848  26.265  1.00  0.00     0.106 A 
ATOM     18  Br  UNL A   1      33.172  22.386  27.625  1.00  0.00    -0.047 Br
ATOM     19  C   UNL A   1      36.588  22.088  25.309  1.00  0.00     0.288 A 
BRANCH  19  20
ATOM     20  N   UNL A   1      37.780  21.258  25.233  1.00  0.00     0.064 N 
ATOM     21  O   UNL A   1      37.687  20.172  24.645  1.00  0.00    -0.258 OA
ATOM     22  O   UNL A   1      38.820  21.698  25.742  1.00  0.00    -0.258 OA
ENDBRANCH  19  20
ENDBRANCH  11  13
ENDBRANCH   6  11
ENDBRANCH   3   6
ENDBRANCH   1   2
BRANCH   1  23
ATOM     23  C   UNL A   1      31.779  28.885  26.424  1.00  0.00     0.042 C 
BRANCH  23  24
ATOM     24  C   UNL A   1      32.881  29.809  25.927  1.00  0.00     0.118 C 
BRANCH  24  25
ATOM     25  N   UNL A   1      32.689  31.198  26.325  1.00  0.00    -0.352 N 
ATOM     26  C   UNL A   1      33.348  31.955  27.259  1.00  0.00     0.251 C 
ATOM     27  H   UNL A   1      31.970  31.669  25.845  1.00  0.00     0.163 HD
ATOM     28  O   UNL A   1      32.912  33.072  27.550  1.00  0.00    -0.269 OA
BRANCH  26  29
ATOM     29  C   UNL A   1      34.558  31.446  27.937  1.00  0.00     0.039 A 
ATOM     30  C   UNL A   1      35.647  32.304  28.113  1.00  0.00     0.014 A 
ATOM     31  C   UNL A   1      34.642  30.122  28.375  1.00  0.00     0.014 A 
ATOM     32  C   UNL A   1      36.791  31.853  28.776  1.00  0.00     0.010 A 
ATOM     33  C   UNL A   1      35.737  29.704  29.125  1.00  0.00     0.010 A 
ATOM     34  C   UNL A   1      36.833  30.557  29.315  1.00  0.00    -0.014 A 
BRANCH  34  35
ATOM     35  C   UNL A   1      38.028  30.059  30.042  1.00  0.00     0.031 A 
ATOM     36  C   UNL A   1      38.306  30.537  31.443  1.00  0.00     0.074 A 
ATOM     37  C   UNL A   1      38.892  29.229  29.428  1.00  0.00     0.049 A 
ATOM     38  N   UNL A   1      39.327  30.279  32.220  1.00  0.00    -0.248 NA
ATOM     39  C   UNL A   1      37.319  31.453  32.037  1.00  0.00     0.031 C 
ATOM     40  C   UNL A   1      38.762  28.735  28.056  1.00  0.00     0.029 A 
ATOM     41  N   UNL A   1      40.057  28.660  29.876  1.00  0.00    -0.354 N 
ATOM     42  C   UNL A   1      39.114  31.015  33.379  1.00  0.00     0.074 A 
ATOM     43  C   UNL A   1      37.902  31.778  33.181  1.00  0.00     0.031 C 
ATOM     44  C   UNL A   1      39.791  27.917  27.784  1.00  0.00     0.029 A 
ATOM     45  C   UNL A   1      40.672  27.857  28.947  1.00  0.00     0.049 A 
ATOM     46  H   UNL A   1      40.419  28.813  30.779  1.00  0.00     0.167 HD
ATOM     47  C   UNL A   1      39.846  31.032  34.518  1.00  0.00     0.037 A 
ATOM     48  C   UNL A   1      41.818  27.153  29.025  1.00  0.00     0.037 A 
ATOM     49  C   UNL A   1      41.033  30.244  34.726  1.00  0.00     0.049 A 
ATOM     50  C   UNL A   1      42.609  27.180  30.306  1.00  0.00     0.074 A 
ATOM     51  C   UNL A   1      41.814  30.143  35.863  1.00  0.00     0.029 A 
ATOM     52  N   UNL A   1      41.607  29.418  33.771  1.00  0.00    -0.354 N 
ATOM     53  N   UNL A   1      42.361  27.827  31.420  1.00  0.00    -0.248 NA
ATOM     54  C   UNL A   1      43.834  26.371  30.343  1.00  0.00     0.031 C 
ATOM     55  C   UNL A   1      42.886  29.290  35.583  1.00  0.00     0.029 A 
ATOM     56  C   UNL A   1      42.743  28.816  34.288  1.00  0.00     0.049 A 
ATOM     57  H   UNL A   1      41.259  29.280  32.860  1.00  0.00     0.167 HD
ATOM     58  C   UNL A   1      43.377  27.476  32.298  1.00  0.00     0.074 A 
ATOM     59  C   UNL A   1      44.238  26.550  31.593  1.00  0.00     0.031 C 
ATOM     60  C   UNL A   1      43.579  27.885  33.576  1.00  0.00     0.037 A 
BRANCH  47  61
ATOM     61  C   UNL A   1      39.379  31.926  35.631  1.00  0.00     0.064 A 
ATOM     62  C   UNL A   1      38.451  31.486  36.588  1.00  0.00     0.173 A 
ATOM     63  C   UNL A   1      39.883  33.229  35.758  1.00  0.00     0.173 A 
ATOM     64  F   UNL A   1      37.928  30.253  36.506  1.00  0.00    -0.203 F 
ATOM     65  C   UNL A   1      38.022  32.328  37.611  1.00  0.00     0.198 A 
ATOM     66  C   UNL A   1      39.476  34.057  36.801  1.00  0.00     0.198 A 
ATOM     67  F   UNL A   1      40.776  33.699  34.874  1.00  0.00    -0.203 F 
ATOM     68  F   UNL A   1      37.093  31.904  38.479  1.00  0.00    -0.200 F 
ATOM     69  C   UNL A   1      38.539  33.610  37.721  1.00  0.00     0.200 A 
ATOM     70  F   UNL A   1      39.988  35.291  36.915  1.00  0.00    -0.200 F 
ATOM     71  F   UNL A   1      38.129  34.417  38.709  1.00  0.00    -0.200 F 
ENDBRANCH  47  61
BRANCH  48  72
ATOM     72  C   UNL A   1      42.268  26.334  27.870  1.00  0.00     0.064 A 
ATOM     73  C   UNL A   1      43.224  26.825  26.970  1.00  0.00     0.173 A 
ATOM     74  C   UNL A   1      41.750  25.052  27.636  1.00  0.00     0.173 A 
ATOM     75  F   UNL A   1      43.735  28.054  27.141  1.00  0.00    -0.203 F 
ATOM     76  C   UNL A   1      43.627  26.076  25.866  1.00  0.00     0.198 A 
ATOM     77  C   UNL A   1      42.175  24.292  26.548  1.00  0.00     0.198 A 
ATOM     78  F   UNL A   1      40.837  24.533  28.470  1.00  0.00    -0.203 F 
ATOM     79  F   UNL A   1      44.506  26.589  24.996  1.00  0.00    -0.200 F 
ATOM     80  C   UNL A   1      43.106  24.808  25.659  1.00  0.00     0.200 A 
ATOM     81  F   UNL A   1      41.680  23.061  26.360  1.00  0.00    -0.200 F 
ATOM     82  F   UNL A   1      43.495  24.087  24.599  1.00  0.00    -0.200 F 
ENDBRANCH  48  72
BRANCH  60  83
ATOM     83  C   UNL A   1      44.748  27.296  34.310  1.00  0.00     0.064 A 
ATOM     84  C   UNL A   1      44.633  26.115  35.058  1.00  0.00     0.173 A 
ATOM     85  C   UNL A   1      46.011  27.903  34.232  1.00  0.00     0.173 A 
ATOM     86  F   UNL A   1      43.444  25.504  35.176  1.00  0.00    -0.203 F 
ATOM     87  C   UNL A   1      45.732  25.578  35.722  1.00  0.00     0.198 A 
ATOM     88  C   UNL A   1      47.115  27.347  34.871  1.00  0.00     0.198 A 
ATOM     89  F   UNL A   1      46.177  29.030  33.523  1.00  0.00    -0.203 F 
ATOM     90  F   UNL A   1      45.588  24.477  36.472  1.00  0.00    -0.200 F 
ATOM     91  C   UNL A   1      46.974  26.190  35.621  1.00  0.00     0.200 A 
ATOM     92  F   UNL A   1      48.316  27.931  34.760  1.00  0.00    -0.200 F 
ATOM     93  F   UNL A   1      48.032  25.668  36.255  1.00  0.00    -0.200 F 
ENDBRANCH  60  83
ENDBRANCH  34  35
ENDBRANCH  26  29
ENDBRANCH  24  25
ENDBRANCH  23  24
ENDBRANCH   1  23
TORSDOF 14
ENDMDL
