MODEL 1
REMARK VINA RESULT:     -12.5      0.000      0.000
REMARK SMILES O=C(NCCCNC(=O)c1csc(C[NH2+][C@H]2CCSc3ccc(F)cc32)c1)c1ccc(-c2c3nc(c(-c4c(F)c(F)c(F)c(F)c4F)c4ccc([nH]4)c(-c4c(F)c(F)c(F)c(F)c4F)c4nc(c(-c5c(F)c(F)c(F)c(F)c5F)c5ccc2[nH]5)C=C4)C=C3)cc1
REMARK SMILES IDX 5 1 4 2 3 3 1 4 2 5 28 7 29 8 90 9 30 10 89 11 31 12 32 13
REMARK SMILES IDX 33 14 83 15 34 16 88 17 82 18 84 19 35 20 87 21 81 22 80 23
REMARK SMILES IDX 36 25 68 26 48 27 67 28 49 29 52 30 66 31 85 32 50 33 51 34
REMARK SMILES IDX 65 36 86 37 53 38 37 39 38 40 46 41 39 42 40 43 44 44 47 45
REMARK SMILES IDX 41 46 42 47 45 48 43 49 69 50 70 51 78 52 71 53 72 54 76 55
REMARK SMILES IDX 79 56 73 57 74 58 77 59 75 60 54 61 55 62 63 63 56 64 57 65
REMARK SMILES IDX 61 66 64 67 58 68 59 69 62 70 60 71 6 72 7 73 8 74 9 76
REMARK SMILES IDX 10 77 11 78 27 79 12 80 13 81 14 82 15 83 16 86 17 87 26 88
REMARK SMILES IDX 18 89 20 90 25 91 19 92 21 93 23 94 22 95 24 96
REMARK H PARENT 3 6 84 24 52 35 7 75 15 84 15 85
REMARK Flexibility Score: inf
ROOT
ATOM      1  C   UNL A   1      30.974  31.683  26.078  1.00  0.00     0.042 C 
ENDROOT
BRANCH   1   2
ATOM      2  C   UNL A   1      32.251  31.857  26.894  1.00  0.00     0.118 C 
BRANCH   2   3
ATOM      3  N   UNL A   1      32.496  33.245  27.255  1.00  0.00    -0.352 N 
ATOM      4  O   UNL A   1      33.322  35.003  28.358  1.00  0.00    -0.269 OA
ATOM      5  C   UNL A   1      33.468  33.829  28.022  1.00  0.00     0.251 C 
ATOM      6  H   UNL A   1      31.843  33.879  26.880  1.00  0.00     0.163 HD
BRANCH   5   7
ATOM      7  C   UNL A   1      34.688  33.102  28.448  1.00  0.00     0.039 A 
ATOM      8  C   UNL A   1      34.533  31.835  29.023  1.00  0.00     0.014 A 
ATOM      9  C   UNL A   1      35.957  33.688  28.414  1.00  0.00     0.014 A 
ATOM     10  C   UNL A   1      35.634  31.165  29.562  1.00  0.00     0.010 A 
ATOM     11  C   UNL A   1      37.070  32.984  28.873  1.00  0.00     0.010 A 
ATOM     12  C   UNL A   1      36.913  31.737  29.494  1.00  0.00    -0.014 A 
BRANCH  12  13
ATOM     13  C   UNL A   1      38.067  31.101  30.178  1.00  0.00     0.031 A 
ATOM     14  C   UNL A   1      38.354  31.432  31.619  1.00  0.00     0.074 A 
ATOM     15  C   UNL A   1      38.859  30.235  29.518  1.00  0.00     0.049 A 
ATOM     16  N   UNL A   1      39.323  31.009  32.392  1.00  0.00    -0.248 NA
ATOM     17  C   UNL A   1      37.445  32.388  32.273  1.00  0.00     0.031 C 
ATOM     18  C   UNL A   1      38.703  29.850  28.117  1.00  0.00     0.029 A 
ATOM     19  N   UNL A   1      39.949  29.519  29.945  1.00  0.00    -0.354 N 
ATOM     20  C   UNL A   1      39.151  31.663  33.604  1.00  0.00     0.074 A 
ATOM     21  C   UNL A   1      38.022  32.552  33.453  1.00  0.00     0.031 C 
ATOM     22  C   UNL A   1      39.639  28.936  27.809  1.00  0.00     0.029 A 
ATOM     23  C   UNL A   1      40.476  28.695  28.983  1.00  0.00     0.049 A 
ATOM     24  H   UNL A   1      40.318  29.589  30.855  1.00  0.00     0.167 HD
ATOM     25  C   UNL A   1      39.849  31.512  34.754  1.00  0.00     0.037 A 
ATOM     26  C   UNL A   1      41.511  27.836  29.043  1.00  0.00     0.037 A 
ATOM     27  C   UNL A   1      40.930  30.582  34.928  1.00  0.00     0.049 A 
ATOM     28  C   UNL A   1      42.277  27.688  30.329  1.00  0.00     0.074 A 
ATOM     29  C   UNL A   1      41.636  30.286  36.079  1.00  0.00     0.029 A 
ATOM     30  N   UNL A   1      41.451  29.787  33.919  1.00  0.00    -0.354 N 
ATOM     31  N   UNL A   1      42.072  28.272  31.484  1.00  0.00    -0.248 NA
ATOM     32  C   UNL A   1      43.423  26.765  30.318  1.00  0.00     0.031 C 
ATOM     33  C   UNL A   1      42.610  29.334  35.760  1.00  0.00     0.029 A 
ATOM     34  C   UNL A   1      42.490  29.018  34.416  1.00  0.00     0.049 A 
ATOM     35  H   UNL A   1      41.131  29.771  32.989  1.00  0.00     0.167 HD
ATOM     36  C   UNL A   1      43.051  27.785  32.338  1.00  0.00     0.074 A 
ATOM     37  C   UNL A   1      43.845  26.844  31.574  1.00  0.00     0.031 C 
ATOM     38  C   UNL A   1      43.274  28.093  33.638  1.00  0.00     0.037 A 
BRANCH  25  39
ATOM     39  C   UNL A   1      39.449  32.362  35.923  1.00  0.00     0.064 A 
ATOM     40  C   UNL A   1      38.506  31.919  36.863  1.00  0.00     0.173 A 
ATOM     41  C   UNL A   1      40.031  33.623  36.120  1.00  0.00     0.173 A 
ATOM     42  F   UNL A   1      37.913  30.725  36.711  1.00  0.00    -0.203 F 
ATOM     43  C   UNL A   1      38.138  32.720  37.940  1.00  0.00     0.198 A 
ATOM     44  C   UNL A   1      39.679  34.411  37.212  1.00  0.00     0.198 A 
ATOM     45  F   UNL A   1      40.941  34.091  35.252  1.00  0.00    -0.203 F 
ATOM     46  F   UNL A   1      37.200  32.295  38.798  1.00  0.00    -0.200 F 
ATOM     47  C   UNL A   1      38.729  33.962  38.117  1.00  0.00     0.200 A 
ATOM     48  F   UNL A   1      40.256  35.608  37.387  1.00  0.00    -0.200 F 
ATOM     49  F   UNL A   1      38.374  34.731  39.155  1.00  0.00    -0.200 F 
ENDBRANCH  25  39
BRANCH  26  50
ATOM     50  C   UNL A   1      41.850  27.018  27.853  1.00  0.00     0.064 A 
ATOM     51  C   UNL A   1      42.764  27.490  26.902  1.00  0.00     0.173 A 
ATOM     52  C   UNL A   1      41.304  25.740  27.661  1.00  0.00     0.173 A 
ATOM     53  F   UNL A   1      43.296  28.714  27.035  1.00  0.00    -0.203 F 
ATOM     54  C   UNL A   1      43.120  26.714  25.800  1.00  0.00     0.198 A 
ATOM     55  C   UNL A   1      41.675  24.958  26.569  1.00  0.00     0.198 A 
ATOM     56  F   UNL A   1      40.427  25.246  28.546  1.00  0.00    -0.203 F 
ATOM     57  F   UNL A   1      43.983  27.196  24.896  1.00  0.00    -0.200 F 
ATOM     58  C   UNL A   1      42.583  25.446  25.640  1.00  0.00     0.200 A 
ATOM     59  F   UNL A   1      41.160  23.730  26.421  1.00  0.00    -0.200 F 
ATOM     60  F   UNL A   1      42.935  24.696  24.587  1.00  0.00    -0.200 F 
ENDBRANCH  26  50
BRANCH  38  61
ATOM     61  C   UNL A   1      44.423  27.424  34.326  1.00  0.00     0.064 A 
ATOM     62  C   UNL A   1      45.671  28.055  34.424  1.00  0.00     0.173 A 
ATOM     63  C   UNL A   1      44.249  26.194  34.977  1.00  0.00     0.173 A 
ATOM     64  F   UNL A   1      45.885  29.226  33.808  1.00  0.00    -0.203 F 
ATOM     65  C   UNL A   1      46.706  27.477  35.154  1.00  0.00     0.198 A 
ATOM     66  C   UNL A   1      45.280  25.629  35.722  1.00  0.00     0.198 A 
ATOM     67  F   UNL A   1      43.070  25.558  34.916  1.00  0.00    -0.203 F 
ATOM     68  F   UNL A   1      47.895  28.090  35.226  1.00  0.00    -0.200 F 
ATOM     69  C   UNL A   1      46.506  26.271  35.810  1.00  0.00     0.200 A 
ATOM     70  F   UNL A   1      45.083  24.471  36.366  1.00  0.00    -0.200 F 
ATOM     71  F   UNL A   1      47.498  25.728  36.530  1.00  0.00    -0.200 F 
ENDBRANCH  38  61
ENDBRANCH  12  13
ENDBRANCH   5   7
ENDBRANCH   2   3
ENDBRANCH   1   2
BRANCH   1  72
ATOM     72  C   UNL A   1      31.050  30.589  25.016  1.00  0.00     0.118 C 
BRANCH  72  73
ATOM     73  N   UNL A   1      29.944  30.667  24.075  1.00  0.00    -0.352 N 
ATOM     74  C   UNL A   1      29.648  29.853  23.013  1.00  0.00     0.252 C 
ATOM     75  H   UNL A   1      29.315  31.411  24.223  1.00  0.00     0.163 HD
ATOM     76  O   UNL A   1      28.867  30.258  22.153  1.00  0.00    -0.269 OA
BRANCH  74  77
ATOM     77  C   UNL A   1      30.283  28.547  22.916  1.00  0.00     0.051 A 
ATOM     78  C   UNL A   1      31.547  28.327  22.399  1.00  0.00     0.079 A 
ATOM     79  C   UNL A   1      29.733  27.327  23.429  1.00  0.00     0.035 A 
ATOM     80  S   UNL A   1      31.997  26.681  22.421  1.00  0.00    -0.142 S 
ATOM     81  C   UNL A   1      30.542  26.229  23.197  1.00  0.00     0.059 A 
BRANCH  81  82
ATOM     82  C   UNL A   1      30.284  24.796  23.551  1.00  0.00     0.308 C 
BRANCH  82  83
ATOM     83  N   UNL A   1      30.212  24.659  25.001  1.00  0.00    -0.336 N 
ATOM     84  H   UNL A   1      29.547  23.915  25.213  1.00  0.00     0.347 HD
ATOM     85  H   UNL A   1      29.932  25.575  25.354  1.00  0.00     0.347 HD
BRANCH  83  86
ATOM     86  C   UNL A   1      31.484  24.339  25.679  1.00  0.00     0.215 C 
ATOM     87  C   UNL A   1      32.375  23.418  24.823  1.00  0.00     0.081 C 
ATOM     88  C   UNL A   1      32.147  25.644  26.119  1.00  0.00     0.026 A 
ATOM     89  C   UNL A   1      33.776  23.280  25.383  1.00  0.00     0.081 C 
ATOM     90  C   UNL A   1      33.496  25.960  25.873  1.00  0.00     0.017 A 
ATOM     91  C   UNL A   1      31.361  26.590  26.816  1.00  0.00     0.050 A 
ATOM     92  S   UNL A   1      34.659  24.835  25.125  1.00  0.00    -0.125 SA
ATOM     93  C   UNL A   1      33.999  27.222  26.232  1.00  0.00     0.018 A 
ATOM     94  C   UNL A   1      31.883  27.826  27.180  1.00  0.00     0.123 A 
ATOM     95  C   UNL A   1      33.192  28.158  26.878  1.00  0.00     0.040 A 
ATOM     96  F   UNL A   1      31.107  28.711  27.818  1.00  0.00    -0.207 F 
ENDBRANCH  83  86
ENDBRANCH  82  83
ENDBRANCH  81  82
ENDBRANCH  74  77
ENDBRANCH  72  73
ENDBRANCH   1  72
TORSDOF 13
ENDMDL
MODEL 2
REMARK VINA RESULT:     -12.4      0.994      1.988
REMARK SMILES O=C(NCCCNC(=O)c1csc(C[NH2+][C@H]2CCSc3ccc(F)cc32)c1)c1ccc(-c2c3nc(c(-c4c(F)c(F)c(F)c(F)c4F)c4ccc([nH]4)c(-c4c(F)c(F)c(F)c(F)c4F)c4nc(c(-c5c(F)c(F)c(F)c(F)c5F)c5ccc2[nH]5)C=C4)C=C3)cc1
REMARK SMILES IDX 5 1 4 2 3 3 1 4 2 5 28 7 29 8 90 9 30 10 89 11 31 12 32 13
REMARK SMILES IDX 33 14 83 15 34 16 88 17 82 18 84 19 35 20 87 21 81 22 80 23
REMARK SMILES IDX 36 25 68 26 48 27 67 28 49 29 52 30 66 31 85 32 50 33 51 34
REMARK SMILES IDX 65 36 86 37 53 38 37 39 38 40 46 41 39 42 40 43 44 44 47 45
REMARK SMILES IDX 41 46 42 47 45 48 43 49 69 50 70 51 78 52 71 53 72 54 76 55
REMARK SMILES IDX 79 56 73 57 74 58 77 59 75 60 54 61 55 62 63 63 56 64 57 65
REMARK SMILES IDX 61 66 64 67 58 68 59 69 62 70 60 71 6 72 7 73 8 74 9 76
REMARK SMILES IDX 10 77 11 78 27 79 12 80 13 81 14 82 15 83 16 86 17 87 26 88
REMARK SMILES IDX 18 89 20 90 25 91 19 92 21 93 23 94 22 95 24 96
REMARK H PARENT 3 6 84 24 52 35 7 75 15 84 15 85
REMARK Flexibility Score: inf
ROOT
ATOM      1  C   UNL A   1      31.139  31.818  26.612  1.00  0.00     0.042 C 
ENDROOT
BRANCH   1   2
ATOM      2  C   UNL A   1      32.491  32.435  26.953  1.00  0.00     0.118 C 
BRANCH   2   3
ATOM      3  N   UNL A   1      32.382  33.828  27.355  1.00  0.00    -0.352 N 
ATOM      4  O   UNL A   1      32.536  35.653  28.634  1.00  0.00    -0.269 OA
ATOM      5  C   UNL A   1      32.969  34.532  28.372  1.00  0.00     0.251 C 
ATOM      6  H   UNL A   1      31.774  34.362  26.794  1.00  0.00     0.163 HD
BRANCH   5   7
ATOM      7  C   UNL A   1      34.112  33.998  29.152  1.00  0.00     0.039 A 
ATOM      8  C   UNL A   1      35.402  34.409  28.795  1.00  0.00     0.014 A 
ATOM      9  C   UNL A   1      33.953  33.012  30.129  1.00  0.00     0.014 A 
ATOM     10  C   UNL A   1      36.520  33.836  29.407  1.00  0.00     0.010 A 
ATOM     11  C   UNL A   1      35.063  32.501  30.801  1.00  0.00     0.010 A 
ATOM     12  C   UNL A   1      36.359  32.873  30.414  1.00  0.00    -0.014 A 
BRANCH  12  13
ATOM     13  C   UNL A   1      37.533  32.161  30.979  1.00  0.00     0.031 A 
ATOM     14  C   UNL A   1      38.000  32.485  32.374  1.00  0.00     0.074 A 
ATOM     15  C   UNL A   1      38.183  31.233  30.251  1.00  0.00     0.049 A 
ATOM     16  N   UNL A   1      39.016  32.000  33.043  1.00  0.00    -0.248 NA
ATOM     17  C   UNL A   1      37.240  33.510  33.106  1.00  0.00     0.031 C 
ATOM     18  C   UNL A   1      37.846  30.846  28.883  1.00  0.00     0.029 A 
ATOM     19  N   UNL A   1      39.260  30.443  30.569  1.00  0.00    -0.354 N 
ATOM     20  C   UNL A   1      39.027  32.677  34.255  1.00  0.00     0.074 A 
ATOM     21  C   UNL A   1      37.954  33.644  34.213  1.00  0.00     0.031 C 
ATOM     22  C   UNL A   1      38.674  29.864  28.491  1.00  0.00     0.029 A 
ATOM     23  C   UNL A   1      39.617  29.574  29.570  1.00  0.00     0.049 A 
ATOM     24  H   UNL A   1      39.731  30.496  31.431  1.00  0.00     0.167 HD
ATOM     25  C   UNL A   1      39.835  32.487  35.324  1.00  0.00     0.037 A 
ATOM     26  C   UNL A   1      40.588  28.642  29.532  1.00  0.00     0.037 A 
ATOM     27  C   UNL A   1      40.859  31.482  35.395  1.00  0.00     0.049 A 
ATOM     28  C   UNL A   1      41.479  28.451  30.729  1.00  0.00     0.074 A 
ATOM     29  C   UNL A   1      41.666  31.147  36.467  1.00  0.00     0.029 A 
ATOM     30  N   UNL A   1      41.208  30.641  34.349  1.00  0.00    -0.354 N 
ATOM     31  N   UNL A   1      41.445  29.061  31.888  1.00  0.00    -0.248 NA
ATOM     32  C   UNL A   1      42.548  27.448  30.608  1.00  0.00     0.031 C 
ATOM     33  C   UNL A   1      42.528  30.124  36.060  1.00  0.00     0.029 A 
ATOM     34  C   UNL A   1      42.238  29.804  34.743  1.00  0.00     0.049 A 
ATOM     35  H   UNL A   1      40.787  30.640  33.460  1.00  0.00     0.167 HD
ATOM     36  C   UNL A   1      42.476  28.513  32.638  1.00  0.00     0.074 A 
ATOM     37  C   UNL A   1      43.111  27.509  31.809  1.00  0.00     0.031 C 
ATOM     38  C   UNL A   1      42.862  28.816  33.900  1.00  0.00     0.037 A 
BRANCH  25  39
ATOM     39  C   UNL A   1      39.629  33.376  36.514  1.00  0.00     0.064 A 
ATOM     40  C   UNL A   1      40.291  34.607  36.633  1.00  0.00     0.173 A 
ATOM     41  C   UNL A   1      38.741  33.005  37.534  1.00  0.00     0.173 A 
ATOM     42  F   UNL A   1      41.159  34.999  35.688  1.00  0.00    -0.203 F 
ATOM     43  C   UNL A   1      40.096  35.420  37.745  1.00  0.00     0.198 A 
ATOM     44  C   UNL A   1      38.529  33.833  38.633  1.00  0.00     0.198 A 
ATOM     45  F   UNL A   1      38.080  31.840  37.466  1.00  0.00    -0.203 F 
ATOM     46  F   UNL A   1      40.776  36.570  37.860  1.00  0.00    -0.200 F 
ATOM     47  C   UNL A   1      39.211  35.036  38.742  1.00  0.00     0.200 A 
ATOM     48  F   UNL A   1      37.668  33.465  39.592  1.00  0.00    -0.200 F 
ATOM     49  F   UNL A   1      39.023  35.821  39.811  1.00  0.00    -0.200 F 
ENDBRANCH  25  39
BRANCH  26  50
ATOM     50  C   UNL A   1      40.734  27.790  28.326  1.00  0.00     0.064 A 
ATOM     51  C   UNL A   1      41.531  28.207  27.252  1.00  0.00     0.173 A 
ATOM     52  C   UNL A   1      40.118  26.533  28.238  1.00  0.00     0.173 A 
ATOM     53  F   UNL A   1      42.123  29.410  27.286  1.00  0.00    -0.203 F 
ATOM     54  C   UNL A   1      41.708  27.398  26.132  1.00  0.00     0.198 A 
ATOM     55  C   UNL A   1      40.311  25.717  27.125  1.00  0.00     0.198 A 
ATOM     56  F   UNL A   1      39.348  26.091  29.242  1.00  0.00    -0.203 F 
ATOM     57  F   UNL A   1      42.460  27.827  25.110  1.00  0.00    -0.200 F 
ATOM     58  C   UNL A   1      41.105  26.150  26.073  1.00  0.00     0.200 A 
ATOM     59  F   UNL A   1      39.734  24.509  27.075  1.00  0.00    -0.200 F 
ATOM     60  F   UNL A   1      41.285  25.367  25.001  1.00  0.00    -0.200 F 
ENDBRANCH  26  50
BRANCH  38  61
ATOM     61  C   UNL A   1      44.030  28.072  34.470  1.00  0.00     0.064 A 
ATOM     62  C   UNL A   1      43.859  26.827  35.090  1.00  0.00     0.173 A 
ATOM     63  C   UNL A   1      45.336  28.556  34.304  1.00  0.00     0.173 A 
ATOM     64  F   UNL A   1      42.628  26.331  35.280  1.00  0.00    -0.203 F 
ATOM     65  C   UNL A   1      44.958  26.090  35.525  1.00  0.00     0.198 A 
ATOM     66  C   UNL A   1      46.433  27.808  34.722  1.00  0.00     0.198 A 
ATOM     67  F   UNL A   1      45.548  29.739  33.709  1.00  0.00    -0.203 F 
ATOM     68  F   UNL A   1      44.772  24.908  36.127  1.00  0.00    -0.200 F 
ATOM     69  C   UNL A   1      46.243  26.577  35.331  1.00  0.00     0.200 A 
ATOM     70  F   UNL A   1      47.674  28.272  34.523  1.00  0.00    -0.200 F 
ATOM     71  F   UNL A   1      47.300  25.855  35.730  1.00  0.00    -0.200 F 
ENDBRANCH  38  61
ENDBRANCH  12  13
ENDBRANCH   5   7
ENDBRANCH   2   3
ENDBRANCH   1   2
BRANCH   1  72
ATOM     72  C   UNL A   1      31.146  30.932  25.368  1.00  0.00     0.118 C 
BRANCH  72  73
ATOM     73  N   UNL A   1      29.976  31.155  24.534  1.00  0.00    -0.352 N 
ATOM     74  C   UNL A   1      29.540  30.450  23.442  1.00  0.00     0.252 C 
ATOM     75  H   UNL A   1      29.415  31.922  24.792  1.00  0.00     0.163 HD
ATOM     76  O   UNL A   1      28.722  30.973  22.686  1.00  0.00    -0.269 OA
BRANCH  74  77
ATOM     77  C   UNL A   1      30.075  29.120  23.192  1.00  0.00     0.051 A 
ATOM     78  C   UNL A   1      31.251  28.863  22.512  1.00  0.00     0.079 A 
ATOM     79  C   UNL A   1      29.512  27.902  23.696  1.00  0.00     0.035 A 
ATOM     80  S   UNL A   1      31.594  27.196  22.382  1.00  0.00    -0.142 S 
ATOM     81  C   UNL A   1      30.215  26.778  23.303  1.00  0.00     0.059 A 
BRANCH  81  82
ATOM     82  C   UNL A   1      29.910  25.341  23.602  1.00  0.00     0.308 C 
BRANCH  82  83
ATOM     83  N   UNL A   1      29.927  25.131  25.045  1.00  0.00    -0.336 N 
ATOM     84  H   UNL A   1      29.211  24.440  25.270  1.00  0.00     0.347 HD
ATOM     85  H   UNL A   1      29.762  26.047  25.462  1.00  0.00     0.347 HD
BRANCH  83  86
ATOM     86  C   UNL A   1      31.207  24.657  25.608  1.00  0.00     0.215 C 
ATOM     87  C   UNL A   1      31.946  23.713  24.642  1.00  0.00     0.081 C 
ATOM     88  C   UNL A   1      32.019  25.869  26.067  1.00  0.00     0.026 A 
ATOM     89  C   UNL A   1      33.364  23.416  25.088  1.00  0.00     0.081 C 
ATOM     90  C   UNL A   1      33.371  26.076  25.739  1.00  0.00     0.017 A 
ATOM     91  C   UNL A   1      31.375  26.839  26.869  1.00  0.00     0.050 A 
ATOM     92  S   UNL A   1      34.370  24.898  24.848  1.00  0.00    -0.125 SA
ATOM     93  C   UNL A   1      34.015  27.265  26.126  1.00  0.00     0.018 A 
ATOM     94  C   UNL A   1      32.034  27.999  27.258  1.00  0.00     0.123 A 
ATOM     95  C   UNL A   1      33.345  28.229  26.878  1.00  0.00     0.040 A 
ATOM     96  F   UNL A   1      31.391  28.911  27.998  1.00  0.00    -0.207 F 
ENDBRANCH  83  86
ENDBRANCH  82  83
ENDBRANCH  81  82
ENDBRANCH  74  77
ENDBRANCH  72  73
ENDBRANCH   1  72
TORSDOF 13
ENDMDL
MODEL 3
REMARK VINA RESULT:     -12.3      1.263      7.301
REMARK SMILES O=C(NCCCNC(=O)c1csc(C[NH2+][C@H]2CCSc3ccc(F)cc32)c1)c1ccc(-c2c3nc(c(-c4c(F)c(F)c(F)c(F)c4F)c4ccc([nH]4)c(-c4c(F)c(F)c(F)c(F)c4F)c4nc(c(-c5c(F)c(F)c(F)c(F)c5F)c5ccc2[nH]5)C=C4)C=C3)cc1
REMARK SMILES IDX 5 1 4 2 3 3 1 4 2 5 28 7 29 8 90 9 30 10 89 11 31 12 32 13
REMARK SMILES IDX 33 14 83 15 34 16 88 17 82 18 84 19 35 20 87 21 81 22 80 23
REMARK SMILES IDX 36 25 68 26 48 27 67 28 49 29 52 30 66 31 85 32 50 33 51 34
REMARK SMILES IDX 65 36 86 37 53 38 37 39 38 40 46 41 39 42 40 43 44 44 47 45
REMARK SMILES IDX 41 46 42 47 45 48 43 49 69 50 70 51 78 52 71 53 72 54 76 55
REMARK SMILES IDX 79 56 73 57 74 58 77 59 75 60 54 61 55 62 63 63 56 64 57 65
REMARK SMILES IDX 61 66 64 67 58 68 59 69 62 70 60 71 6 72 7 73 8 74 9 76
REMARK SMILES IDX 10 77 11 78 27 79 12 80 13 81 14 82 15 83 16 86 17 87 26 88
REMARK SMILES IDX 18 89 20 90 25 91 19 92 21 93 23 94 22 95 24 96
REMARK H PARENT 3 6 84 24 52 35 7 75 15 84 15 85
REMARK Flexibility Score: inf
ROOT
ATOM      1  C   UNL A   1      31.307  31.730  26.764  1.00  0.00     0.042 C 
ENDROOT
BRANCH   1   2
ATOM      2  C   UNL A   1      32.632  32.405  27.104  1.00  0.00     0.118 C 
BRANCH   2   3
ATOM      3  N   UNL A   1      32.474  33.820  27.404  1.00  0.00    -0.352 N 
ATOM      4  O   UNL A   1      32.532  35.730  28.561  1.00  0.00    -0.269 OA
ATOM      5  C   UNL A   1      33.001  34.605  28.394  1.00  0.00     0.251 C 
ATOM      6  H   UNL A   1      31.880  34.299  26.783  1.00  0.00     0.163 HD
BRANCH   5   7
ATOM      7  C   UNL A   1      34.119  34.153  29.257  1.00  0.00     0.039 A 
ATOM      8  C   UNL A   1      35.427  34.366  28.803  1.00  0.00     0.014 A 
ATOM      9  C   UNL A   1      33.911  33.416  30.425  1.00  0.00     0.014 A 
ATOM     10  C   UNL A   1      36.513  33.842  29.510  1.00  0.00     0.010 A 
ATOM     11  C   UNL A   1      34.996  32.967  31.178  1.00  0.00     0.010 A 
ATOM     12  C   UNL A   1      36.305  33.135  30.704  1.00  0.00    -0.014 A 
BRANCH  12  13
ATOM     13  C   UNL A   1      37.434  32.461  31.393  1.00  0.00     0.031 A 
ATOM     14  C   UNL A   1      38.180  31.354  30.694  1.00  0.00     0.074 A 
ATOM     15  C   UNL A   1      37.791  32.829  32.637  1.00  0.00     0.049 A 
ATOM     16  N   UNL A   1      39.175  30.621  31.126  1.00  0.00    -0.248 NA
ATOM     17  C   UNL A   1      37.730  31.008  29.335  1.00  0.00     0.031 C 
ATOM     18  C   UNL A   1      37.136  33.866  33.431  1.00  0.00     0.029 A 
ATOM     19  N   UNL A   1      38.801  32.372  33.448  1.00  0.00    -0.354 N 
ATOM     20  C   UNL A   1      39.448  29.718  30.107  1.00  0.00     0.074 A 
ATOM     21  C   UNL A   1      38.484  29.955  29.057  1.00  0.00     0.031 C 
ATOM     22  C   UNL A   1      37.784  33.996  34.600  1.00  0.00     0.029 A 
ATOM     23  C   UNL A   1      38.881  33.032  34.649  1.00  0.00     0.049 A 
ATOM     24  H   UNL A   1      39.408  31.642  33.193  1.00  0.00     0.167 HD
ATOM     25  C   UNL A   1      40.437  28.797  30.035  1.00  0.00     0.037 A 
ATOM     26  C   UNL A   1      39.747  32.881  35.669  1.00  0.00     0.037 A 
ATOM     27  C   UNL A   1      41.438  28.603  31.047  1.00  0.00     0.049 A 
ATOM     28  C   UNL A   1      40.835  31.846  35.571  1.00  0.00     0.074 A 
ATOM     29  C   UNL A   1      42.536  27.763  31.025  1.00  0.00     0.029 A 
ATOM     30  N   UNL A   1      41.465  29.272  32.261  1.00  0.00    -0.354 N 
ATOM     31  N   UNL A   1      41.116  31.036  34.580  1.00  0.00    -0.248 NA
ATOM     32  C   UNL A   1      41.722  31.702  36.735  1.00  0.00     0.031 C 
ATOM     33  C   UNL A   1      43.212  27.898  32.242  1.00  0.00     0.029 A 
ATOM     34  C   UNL A   1      42.549  28.843  33.009  1.00  0.00     0.049 A 
ATOM     35  H   UNL A   1      40.813  29.950  32.549  1.00  0.00     0.167 HD
ATOM     36  C   UNL A   1      42.213  30.293  34.994  1.00  0.00     0.074 A 
ATOM     37  C   UNL A   1      42.558  30.758  36.321  1.00  0.00     0.031 C 
ATOM     38  C   UNL A   1      42.872  29.312  34.332  1.00  0.00     0.037 A 
BRANCH  25  39
ATOM     39  C   UNL A   1      40.495  27.939  28.806  1.00  0.00     0.064 A 
ATOM     40  C   UNL A   1      39.801  26.722  28.729  1.00  0.00     0.173 A 
ATOM     41  C   UNL A   1      41.231  28.349  27.685  1.00  0.00     0.173 A 
ATOM     42  F   UNL A   1      39.093  26.282  29.780  1.00  0.00    -0.203 F 
ATOM     43  C   UNL A   1      39.867  25.932  27.585  1.00  0.00     0.198 A 
ATOM     44  C   UNL A   1      41.274  27.568  26.533  1.00  0.00     0.198 A 
ATOM     45  F   UNL A   1      41.908  29.507  27.707  1.00  0.00    -0.203 F 
ATOM     46  F   UNL A   1      39.235  24.750  27.552  1.00  0.00    -0.200 F 
ATOM     47  C   UNL A   1      40.599  26.358  26.486  1.00  0.00     0.200 A 
ATOM     48  F   UNL A   1      41.975  27.984  25.469  1.00  0.00    -0.200 F 
ATOM     49  F   UNL A   1      40.660  25.596  25.386  1.00  0.00    -0.200 F 
ENDBRANCH  25  39
BRANCH  26  50
ATOM     50  C   UNL A   1      39.640  33.767  36.853  1.00  0.00     0.064 A 
ATOM     51  C   UNL A   1      40.284  35.011  36.872  1.00  0.00     0.173 A 
ATOM     52  C   UNL A   1      38.868  33.411  37.969  1.00  0.00     0.173 A 
ATOM     53  F   UNL A   1      41.049  35.384  35.836  1.00  0.00    -0.203 F 
ATOM     54  C   UNL A   1      40.159  35.869  37.963  1.00  0.00     0.198 A 
ATOM     55  C   UNL A   1      38.729  34.277  39.051  1.00  0.00     0.198 A 
ATOM     56  F   UNL A   1      38.233  32.231  37.995  1.00  0.00    -0.203 F 
ATOM     57  F   UNL A   1      40.799  37.046  37.963  1.00  0.00    -0.200 F 
ATOM     58  C   UNL A   1      39.374  35.505  39.047  1.00  0.00     0.200 A 
ATOM     59  F   UNL A   1      37.963  33.927  40.093  1.00  0.00    -0.200 F 
ATOM     60  F   UNL A   1      39.244  36.336  40.090  1.00  0.00    -0.200 F 
ENDBRANCH  26  50
BRANCH  38  61
ATOM     61  C   UNL A   1      44.027  28.658  35.026  1.00  0.00     0.064 A 
ATOM     62  C   UNL A   1      45.313  29.210  34.961  1.00  0.00     0.173 A 
ATOM     63  C   UNL A   1      43.828  27.535  35.842  1.00  0.00     0.173 A 
ATOM     64  F   UNL A   1      45.552  30.277  34.184  1.00  0.00    -0.203 F 
ATOM     65  C   UNL A   1      46.363  28.660  35.691  1.00  0.00     0.198 A 
ATOM     66  C   UNL A   1      44.875  26.999  36.586  1.00  0.00     0.198 A 
ATOM     67  F   UNL A   1      42.612  26.978  35.941  1.00  0.00    -0.203 F 
ATOM     68  F   UNL A   1      47.589  29.194  35.606  1.00  0.00    -0.200 F 
ATOM     69  C   UNL A   1      46.140  27.562  36.510  1.00  0.00     0.200 A 
ATOM     70  F   UNL A   1      44.657  25.948  37.387  1.00  0.00    -0.200 F 
ATOM     71  F   UNL A   1      47.148  27.047  37.230  1.00  0.00    -0.200 F 
ENDBRANCH  38  61
ENDBRANCH  12  13
ENDBRANCH   5   7
ENDBRANCH   2   3
ENDBRANCH   1   2
BRANCH   1  72
ATOM     72  C   UNL A   1      31.341  30.879  25.496  1.00  0.00     0.118 C 
BRANCH  72  73
ATOM     73  N   UNL A   1      30.180  31.113  24.653  1.00  0.00    -0.352 N 
ATOM     74  C   UNL A   1      29.762  30.428  23.541  1.00  0.00     0.252 C 
ATOM     75  H   UNL A   1      29.611  31.871  24.919  1.00  0.00     0.163 HD
ATOM     76  O   UNL A   1      28.950  30.961  22.786  1.00  0.00    -0.269 OA
BRANCH  74  77
ATOM     77  C   UNL A   1      30.307  29.106  23.271  1.00  0.00     0.051 A 
ATOM     78  C   UNL A   1      31.532  28.871  22.674  1.00  0.00     0.079 A 
ATOM     79  C   UNL A   1      29.699  27.871  23.669  1.00  0.00     0.035 A 
ATOM     80  S   UNL A   1      31.875  27.209  22.492  1.00  0.00    -0.142 S 
ATOM     81  C   UNL A   1      30.425  26.760  23.279  1.00  0.00     0.059 A 
BRANCH  81  82
ATOM     82  C   UNL A   1      30.089  25.314  23.483  1.00  0.00     0.308 C 
BRANCH  82  83
ATOM     83  N   UNL A   1      30.029  25.026  24.912  1.00  0.00    -0.336 N 
ATOM     84  H   UNL A   1      29.344  24.284  25.054  1.00  0.00     0.347 HD
ATOM     85  H   UNL A   1      29.781  25.907  25.363  1.00  0.00     0.347 HD
BRANCH  83  86
ATOM     86  C   UNL A   1      31.298  24.598  25.533  1.00  0.00     0.215 C 
ATOM     87  C   UNL A   1      32.144  23.737  24.577  1.00  0.00     0.081 C 
ATOM     88  C   UNL A   1      32.012  25.830  26.089  1.00  0.00     0.026 A 
ATOM     89  C   UNL A   1      33.547  23.497  25.098  1.00  0.00     0.081 C 
ATOM     90  C   UNL A   1      33.368  26.123  25.852  1.00  0.00     0.017 A 
ATOM     91  C   UNL A   1      31.269  26.729  26.887  1.00  0.00     0.050 A 
ATOM     92  S   UNL A   1      34.481  25.039  24.979  1.00  0.00    -0.125 SA
ATOM     93  C   UNL A   1      33.920  27.327  26.325  1.00  0.00     0.018 A 
ATOM     94  C   UNL A   1      31.838  27.905  27.362  1.00  0.00     0.123 A 
ATOM     95  C   UNL A   1      33.154  28.221  27.072  1.00  0.00     0.040 A 
ATOM     96  F   UNL A   1      31.102  28.748  28.096  1.00  0.00    -0.207 F 
ENDBRANCH  83  86
ENDBRANCH  82  83
ENDBRANCH  81  82
ENDBRANCH  74  77
ENDBRANCH  72  73
ENDBRANCH   1  72
TORSDOF 13
ENDMDL
