MODEL 1
REMARK VINA RESULT:     -13.9      0.000      0.000
REMARK SMILES Cc1ccc(NC(=O)C[N@@H+]2CC[C@@H](C(=O)NCCCNC(=O)c3ccc(-c4c5nc(c(-c6c(F)c(F)c(F)c(F)c6F)c6ccc([nH]6)c(-c6c(F)c(F)c(F)c(F)c6F)c6nc(c(-c7c(F)c(F)c(F)c(F)c7F)c7ccc4[nH]7)C=C6)C=C5)cc3)[C@@H]2C)cc1
REMARK SMILES IDX 17 1 16 2 14 3 15 4 13 6 10 7 11 8 86 9 12 11 87 12 9 13
REMARK SMILES IDX 7 14 6 15 8 17 5 18 1 19 2 20 3 21 89 22 4 23 88 24 18 25
REMARK SMILES IDX 19 26 20 27 21 28 22 30 23 31 24 32 85 33 25 34 84 35 26 36
REMARK SMILES IDX 27 37 28 38 78 39 29 40 83 41 77 42 79 43 30 44 82 45 76 46
REMARK SMILES IDX 75 47 31 49 63 50 43 51 62 52 44 53 47 54 61 55 80 56 45 57
REMARK SMILES IDX 46 58 60 60 81 61 48 62 32 63 33 64 41 65 34 66 35 67 39 68
REMARK SMILES IDX 42 69 36 70 37 71 40 72 38 73 64 74 65 75 73 76 66 77 67 78
REMARK SMILES IDX 71 79 74 80 68 81 69 82 72 83 70 84 49 85 50 86 58 87 51 88
REMARK SMILES IDX 52 89 56 90 59 91 53 92 54 93 57 94 55 95
REMARK H PARENT 16 5 10 10 6 16 20 29 79 48 47 59
REMARK Flexibility Score: inf
ROOT
ATOM      1  C   UNL A   1      37.588  21.036  24.680  1.00  0.00     0.117 C 
ENDROOT
BRANCH   1   2
ATOM      2  N   UNL A   1      36.323  20.446  25.130  1.00  0.00    -0.356 N 
ATOM      3  C   UNL A   1      35.037  20.912  25.150  1.00  0.00     0.229 C 
ATOM      4  O   UNL A   1      34.159  20.043  25.035  1.00  0.00    -0.275 OA
ATOM      5  H   UNL A   1      36.418  19.534  25.489  1.00  0.00     0.163 HD
BRANCH   3   6
ATOM      6  C   UNL A   1      34.589  22.370  25.390  1.00  0.00     0.142 C 
ATOM      7  N   UNL A   1      32.436  22.489  26.032  1.00  0.00    -0.324 N 
ATOM      8  C   UNL A   1      33.050  23.174  27.149  1.00  0.00     0.263 C 
ATOM      9  C   UNL A   1      33.234  22.776  24.838  1.00  0.00     0.194 C 
ATOM     10  H   UNL A   1      32.478  21.488  26.224  1.00  0.00     0.348 HD
ATOM     11  C   UNL A   1      34.533  22.843  26.872  1.00  0.00     0.081 C 
ATOM     12  C   UNL A   1      33.287  24.235  24.361  1.00  0.00     0.076 C 
BRANCH   7  13
ATOM     13  C   UNL A   1      31.001  22.383  25.928  1.00  0.00     0.364 C 
BRANCH  13  14
ATOM     14  C   UNL A   1      30.105  23.389  26.708  1.00  0.00     0.279 C 
ATOM     15  N   UNL A   1      29.930  24.741  26.604  1.00  0.00    -0.321 N 
ATOM     16  H   UNL A   1      29.544  25.089  27.440  1.00  0.00     0.170 HD
ATOM     17  O   UNL A   1      29.561  22.920  27.731  1.00  0.00    -0.268 OA
BRANCH  15  18
ATOM     18  C   UNL A   1      30.120  25.801  25.690  1.00  0.00     0.041 A 
ATOM     19  C   UNL A   1      30.717  29.111  22.919  1.00  0.00     0.044 C 
ATOM     20  C   UNL A   1      30.519  28.011  23.915  1.00  0.00    -0.051 A 
ATOM     21  C   UNL A   1      29.580  27.035  23.645  1.00  0.00     0.005 A 
ATOM     22  C   UNL A   1      31.271  27.883  25.087  1.00  0.00     0.005 A 
ATOM     23  C   UNL A   1      29.397  25.976  24.534  1.00  0.00     0.026 A 
ATOM     24  C   UNL A   1      31.067  26.794  25.967  1.00  0.00     0.026 A 
ENDBRANCH  15  18
ENDBRANCH  13  14
ENDBRANCH   7  13
ENDBRANCH   3   6
ENDBRANCH   1   2
BRANCH   1  25
ATOM     25  C   UNL A   1      38.665  21.180  25.745  1.00  0.00     0.042 C 
BRANCH  25  26
ATOM     26  C   UNL A   1      39.069  22.623  26.011  1.00  0.00     0.118 C 
BRANCH  26  27
ATOM     27  N   UNL A   1      40.418  22.835  26.544  1.00  0.00    -0.352 N 
ATOM     28  C   UNL A   1      41.030  24.028  26.933  1.00  0.00     0.251 C 
ATOM     29  H   UNL A   1      40.968  22.025  26.642  1.00  0.00     0.163 HD
ATOM     30  O   UNL A   1      42.172  24.036  27.356  1.00  0.00    -0.269 OA
BRANCH  28  31
ATOM     31  C   UNL A   1      40.216  25.272  26.965  1.00  0.00     0.039 A 
ATOM     32  C   UNL A   1      40.701  26.395  26.285  1.00  0.00     0.014 A 
ATOM     33  C   UNL A   1      39.230  25.413  27.927  1.00  0.00     0.014 A 
ATOM     34  C   UNL A   1      40.441  27.660  26.808  1.00  0.00     0.010 A 
ATOM     35  C   UNL A   1      39.138  26.631  28.562  1.00  0.00     0.010 A 
ATOM     36  C   UNL A   1      39.792  27.750  28.037  1.00  0.00    -0.014 A 
BRANCH  36  37
ATOM     37  C   UNL A   1      39.853  28.926  28.903  1.00  0.00     0.031 A 
ATOM     38  C   UNL A   1      38.821  29.984  28.794  1.00  0.00     0.074 A 
ATOM     39  C   UNL A   1      40.773  28.985  29.895  1.00  0.00     0.049 A 
ATOM     40  N   UNL A   1      38.981  31.201  29.195  1.00  0.00    -0.248 NA
ATOM     41  C   UNL A   1      37.516  29.759  28.186  1.00  0.00     0.031 C 
ATOM     42  C   UNL A   1      40.779  29.902  31.033  1.00  0.00     0.029 A 
ATOM     43  N   UNL A   1      42.007  28.313  29.987  1.00  0.00    -0.354 N 
ATOM     44  C   UNL A   1      37.753  31.827  29.159  1.00  0.00     0.074 A 
ATOM     45  C   UNL A   1      36.887  30.899  28.476  1.00  0.00     0.031 C 
ATOM     46  C   UNL A   1      42.021  29.966  31.537  1.00  0.00     0.029 A 
ATOM     47  C   UNL A   1      42.884  29.201  30.656  1.00  0.00     0.049 A 
ATOM     48  H   UNL A   1      42.217  27.411  29.655  1.00  0.00     0.167 HD
ATOM     49  C   UNL A   1      37.586  33.006  29.826  1.00  0.00     0.037 A 
ATOM     50  C   UNL A   1      44.007  29.689  30.055  1.00  0.00     0.037 A 
ATOM     51  C   UNL A   1      38.846  33.447  30.423  1.00  0.00     0.049 A 
ATOM     52  C   UNL A   1      44.024  31.192  29.909  1.00  0.00     0.074 A 
ATOM     53  C   UNL A   1      39.355  33.344  31.708  1.00  0.00     0.029 A 
ATOM     54  N   UNL A   1      39.911  33.811  29.605  1.00  0.00    -0.354 N 
ATOM     55  N   UNL A   1      42.963  31.941  30.018  1.00  0.00    -0.248 NA
ATOM     56  C   UNL A   1      45.221  31.964  29.583  1.00  0.00     0.031 C 
ATOM     57  C   UNL A   1      40.746  33.604  31.651  1.00  0.00     0.029 A 
ATOM     58  C   UNL A   1      41.080  33.881  30.337  1.00  0.00     0.049 A 
ATOM     59  H   UNL A   1      39.841  33.994  28.640  1.00  0.00     0.167 HD
ATOM     60  C   UNL A   1      43.291  33.242  29.739  1.00  0.00     0.074 A 
ATOM     61  C   UNL A   1      44.721  33.210  29.498  1.00  0.00     0.031 C 
ATOM     62  C   UNL A   1      42.346  34.228  29.710  1.00  0.00     0.037 A 
BRANCH  49  63
ATOM     63  C   UNL A   1      36.241  33.603  30.199  1.00  0.00     0.064 A 
ATOM     64  C   UNL A   1      35.394  34.150  29.207  1.00  0.00     0.173 A 
ATOM     65  C   UNL A   1      35.747  33.730  31.512  1.00  0.00     0.173 A 
ATOM     66  F   UNL A   1      35.648  33.989  27.903  1.00  0.00    -0.203 F 
ATOM     67  C   UNL A   1      34.245  34.883  29.515  1.00  0.00     0.198 A 
ATOM     68  C   UNL A   1      34.629  34.511  31.825  1.00  0.00     0.198 A 
ATOM     69  F   UNL A   1      36.280  33.046  32.529  1.00  0.00    -0.203 F 
ATOM     70  F   UNL A   1      33.493  35.388  28.526  1.00  0.00    -0.200 F 
ATOM     71  C   UNL A   1      33.885  35.103  30.827  1.00  0.00     0.200 A 
ATOM     72  F   UNL A   1      34.276  34.678  33.109  1.00  0.00    -0.200 F 
ATOM     73  F   UNL A   1      32.811  35.844  31.126  1.00  0.00    -0.200 F 
ENDBRANCH  49  63
BRANCH  50  74
ATOM     74  C   UNL A   1      44.621  28.731  29.102  1.00  0.00     0.064 A 
ATOM     75  C   UNL A   1      45.387  27.675  29.629  1.00  0.00     0.173 A 
ATOM     76  C   UNL A   1      44.146  28.602  27.792  1.00  0.00     0.173 A 
ATOM     77  F   UNL A   1      45.867  27.754  30.880  1.00  0.00    -0.203 F 
ATOM     78  C   UNL A   1      45.565  26.488  28.920  1.00  0.00     0.198 A 
ATOM     79  C   UNL A   1      44.333  27.414  27.083  1.00  0.00     0.198 A 
ATOM     80  F   UNL A   1      43.393  29.567  27.246  1.00  0.00    -0.203 F 
ATOM     81  F   UNL A   1      46.207  25.459  29.491  1.00  0.00    -0.200 F 
ATOM     82  C   UNL A   1      45.009  26.348  27.660  1.00  0.00     0.200 A 
ATOM     83  F   UNL A   1      43.767  27.263  25.877  1.00  0.00    -0.200 F 
ATOM     84  F   UNL A   1      45.087  25.173  27.019  1.00  0.00    -0.200 F 
ENDBRANCH  50  74
BRANCH  62  85
ATOM     85  C   UNL A   1      42.544  35.627  29.183  1.00  0.00     0.064 A 
ATOM     86  C   UNL A   1      41.941  36.115  28.011  1.00  0.00     0.173 A 
ATOM     87  C   UNL A   1      43.252  36.586  29.948  1.00  0.00     0.173 A 
ATOM     88  F   UNL A   1      41.148  35.338  27.261  1.00  0.00    -0.203 F 
ATOM     89  C   UNL A   1      42.088  37.444  27.604  1.00  0.00     0.198 A 
ATOM     90  C   UNL A   1      43.348  37.923  29.568  1.00  0.00     0.198 A 
ATOM     91  F   UNL A   1      43.849  36.256  31.104  1.00  0.00    -0.203 F 
ATOM     92  F   UNL A   1      41.527  37.850  26.456  1.00  0.00    -0.200 F 
ATOM     93  C   UNL A   1      42.781  38.349  28.386  1.00  0.00     0.200 A 
ATOM     94  F   UNL A   1      43.977  38.799  30.365  1.00  0.00    -0.200 F 
ATOM     95  F   UNL A   1      42.879  39.633  28.013  1.00  0.00    -0.200 F 
ENDBRANCH  62  85
ENDBRANCH  36  37
ENDBRANCH  28  31
ENDBRANCH  26  27
ENDBRANCH  25  26
ENDBRANCH   1  25
TORSDOF 13
ENDMDL
MODEL 2
REMARK VINA RESULT:     -13.6      3.450     10.130
REMARK SMILES Cc1ccc(NC(=O)C[N@@H+]2CC[C@@H](C(=O)NCCCNC(=O)c3ccc(-c4c5nc(c(-c6c(F)c(F)c(F)c(F)c6F)c6ccc([nH]6)c(-c6c(F)c(F)c(F)c(F)c6F)c6nc(c(-c7c(F)c(F)c(F)c(F)c7F)c7ccc4[nH]7)C=C6)C=C5)cc3)[C@@H]2C)cc1
REMARK SMILES IDX 17 1 16 2 14 3 15 4 13 6 10 7 11 8 86 9 12 11 87 12 9 13
REMARK SMILES IDX 7 14 6 15 8 17 5 18 1 19 2 20 3 21 89 22 4 23 88 24 18 25
REMARK SMILES IDX 19 26 20 27 21 28 22 30 23 31 24 32 85 33 25 34 84 35 26 36
REMARK SMILES IDX 27 37 28 38 78 39 29 40 83 41 77 42 79 43 30 44 82 45 76 46
REMARK SMILES IDX 75 47 31 49 63 50 43 51 62 52 44 53 47 54 61 55 80 56 45 57
REMARK SMILES IDX 46 58 60 60 81 61 48 62 32 63 33 64 41 65 34 66 35 67 39 68
REMARK SMILES IDX 42 69 36 70 37 71 40 72 38 73 64 74 65 75 73 76 66 77 67 78
REMARK SMILES IDX 71 79 74 80 68 81 69 82 72 83 70 84 49 85 50 86 58 87 51 88
REMARK SMILES IDX 52 89 56 90 59 91 53 92 54 93 57 94 55 95
REMARK H PARENT 16 5 10 10 6 16 20 29 79 48 47 59
REMARK Flexibility Score: inf
ROOT
ATOM      1  C   UNL A   1      32.655  30.699  26.779  1.00  0.00     0.117 C 
ENDROOT
BRANCH   1   2
ATOM      2  N   UNL A   1      31.812  29.575  27.198  1.00  0.00    -0.356 N 
ATOM      3  C   UNL A   1      31.899  28.224  26.998  1.00  0.00     0.229 C 
ATOM      4  O   UNL A   1      31.418  27.524  27.903  1.00  0.00    -0.275 OA
ATOM      5  H   UNL A   1      31.028  29.845  27.729  1.00  0.00     0.163 HD
BRANCH   3   6
ATOM      6  C   UNL A   1      32.443  27.512  25.740  1.00  0.00     0.142 C 
ATOM      7  N   UNL A   1      31.163  25.759  25.152  1.00  0.00    -0.324 N 
ATOM      8  C   UNL A   1      31.110  26.510  23.916  1.00  0.00     0.263 C 
ATOM      9  C   UNL A   1      32.471  25.994  25.763  1.00  0.00     0.194 C 
ATOM     10  H   UNL A   1      30.439  26.130  25.768  1.00  0.00     0.348 HD
ATOM     11  C   UNL A   1      31.730  27.841  24.396  1.00  0.00     0.081 C 
ATOM     12  C   UNL A   1      33.706  25.490  25.000  1.00  0.00     0.076 C 
BRANCH   7  13
ATOM     13  C   UNL A   1      30.546  24.458  25.252  1.00  0.00     0.364 C 
BRANCH  13  14
ATOM     14  C   UNL A   1      30.798  23.592  26.521  1.00  0.00     0.279 C 
ATOM     15  N   UNL A   1      31.692  22.595  26.794  1.00  0.00    -0.321 N 
ATOM     16  H   UNL A   1      31.371  22.063  27.558  1.00  0.00     0.170 HD
ATOM     17  O   UNL A   1      29.924  23.699  27.408  1.00  0.00    -0.268 OA
BRANCH  15  18
ATOM     18  C   UNL A   1      32.926  22.079  26.341  1.00  0.00     0.041 A 
ATOM     19  C   UNL A   1      36.705  20.431  24.927  1.00  0.00     0.044 C 
ATOM     20  C   UNL A   1      35.381  20.946  25.401  1.00  0.00    -0.051 A 
ATOM     21  C   UNL A   1      35.352  21.782  26.500  1.00  0.00     0.005 A 
ATOM     22  C   UNL A   1      34.169  20.672  24.760  1.00  0.00     0.005 A 
ATOM     23  C   UNL A   1      34.140  22.309  26.945  1.00  0.00     0.026 A 
ATOM     24  C   UNL A   1      32.956  21.226  25.231  1.00  0.00     0.026 A 
ENDBRANCH  15  18
ENDBRANCH  13  14
ENDBRANCH   7  13
ENDBRANCH   3   6
ENDBRANCH   1   2
BRANCH   1  25
ATOM     25  C   UNL A   1      34.110  30.632  27.220  1.00  0.00     0.042 C 
BRANCH  25  26
ATOM     26  C   UNL A   1      34.334  31.095  28.652  1.00  0.00     0.118 C 
BRANCH  26  27
ATOM     27  N   UNL A   1      35.471  31.994  28.876  1.00  0.00    -0.352 N 
ATOM     28  C   UNL A   1      36.825  31.680  29.002  1.00  0.00     0.251 C 
ATOM     29  H   UNL A   1      35.248  32.950  28.947  1.00  0.00     0.163 HD
ATOM     30  O   UNL A   1      37.654  32.552  29.193  1.00  0.00    -0.269 OA
BRANCH  28  31
ATOM     31  C   UNL A   1      37.261  30.281  28.750  1.00  0.00     0.039 A 
ATOM     32  C   UNL A   1      37.449  29.440  29.853  1.00  0.00     0.014 A 
ATOM     33  C   UNL A   1      37.811  29.952  27.522  1.00  0.00     0.014 A 
ATOM     34  C   UNL A   1      38.452  28.475  29.797  1.00  0.00     0.010 A 
ATOM     35  C   UNL A   1      38.929  29.149  27.528  1.00  0.00     0.010 A 
ATOM     36  C   UNL A   1      39.290  28.450  28.685  1.00  0.00    -0.014 A 
BRANCH  36  37
ATOM     37  C   UNL A   1      40.615  27.834  28.679  1.00  0.00     0.031 A 
ATOM     38  C   UNL A   1      40.761  26.385  28.404  1.00  0.00     0.074 A 
ATOM     39  C   UNL A   1      41.719  28.610  28.792  1.00  0.00     0.049 A 
ATOM     40  N   UNL A   1      41.782  25.677  28.754  1.00  0.00    -0.248 NA
ATOM     41  C   UNL A   1      39.736  25.600  27.728  1.00  0.00     0.031 C 
ATOM     42  C   UNL A   1      43.097  28.227  28.490  1.00  0.00     0.029 A 
ATOM     43  N   UNL A   1      41.836  29.889  29.370  1.00  0.00    -0.354 N 
ATOM     44  C   UNL A   1      41.684  24.451  28.130  1.00  0.00     0.074 A 
ATOM     45  C   UNL A   1      40.367  24.439  27.544  1.00  0.00     0.031 C 
ATOM     46  C   UNL A   1      43.932  29.066  29.119  1.00  0.00     0.029 A 
ATOM     47  C   UNL A   1      43.124  29.933  29.956  1.00  0.00     0.049 A 
ATOM     48  H   UNL A   1      41.161  30.605  29.367  1.00  0.00     0.167 HD
ATOM     49  C   UNL A   1      42.782  23.642  28.076  1.00  0.00     0.037 A 
ATOM     50  C   UNL A   1      43.296  30.094  31.300  1.00  0.00     0.037 A 
ATOM     51  C   UNL A   1      43.900  24.235  28.809  1.00  0.00     0.049 A 
ATOM     52  C   UNL A   1      44.002  28.941  31.973  1.00  0.00     0.074 A 
ATOM     53  C   UNL A   1      45.007  24.960  28.393  1.00  0.00     0.029 A 
ATOM     54  N   UNL A   1      43.818  24.396  30.188  1.00  0.00    -0.354 N 
ATOM     55  N   UNL A   1      44.139  27.763  31.432  1.00  0.00    -0.248 NA
ATOM     56  C   UNL A   1      44.564  29.005  33.319  1.00  0.00     0.031 C 
ATOM     57  C   UNL A   1      45.565  25.597  29.528  1.00  0.00     0.029 A 
ATOM     58  C   UNL A   1      44.810  25.248  30.634  1.00  0.00     0.049 A 
ATOM     59  H   UNL A   1      43.148  23.963  30.765  1.00  0.00     0.167 HD
ATOM     60  C   UNL A   1      44.736  26.915  32.328  1.00  0.00     0.074 A 
ATOM     61  C   UNL A   1      45.007  27.746  33.486  1.00  0.00     0.031 C 
ATOM     62  C   UNL A   1      44.934  25.594  32.042  1.00  0.00     0.037 A 
BRANCH  49  63
ATOM     63  C   UNL A   1      42.947  22.474  27.120  1.00  0.00     0.064 A 
ATOM     64  C   UNL A   1      42.196  21.288  27.293  1.00  0.00     0.173 A 
ATOM     65  C   UNL A   1      43.866  22.423  26.055  1.00  0.00     0.173 A 
ATOM     66  F   UNL A   1      41.185  21.221  28.169  1.00  0.00    -0.203 F 
ATOM     67  C   UNL A   1      42.449  20.121  26.568  1.00  0.00     0.198 A 
ATOM     68  C   UNL A   1      44.160  21.240  25.367  1.00  0.00     0.198 A 
ATOM     69  F   UNL A   1      44.459  23.527  25.588  1.00  0.00    -0.203 F 
ATOM     70  F   UNL A   1      41.709  19.025  26.792  1.00  0.00    -0.200 F 
ATOM     71  C   UNL A   1      43.462  20.082  25.635  1.00  0.00     0.200 A 
ATOM     72  F   UNL A   1      45.124  21.237  24.435  1.00  0.00    -0.200 F 
ATOM     73  F   UNL A   1      43.738  18.952  24.972  1.00  0.00    -0.200 F 
ENDBRANCH  49  63
BRANCH  50  74
ATOM     74  C   UNL A   1      42.246  30.935  31.925  1.00  0.00     0.064 A 
ATOM     75  C   UNL A   1      42.355  32.332  31.799  1.00  0.00     0.173 A 
ATOM     76  C   UNL A   1      40.993  30.407  32.259  1.00  0.00     0.173 A 
ATOM     77  F   UNL A   1      43.537  32.886  31.483  1.00  0.00    -0.203 F 
ATOM     78  C   UNL A   1      41.233  33.154  31.880  1.00  0.00     0.198 A 
ATOM     79  C   UNL A   1      39.873  31.235  32.346  1.00  0.00     0.198 A 
ATOM     80  F   UNL A   1      40.825  29.081  32.371  1.00  0.00    -0.203 F 
ATOM     81  F   UNL A   1      41.351  34.470  31.647  1.00  0.00    -0.200 F 
ATOM     82  C   UNL A   1      39.988  32.601  32.121  1.00  0.00     0.200 A 
ATOM     83  F   UNL A   1      38.661  30.698  32.546  1.00  0.00    -0.200 F 
ATOM     84  F   UNL A   1      38.893  33.373  32.094  1.00  0.00    -0.200 F 
ENDBRANCH  50  74
BRANCH  62  85
ATOM     85  C   UNL A   1      45.348  24.529  33.026  1.00  0.00     0.064 A 
ATOM     86  C   UNL A   1      44.544  23.431  33.376  1.00  0.00     0.173 A 
ATOM     87  C   UNL A   1      46.666  24.509  33.545  1.00  0.00     0.173 A 
ATOM     88  F   UNL A   1      43.319  23.272  32.859  1.00  0.00    -0.203 F 
ATOM     89  C   UNL A   1      45.002  22.424  34.231  1.00  0.00     0.198 A 
ATOM     90  C   UNL A   1      47.138  23.474  34.350  1.00  0.00     0.198 A 
ATOM     91  F   UNL A   1      47.544  25.483  33.261  1.00  0.00    -0.203 F 
ATOM     92  F   UNL A   1      44.181  21.418  34.568  1.00  0.00    -0.200 F 
ATOM     93  C   UNL A   1      46.300  22.440  34.708  1.00  0.00     0.200 A 
ATOM     94  F   UNL A   1      48.414  23.477  34.759  1.00  0.00    -0.200 F 
ATOM     95  F   UNL A   1      46.747  21.447  35.490  1.00  0.00    -0.200 F 
ENDBRANCH  62  85
ENDBRANCH  36  37
ENDBRANCH  28  31
ENDBRANCH  26  27
ENDBRANCH  25  26
ENDBRANCH   1  25
TORSDOF 13
ENDMDL
MODEL 3
REMARK VINA RESULT:     -13.6      4.227     10.288
REMARK SMILES Cc1ccc(NC(=O)C[N@@H+]2CC[C@@H](C(=O)NCCCNC(=O)c3ccc(-c4c5nc(c(-c6c(F)c(F)c(F)c(F)c6F)c6ccc([nH]6)c(-c6c(F)c(F)c(F)c(F)c6F)c6nc(c(-c7c(F)c(F)c(F)c(F)c7F)c7ccc4[nH]7)C=C6)C=C5)cc3)[C@@H]2C)cc1
REMARK SMILES IDX 17 1 16 2 14 3 15 4 13 6 10 7 11 8 86 9 12 11 87 12 9 13
REMARK SMILES IDX 7 14 6 15 8 17 5 18 1 19 2 20 3 21 89 22 4 23 88 24 18 25
REMARK SMILES IDX 19 26 20 27 21 28 22 30 23 31 24 32 85 33 25 34 84 35 26 36
REMARK SMILES IDX 27 37 28 38 78 39 29 40 83 41 77 42 79 43 30 44 82 45 76 46
REMARK SMILES IDX 75 47 31 49 63 50 43 51 62 52 44 53 47 54 61 55 80 56 45 57
REMARK SMILES IDX 46 58 60 60 81 61 48 62 32 63 33 64 41 65 34 66 35 67 39 68
REMARK SMILES IDX 42 69 36 70 37 71 40 72 38 73 64 74 65 75 73 76 66 77 67 78
REMARK SMILES IDX 71 79 74 80 68 81 69 82 72 83 70 84 49 85 50 86 58 87 51 88
REMARK SMILES IDX 52 89 56 90 59 91 53 92 54 93 57 94 55 95
REMARK H PARENT 16 5 10 10 6 16 20 29 79 48 47 59
REMARK Flexibility Score: inf
ROOT
ATOM      1  C   UNL A   1      31.949  30.588  26.822  1.00  0.00     0.117 C 
ENDROOT
BRANCH   1   2
ATOM      2  N   UNL A   1      31.524  30.398  25.431  1.00  0.00    -0.356 N 
ATOM      3  C   UNL A   1      31.368  29.283  24.653  1.00  0.00     0.229 C 
ATOM      4  O   UNL A   1      30.492  29.368  23.779  1.00  0.00    -0.275 OA
ATOM      5  H   UNL A   1      31.309  31.238  24.965  1.00  0.00     0.163 HD
BRANCH   3   6
ATOM      6  C   UNL A   1      32.223  27.998  24.703  1.00  0.00     0.142 C 
ATOM      7  N   UNL A   1      32.215  26.913  22.732  1.00  0.00    -0.324 N 
ATOM      8  C   UNL A   1      33.642  27.096  22.891  1.00  0.00     0.263 C 
ATOM      9  C   UNL A   1      31.633  26.752  24.065  1.00  0.00     0.194 C 
ATOM     10  H   UNL A   1      31.841  27.762  22.309  1.00  0.00     0.348 HD
ATOM     11  C   UNL A   1      33.644  28.088  24.075  1.00  0.00     0.081 C 
ATOM     12  C   UNL A   1      32.053  25.513  24.872  1.00  0.00     0.076 C 
BRANCH   7  13
ATOM     13  C   UNL A   1      31.686  26.157  21.622  1.00  0.00     0.364 C 
BRANCH  13  14
ATOM     14  C   UNL A   1      32.608  25.145  20.882  1.00  0.00     0.279 C 
ATOM     15  N   UNL A   1      33.271  24.025  21.301  1.00  0.00    -0.321 N 
ATOM     16  H   UNL A   1      33.997  23.815  20.670  1.00  0.00     0.170 HD
ATOM     17  O   UNL A   1      32.951  25.494  19.732  1.00  0.00    -0.268 OA
BRANCH  15  18
ATOM     18  C   UNL A   1      33.255  23.070  22.341  1.00  0.00     0.041 A 
ATOM     19  C   UNL A   1      33.271  20.117  25.546  1.00  0.00     0.044 C 
ATOM     20  C   UNL A   1      33.323  21.123  24.439  1.00  0.00    -0.051 A 
ATOM     21  C   UNL A   1      32.270  21.179  23.546  1.00  0.00     0.005 A 
ATOM     22  C   UNL A   1      34.357  22.052  24.285  1.00  0.00     0.005 A 
ATOM     23  C   UNL A   1      32.270  22.129  22.525  1.00  0.00     0.026 A 
ATOM     24  C   UNL A   1      34.325  23.009  23.242  1.00  0.00     0.026 A 
ENDBRANCH  15  18
ENDBRANCH  13  14
ENDBRANCH   7  13
ENDBRANCH   3   6
ENDBRANCH   1   2
BRANCH   1  25
ATOM     25  C   UNL A   1      33.245  31.360  27.017  1.00  0.00     0.042 C 
BRANCH  25  26
ATOM     26  C   UNL A   1      34.273  30.620  27.860  1.00  0.00     0.118 C 
BRANCH  26  27
ATOM     27  N   UNL A   1      34.936  31.399  28.911  1.00  0.00    -0.352 N 
ATOM     28  C   UNL A   1      36.102  31.101  29.619  1.00  0.00     0.251 C 
ATOM     29  H   UNL A   1      34.500  32.249  29.148  1.00  0.00     0.163 HD
ATOM     30  O   UNL A   1      36.524  31.859  30.474  1.00  0.00    -0.269 OA
BRANCH  28  31
ATOM     31  C   UNL A   1      36.904  29.918  29.211  1.00  0.00     0.039 A 
ATOM     32  C   UNL A   1      37.127  28.913  30.160  1.00  0.00     0.014 A 
ATOM     33  C   UNL A   1      37.697  29.994  28.078  1.00  0.00     0.014 A 
ATOM     34  C   UNL A   1      38.335  28.220  30.131  1.00  0.00     0.010 A 
ATOM     35  C   UNL A   1      38.965  29.464  28.160  1.00  0.00     0.010 A 
ATOM     36  C   UNL A   1      39.310  28.619  29.220  1.00  0.00    -0.014 A 
BRANCH  36  37
ATOM     37  C   UNL A   1      40.731  28.315  29.367  1.00  0.00     0.031 A 
ATOM     38  C   UNL A   1      41.304  27.107  28.728  1.00  0.00     0.074 A 
ATOM     39  C   UNL A   1      41.552  29.207  29.972  1.00  0.00     0.049 A 
ATOM     40  N   UNL A   1      42.400  26.537  29.100  1.00  0.00    -0.248 NA
ATOM     41  C   UNL A   1      40.657  26.415  27.619  1.00  0.00     0.031 C 
ATOM     42  C   UNL A   1      43.013  29.228  29.926  1.00  0.00     0.029 A 
ATOM     43  N   UNL A   1      41.222  30.207  30.907  1.00  0.00    -0.354 N 
ATOM     44  C   UNL A   1      42.743  25.605  28.143  1.00  0.00     0.074 A 
ATOM     45  C   UNL A   1      41.598  25.536  27.270  1.00  0.00     0.031 C 
ATOM     46  C   UNL A   1      43.473  29.948  30.959  1.00  0.00     0.029 A 
ATOM     47  C   UNL A   1      42.332  30.300  31.783  1.00  0.00     0.049 A 
ATOM     48  H   UNL A   1      40.392  30.734  30.945  1.00  0.00     0.167 HD
ATOM     49  C   UNL A   1      44.009  25.095  28.132  1.00  0.00     0.037 A 
ATOM     50  C   UNL A   1      42.220  30.021  33.114  1.00  0.00     0.037 A 
ATOM     51  C   UNL A   1      44.784  25.609  29.260  1.00  0.00     0.049 A 
ATOM     52  C   UNL A   1      43.081  28.869  33.576  1.00  0.00     0.074 A 
ATOM     53  C   UNL A   1      45.712  26.634  29.363  1.00  0.00     0.029 A 
ATOM     54  N   UNL A   1      44.426  25.269  30.560  1.00  0.00    -0.354 N 
ATOM     55  N   UNL A   1      43.618  27.999  32.768  1.00  0.00    -0.248 NA
ATOM     56  C   UNL A   1      43.365  28.578  34.979  1.00  0.00     0.031 C 
ATOM     57  C   UNL A   1      45.876  26.940  30.736  1.00  0.00     0.029 A 
ATOM     58  C   UNL A   1      45.063  26.093  31.468  1.00  0.00     0.049 A 
ATOM     59  H   UNL A   1      43.807  24.542  30.800  1.00  0.00     0.167 HD
ATOM     60  C   UNL A   1      44.256  27.030  33.498  1.00  0.00     0.074 A 
ATOM     61  C   UNL A   1      44.092  27.451  34.877  1.00  0.00     0.031 C 
ATOM     62  C   UNL A   1      44.845  25.953  32.899  1.00  0.00     0.037 A 
BRANCH  49  63
ATOM     63  C   UNL A   1      44.641  24.381  26.950  1.00  0.00     0.064 A 
ATOM     64  C   UNL A   1      44.367  23.017  26.701  1.00  0.00     0.173 A 
ATOM     65  C   UNL A   1      45.572  24.953  26.062  1.00  0.00     0.173 A 
ATOM     66  F   UNL A   1      43.404  22.363  27.363  1.00  0.00    -0.203 F 
ATOM     67  C   UNL A   1      45.069  22.266  25.753  1.00  0.00     0.198 A 
ATOM     68  C   UNL A   1      46.315  24.192  25.153  1.00  0.00     0.198 A 
ATOM     69  F   UNL A   1      45.745  26.277  25.986  1.00  0.00    -0.203 F 
ATOM     70  F   UNL A   1      44.769  20.971  25.576  1.00  0.00    -0.200 F 
ATOM     71  C   UNL A   1      46.075  22.842  25.009  1.00  0.00     0.200 A 
ATOM     72  F   UNL A   1      47.263  24.784  24.412  1.00  0.00    -0.200 F 
ATOM     73  F   UNL A   1      46.781  22.114  24.135  1.00  0.00    -0.200 F 
ENDBRANCH  49  63
BRANCH  50  74
ATOM     74  C   UNL A   1      40.892  30.374  33.674  1.00  0.00     0.064 A 
ATOM     75  C   UNL A   1      40.637  31.726  33.969  1.00  0.00     0.173 A 
ATOM     76  C   UNL A   1      39.793  29.518  33.535  1.00  0.00     0.173 A 
ATOM     77  F   UNL A   1      41.659  32.585  34.113  1.00  0.00    -0.203 F 
ATOM     78  C   UNL A   1      39.336  32.225  34.000  1.00  0.00     0.198 A 
ATOM     79  C   UNL A   1      38.492  30.021  33.574  1.00  0.00     0.198 A 
ATOM     80  F   UNL A   1      39.975  28.225  33.233  1.00  0.00    -0.203 F 
ATOM     81  F   UNL A   1      39.128  33.538  34.175  1.00  0.00    -0.200 F 
ATOM     82  C   UNL A   1      38.267  31.377  33.770  1.00  0.00     0.200 A 
ATOM     83  F   UNL A   1      37.456  29.209  33.319  1.00  0.00    -0.200 F 
ATOM     84  F   UNL A   1      37.022  31.871  33.694  1.00  0.00    -0.200 F 
ENDBRANCH  50  74
BRANCH  62  85
ATOM     85  C   UNL A   1      45.353  24.719  33.602  1.00  0.00     0.064 A 
ATOM     86  C   UNL A   1      44.584  23.560  33.801  1.00  0.00     0.173 A 
ATOM     87  C   UNL A   1      46.716  24.618  33.973  1.00  0.00     0.173 A 
ATOM     88  F   UNL A   1      43.312  23.488  33.387  1.00  0.00    -0.203 F 
ATOM     89  C   UNL A   1      45.122  22.409  34.385  1.00  0.00     0.198 A 
ATOM     90  C   UNL A   1      47.262  23.449  34.501  1.00  0.00     0.198 A 
ATOM     91  F   UNL A   1      47.564  25.643  33.805  1.00  0.00    -0.203 F 
ATOM     92  F   UNL A   1      44.336  21.343  34.593  1.00  0.00    -0.200 F 
ATOM     93  C   UNL A   1      46.461  22.350  34.724  1.00  0.00     0.200 A 
ATOM     94  F   UNL A   1      48.573  23.391  34.774  1.00  0.00    -0.200 F 
ATOM     95  F   UNL A   1      46.981  21.229  35.242  1.00  0.00    -0.200 F 
ENDBRANCH  62  85
ENDBRANCH  36  37
ENDBRANCH  28  31
ENDBRANCH  26  27
ENDBRANCH  25  26
ENDBRANCH   1  25
TORSDOF 13
ENDMDL
