MODEL 1
REMARK VINA RESULT:     -13.6      0.000      0.000
REMARK SMILES Cc1cc(C(=O)NCCCNC(=O)c2ccc(-c3c4nc(c(-c5c(F)c(F)c(F)c(F)c5F)c5ccc([nH]5)c(-c5c(F)c(F)c(F)c(F)c5F)c5nc(c(-c6c(F)c(F)c(F)c(F)c6F)c6ccc3[nH]6)C=C5)C=C4)cc2)ccc1NS(=O)(=O)c1ccc(C#N)cc1C
REMARK SMILES IDX 8 1 7 2 5 3 6 4 4 6 1 7 2 8 3 9 79 10 78 11 77 12 80 13
REMARK SMILES IDX 81 15 82 16 83 17 84 18 85 19 91 20 86 21 90 22 92 23 87 24
REMARK SMILES IDX 88 25 89 26 9 27 10 28 11 29 12 30 13 32 14 33 15 34 76 35
REMARK SMILES IDX 16 36 75 37 17 38 18 39 19 40 69 41 20 42 74 43 68 44 70 45
REMARK SMILES IDX 21 46 73 47 67 48 66 49 22 51 54 52 34 53 53 54 35 55 38 56
REMARK SMILES IDX 52 57 71 58 36 59 37 60 51 62 72 63 39 64 23 65 24 66 32 67
REMARK SMILES IDX 25 68 26 69 30 70 33 71 27 72 28 73 31 74 29 75 55 76 56 77
REMARK SMILES IDX 64 78 57 79 58 80 62 81 65 82 59 83 60 84 63 85 61 86 40 87
REMARK SMILES IDX 41 88 49 89 42 90 43 91 47 92 50 93 44 94 45 95 48 96 46 97
REMARK H PARENT 7 5 80 14 11 31 70 50 38 61
REMARK Flexibility Score: inf
ROOT
ATOM      1  C   UNL A   1      34.223  28.947  26.818  1.00  0.00     0.118 C 
ENDROOT
BRANCH   1   2
ATOM      2  N   UNL A   1      33.038  28.722  27.642  1.00  0.00    -0.352 N 
ATOM      3  C   UNL A   1      31.793  28.218  27.316  1.00  0.00     0.251 C 
ATOM      4  O   UNL A   1      31.042  27.875  28.228  1.00  0.00    -0.269 OA
ATOM      5  H   UNL A   1      33.143  28.973  28.588  1.00  0.00     0.163 HD
BRANCH   3   6
ATOM      6  C   UNL A   1      31.360  28.016  25.904  1.00  0.00     0.040 A 
ATOM      7  C   UNL A   1      29.745  25.305  23.803  1.00  0.00     0.046 C 
ATOM      8  C   UNL A   1      30.578  26.509  24.156  1.00  0.00    -0.026 A 
ATOM      9  C   UNL A   1      30.807  26.791  25.518  1.00  0.00     0.019 A 
ATOM     10  C   UNL A   1      31.015  27.429  23.189  1.00  0.00     0.052 A 
ATOM     11  C   UNL A   1      31.254  28.734  23.591  1.00  0.00     0.028 A 
ATOM     12  C   UNL A   1      31.422  29.020  24.944  1.00  0.00     0.016 A 
BRANCH  10  13
ATOM     13  N   UNL A   1      31.600  26.918  21.989  1.00  0.00    -0.279 N 
ATOM     14  H   UNL A   1      31.034  26.950  21.184  1.00  0.00     0.180 HD
BRANCH  13  15
ATOM     15  S   UNL A   1      33.132  26.271  21.790  1.00  0.00     0.262 S 
ATOM     16  O   UNL A   1      33.250  26.029  20.367  1.00  0.00    -0.201 OA
ATOM     17  O   UNL A   1      34.060  27.133  22.491  1.00  0.00    -0.201 OA
BRANCH  15  18
ATOM     18  C   UNL A   1      33.247  24.648  22.574  1.00  0.00     0.090 A 
ATOM     19  C   UNL A   1      32.948  23.477  21.868  1.00  0.00     0.024 A 
ATOM     20  C   UNL A   1      33.469  24.575  23.968  1.00  0.00    -0.029 A 
ATOM     21  C   UNL A   1      32.695  22.284  22.559  1.00  0.00     0.021 A 
ATOM     22  C   UNL A   1      33.202  23.367  24.645  1.00  0.00     0.024 A 
ATOM     23  C   UNL A   1      34.073  25.685  24.786  1.00  0.00     0.046 C 
ATOM     24  C   UNL A   1      32.767  22.240  23.952  1.00  0.00     0.052 A 
BRANCH  24  25
ATOM     25  C   UNL A   1      32.387  21.046  24.662  1.00  0.00     0.099 C 
ATOM     26  N   UNL A   1      32.116  20.099  25.257  1.00  0.00    -0.192 NA
ENDBRANCH  24  25
ENDBRANCH  15  18
ENDBRANCH  13  15
ENDBRANCH  10  13
ENDBRANCH   3   6
ENDBRANCH   1   2
BRANCH   1  27
ATOM     27  C   UNL A   1      35.464  29.318  27.629  1.00  0.00     0.042 C 
BRANCH  27  28
ATOM     28  C   UNL A   1      35.801  30.797  27.675  1.00  0.00     0.118 C 
BRANCH  28  29
ATOM     29  N   UNL A   1      34.666  31.714  27.753  1.00  0.00    -0.352 N 
ATOM     30  C   UNL A   1      34.479  32.828  28.571  1.00  0.00     0.251 C 
ATOM     31  H   UNL A   1      33.926  31.519  27.135  1.00  0.00     0.163 HD
ATOM     32  O   UNL A   1      33.495  33.546  28.418  1.00  0.00    -0.269 OA
BRANCH  30  33
ATOM     33  C   UNL A   1      35.564  33.273  29.490  1.00  0.00     0.039 A 
ATOM     34  C   UNL A   1      36.577  34.043  28.908  1.00  0.00     0.014 A 
ATOM     35  C   UNL A   1      35.833  32.522  30.620  1.00  0.00     0.014 A 
ATOM     36  C   UNL A   1      37.896  33.701  29.160  1.00  0.00     0.010 A 
ATOM     37  C   UNL A   1      37.110  32.042  30.743  1.00  0.00     0.010 A 
ATOM     38  C   UNL A   1      38.119  32.576  29.939  1.00  0.00    -0.014 A 
BRANCH  38  39
ATOM     39  C   UNL A   1      39.416  31.975  30.130  1.00  0.00     0.031 A 
ATOM     40  C   UNL A   1      39.535  30.617  29.585  1.00  0.00     0.074 A 
ATOM     41  C   UNL A   1      40.424  32.701  30.661  1.00  0.00     0.049 A 
ATOM     42  N   UNL A   1      40.393  29.754  29.979  1.00  0.00    -0.248 NA
ATOM     43  C   UNL A   1      38.592  30.076  28.604  1.00  0.00     0.031 C 
ATOM     44  C   UNL A   1      41.855  32.418  30.652  1.00  0.00     0.029 A 
ATOM     45  N   UNL A   1      40.317  33.845  31.474  1.00  0.00    -0.354 N 
ATOM     46  C   UNL A   1      40.339  28.695  29.097  1.00  0.00     0.074 A 
ATOM     47  C   UNL A   1      39.106  28.866  28.379  1.00  0.00     0.031 C 
ATOM     48  C   UNL A   1      42.449  33.135  31.624  1.00  0.00     0.029 A 
ATOM     49  C   UNL A   1      41.403  33.792  32.387  1.00  0.00     0.049 A 
ATOM     50  H   UNL A   1      39.625  34.544  31.419  1.00  0.00     0.167 HD
ATOM     51  C   UNL A   1      41.451  27.917  28.987  1.00  0.00     0.037 A 
ATOM     52  C   UNL A   1      41.177  33.611  33.729  1.00  0.00     0.037 A 
ATOM     53  C   UNL A   1      42.432  28.346  29.994  1.00  0.00     0.049 A 
ATOM     54  C   UNL A   1      41.537  32.225  34.196  1.00  0.00     0.074 A 
ATOM     55  C   UNL A   1      43.516  29.207  29.958  1.00  0.00     0.029 A 
ATOM     56  N   UNL A   1      42.086  28.233  31.330  1.00  0.00    -0.354 N 
ATOM     57  N   UNL A   1      41.969  31.276  33.413  1.00  0.00    -0.248 NA
ATOM     58  C   UNL A   1      41.333  31.777  35.569  1.00  0.00     0.031 C 
ATOM     59  C   UNL A   1      43.792  29.626  31.297  1.00  0.00     0.029 A 
ATOM     60  C   UNL A   1      42.905  28.990  32.147  1.00  0.00     0.049 A 
ATOM     61  H   UNL A   1      41.343  27.678  31.660  1.00  0.00     0.167 HD
ATOM     62  C   UNL A   1      42.123  30.126  34.130  1.00  0.00     0.074 A 
ATOM     63  C   UNL A   1      41.636  30.474  35.458  1.00  0.00     0.031 C 
ATOM     64  C   UNL A   1      42.642  28.985  33.581  1.00  0.00     0.037 A 
BRANCH  51  65
ATOM     65  C   UNL A   1      41.775  26.975  27.845  1.00  0.00     0.064 A 
ATOM     66  C   UNL A   1      41.138  25.715  27.788  1.00  0.00     0.173 A 
ATOM     67  C   UNL A   1      42.716  27.192  26.817  1.00  0.00     0.173 A 
ATOM     68  F   UNL A   1      40.175  25.380  28.655  1.00  0.00    -0.203 F 
ATOM     69  C   UNL A   1      41.467  24.741  26.838  1.00  0.00     0.198 A 
ATOM     70  C   UNL A   1      43.058  26.212  25.877  1.00  0.00     0.198 A 
ATOM     71  F   UNL A   1      43.327  28.364  26.640  1.00  0.00    -0.203 F 
ATOM     72  F   UNL A   1      40.837  23.559  26.857  1.00  0.00    -0.200 F 
ATOM     73  C   UNL A   1      42.438  24.983  25.892  1.00  0.00     0.200 A 
ATOM     74  F   UNL A   1      43.995  26.476  24.954  1.00  0.00    -0.200 F 
ATOM     75  F   UNL A   1      42.765  24.047  24.992  1.00  0.00    -0.200 F 
ENDBRANCH  51  65
BRANCH  52  76
ATOM     76  C   UNL A   1      39.999  34.389  34.234  1.00  0.00     0.064 A 
ATOM     77  C   UNL A   1      38.862  33.596  34.471  1.00  0.00     0.173 A 
ATOM     78  C   UNL A   1      40.245  35.463  35.096  1.00  0.00     0.173 A 
ATOM     79  F   UNL A   1      38.498  32.656  33.586  1.00  0.00    -0.203 F 
ATOM     80  C   UNL A   1      38.340  33.548  35.752  1.00  0.00     0.198 A 
ATOM     81  C   UNL A   1      39.635  35.484  36.339  1.00  0.00     0.198 A 
ATOM     82  F   UNL A   1      41.206  36.357  34.825  1.00  0.00    -0.203 F 
ATOM     83  F   UNL A   1      37.549  32.527  36.114  1.00  0.00    -0.200 F 
ATOM     84  C   UNL A   1      38.791  34.446  36.704  1.00  0.00     0.200 A 
ATOM     85  F   UNL A   1      39.972  36.430  37.224  1.00  0.00    -0.200 F 
ATOM     86  F   UNL A   1      38.483  34.237  37.984  1.00  0.00    -0.200 F 
ENDBRANCH  52  76
BRANCH  64  87
ATOM     87  C   UNL A   1      42.901  27.729  34.378  1.00  0.00     0.064 A 
ATOM     88  C   UNL A   1      44.173  27.380  34.849  1.00  0.00     0.173 A 
ATOM     89  C   UNL A   1      41.884  26.784  34.647  1.00  0.00     0.173 A 
ATOM     90  F   UNL A   1      45.269  28.044  34.453  1.00  0.00    -0.203 F 
ATOM     91  C   UNL A   1      44.370  26.300  35.709  1.00  0.00     0.198 A 
ATOM     92  C   UNL A   1      42.093  25.670  35.449  1.00  0.00     0.198 A 
ATOM     93  F   UNL A   1      40.646  26.891  34.150  1.00  0.00    -0.203 F 
ATOM     94  F   UNL A   1      45.586  26.085  36.228  1.00  0.00    -0.200 F 
ATOM     95  C   UNL A   1      43.326  25.455  36.022  1.00  0.00     0.200 A 
ATOM     96  F   UNL A   1      41.083  24.817  35.669  1.00  0.00    -0.200 F 
ATOM     97  F   UNL A   1      43.511  24.420  36.850  1.00  0.00    -0.200 F 
ENDBRANCH  64  87
ENDBRANCH  38  39
ENDBRANCH  30  33
ENDBRANCH  28  29
ENDBRANCH  27  28
ENDBRANCH   1  27
TORSDOF 14
ENDMDL
MODEL 2
REMARK VINA RESULT:     -13.6      2.735      4.219
REMARK SMILES Cc1cc(C(=O)NCCCNC(=O)c2ccc(-c3c4nc(c(-c5c(F)c(F)c(F)c(F)c5F)c5ccc([nH]5)c(-c5c(F)c(F)c(F)c(F)c5F)c5nc(c(-c6c(F)c(F)c(F)c(F)c6F)c6ccc3[nH]6)C=C5)C=C4)cc2)ccc1NS(=O)(=O)c1ccc(C#N)cc1C
REMARK SMILES IDX 8 1 7 2 5 3 6 4 4 6 1 7 2 8 3 9 79 10 78 11 77 12 80 13
REMARK SMILES IDX 81 15 82 16 83 17 84 18 85 19 91 20 86 21 90 22 92 23 87 24
REMARK SMILES IDX 88 25 89 26 9 27 10 28 11 29 12 30 13 32 14 33 15 34 76 35
REMARK SMILES IDX 16 36 75 37 17 38 18 39 19 40 69 41 20 42 74 43 68 44 70 45
REMARK SMILES IDX 21 46 73 47 67 48 66 49 22 51 54 52 34 53 53 54 35 55 38 56
REMARK SMILES IDX 52 57 71 58 36 59 37 60 51 62 72 63 39 64 23 65 24 66 32 67
REMARK SMILES IDX 25 68 26 69 30 70 33 71 27 72 28 73 31 74 29 75 55 76 56 77
REMARK SMILES IDX 64 78 57 79 58 80 62 81 65 82 59 83 60 84 63 85 61 86 40 87
REMARK SMILES IDX 41 88 49 89 42 90 43 91 47 92 50 93 44 94 45 95 48 96 46 97
REMARK H PARENT 7 5 80 14 11 31 70 50 38 61
REMARK Flexibility Score: inf
ROOT
ATOM      1  C   UNL A   1      32.542  31.337  27.133  1.00  0.00     0.118 C 
ENDROOT
BRANCH   1   2
ATOM      2  N   UNL A   1      32.440  29.966  27.626  1.00  0.00    -0.352 N 
ATOM      3  C   UNL A   1      32.389  28.763  26.947  1.00  0.00     0.251 C 
ATOM      4  O   UNL A   1      32.571  27.724  27.580  1.00  0.00    -0.269 OA
ATOM      5  H   UNL A   1      32.402  29.885  28.606  1.00  0.00     0.163 HD
BRANCH   3   6
ATOM      6  C   UNL A   1      32.186  28.688  25.472  1.00  0.00     0.040 A 
ATOM      7  C   UNL A   1      29.524  27.518  23.041  1.00  0.00     0.046 C 
ATOM      8  C   UNL A   1      30.885  27.866  23.584  1.00  0.00    -0.026 A 
ATOM      9  C   UNL A   1      31.010  28.129  24.962  1.00  0.00     0.019 A 
ATOM     10  C   UNL A   1      31.997  28.071  22.749  1.00  0.00     0.052 A 
ATOM     11  C   UNL A   1      33.007  28.904  23.202  1.00  0.00     0.028 A 
ATOM     12  C   UNL A   1      33.095  29.210  24.558  1.00  0.00     0.016 A 
BRANCH  10  13
ATOM     13  N   UNL A   1      32.248  27.116  21.716  1.00  0.00    -0.279 N 
ATOM     14  H   UNL A   1      31.880  27.331  20.828  1.00  0.00     0.180 HD
BRANCH  13  15
ATOM     15  S   UNL A   1      33.091  25.673  21.836  1.00  0.00     0.262 S 
ATOM     16  O   UNL A   1      32.717  24.927  20.652  1.00  0.00    -0.201 OA
ATOM     17  O   UNL A   1      34.471  26.002  22.119  1.00  0.00    -0.201 OA
BRANCH  15  18
ATOM     18  C   UNL A   1      32.496  24.701  23.236  1.00  0.00     0.090 A 
ATOM     19  C   UNL A   1      31.449  23.783  23.093  1.00  0.00     0.024 A 
ATOM     20  C   UNL A   1      32.977  25.001  24.531  1.00  0.00    -0.029 A 
ATOM     21  C   UNL A   1      30.770  23.308  24.223  1.00  0.00     0.021 A 
ATOM     22  C   UNL A   1      32.275  24.518  25.655  1.00  0.00     0.024 A 
ATOM     23  C   UNL A   1      34.264  25.732  24.806  1.00  0.00     0.046 C 
ATOM     24  C   UNL A   1      31.145  23.718  25.503  1.00  0.00     0.052 A 
BRANCH  24  25
ATOM     25  C   UNL A   1      30.367  23.325  26.649  1.00  0.00     0.099 C 
ATOM     26  N   UNL A   1      29.776  23.028  27.590  1.00  0.00    -0.192 NA
ENDBRANCH  24  25
ENDBRANCH  15  18
ENDBRANCH  13  15
ENDBRANCH  10  13
ENDBRANCH   3   6
ENDBRANCH   1   2
BRANCH   1  27
ATOM     27  C   UNL A   1      33.782  32.074  27.638  1.00  0.00     0.042 C 
BRANCH  27  28
ATOM     28  C   UNL A   1      34.968  31.197  27.992  1.00  0.00     0.118 C 
BRANCH  28  29
ATOM     29  N   UNL A   1      36.061  31.850  28.710  1.00  0.00    -0.352 N 
ATOM     30  C   UNL A   1      37.287  31.331  29.123  1.00  0.00     0.251 C 
ATOM     31  H   UNL A   1      35.909  32.796  28.933  1.00  0.00     0.163 HD
ATOM     32  O   UNL A   1      38.130  32.069  29.627  1.00  0.00    -0.269 OA
BRANCH  30  33
ATOM     33  C   UNL A   1      37.666  29.934  28.773  1.00  0.00     0.039 A 
ATOM     34  C   UNL A   1      37.789  29.047  29.850  1.00  0.00     0.014 A 
ATOM     35  C   UNL A   1      38.379  29.706  27.610  1.00  0.00     0.014 A 
ATOM     36  C   UNL A   1      38.923  28.255  29.928  1.00  0.00     0.010 A 
ATOM     37  C   UNL A   1      39.590  29.080  27.749  1.00  0.00     0.010 A 
ATOM     38  C   UNL A   1      39.890  28.436  28.951  1.00  0.00    -0.014 A 
BRANCH  38  39
ATOM     39  C   UNL A   1      41.202  27.839  28.998  1.00  0.00     0.031 A 
ATOM     40  C   UNL A   1      41.220  26.404  28.689  1.00  0.00     0.074 A 
ATOM     41  C   UNL A   1      42.290  28.616  29.194  1.00  0.00     0.049 A 
ATOM     42  N   UNL A   1      42.139  25.597  29.061  1.00  0.00    -0.248 NA
ATOM     43  C   UNL A   1      40.109  25.729  28.013  1.00  0.00     0.031 C 
ATOM     44  C   UNL A   1      43.694  28.292  28.967  1.00  0.00     0.029 A 
ATOM     45  N   UNL A   1      42.335  29.886  29.798  1.00  0.00    -0.354 N 
ATOM     46  C   UNL A   1      41.922  24.403  28.406  1.00  0.00     0.074 A 
ATOM     47  C   UNL A   1      40.575  24.483  27.914  1.00  0.00     0.031 C 
ATOM     48  C   UNL A   1      44.459  29.149  29.669  1.00  0.00     0.029 A 
ATOM     49  C   UNL A   1      43.575  29.960  30.486  1.00  0.00     0.049 A 
ATOM     50  H   UNL A   1      41.643  30.585  29.752  1.00  0.00     0.167 HD
ATOM     51  C   UNL A   1      42.996  23.584  28.228  1.00  0.00     0.037 A 
ATOM     52  C   UNL A   1      43.608  30.021  31.857  1.00  0.00     0.037 A 
ATOM     53  C   UNL A   1      44.149  24.152  28.941  1.00  0.00     0.049 A 
ATOM     54  C   UNL A   1      44.056  28.727  32.485  1.00  0.00     0.074 A 
ATOM     55  C   UNL A   1      45.204  24.960  28.551  1.00  0.00     0.029 A 
ATOM     56  N   UNL A   1      44.063  24.284  30.317  1.00  0.00    -0.354 N 
ATOM     57  N   UNL A   1      44.334  27.644  31.815  1.00  0.00    -0.248 NA
ATOM     58  C   UNL A   1      44.118  28.531  33.930  1.00  0.00     0.031 C 
ATOM     59  C   UNL A   1      45.728  25.597  29.720  1.00  0.00     0.029 A 
ATOM     60  C   UNL A   1      45.020  25.146  30.819  1.00  0.00     0.049 A 
ATOM     61  H   UNL A   1      43.399  23.817  30.873  1.00  0.00     0.167 HD
ATOM     62  C   UNL A   1      44.625  26.632  32.682  1.00  0.00     0.074 A 
ATOM     63  C   UNL A   1      44.399  27.220  33.994  1.00  0.00     0.031 C 
ATOM     64  C   UNL A   1      45.034  25.398  32.256  1.00  0.00     0.037 A 
BRANCH  51  65
ATOM     65  C   UNL A   1      43.100  22.448  27.230  1.00  0.00     0.064 A 
ATOM     66  C   UNL A   1      42.246  21.331  27.364  1.00  0.00     0.173 A 
ATOM     67  C   UNL A   1      44.024  22.344  26.169  1.00  0.00     0.173 A 
ATOM     68  F   UNL A   1      41.272  21.304  28.283  1.00  0.00    -0.203 F 
ATOM     69  C   UNL A   1      42.356  20.191  26.560  1.00  0.00     0.198 A 
ATOM     70  C   UNL A   1      44.147  21.196  25.376  1.00  0.00     0.198 A 
ATOM     71  F   UNL A   1      44.828  23.347  25.817  1.00  0.00    -0.203 F 
ATOM     72  F   UNL A   1      41.525  19.159  26.758  1.00  0.00    -0.200 F 
ATOM     73  C   UNL A   1      43.318  20.116  25.577  1.00  0.00     0.200 A 
ATOM     74  F   UNL A   1      45.079  21.152  24.413  1.00  0.00    -0.200 F 
ATOM     75  F   UNL A   1      43.435  19.019  24.817  1.00  0.00    -0.200 F 
ENDBRANCH  51  65
BRANCH  52  76
ATOM     76  C   UNL A   1      42.545  30.911  32.428  1.00  0.00     0.064 A 
ATOM     77  C   UNL A   1      41.476  30.206  33.010  1.00  0.00     0.173 A 
ATOM     78  C   UNL A   1      42.947  32.109  33.027  1.00  0.00     0.173 A 
ATOM     79  F   UNL A   1      40.954  29.138  32.388  1.00  0.00    -0.203 F 
ATOM     80  C   UNL A   1      41.206  30.396  34.354  1.00  0.00     0.198 A 
ATOM     81  C   UNL A   1      42.583  32.364  34.339  1.00  0.00     0.198 A 
ATOM     82  F   UNL A   1      43.837  32.914  32.428  1.00  0.00    -0.203 F 
ATOM     83  F   UNL A   1      40.501  29.477  35.031  1.00  0.00    -0.200 F 
ATOM     84  C   UNL A   1      41.827  31.430  35.032  1.00  0.00     0.200 A 
ATOM     85  F   UNL A   1      43.080  33.438  34.965  1.00  0.00    -0.200 F 
ATOM     86  F   UNL A   1      41.767  31.456  36.363  1.00  0.00    -0.200 F 
ENDBRANCH  52  76
BRANCH  64  87
ATOM     87  C   UNL A   1      45.444  24.292  33.198  1.00  0.00     0.064 A 
ATOM     88  C   UNL A   1      44.573  23.266  33.587  1.00  0.00     0.173 A 
ATOM     89  C   UNL A   1      46.721  24.254  33.805  1.00  0.00     0.173 A 
ATOM     90  F   UNL A   1      43.264  23.317  33.297  1.00  0.00    -0.203 F 
ATOM     91  C   UNL A   1      45.008  22.173  34.335  1.00  0.00     0.198 A 
ATOM     92  C   UNL A   1      47.135  23.197  34.606  1.00  0.00     0.198 A 
ATOM     93  F   UNL A   1      47.624  25.230  33.654  1.00  0.00    -0.203 F 
ATOM     94  F   UNL A   1      44.164  21.161  34.574  1.00  0.00    -0.200 F 
ATOM     95  C   UNL A   1      46.295  22.131  34.830  1.00  0.00     0.200 A 
ATOM     96  F   UNL A   1      48.362  23.221  35.145  1.00  0.00    -0.200 F 
ATOM     97  F   UNL A   1      46.716  21.082  35.544  1.00  0.00    -0.200 F 
ENDBRANCH  64  87
ENDBRANCH  38  39
ENDBRANCH  30  33
ENDBRANCH  28  29
ENDBRANCH  27  28
ENDBRANCH   1  27
TORSDOF 14
ENDMDL
MODEL 3
REMARK VINA RESULT:     -13.5      2.905      4.213
REMARK SMILES Cc1cc(C(=O)NCCCNC(=O)c2ccc(-c3c4nc(c(-c5c(F)c(F)c(F)c(F)c5F)c5ccc([nH]5)c(-c5c(F)c(F)c(F)c(F)c5F)c5nc(c(-c6c(F)c(F)c(F)c(F)c6F)c6ccc3[nH]6)C=C5)C=C4)cc2)ccc1NS(=O)(=O)c1ccc(C#N)cc1C
REMARK SMILES IDX 8 1 7 2 5 3 6 4 4 6 1 7 2 8 3 9 79 10 78 11 77 12 80 13
REMARK SMILES IDX 81 15 82 16 83 17 84 18 85 19 91 20 86 21 90 22 92 23 87 24
REMARK SMILES IDX 88 25 89 26 9 27 10 28 11 29 12 30 13 32 14 33 15 34 76 35
REMARK SMILES IDX 16 36 75 37 17 38 18 39 19 40 69 41 20 42 74 43 68 44 70 45
REMARK SMILES IDX 21 46 73 47 67 48 66 49 22 51 54 52 34 53 53 54 35 55 38 56
REMARK SMILES IDX 52 57 71 58 36 59 37 60 51 62 72 63 39 64 23 65 24 66 32 67
REMARK SMILES IDX 25 68 26 69 30 70 33 71 27 72 28 73 31 74 29 75 55 76 56 77
REMARK SMILES IDX 64 78 57 79 58 80 62 81 65 82 59 83 60 84 63 85 61 86 40 87
REMARK SMILES IDX 41 88 49 89 42 90 43 91 47 92 50 93 44 94 45 95 48 96 46 97
REMARK H PARENT 7 5 80 14 11 31 70 50 38 61
REMARK Flexibility Score: inf
ROOT
ATOM      1  C   UNL A   1      33.044  30.462  26.521  1.00  0.00     0.118 C 
ENDROOT
BRANCH   1   2
ATOM      2  N   UNL A   1      32.136  29.670  27.348  1.00  0.00    -0.352 N 
ATOM      3  C   UNL A   1      31.787  28.334  27.283  1.00  0.00     0.251 C 
ATOM      4  O   UNL A   1      31.210  27.831  28.246  1.00  0.00    -0.269 OA
ATOM      5  H   UNL A   1      31.701  30.173  28.074  1.00  0.00     0.163 HD
BRANCH   3   6
ATOM      6  C   UNL A   1      32.142  27.474  26.119  1.00  0.00     0.040 A 
ATOM      7  C   UNL A   1      30.803  26.713  22.655  1.00  0.00     0.046 C 
ATOM      8  C   UNL A   1      31.523  26.521  23.963  1.00  0.00    -0.026 A 
ATOM      9  C   UNL A   1      31.321  27.468  24.986  1.00  0.00     0.019 A 
ATOM     10  C   UNL A   1      32.488  25.516  24.149  1.00  0.00     0.052 A 
ATOM     11  C   UNL A   1      33.478  25.729  25.096  1.00  0.00     0.028 A 
ATOM     12  C   UNL A   1      33.301  26.707  26.072  1.00  0.00     0.016 A 
BRANCH  10  13
ATOM     13  N   UNL A   1      32.177  24.194  23.704  1.00  0.00    -0.279 N 
ATOM     14  H   UNL A   1      31.311  23.831  24.000  1.00  0.00     0.180 HD
BRANCH  13  15
ATOM     15  S   UNL A   1      33.110  23.189  22.742  1.00  0.00     0.262 S 
ATOM     16  O   UNL A   1      32.264  22.044  22.474  1.00  0.00    -0.201 OA
ATOM     17  O   UNL A   1      33.652  23.998  21.671  1.00  0.00    -0.201 OA
BRANCH  15  18
ATOM     18  C   UNL A   1      34.522  22.549  23.667  1.00  0.00     0.090 A 
ATOM     19  C   UNL A   1      35.830  22.951  23.370  1.00  0.00     0.024 A 
ATOM     20  C   UNL A   1      34.318  21.495  24.586  1.00  0.00    -0.029 A 
ATOM     21  C   UNL A   1      36.919  22.201  23.835  1.00  0.00     0.021 A 
ATOM     22  C   UNL A   1      35.427  20.750  25.037  1.00  0.00     0.024 A 
ATOM     23  C   UNL A   1      32.987  21.162  25.207  1.00  0.00     0.046 C 
ATOM     24  C   UNL A   1      36.718  21.068  24.623  1.00  0.00     0.052 A 
BRANCH  24  25
ATOM     25  C   UNL A   1      37.831  20.234  24.995  1.00  0.00     0.099 C 
ATOM     26  N   UNL A   1      38.738  19.601  25.312  1.00  0.00    -0.192 NA
ENDBRANCH  24  25
ENDBRANCH  15  18
ENDBRANCH  13  15
ENDBRANCH  10  13
ENDBRANCH   3   6
ENDBRANCH   1   2
BRANCH   1  27
ATOM     27  C   UNL A   1      34.467  30.527  27.073  1.00  0.00     0.042 C 
BRANCH  27  28
ATOM     28  C   UNL A   1      34.587  30.898  28.539  1.00  0.00     0.118 C 
BRANCH  28  29
ATOM     29  N   UNL A   1      35.758  31.690  28.910  1.00  0.00    -0.352 N 
ATOM     30  C   UNL A   1      37.085  31.292  29.070  1.00  0.00     0.251 C 
ATOM     31  H   UNL A   1      35.585  32.645  29.069  1.00  0.00     0.163 HD
ATOM     32  O   UNL A   1      37.957  32.129  29.284  1.00  0.00    -0.269 OA
BRANCH  30  33
ATOM     33  C   UNL A   1      37.487  29.887  28.778  1.00  0.00     0.039 A 
ATOM     34  C   UNL A   1      37.670  29.062  29.894  1.00  0.00     0.014 A 
ATOM     35  C   UNL A   1      38.164  29.616  27.602  1.00  0.00     0.014 A 
ATOM     36  C   UNL A   1      38.825  28.301  29.971  1.00  0.00     0.010 A 
ATOM     37  C   UNL A   1      39.394  29.027  27.730  1.00  0.00     0.010 A 
ATOM     38  C   UNL A   1      39.752  28.453  28.951  1.00  0.00    -0.014 A 
BRANCH  38  39
ATOM     39  C   UNL A   1      41.079  27.890  28.981  1.00  0.00     0.031 A 
ATOM     40  C   UNL A   1      41.130  26.457  28.669  1.00  0.00     0.074 A 
ATOM     41  C   UNL A   1      42.149  28.695  29.164  1.00  0.00     0.049 A 
ATOM     42  N   UNL A   1      42.075  25.673  29.029  1.00  0.00    -0.248 NA
ATOM     43  C   UNL A   1      40.029  25.754  28.006  1.00  0.00     0.031 C 
ATOM     44  C   UNL A   1      43.558  28.408  28.920  1.00  0.00     0.029 A 
ATOM     45  N   UNL A   1      42.169  29.965  29.770  1.00  0.00    -0.354 N 
ATOM     46  C   UNL A   1      41.881  24.475  28.375  1.00  0.00     0.074 A 
ATOM     47  C   UNL A   1      40.526  24.521  27.899  1.00  0.00     0.031 C 
ATOM     48  C   UNL A   1      44.310  29.283  29.613  1.00  0.00     0.029 A 
ATOM     49  C   UNL A   1      43.416  30.070  30.442  1.00  0.00     0.049 A 
ATOM     50  H   UNL A   1      41.459  30.646  29.733  1.00  0.00     0.167 HD
ATOM     51  C   UNL A   1      42.973  23.684  28.182  1.00  0.00     0.037 A 
ATOM     52  C   UNL A   1      43.464  30.131  31.812  1.00  0.00     0.037 A 
ATOM     53  C   UNL A   1      44.120  24.281  28.881  1.00  0.00     0.049 A 
ATOM     54  C   UNL A   1      43.953  28.848  32.433  1.00  0.00     0.074 A 
ATOM     55  C   UNL A   1      45.148  25.116  28.479  1.00  0.00     0.029 A 
ATOM     56  N   UNL A   1      44.048  24.409  30.258  1.00  0.00    -0.354 N 
ATOM     57  N   UNL A   1      44.251  27.773  31.758  1.00  0.00    -0.248 NA
ATOM     58  C   UNL A   1      44.038  28.652  33.876  1.00  0.00     0.031 C 
ATOM     59  C   UNL A   1      45.670  25.765  29.642  1.00  0.00     0.029 A 
ATOM     60  C   UNL A   1      44.988  25.295  30.750  1.00  0.00     0.049 A 
ATOM     61  H   UNL A   1      43.403  23.924  30.822  1.00  0.00     0.167 HD
ATOM     62  C   UNL A   1      44.579  26.768  32.620  1.00  0.00     0.074 A 
ATOM     63  C   UNL A   1      44.354  27.349  33.936  1.00  0.00     0.031 C 
ATOM     64  C   UNL A   1      45.014  25.545  32.186  1.00  0.00     0.037 A 
BRANCH  51  65
ATOM     65  C   UNL A   1      43.094  22.553  27.181  1.00  0.00     0.064 A 
ATOM     66  C   UNL A   1      42.285  21.405  27.336  1.00  0.00     0.173 A 
ATOM     67  C   UNL A   1      43.994  22.482  26.097  1.00  0.00     0.173 A 
ATOM     68  F   UNL A   1      41.337  21.341  28.280  1.00  0.00    -0.203 F 
ATOM     69  C   UNL A   1      42.418  20.269  26.529  1.00  0.00     0.198 A 
ATOM     70  C   UNL A   1      44.139  21.340  25.300  1.00  0.00     0.198 A 
ATOM     71  F   UNL A   1      44.750  23.515  25.725  1.00  0.00    -0.203 F 
ATOM     72  F   UNL A   1      41.631  19.206  26.747  1.00  0.00    -0.200 F 
ATOM     73  C   UNL A   1      43.356  20.229  25.522  1.00  0.00     0.200 A 
ATOM     74  F   UNL A   1      45.047  21.330  24.313  1.00  0.00    -0.200 F 
ATOM     75  F   UNL A   1      43.494  19.137  24.758  1.00  0.00    -0.200 F 
ENDBRANCH  51  65
BRANCH  52  76
ATOM     76  C   UNL A   1      42.386  30.992  32.399  1.00  0.00     0.064 A 
ATOM     77  C   UNL A   1      41.349  30.259  33.003  1.00  0.00     0.173 A 
ATOM     78  C   UNL A   1      42.763  32.205  32.984  1.00  0.00     0.173 A 
ATOM     79  F   UNL A   1      40.848  29.173  32.396  1.00  0.00    -0.203 F 
ATOM     80  C   UNL A   1      41.098  30.449  34.351  1.00  0.00     0.198 A 
ATOM     81  C   UNL A   1      42.416  32.456  34.301  1.00  0.00     0.198 A 
ATOM     82  F   UNL A   1      43.618  33.032  32.365  1.00  0.00    -0.203 F 
ATOM     83  F   UNL A   1      40.432  29.513  35.045  1.00  0.00    -0.200 F 
ATOM     84  C   UNL A   1      41.700  31.505  35.012  1.00  0.00     0.200 A 
ATOM     85  F   UNL A   1      42.891  33.548  34.912  1.00  0.00    -0.200 F 
ATOM     86  F   UNL A   1      41.663  31.536  36.344  1.00  0.00    -0.200 F 
ENDBRANCH  52  76
BRANCH  64  87
ATOM     87  C   UNL A   1      45.464  24.450  33.122  1.00  0.00     0.064 A 
ATOM     88  C   UNL A   1      46.761  24.389  33.649  1.00  0.00     0.173 A 
ATOM     89  C   UNL A   1      44.623  23.370  33.479  1.00  0.00     0.173 A 
ATOM     90  F   UNL A   1      47.734  25.194  33.199  1.00  0.00    -0.203 F 
ATOM     91  C   UNL A   1      47.117  23.461  34.627  1.00  0.00     0.198 A 
ATOM     92  C   UNL A   1      44.999  22.405  34.404  1.00  0.00     0.198 A 
ATOM     93  F   UNL A   1      43.404  23.198  32.954  1.00  0.00    -0.203 F 
ATOM     94  F   UNL A   1      48.332  23.526  35.186  1.00  0.00    -0.200 F 
ATOM     95  C   UNL A   1      46.229  22.479  35.017  1.00  0.00     0.200 A 
ATOM     96  F   UNL A   1      44.150  21.411  34.702  1.00  0.00    -0.200 F 
ATOM     97  F   UNL A   1      46.566  21.590  35.957  1.00  0.00    -0.200 F 
ENDBRANCH  64  87
ENDBRANCH  38  39
ENDBRANCH  30  33
ENDBRANCH  28  29
ENDBRANCH  27  28
ENDBRANCH   1  27
TORSDOF 14
ENDMDL
