MODEL 1
REMARK VINA RESULT:     -11.5      0.000      0.000
REMARK SMILES C[NH2+]CC(=O)NC[C@H]1CC[C@H](C(=O)NCCCNC(=O)c2ccc(-c3c4nc(c(-c5c(F)c(F)c(F)c(F)c5F)c5ccc([nH]5)c(-c5c(F)c(F)c(F)c(F)c5F)c5nc(c(-c6c(F)c(F)c(F)c(F)c6F)c6ccc3[nH]6)C=C5)C=C4)cc2)O1
REMARK SMILES IDX 15 1 14 2 12 3 13 4 11 6 8 7 9 8 84 9 10 10 7 11 6 12 4 13
REMARK SMILES IDX 5 14 3 16 2 17 1 18 16 21 17 22 18 23 19 24 20 26 21 27
REMARK SMILES IDX 22 28 83 29 23 30 82 31 24 32 25 33 26 34 76 35 27 36 81 37
REMARK SMILES IDX 75 38 77 39 28 40 80 41 74 42 73 43 29 45 61 46 41 47 60 48
REMARK SMILES IDX 42 49 45 50 59 51 78 52 43 53 44 54 58 56 79 57 46 58 30 59
REMARK SMILES IDX 31 60 39 61 32 62 33 63 37 64 40 65 34 66 35 67 38 68 36 69
REMARK SMILES IDX 62 70 63 71 71 72 64 73 65 74 69 75 72 76 66 77 67 78 70 79
REMARK SMILES IDX 68 80 47 81 48 82 56 83 49 84 50 85 54 86 57 87 51 88 52 89
REMARK SMILES IDX 55 90 53 91
REMARK H PARENT 14 5 6 15 2 19 2 20 18 25 77 44 45 55
REMARK Flexibility Score: inf
ROOT
ATOM      1  C   UNL A   1      31.728  30.496  25.948  1.00  0.00     0.117 C 
ENDROOT
BRANCH   1   2
ATOM      2  N   UNL A   1      31.036  30.326  24.688  1.00  0.00    -0.354 N 
ATOM      3  C   UNL A   1      31.001  29.257  23.843  1.00  0.00     0.249 C 
ATOM      4  O   UNL A   1      30.387  29.397  22.780  1.00  0.00    -0.272 OA
ATOM      5  H   UNL A   1      30.509  31.103  24.395  1.00  0.00     0.163 HD
BRANCH   3   6
ATOM      6  C   UNL A   1      31.741  27.939  24.154  1.00  0.00     0.207 C 
ATOM      7  C   UNL A   1      32.390  26.887  26.156  1.00  0.00     0.138 C 
ATOM      8  C   UNL A   1      33.592  27.668  25.666  1.00  0.00     0.037 C 
ATOM      9  O   UNL A   1      31.292  27.226  25.300  1.00  0.00    -0.363 OA
ATOM     10  C   UNL A   1      33.245  28.109  24.265  1.00  0.00     0.045 C 
BRANCH   7  11
ATOM     11  C   UNL A   1      32.558  25.358  26.190  1.00  0.00     0.148 C 
BRANCH  11  12
ATOM     12  N   UNL A   1      31.420  24.744  26.876  1.00  0.00    -0.349 N 
ATOM     13  C   UNL A   1      30.737  23.594  26.627  1.00  0.00     0.275 C 
ATOM     14  O   UNL A   1      29.695  23.394  27.260  1.00  0.00    -0.269 OA
ATOM     15  H   UNL A   1      31.093  25.252  27.653  1.00  0.00     0.163 HD
BRANCH  13  16
ATOM     16  C   UNL A   1      31.243  22.582  25.600  1.00  0.00     0.361 C 
BRANCH  16  17
ATOM     17  N   UNL A   1      32.332  21.744  26.130  1.00  0.00    -0.341 N 
ATOM     18  C   UNL A   1      32.514  20.524  25.362  1.00  0.00     0.331 C 
ATOM     19  H   UNL A   1      33.200  22.279  26.106  1.00  0.00     0.346 HD
ATOM     20  H   UNL A   1      32.084  21.478  27.083  1.00  0.00     0.346 HD
ENDBRANCH  16  17
ENDBRANCH  13  16
ENDBRANCH  11  12
ENDBRANCH   7  11
ENDBRANCH   3   6
ENDBRANCH   1   2
BRANCH   1  21
ATOM     21  C   UNL A   1      31.405  31.844  26.574  1.00  0.00     0.042 C 
BRANCH  21  22
ATOM     22  C   UNL A   1      32.618  32.463  27.250  1.00  0.00     0.118 C 
BRANCH  22  23
ATOM     23  N   UNL A   1      32.414  33.879  27.534  1.00  0.00    -0.352 N 
ATOM     24  C   UNL A   1      32.990  34.672  28.496  1.00  0.00     0.251 C 
ATOM     25  H   UNL A   1      31.766  34.334  26.949  1.00  0.00     0.163 HD
ATOM     26  O   UNL A   1      32.528  35.778  28.745  1.00  0.00    -0.269 OA
BRANCH  24  27
ATOM     27  C   UNL A   1      34.165  34.173  29.237  1.00  0.00     0.039 A 
ATOM     28  C   UNL A   1      33.973  33.412  30.392  1.00  0.00     0.014 A 
ATOM     29  C   UNL A   1      35.455  34.457  28.782  1.00  0.00     0.014 A 
ATOM     30  C   UNL A   1      35.079  32.879  31.055  1.00  0.00     0.010 A 
ATOM     31  C   UNL A   1      36.545  33.847  29.385  1.00  0.00     0.010 A 
ATOM     32  C   UNL A   1      36.370  33.062  30.534  1.00  0.00    -0.014 A 
BRANCH  32  33
ATOM     33  C   UNL A   1      37.569  32.477  31.181  1.00  0.00     0.031 A 
ATOM     34  C   UNL A   1      38.270  31.321  30.521  1.00  0.00     0.074 A 
ATOM     35  C   UNL A   1      37.960  32.913  32.394  1.00  0.00     0.049 A 
ATOM     36  N   UNL A   1      39.224  30.556  30.985  1.00  0.00    -0.248 NA
ATOM     37  C   UNL A   1      37.809  30.950  29.172  1.00  0.00     0.031 C 
ATOM     38  C   UNL A   1      37.332  34.000  33.148  1.00  0.00     0.029 A 
ATOM     39  N   UNL A   1      38.965  32.475  33.221  1.00  0.00    -0.354 N 
ATOM     40  C   UNL A   1      39.451  29.601  30.003  1.00  0.00     0.074 A 
ATOM     41  C   UNL A   1      38.507  29.849  28.938  1.00  0.00     0.031 C 
ATOM     42  C   UNL A   1      37.970  34.149  34.320  1.00  0.00     0.029 A 
ATOM     43  C   UNL A   1      39.017  33.136  34.424  1.00  0.00     0.049 A 
ATOM     44  H   UNL A   1      39.590  31.755  32.975  1.00  0.00     0.167 HD
ATOM     45  C   UNL A   1      40.382  28.618  29.986  1.00  0.00     0.037 A 
ATOM     46  C   UNL A   1      39.803  32.930  35.498  1.00  0.00     0.037 A 
ATOM     47  C   UNL A   1      41.347  28.410  31.031  1.00  0.00     0.049 A 
ATOM     48  C   UNL A   1      40.829  31.827  35.449  1.00  0.00     0.074 A 
ATOM     49  C   UNL A   1      42.381  27.491  31.075  1.00  0.00     0.029 A 
ATOM     50  N   UNL A   1      41.397  29.129  32.214  1.00  0.00    -0.354 N 
ATOM     51  N   UNL A   1      41.083  30.975  34.484  1.00  0.00    -0.248 NA
ATOM     52  C   UNL A   1      41.681  31.657  36.634  1.00  0.00     0.031 C 
ATOM     53  C   UNL A   1      43.020  27.617  32.311  1.00  0.00     0.029 A 
ATOM     54  C   UNL A   1      42.428  28.658  33.007  1.00  0.00     0.049 A 
ATOM     55  H   UNL A   1      40.788  29.866  32.455  1.00  0.00     0.167 HD
ATOM     56  C   UNL A   1      42.147  30.201  34.928  1.00  0.00     0.074 A 
ATOM     57  C   UNL A   1      42.498  30.688  36.245  1.00  0.00     0.031 C 
ATOM     58  C   UNL A   1      42.780  29.179  34.302  1.00  0.00     0.037 A 
BRANCH  45  59
ATOM     59  C   UNL A   1      40.412  27.694  28.804  1.00  0.00     0.064 A 
ATOM     60  C   UNL A   1      41.214  27.954  27.683  1.00  0.00     0.173 A 
ATOM     61  C   UNL A   1      39.684  26.494  28.826  1.00  0.00     0.173 A 
ATOM     62  F   UNL A   1      41.920  29.092  27.606  1.00  0.00    -0.203 F 
ATOM     63  C   UNL A   1      41.273  27.055  26.621  1.00  0.00     0.198 A 
ATOM     64  C   UNL A   1      39.770  25.583  27.777  1.00  0.00     0.198 A 
ATOM     65  F   UNL A   1      38.903  26.196  29.875  1.00  0.00    -0.203 F 
ATOM     66  F   UNL A   1      42.018  27.341  25.544  1.00  0.00    -0.200 F 
ATOM     67  C   UNL A   1      40.562  25.866  26.674  1.00  0.00     0.200 A 
ATOM     68  F   UNL A   1      39.094  24.428  27.838  1.00  0.00    -0.200 F 
ATOM     69  F   UNL A   1      40.638  24.992  25.661  1.00  0.00    -0.200 F 
ENDBRANCH  45  59
BRANCH  46  70
ATOM     70  C   UNL A   1      39.657  33.775  36.715  1.00  0.00     0.064 A 
ATOM     71  C   UNL A   1      38.832  33.376  37.777  1.00  0.00     0.173 A 
ATOM     72  C   UNL A   1      40.306  35.014  36.827  1.00  0.00     0.173 A 
ATOM     73  F   UNL A   1      38.177  32.208  37.713  1.00  0.00    -0.203 F 
ATOM     74  C   UNL A   1      38.628  34.200  38.882  1.00  0.00     0.198 A 
ATOM     75  C   UNL A   1      40.130  35.821  37.949  1.00  0.00     0.198 A 
ATOM     76  F   UNL A   1      41.115  35.440  35.846  1.00  0.00    -0.203 F 
ATOM     77  F   UNL A   1      37.780  33.824  39.848  1.00  0.00    -0.200 F 
ATOM     78  C   UNL A   1      39.279  35.421  38.968  1.00  0.00     0.200 A 
ATOM     79  F   UNL A   1      40.776  36.991  38.037  1.00  0.00    -0.200 F 
ATOM     80  F   UNL A   1      39.079  36.217  40.027  1.00  0.00    -0.200 F 
ENDBRANCH  46  70
BRANCH  58  81
ATOM     81  C   UNL A   1      43.957  28.558  34.996  1.00  0.00     0.064 A 
ATOM     82  C   UNL A   1      45.253  29.071  34.858  1.00  0.00     0.173 A 
ATOM     83  C   UNL A   1      43.766  27.476  35.870  1.00  0.00     0.173 A 
ATOM     84  F   UNL A   1      45.490  30.095  34.024  1.00  0.00    -0.203 F 
ATOM     85  C   UNL A   1      46.321  28.512  35.556  1.00  0.00     0.198 A 
ATOM     86  C   UNL A   1      44.828  26.944  36.593  1.00  0.00     0.198 A 
ATOM     87  F   UNL A   1      42.542  26.955  36.044  1.00  0.00    -0.203 F 
ATOM     88  F   UNL A   1      47.559  28.992  35.379  1.00  0.00    -0.200 F 
ATOM     89  C   UNL A   1      46.105  27.457  36.431  1.00  0.00     0.200 A 
ATOM     90  F   UNL A   1      44.613  25.937  37.452  1.00  0.00    -0.200 F 
ATOM     91  F   UNL A   1      47.130  26.934  37.118  1.00  0.00    -0.200 F 
ENDBRANCH  58  81
ENDBRANCH  32  33
ENDBRANCH  24  27
ENDBRANCH  22  23
ENDBRANCH  21  22
ENDBRANCH   1  21
TORSDOF 14
ENDMDL
MODEL 2
REMARK VINA RESULT:     -11.4      0.637      1.801
REMARK SMILES C[NH2+]CC(=O)NC[C@H]1CC[C@H](C(=O)NCCCNC(=O)c2ccc(-c3c4nc(c(-c5c(F)c(F)c(F)c(F)c5F)c5ccc([nH]5)c(-c5c(F)c(F)c(F)c(F)c5F)c5nc(c(-c6c(F)c(F)c(F)c(F)c6F)c6ccc3[nH]6)C=C5)C=C4)cc2)O1
REMARK SMILES IDX 15 1 14 2 12 3 13 4 11 6 8 7 9 8 84 9 10 10 7 11 6 12 4 13
REMARK SMILES IDX 5 14 3 16 2 17 1 18 16 21 17 22 18 23 19 24 20 26 21 27
REMARK SMILES IDX 22 28 83 29 23 30 82 31 24 32 25 33 26 34 76 35 27 36 81 37
REMARK SMILES IDX 75 38 77 39 28 40 80 41 74 42 73 43 29 45 61 46 41 47 60 48
REMARK SMILES IDX 42 49 45 50 59 51 78 52 43 53 44 54 58 56 79 57 46 58 30 59
REMARK SMILES IDX 31 60 39 61 32 62 33 63 37 64 40 65 34 66 35 67 38 68 36 69
REMARK SMILES IDX 62 70 63 71 71 72 64 73 65 74 69 75 72 76 66 77 67 78 70 79
REMARK SMILES IDX 68 80 47 81 48 82 56 83 49 84 50 85 54 86 57 87 51 88 52 89
REMARK SMILES IDX 55 90 53 91
REMARK H PARENT 14 5 6 15 2 19 2 20 18 25 77 44 45 55
REMARK Flexibility Score: inf
ROOT
ATOM      1  C   UNL A   1      31.670  30.761  26.142  1.00  0.00     0.117 C 
ENDROOT
BRANCH   1   2
ATOM      2  N   UNL A   1      31.044  30.484  24.867  1.00  0.00    -0.354 N 
ATOM      3  C   UNL A   1      30.874  29.303  24.209  1.00  0.00     0.249 C 
ATOM      4  O   UNL A   1      30.366  29.350  23.084  1.00  0.00    -0.272 OA
ATOM      5  H   UNL A   1      30.684  31.273  24.402  1.00  0.00     0.163 HD
BRANCH   3   6
ATOM      6  C   UNL A   1      31.345  27.958  24.802  1.00  0.00     0.207 C 
ATOM      7  C   UNL A   1      33.006  26.413  24.180  1.00  0.00     0.138 C 
ATOM      8  C   UNL A   1      31.704  25.913  23.588  1.00  0.00     0.037 C 
ATOM      9  O   UNL A   1      32.743  27.704  24.743  1.00  0.00    -0.363 OA
ATOM     10  C   UNL A   1      30.624  26.759  24.215  1.00  0.00     0.045 C 
BRANCH   7  11
ATOM     11  C   UNL A   1      33.641  25.509  25.251  1.00  0.00     0.148 C 
BRANCH  11  12
ATOM     12  N   UNL A   1      32.628  25.102  26.226  1.00  0.00    -0.349 N 
ATOM     13  C   UNL A   1      32.195  23.869  26.608  1.00  0.00     0.275 C 
ATOM     14  O   UNL A   1      31.196  23.808  27.331  1.00  0.00    -0.269 OA
ATOM     15  H   UNL A   1      32.183  25.850  26.686  1.00  0.00     0.163 HD
BRANCH  13  16
ATOM     16  C   UNL A   1      32.922  22.603  26.158  1.00  0.00     0.361 C 
BRANCH  16  17
ATOM     17  N   UNL A   1      32.027  21.437  26.091  1.00  0.00    -0.341 N 
ATOM     18  C   UNL A   1      32.217  20.662  24.876  1.00  0.00     0.331 C 
ATOM     19  H   UNL A   1      32.210  20.836  26.895  1.00  0.00     0.346 HD
ATOM     20  H   UNL A   1      31.066  21.781  26.094  1.00  0.00     0.346 HD
ENDBRANCH  16  17
ENDBRANCH  13  16
ENDBRANCH  11  12
ENDBRANCH   7  11
ENDBRANCH   3   6
ENDBRANCH   1   2
BRANCH   1  21
ATOM     21  C   UNL A   1      31.394  32.188  26.592  1.00  0.00     0.042 C 
BRANCH  21  22
ATOM     22  C   UNL A   1      32.587  32.798  27.308  1.00  0.00     0.118 C 
BRANCH  22  23
ATOM     23  N   UNL A   1      32.372  34.209  27.610  1.00  0.00    -0.352 N 
ATOM     24  C   UNL A   1      32.945  34.996  28.579  1.00  0.00     0.251 C 
ATOM     25  H   UNL A   1      31.717  34.666  27.033  1.00  0.00     0.163 HD
ATOM     26  O   UNL A   1      32.474  36.094  28.843  1.00  0.00    -0.269 OA
BRANCH  24  27
ATOM     27  C   UNL A   1      34.127  34.499  29.308  1.00  0.00     0.039 A 
ATOM     28  C   UNL A   1      33.959  33.910  30.564  1.00  0.00     0.014 A 
ATOM     29  C   UNL A   1      35.400  34.614  28.745  1.00  0.00     0.014 A 
ATOM     30  C   UNL A   1      35.066  33.375  31.225  1.00  0.00     0.010 A 
ATOM     31  C   UNL A   1      36.481  33.997  29.358  1.00  0.00     0.010 A 
ATOM     32  C   UNL A   1      36.328  33.382  30.609  1.00  0.00    -0.014 A 
BRANCH  32  33
ATOM     33  C   UNL A   1      37.522  32.786  31.256  1.00  0.00     0.031 A 
ATOM     34  C   UNL A   1      38.203  31.614  30.604  1.00  0.00     0.074 A 
ATOM     35  C   UNL A   1      37.924  33.227  32.463  1.00  0.00     0.049 A 
ATOM     36  N   UNL A   1      39.149  30.840  31.070  1.00  0.00    -0.248 NA
ATOM     37  C   UNL A   1      37.731  31.238  29.260  1.00  0.00     0.031 C 
ATOM     38  C   UNL A   1      37.315  34.330  33.210  1.00  0.00     0.029 A 
ATOM     39  N   UNL A   1      38.927  32.783  33.289  1.00  0.00    -0.354 N 
ATOM     40  C   UNL A   1      39.358  29.873  30.096  1.00  0.00     0.074 A 
ATOM     41  C   UNL A   1      38.412  30.125  29.033  1.00  0.00     0.031 C 
ATOM     42  C   UNL A   1      37.961  34.481  34.378  1.00  0.00     0.029 A 
ATOM     43  C   UNL A   1      38.993  33.454  34.486  1.00  0.00     0.049 A 
ATOM     44  H   UNL A   1      39.540  32.052  33.047  1.00  0.00     0.167 HD
ATOM     45  C   UNL A   1      40.274  28.878  30.083  1.00  0.00     0.037 A 
ATOM     46  C   UNL A   1      39.782  33.247  35.558  1.00  0.00     0.037 A 
ATOM     47  C   UNL A   1      41.241  28.665  31.125  1.00  0.00     0.049 A 
ATOM     48  C   UNL A   1      40.792  32.129  35.514  1.00  0.00     0.074 A 
ATOM     49  C   UNL A   1      42.262  27.733  31.173  1.00  0.00     0.029 A 
ATOM     50  N   UNL A   1      41.307  29.394  32.302  1.00  0.00    -0.354 N 
ATOM     51  N   UNL A   1      41.030  31.265  34.556  1.00  0.00    -0.248 NA
ATOM     52  C   UNL A   1      41.648  31.958  36.697  1.00  0.00     0.031 C 
ATOM     53  C   UNL A   1      42.909  27.860  32.405  1.00  0.00     0.029 A 
ATOM     54  C   UNL A   1      42.335  28.916  33.094  1.00  0.00     0.049 A 
ATOM     55  H   UNL A   1      40.710  30.142  32.539  1.00  0.00     0.167 HD
ATOM     56  C   UNL A   1      42.085  30.480  35.002  1.00  0.00     0.074 A 
ATOM     57  C   UNL A   1      42.448  30.974  36.313  1.00  0.00     0.031 C 
ATOM     58  C   UNL A   1      42.700  29.443  34.383  1.00  0.00     0.037 A 
BRANCH  45  59
ATOM     59  C   UNL A   1      40.286  27.942  28.909  1.00  0.00     0.064 A 
ATOM     60  C   UNL A   1      41.033  28.215  27.754  1.00  0.00     0.173 A 
ATOM     61  C   UNL A   1      39.598  26.720  28.972  1.00  0.00     0.173 A 
ATOM     62  F   UNL A   1      41.698  29.374  27.638  1.00  0.00    -0.203 F 
ATOM     63  C   UNL A   1      41.077  27.308  26.699  1.00  0.00     0.198 A 
ATOM     64  C   UNL A   1      39.671  25.801  27.929  1.00  0.00     0.198 A 
ATOM     65  F   UNL A   1      38.871  26.408  30.056  1.00  0.00    -0.203 F 
ATOM     66  F   UNL A   1      41.768  27.606  25.590  1.00  0.00    -0.200 F 
ATOM     67  C   UNL A   1      40.407  26.097  26.792  1.00  0.00     0.200 A 
ATOM     68  F   UNL A   1      39.035  24.626  28.029  1.00  0.00    -0.200 F 
ATOM     69  F   UNL A   1      40.470  25.216  25.785  1.00  0.00    -0.200 F 
ENDBRANCH  45  59
BRANCH  46  70
ATOM     70  C   UNL A   1      39.654  34.104  36.768  1.00  0.00     0.064 A 
ATOM     71  C   UNL A   1      40.354  35.315  36.874  1.00  0.00     0.173 A 
ATOM     72  C   UNL A   1      38.861  33.715  37.859  1.00  0.00     0.173 A 
ATOM     73  F   UNL A   1      41.138  35.724  35.866  1.00  0.00    -0.203 F 
ATOM     74  C   UNL A   1      40.302  36.080  38.038  1.00  0.00     0.198 A 
ATOM     75  C   UNL A   1      38.780  34.499  39.008  1.00  0.00     0.198 A 
ATOM     76  F   UNL A   1      38.161  32.572  37.808  1.00  0.00    -0.203 F 
ATOM     77  F   UNL A   1      41.037  37.195  38.137  1.00  0.00    -0.200 F 
ATOM     78  C   UNL A   1      39.513  35.673  39.103  1.00  0.00     0.200 A 
ATOM     79  F   UNL A   1      38.001  34.113  40.027  1.00  0.00    -0.200 F 
ATOM     80  F   UNL A   1      39.467  36.405  40.224  1.00  0.00    -0.200 F 
ENDBRANCH  46  70
BRANCH  58  81
ATOM     81  C   UNL A   1      43.871  28.812  35.077  1.00  0.00     0.064 A 
ATOM     82  C   UNL A   1      43.717  27.727  35.951  1.00  0.00     0.173 A 
ATOM     83  C   UNL A   1      45.174  29.257  34.803  1.00  0.00     0.173 A 
ATOM     84  F   UNL A   1      42.492  27.273  36.257  1.00  0.00    -0.203 F 
ATOM     85  C   UNL A   1      44.825  27.122  36.540  1.00  0.00     0.198 A 
ATOM     86  C   UNL A   1      46.279  28.627  35.365  1.00  0.00     0.198 A 
ATOM     87  F   UNL A   1      45.374  30.286  33.966  1.00  0.00    -0.203 F 
ATOM     88  F   UNL A   1      44.653  26.112  37.404  1.00  0.00    -0.200 F 
ATOM     89  C   UNL A   1      46.104  27.565  36.237  1.00  0.00     0.200 A 
ATOM     90  F   UNL A   1      47.515  29.045  35.055  1.00  0.00    -0.200 F 
ATOM     91  F   UNL A   1      47.169  26.968  36.789  1.00  0.00    -0.200 F 
ENDBRANCH  58  81
ENDBRANCH  32  33
ENDBRANCH  24  27
ENDBRANCH  22  23
ENDBRANCH  21  22
ENDBRANCH   1  21
TORSDOF 14
ENDMDL
MODEL 3
REMARK VINA RESULT:     -11.4      5.571     10.877
REMARK SMILES C[NH2+]CC(=O)NC[C@H]1CC[C@H](C(=O)NCCCNC(=O)c2ccc(-c3c4nc(c(-c5c(F)c(F)c(F)c(F)c5F)c5ccc([nH]5)c(-c5c(F)c(F)c(F)c(F)c5F)c5nc(c(-c6c(F)c(F)c(F)c(F)c6F)c6ccc3[nH]6)C=C5)C=C4)cc2)O1
REMARK SMILES IDX 15 1 14 2 12 3 13 4 11 6 8 7 9 8 84 9 10 10 7 11 6 12 4 13
REMARK SMILES IDX 5 14 3 16 2 17 1 18 16 21 17 22 18 23 19 24 20 26 21 27
REMARK SMILES IDX 22 28 83 29 23 30 82 31 24 32 25 33 26 34 76 35 27 36 81 37
REMARK SMILES IDX 75 38 77 39 28 40 80 41 74 42 73 43 29 45 61 46 41 47 60 48
REMARK SMILES IDX 42 49 45 50 59 51 78 52 43 53 44 54 58 56 79 57 46 58 30 59
REMARK SMILES IDX 31 60 39 61 32 62 33 63 37 64 40 65 34 66 35 67 38 68 36 69
REMARK SMILES IDX 62 70 63 71 71 72 64 73 65 74 69 75 72 76 66 77 67 78 70 79
REMARK SMILES IDX 68 80 47 81 48 82 56 83 49 84 50 85 54 86 57 87 51 88 52 89
REMARK SMILES IDX 55 90 53 91
REMARK H PARENT 14 5 6 15 2 19 2 20 18 25 77 44 45 55
REMARK Flexibility Score: inf
ROOT
ATOM      1  C   UNL A   1      36.655  20.727  25.063  1.00  0.00     0.117 C 
ENDROOT
BRANCH   1   2
ATOM      2  N   UNL A   1      35.463  19.908  24.993  1.00  0.00    -0.354 N 
ATOM      3  C   UNL A   1      34.148  20.267  25.006  1.00  0.00     0.249 C 
ATOM      4  O   UNL A   1      33.314  19.357  25.009  1.00  0.00    -0.272 OA
ATOM      5  H   UNL A   1      35.628  18.940  24.925  1.00  0.00     0.163 HD
BRANCH   3   6
ATOM      6  C   UNL A   1      33.701  21.743  25.074  1.00  0.00     0.207 C 
ATOM      7  C   UNL A   1      34.834  23.786  24.800  1.00  0.00     0.138 C 
ATOM      8  C   UNL A   1      34.794  23.508  26.289  1.00  0.00     0.037 C 
ATOM      9  O   UNL A   1      34.314  22.625  24.142  1.00  0.00    -0.363 OA
ATOM     10  C   UNL A   1      33.844  22.348  26.458  1.00  0.00     0.045 C 
BRANCH   7  11
ATOM     11  C   UNL A   1      34.056  25.029  24.334  1.00  0.00     0.148 C 
BRANCH  11  12
ATOM     12  N   UNL A   1      33.988  25.058  22.872  1.00  0.00    -0.349 N 
ATOM     13  C   UNL A   1      33.183  25.756  22.026  1.00  0.00     0.275 C 
ATOM     14  O   UNL A   1      33.215  25.463  20.827  1.00  0.00    -0.269 OA
ATOM     15  H   UNL A   1      34.638  24.471  22.424  1.00  0.00     0.163 HD
BRANCH  13  16
ATOM     16  C   UNL A   1      32.271  26.869  22.542  1.00  0.00     0.361 C 
BRANCH  16  17
ATOM     17  N   UNL A   1      32.733  28.206  22.134  1.00  0.00    -0.341 N 
ATOM     18  C   UNL A   1      33.963  28.595  22.805  1.00  0.00     0.331 C 
ATOM     19  H   UNL A   1      32.897  28.203  21.127  1.00  0.00     0.346 HD
ATOM     20  H   UNL A   1      32.011  28.877  22.393  1.00  0.00     0.346 HD
ENDBRANCH  16  17
ENDBRANCH  13  16
ENDBRANCH  11  12
ENDBRANCH   7  11
ENDBRANCH   3   6
ENDBRANCH   1   2
BRANCH   1  21
ATOM     21  C   UNL A   1      37.907  19.895  24.830  1.00  0.00     0.042 C 
BRANCH  21  22
ATOM     22  C   UNL A   1      39.024  20.268  25.791  1.00  0.00     0.118 C 
BRANCH  22  23
ATOM     23  N   UNL A   1      40.029  19.214  25.886  1.00  0.00    -0.352 N 
ATOM     24  C   UNL A   1      41.385  19.312  26.080  1.00  0.00     0.251 C 
ATOM     25  H   UNL A   1      39.683  18.297  25.796  1.00  0.00     0.163 HD
ATOM     26  O   UNL A   1      42.108  18.341  25.895  1.00  0.00    -0.269 OA
BRANCH  24  27
ATOM     27  C   UNL A   1      41.965  20.601  26.501  1.00  0.00     0.039 A 
ATOM     28  C   UNL A   1      42.364  21.522  25.529  1.00  0.00     0.014 A 
ATOM     29  C   UNL A   1      42.109  20.898  27.858  1.00  0.00     0.014 A 
ATOM     30  C   UNL A   1      42.847  22.771  25.923  1.00  0.00     0.010 A 
ATOM     31  C   UNL A   1      42.497  22.172  28.245  1.00  0.00     0.010 A 
ATOM     32  C   UNL A   1      42.881  23.117  27.283  1.00  0.00    -0.014 A 
BRANCH  32  33
ATOM     33  C   UNL A   1      43.345  24.448  27.744  1.00  0.00     0.031 A 
ATOM     34  C   UNL A   1      42.328  25.498  28.102  1.00  0.00     0.074 A 
ATOM     35  C   UNL A   1      44.659  24.740  27.743  1.00  0.00     0.049 A 
ATOM     36  N   UNL A   1      42.504  26.767  28.365  1.00  0.00    -0.248 NA
ATOM     37  C   UNL A   1      40.919  25.071  28.130  1.00  0.00     0.031 C 
ATOM     38  C   UNL A   1      45.734  23.815  27.377  1.00  0.00     0.029 A 
ATOM     39  N   UNL A   1      45.316  25.910  28.034  1.00  0.00    -0.354 N 
ATOM     40  C   UNL A   1      41.233  27.291  28.555  1.00  0.00     0.074 A 
ATOM     41  C   UNL A   1      40.290  26.220  28.332  1.00  0.00     0.031 C 
ATOM     42  C   UNL A   1      46.914  24.450  27.474  1.00  0.00     0.029 A 
ATOM     43  C   UNL A   1      46.677  25.839  27.856  1.00  0.00     0.049 A 
ATOM     44  H   UNL A   1      44.856  26.725  28.341  1.00  0.00     0.167 HD
ATOM     45  C   UNL A   1      40.888  28.552  28.906  1.00  0.00     0.037 A 
ATOM     46  C   UNL A   1      47.621  26.793  27.965  1.00  0.00     0.037 A 
ATOM     47  C   UNL A   1      41.837  29.599  29.170  1.00  0.00     0.049 A 
ATOM     48  C   UNL A   1      47.205  28.188  28.356  1.00  0.00     0.074 A 
ATOM     49  C   UNL A   1      41.595  30.889  29.606  1.00  0.00     0.029 A 
ATOM     50  N   UNL A   1      43.210  29.475  29.023  1.00  0.00    -0.354 N 
ATOM     51  N   UNL A   1      46.005  28.655  28.604  1.00  0.00    -0.248 NA
ATOM     52  C   UNL A   1      48.273  29.189  28.488  1.00  0.00     0.031 C 
ATOM     53  C   UNL A   1      42.816  31.563  29.667  1.00  0.00     0.029 A 
ATOM     54  C   UNL A   1      43.825  30.674  29.335  1.00  0.00     0.049 A 
ATOM     55  H   UNL A   1      43.677  28.656  28.739  1.00  0.00     0.167 HD
ATOM     56  C   UNL A   1      46.178  29.986  28.960  1.00  0.00     0.074 A 
ATOM     57  C   UNL A   1      47.600  30.251  28.905  1.00  0.00     0.031 C 
ATOM     58  C   UNL A   1      45.245  30.907  29.304  1.00  0.00     0.037 A 
BRANCH  45  59
ATOM     59  C   UNL A   1      39.428  28.876  29.032  1.00  0.00     0.064 A 
ATOM     60  C   UNL A   1      38.754  28.786  30.258  1.00  0.00     0.173 A 
ATOM     61  C   UNL A   1      38.712  29.356  27.924  1.00  0.00     0.173 A 
ATOM     62  F   UNL A   1      39.388  28.322  31.345  1.00  0.00    -0.203 F 
ATOM     63  C   UNL A   1      37.413  29.147  30.367  1.00  0.00     0.198 A 
ATOM     64  C   UNL A   1      37.381  29.746  28.043  1.00  0.00     0.198 A 
ATOM     65  F   UNL A   1      39.310  29.465  26.727  1.00  0.00    -0.203 F 
ATOM     66  F   UNL A   1      36.780  29.017  31.541  1.00  0.00    -0.200 F 
ATOM     67  C   UNL A   1      36.732  29.637  29.263  1.00  0.00     0.200 A 
ATOM     68  F   UNL A   1      36.730  30.235  26.979  1.00  0.00    -0.200 F 
ATOM     69  F   UNL A   1      35.448  30.005  29.376  1.00  0.00    -0.200 F 
ENDBRANCH  45  59
BRANCH  46  70
ATOM     70  C   UNL A   1      49.050  26.476  27.697  1.00  0.00     0.064 A 
ATOM     71  C   UNL A   1      49.939  26.204  28.748  1.00  0.00     0.173 A 
ATOM     72  C   UNL A   1      49.568  26.478  26.393  1.00  0.00     0.173 A 
ATOM     73  F   UNL A   1      49.498  26.205  30.014  1.00  0.00    -0.203 F 
ATOM     74  C   UNL A   1      51.295  25.987  28.509  1.00  0.00     0.198 A 
ATOM     75  C   UNL A   1      50.917  26.226  26.152  1.00  0.00     0.198 A 
ATOM     76  F   UNL A   1      48.761  26.722  25.350  1.00  0.00    -0.203 F 
ATOM     77  F   UNL A   1      52.132  25.799  29.537  1.00  0.00    -0.200 F 
ATOM     78  C   UNL A   1      51.782  25.996  27.211  1.00  0.00     0.200 A 
ATOM     79  F   UNL A   1      51.380  26.215  24.895  1.00  0.00    -0.200 F 
ATOM     80  F   UNL A   1      53.087  25.795  26.981  1.00  0.00    -0.200 F 
ENDBRANCH  46  70
BRANCH  58  81
ATOM     81  C   UNL A   1      45.727  32.269  29.713  1.00  0.00     0.064 A 
ATOM     82  C   UNL A   1      45.815  33.328  28.799  1.00  0.00     0.173 A 
ATOM     83  C   UNL A   1      46.035  32.531  31.057  1.00  0.00     0.173 A 
ATOM     84  F   UNL A   1      45.546  33.126  27.500  1.00  0.00    -0.203 F 
ATOM     85  C   UNL A   1      46.212  34.597  29.214  1.00  0.00     0.198 A 
ATOM     86  C   UNL A   1      46.396  33.808  31.473  1.00  0.00     0.198 A 
ATOM     87  F   UNL A   1      45.957  31.553  31.971  1.00  0.00    -0.203 F 
ATOM     88  F   UNL A   1      46.329  35.586  28.317  1.00  0.00    -0.200 F 
ATOM     89  C   UNL A   1      46.490  34.838  30.551  1.00  0.00     0.200 A 
ATOM     90  F   UNL A   1      46.645  34.042  32.769  1.00  0.00    -0.200 F 
ATOM     91  F   UNL A   1      46.851  36.065  30.951  1.00  0.00    -0.200 F 
ENDBRANCH  58  81
ENDBRANCH  32  33
ENDBRANCH  24  27
ENDBRANCH  22  23
ENDBRANCH  21  22
ENDBRANCH   1  21
TORSDOF 14
ENDMDL
