MODEL 1
REMARK VINA RESULT:     -12.7      0.000      0.000
REMARK SMILES Cn1ccc(NC(=O)[C@@H]2CCCC[C@@H]2C(=O)NCCCNC(=O)c2ccc(-c3c4nc(c(-c5c(F)c(F)c(F)c(F)c5F)c5ccc([nH]5)c(-c5c(F)c(F)c(F)c(F)c5F)c5nc(c(-c6c(F)c(F)c(F)c(F)c6F)c6ccc3[nH]6)C=C5)C=C4)cc2)n1
REMARK SMILES IDX 19 1 18 2 17 3 15 4 16 5 14 7 9 8 10 9 11 10 13 11 12 12
REMARK SMILES IDX 7 13 6 14 8 16 5 17 1 18 2 19 3 20 87 21 4 22 20 23 21 24
REMARK SMILES IDX 22 25 23 27 24 28 25 29 86 30 26 31 85 32 27 33 28 34 29 35
REMARK SMILES IDX 79 36 30 37 84 38 78 39 80 40 31 41 83 42 77 43 76 44 32 46
REMARK SMILES IDX 64 47 44 48 63 49 45 50 48 51 62 52 81 53 46 54 47 55 61 57
REMARK SMILES IDX 82 58 49 59 33 60 34 61 42 62 35 63 36 64 40 65 43 66 37 67
REMARK SMILES IDX 38 68 41 69 39 70 65 71 66 72 74 73 67 74 68 75 72 76 75 77
REMARK SMILES IDX 69 78 70 79 73 80 71 81 50 82 51 83 59 84 52 85 53 86 57 87
REMARK SMILES IDX 60 88 54 89 55 90 58 91 56 92
REMARK H PARENT 17 6 6 15 21 26 80 45 48 56
REMARK Flexibility Score: inf
ROOT
ATOM      1  C   UNL A   1      31.387  32.043  26.990  1.00  0.00     0.042 C 
ENDROOT
BRANCH   1   2
ATOM      2  C   UNL A   1      31.342  31.215  25.715  1.00  0.00     0.117 C 
BRANCH   2   3
ATOM      3  N   UNL A   1      31.583  29.824  26.003  1.00  0.00    -0.356 N 
ATOM      4  C   UNL A   1      31.525  28.733  25.198  1.00  0.00     0.223 C 
ATOM      5  O   UNL A   1      31.825  27.666  25.737  1.00  0.00    -0.275 OA
ATOM      6  H   UNL A   1      31.832  29.636  26.936  1.00  0.00     0.163 HD
BRANCH   4   7
ATOM      7  C   UNL A   1      31.200  28.852  23.697  1.00  0.00     0.091 C 
ATOM      8  C   UNL A   1      30.306  27.765  23.045  1.00  0.00     0.091 C 
ATOM      9  C   UNL A   1      30.954  26.391  23.291  1.00  0.00     0.014 C 
ATOM     10  C   UNL A   1      32.308  26.308  22.587  1.00  0.00     0.001 C 
ATOM     11  C   UNL A   1      32.524  28.854  22.889  1.00  0.00     0.014 C 
ATOM     12  C   UNL A   1      33.231  27.492  22.874  1.00  0.00     0.001 C 
BRANCH   8  13
ATOM     13  C   UNL A   1      28.795  27.741  23.308  1.00  0.00     0.229 C 
ATOM     14  N   UNL A   1      27.984  28.812  23.070  1.00  0.00    -0.309 N 
ATOM     15  H   UNL A   1      27.032  28.677  23.281  1.00  0.00     0.171 HD
ATOM     16  O   UNL A   1      28.244  26.728  23.758  1.00  0.00    -0.274 OA
BRANCH  14  17
ATOM     17  C   UNL A   1      28.309  30.049  22.575  1.00  0.00     0.154 A 
ATOM     18  C   UNL A   1      28.904  33.445  23.023  1.00  0.00     0.173 C 
ATOM     19  N   UNL A   1      28.687  32.126  22.480  1.00  0.00    -0.274 N 
ATOM     20  C   UNL A   1      28.283  31.801  21.221  1.00  0.00     0.110 A 
ATOM     21  N   UNL A   1      28.755  31.068  23.303  1.00  0.00    -0.155 NA
ATOM     22  C   UNL A   1      28.101  30.437  21.229  1.00  0.00     0.068 A 
ENDBRANCH  14  17
ENDBRANCH   8  13
ENDBRANCH   4   7
ENDBRANCH   2   3
ENDBRANCH   1   2
BRANCH   1  23
ATOM     23  C   UNL A   1      32.684  32.812  27.146  1.00  0.00     0.118 C 
BRANCH  23  24
ATOM     24  N   UNL A   1      32.452  34.189  27.560  1.00  0.00    -0.352 N 
ATOM     25  C   UNL A   1      33.011  34.900  28.588  1.00  0.00     0.251 C 
ATOM     26  H   UNL A   1      31.794  34.684  27.019  1.00  0.00     0.163 HD
ATOM     27  O   UNL A   1      32.525  35.984  28.910  1.00  0.00    -0.269 OA
BRANCH  25  28
ATOM     28  C   UNL A   1      34.174  34.363  29.326  1.00  0.00     0.039 A 
ATOM     29  C   UNL A   1      33.952  33.640  30.501  1.00  0.00     0.014 A 
ATOM     30  C   UNL A   1      35.479  34.578  28.876  1.00  0.00     0.014 A 
ATOM     31  C   UNL A   1      35.033  33.084  31.187  1.00  0.00     0.010 A 
ATOM     32  C   UNL A   1      36.542  33.934  29.496  1.00  0.00     0.010 A 
ATOM     33  C   UNL A   1      36.333  33.196  30.668  1.00  0.00    -0.014 A 
BRANCH  33  34
ATOM     34  C   UNL A   1      37.493  32.567  31.348  1.00  0.00     0.031 A 
ATOM     35  C   UNL A   1      38.220  31.427  30.690  1.00  0.00     0.074 A 
ATOM     36  C   UNL A   1      37.847  32.980  32.580  1.00  0.00     0.049 A 
ATOM     37  N   UNL A   1      39.207  30.698  31.148  1.00  0.00    -0.248 NA
ATOM     38  C   UNL A   1      37.758  31.030  29.350  1.00  0.00     0.031 C 
ATOM     39  C   UNL A   1      37.184  34.040  33.340  1.00  0.00     0.029 A 
ATOM     40  N   UNL A   1      38.846  32.549  33.415  1.00  0.00    -0.354 N 
ATOM     41  C   UNL A   1      39.464  29.751  30.166  1.00  0.00     0.074 A 
ATOM     42  C   UNL A   1      38.494  29.955  29.113  1.00  0.00     0.031 C 
ATOM     43  C   UNL A   1      37.813  34.198  34.515  1.00  0.00     0.029 A 
ATOM     44  C   UNL A   1      38.892  33.221  34.613  1.00  0.00     0.049 A 
ATOM     45  H   UNL A   1      39.472  31.827  33.179  1.00  0.00     0.167 HD
ATOM     46  C   UNL A   1      40.440  28.812  30.133  1.00  0.00     0.037 A 
ATOM     47  C   UNL A   1      39.706  33.058  35.672  1.00  0.00     0.037 A 
ATOM     48  C   UNL A   1      41.419  28.634  31.172  1.00  0.00     0.049 A 
ATOM     49  C   UNL A   1      40.774  31.999  35.614  1.00  0.00     0.074 A 
ATOM     50  C   UNL A   1      42.489  27.759  31.208  1.00  0.00     0.029 A 
ATOM     51  N   UNL A   1      41.442  29.345  32.364  1.00  0.00    -0.354 N 
ATOM     52  N   UNL A   1      41.059  31.161  34.646  1.00  0.00    -0.248 NA
ATOM     53  C   UNL A   1      41.639  31.868  36.794  1.00  0.00     0.031 C 
ATOM     54  C   UNL A   1      43.124  27.898  32.446  1.00  0.00     0.029 A 
ATOM     55  C   UNL A   1      42.490  28.905  33.156  1.00  0.00     0.049 A 
ATOM     56  H   UNL A   1      40.805  30.054  32.612  1.00  0.00     0.167 HD
ATOM     57  C   UNL A   1      42.153  30.427  35.087  1.00  0.00     0.074 A 
ATOM     58  C   UNL A   1      42.490  30.931  36.402  1.00  0.00     0.031 C 
ATOM     59  C   UNL A   1      42.818  29.427  34.458  1.00  0.00     0.037 A 
BRANCH  46  60
ATOM     60  C   UNL A   1      40.497  27.907  28.935  1.00  0.00     0.064 A 
ATOM     61  C   UNL A   1      39.763  26.712  28.873  1.00  0.00     0.173 A 
ATOM     62  C   UNL A   1      41.271  28.257  27.818  1.00  0.00     0.173 A 
ATOM     63  F   UNL A   1      39.016  26.325  29.917  1.00  0.00    -0.203 F 
ATOM     64  C   UNL A   1      39.826  25.888  27.753  1.00  0.00     0.198 A 
ATOM     65  C   UNL A   1      41.305  27.447  26.685  1.00  0.00     0.198 A 
ATOM     66  F   UNL A   1      41.991  29.389  27.820  1.00  0.00    -0.203 F 
ATOM     67  F   UNL A   1      39.159  24.726  27.741  1.00  0.00    -0.200 F 
ATOM     68  C   UNL A   1      40.590  26.259  26.658  1.00  0.00     0.200 A 
ATOM     69  F   UNL A   1      42.031  27.815  25.621  1.00  0.00    -0.200 F 
ATOM     70  F   UNL A   1      40.642  25.468  25.576  1.00  0.00    -0.200 F 
ENDBRANCH  46  60
BRANCH  47  71
ATOM     71  C   UNL A   1      39.558  33.929  36.868  1.00  0.00     0.064 A 
ATOM     72  C   UNL A   1      40.192  35.178  36.930  1.00  0.00     0.173 A 
ATOM     73  C   UNL A   1      38.791  33.533  37.974  1.00  0.00     0.173 A 
ATOM     74  F   UNL A   1      40.952  35.595  35.907  1.00  0.00    -0.203 F 
ATOM     75  C   UNL A   1      40.088  35.984  38.062  1.00  0.00     0.198 A 
ATOM     76  C   UNL A   1      38.661  34.354  39.092  1.00  0.00     0.198 A 
ATOM     77  F   UNL A   1      38.159  32.351  37.964  1.00  0.00    -0.203 F 
ATOM     78  F   UNL A   1      40.749  37.150  38.115  1.00  0.00    -0.200 F 
ATOM     79  C   UNL A   1      39.318  35.574  39.140  1.00  0.00     0.200 A 
ATOM     80  F   UNL A   1      37.902  33.962  40.124  1.00  0.00    -0.200 F 
ATOM     81  F   UNL A   1      39.216  36.351  40.227  1.00  0.00    -0.200 F 
ENDBRANCH  47  71
BRANCH  59  82
ATOM     82  C   UNL A   1      44.006  28.839  35.165  1.00  0.00     0.064 A 
ATOM     83  C   UNL A   1      45.300  29.351  34.988  1.00  0.00     0.173 A 
ATOM     84  C   UNL A   1      43.838  27.777  36.066  1.00  0.00     0.173 A 
ATOM     85  F   UNL A   1      45.517  30.356  34.126  1.00  0.00    -0.203 F 
ATOM     86  C   UNL A   1      46.385  28.801  35.666  1.00  0.00     0.198 A 
ATOM     87  C   UNL A   1      44.919  27.254  36.770  1.00  0.00     0.198 A 
ATOM     88  F   UNL A   1      42.620  27.256  36.279  1.00  0.00    -0.203 F 
ATOM     89  F   UNL A   1      47.620  29.271  35.440  1.00  0.00    -0.200 F 
ATOM     90  C   UNL A   1      46.193  27.761  36.562  1.00  0.00     0.200 A 
ATOM     91  F   UNL A   1      44.728  26.261  37.649  1.00  0.00    -0.200 F 
ATOM     92  F   UNL A   1      47.237  27.242  37.222  1.00  0.00    -0.200 F 
ENDBRANCH  59  82
ENDBRANCH  33  34
ENDBRANCH  25  28
ENDBRANCH  23  24
ENDBRANCH   1  23
TORSDOF 12
ENDMDL
MODEL 2
REMARK VINA RESULT:     -12.6      1.671      3.524
REMARK SMILES Cn1ccc(NC(=O)[C@@H]2CCCC[C@@H]2C(=O)NCCCNC(=O)c2ccc(-c3c4nc(c(-c5c(F)c(F)c(F)c(F)c5F)c5ccc([nH]5)c(-c5c(F)c(F)c(F)c(F)c5F)c5nc(c(-c6c(F)c(F)c(F)c(F)c6F)c6ccc3[nH]6)C=C5)C=C4)cc2)n1
REMARK SMILES IDX 19 1 18 2 17 3 15 4 16 5 14 7 9 8 10 9 11 10 13 11 12 12
REMARK SMILES IDX 7 13 6 14 8 16 5 17 1 18 2 19 3 20 87 21 4 22 20 23 21 24
REMARK SMILES IDX 22 25 23 27 24 28 25 29 86 30 26 31 85 32 27 33 28 34 29 35
REMARK SMILES IDX 79 36 30 37 84 38 78 39 80 40 31 41 83 42 77 43 76 44 32 46
REMARK SMILES IDX 64 47 44 48 63 49 45 50 48 51 62 52 81 53 46 54 47 55 61 57
REMARK SMILES IDX 82 58 49 59 33 60 34 61 42 62 35 63 36 64 40 65 43 66 37 67
REMARK SMILES IDX 38 68 41 69 39 70 65 71 66 72 74 73 67 74 68 75 72 76 75 77
REMARK SMILES IDX 69 78 70 79 73 80 71 81 50 82 51 83 59 84 52 85 53 86 57 87
REMARK SMILES IDX 60 88 54 89 55 90 58 91 56 92
REMARK H PARENT 17 6 6 15 21 26 80 45 48 56
REMARK Flexibility Score: inf
ROOT
ATOM      1  C   UNL A   1      31.351  32.248  26.558  1.00  0.00     0.042 C 
ENDROOT
BRANCH   1   2
ATOM      2  C   UNL A   1      31.431  30.741  26.373  1.00  0.00     0.117 C 
BRANCH   2   3
ATOM      3  N   UNL A   1      32.321  30.408  25.290  1.00  0.00    -0.356 N 
ATOM      4  C   UNL A   1      32.461  29.257  24.585  1.00  0.00     0.223 C 
ATOM      5  O   UNL A   1      33.298  29.293  23.681  1.00  0.00    -0.275 OA
ATOM      6  H   UNL A   1      32.925  31.135  25.017  1.00  0.00     0.163 HD
BRANCH   4   7
ATOM      7  C   UNL A   1      31.562  28.034  24.847  1.00  0.00     0.091 C 
ATOM      8  C   UNL A   1      32.162  26.618  24.643  1.00  0.00     0.091 C 
ATOM      9  C   UNL A   1      32.702  26.520  23.205  1.00  0.00     0.014 C 
ATOM     10  C   UNL A   1      31.559  26.648  22.198  1.00  0.00     0.001 C 
ATOM     11  C   UNL A   1      30.322  28.107  23.919  1.00  0.00     0.014 C 
ATOM     12  C   UNL A   1      30.649  27.852  22.441  1.00  0.00     0.001 C 
BRANCH   8  13
ATOM     13  C   UNL A   1      33.147  26.036  25.665  1.00  0.00     0.229 C 
ATOM     14  N   UNL A   1      32.927  24.859  26.321  1.00  0.00    -0.309 N 
ATOM     15  H   UNL A   1      33.629  24.591  26.956  1.00  0.00     0.171 HD
ATOM     16  O   UNL A   1      34.199  26.626  25.942  1.00  0.00    -0.274 OA
BRANCH  14  17
ATOM     17  C   UNL A   1      31.865  23.998  26.217  1.00  0.00     0.154 A 
ATOM     18  C   UNL A   1      29.023  22.497  27.542  1.00  0.00     0.173 C 
ATOM     19  N   UNL A   1      30.145  22.878  26.719  1.00  0.00    -0.274 N 
ATOM     20  C   UNL A   1      30.755  22.139  25.752  1.00  0.00     0.110 A 
ATOM     21  N   UNL A   1      30.778  24.032  26.981  1.00  0.00    -0.155 NA
ATOM     22  C   UNL A   1      31.842  22.880  25.347  1.00  0.00     0.068 A 
ENDBRANCH  14  17
ENDBRANCH   8  13
ENDBRANCH   4   7
ENDBRANCH   2   3
ENDBRANCH   1   2
BRANCH   1  23
ATOM     23  C   UNL A   1      32.581  32.823  27.233  1.00  0.00     0.118 C 
BRANCH  23  24
ATOM     24  N   UNL A   1      32.391  34.218  27.608  1.00  0.00    -0.352 N 
ATOM     25  C   UNL A   1      32.992  34.948  28.599  1.00  0.00     0.251 C 
ATOM     26  H   UNL A   1      31.732  34.711  27.068  1.00  0.00     0.163 HD
ATOM     27  O   UNL A   1      32.540  36.053  28.897  1.00  0.00    -0.269 OA
BRANCH  25  28
ATOM     28  C   UNL A   1      34.160  34.406  29.325  1.00  0.00     0.039 A 
ATOM     29  C   UNL A   1      33.953  33.747  30.540  1.00  0.00     0.014 A 
ATOM     30  C   UNL A   1      35.456  34.555  28.824  1.00  0.00     0.014 A 
ATOM     31  C   UNL A   1      35.038  33.188  31.217  1.00  0.00     0.010 A 
ATOM     32  C   UNL A   1      36.517  33.904  29.442  1.00  0.00     0.010 A 
ATOM     33  C   UNL A   1      36.323  33.230  30.654  1.00  0.00    -0.014 A 
BRANCH  33  34
ATOM     34  C   UNL A   1      37.483  32.595  31.326  1.00  0.00     0.031 A 
ATOM     35  C   UNL A   1      38.204  31.455  30.661  1.00  0.00     0.074 A 
ATOM     36  C   UNL A   1      37.843  33.001  32.559  1.00  0.00     0.049 A 
ATOM     37  N   UNL A   1      39.190  30.721  31.112  1.00  0.00    -0.248 NA
ATOM     38  C   UNL A   1      37.736  31.065  29.321  1.00  0.00     0.031 C 
ATOM     39  C   UNL A   1      37.187  34.060  33.326  1.00  0.00     0.029 A 
ATOM     40  N   UNL A   1      38.844  32.563  33.388  1.00  0.00    -0.354 N 
ATOM     41  C   UNL A   1      39.440  29.777  30.125  1.00  0.00     0.074 A 
ATOM     42  C   UNL A   1      38.467  29.989  29.077  1.00  0.00     0.031 C 
ATOM     43  C   UNL A   1      37.820  34.211  34.499  1.00  0.00     0.029 A 
ATOM     44  C   UNL A   1      38.896  33.230  34.589  1.00  0.00     0.049 A 
ATOM     45  H   UNL A   1      39.467  31.840  33.147  1.00  0.00     0.167 HD
ATOM     46  C   UNL A   1      40.413  28.835  30.084  1.00  0.00     0.037 A 
ATOM     47  C   UNL A   1      39.714  33.059  35.645  1.00  0.00     0.037 A 
ATOM     48  C   UNL A   1      41.395  28.649  31.119  1.00  0.00     0.049 A 
ATOM     49  C   UNL A   1      40.779  31.998  35.577  1.00  0.00     0.074 A 
ATOM     50  C   UNL A   1      42.463  27.771  31.147  1.00  0.00     0.029 A 
ATOM     51  N   UNL A   1      41.425  29.355  32.314  1.00  0.00    -0.354 N 
ATOM     52  N   UNL A   1      41.057  31.163  34.605  1.00  0.00    -0.248 NA
ATOM     53  C   UNL A   1      41.648  31.859  36.754  1.00  0.00     0.031 C 
ATOM     54  C   UNL A   1      43.103  27.902  32.384  1.00  0.00     0.029 A 
ATOM     55  C   UNL A   1      42.475  28.908  33.100  1.00  0.00     0.049 A 
ATOM     56  H   UNL A   1      40.792  30.065  32.567  1.00  0.00     0.167 HD
ATOM     57  C   UNL A   1      42.150  30.424  35.039  1.00  0.00     0.074 A 
ATOM     58  C   UNL A   1      42.494  30.921  36.354  1.00  0.00     0.031 C 
ATOM     59  C   UNL A   1      42.810  29.423  34.403  1.00  0.00     0.037 A 
BRANCH  46  60
ATOM     60  C   UNL A   1      40.463  27.935  28.883  1.00  0.00     0.064 A 
ATOM     61  C   UNL A   1      41.238  28.247  27.755  1.00  0.00     0.173 A 
ATOM     62  C   UNL A   1      39.753  26.724  28.872  1.00  0.00     0.173 A 
ATOM     63  F   UNL A   1      41.928  29.397  27.707  1.00  0.00    -0.203 F 
ATOM     64  C   UNL A   1      41.275  27.399  26.651  1.00  0.00     0.198 A 
ATOM     65  C   UNL A   1      39.820  25.862  27.781  1.00  0.00     0.198 A 
ATOM     66  F   UNL A   1      38.999  26.372  29.924  1.00  0.00    -0.203 F 
ATOM     67  F   UNL A   1      41.979  27.747  25.566  1.00  0.00    -0.200 F 
ATOM     68  C   UNL A   1      40.574  26.203  26.669  1.00  0.00     0.200 A 
ATOM     69  F   UNL A   1      39.153  24.699  27.806  1.00  0.00    -0.200 F 
ATOM     70  F   UNL A   1      40.618  25.383  25.609  1.00  0.00    -0.200 F 
ENDBRANCH  46  60
BRANCH  47  71
ATOM     71  C   UNL A   1      39.574  33.927  36.845  1.00  0.00     0.064 A 
ATOM     72  C   UNL A   1      38.807  33.516  37.944  1.00  0.00     0.173 A 
ATOM     73  C   UNL A   1      40.193  35.183  36.917  1.00  0.00     0.173 A 
ATOM     74  F   UNL A   1      38.180  32.331  37.916  1.00  0.00    -0.203 F 
ATOM     75  C   UNL A   1      38.642  34.339  39.056  1.00  0.00     0.198 A 
ATOM     76  C   UNL A   1      40.054  35.992  38.043  1.00  0.00     0.198 A 
ATOM     77  F   UNL A   1      40.944  35.622  35.896  1.00  0.00    -0.203 F 
ATOM     78  F   UNL A   1      37.859  33.942  40.070  1.00  0.00    -0.200 F 
ATOM     79  C   UNL A   1      39.271  35.573  39.107  1.00  0.00     0.200 A 
ATOM     80  F   UNL A   1      40.677  37.177  38.096  1.00  0.00    -0.200 F 
ATOM     81  F   UNL A   1      39.114  36.363  40.179  1.00  0.00    -0.200 F 
ENDBRANCH  47  71
BRANCH  59  82
ATOM     82  C   UNL A   1      43.999  28.829  35.103  1.00  0.00     0.064 A 
ATOM     83  C   UNL A   1      43.877  27.728  35.963  1.00  0.00     0.173 A 
ATOM     84  C   UNL A   1      45.284  29.342  34.871  1.00  0.00     0.173 A 
ATOM     85  F   UNL A   1      42.668  27.209  36.229  1.00  0.00    -0.203 F 
ATOM     86  C   UNL A   1      44.995  27.183  36.589  1.00  0.00     0.198 A 
ATOM     87  C   UNL A   1      46.403  28.771  35.469  1.00  0.00     0.198 A 
ATOM     88  F   UNL A   1      45.458  30.389  34.050  1.00  0.00    -0.203 F 
ATOM     89  F   UNL A   1      44.848  26.165  37.448  1.00  0.00    -0.200 F 
ATOM     90  C   UNL A   1      46.257  27.698  36.335  1.00  0.00     0.200 A 
ATOM     91  F   UNL A   1      47.624  29.259  35.208  1.00  0.00    -0.200 F 
ATOM     92  F   UNL A   1      47.332  27.163  36.928  1.00  0.00    -0.200 F 
ENDBRANCH  59  82
ENDBRANCH  33  34
ENDBRANCH  25  28
ENDBRANCH  23  24
ENDBRANCH   1  23
TORSDOF 12
ENDMDL
MODEL 3
REMARK VINA RESULT:     -12.6      4.096     10.839
REMARK SMILES Cn1ccc(NC(=O)[C@@H]2CCCC[C@@H]2C(=O)NCCCNC(=O)c2ccc(-c3c4nc(c(-c5c(F)c(F)c(F)c(F)c5F)c5ccc([nH]5)c(-c5c(F)c(F)c(F)c(F)c5F)c5nc(c(-c6c(F)c(F)c(F)c(F)c6F)c6ccc3[nH]6)C=C5)C=C4)cc2)n1
REMARK SMILES IDX 19 1 18 2 17 3 15 4 16 5 14 7 9 8 10 9 11 10 13 11 12 12
REMARK SMILES IDX 7 13 6 14 8 16 5 17 1 18 2 19 3 20 87 21 4 22 20 23 21 24
REMARK SMILES IDX 22 25 23 27 24 28 25 29 86 30 26 31 85 32 27 33 28 34 29 35
REMARK SMILES IDX 79 36 30 37 84 38 78 39 80 40 31 41 83 42 77 43 76 44 32 46
REMARK SMILES IDX 64 47 44 48 63 49 45 50 48 51 62 52 81 53 46 54 47 55 61 57
REMARK SMILES IDX 82 58 49 59 33 60 34 61 42 62 35 63 36 64 40 65 43 66 37 67
REMARK SMILES IDX 38 68 41 69 39 70 65 71 66 72 74 73 67 74 68 75 72 76 75 77
REMARK SMILES IDX 69 78 70 79 73 80 71 81 50 82 51 83 59 84 52 85 53 86 57 87
REMARK SMILES IDX 60 88 54 89 55 90 58 91 56 92
REMARK H PARENT 17 6 6 15 21 26 80 45 48 56
REMARK Flexibility Score: inf
ROOT
ATOM      1  C   UNL A   1      34.493  33.328  29.513  1.00  0.00     0.042 C 
ENDROOT
BRANCH   1   2
ATOM      2  C   UNL A   1      35.874  33.727  30.008  1.00  0.00     0.117 C 
BRANCH   2   3
ATOM      3  N   UNL A   1      35.777  34.501  31.219  1.00  0.00    -0.356 N 
ATOM      4  C   UNL A   1      36.567  34.518  32.322  1.00  0.00     0.223 C 
ATOM      5  O   UNL A   1      36.239  35.328  33.191  1.00  0.00    -0.275 OA
ATOM      6  H   UNL A   1      35.012  35.120  31.250  1.00  0.00     0.163 HD
BRANCH   4   7
ATOM      7  C   UNL A   1      37.836  33.650  32.421  1.00  0.00     0.091 C 
ATOM      8  C   UNL A   1      37.815  32.414  33.359  1.00  0.00     0.091 C 
ATOM      9  C   UNL A   1      37.441  32.885  34.775  1.00  0.00     0.014 C 
ATOM     10  C   UNL A   1      38.517  33.820  35.326  1.00  0.00     0.001 C 
ATOM     11  C   UNL A   1      39.017  34.530  32.904  1.00  0.00     0.014 C 
ATOM     12  C   UNL A   1      38.902  34.953  34.375  1.00  0.00     0.001 C 
BRANCH   8  13
ATOM     13  C   UNL A   1      37.051  31.146  32.957  1.00  0.00     0.229 C 
ATOM     14  N   UNL A   1      37.581  29.893  33.071  1.00  0.00    -0.309 N 
ATOM     15  H   UNL A   1      36.996  29.158  32.777  1.00  0.00     0.171 HD
ATOM     16  O   UNL A   1      35.902  31.212  32.501  1.00  0.00    -0.274 OA
BRANCH  14  17
ATOM     17  C   UNL A   1      38.814  29.517  33.540  1.00  0.00     0.154 A 
ATOM     18  C   UNL A   1      41.440  29.840  35.794  1.00  0.00     0.173 C 
ATOM     19  N   UNL A   1      40.584  29.473  34.692  1.00  0.00    -0.274 N 
ATOM     20  C   UNL A   1      40.954  28.949  33.491  1.00  0.00     0.110 A 
ATOM     21  N   UNL A   1      39.279  29.779  34.757  1.00  0.00    -0.155 NA
ATOM     22  C   UNL A   1      39.802  28.893  32.739  1.00  0.00     0.068 A 
ENDBRANCH  14  17
ENDBRANCH   8  13
ENDBRANCH   4   7
ENDBRANCH   2   3
ENDBRANCH   1   2
BRANCH   1  23
ATOM     23  C   UNL A   1      34.491  32.895  28.060  1.00  0.00     0.118 C 
BRANCH  23  24
ATOM     24  N   UNL A   1      33.711  31.682  27.857  1.00  0.00    -0.352 N 
ATOM     25  C   UNL A   1      34.128  30.383  27.733  1.00  0.00     0.251 C 
ATOM     26  H   UNL A   1      32.737  31.815  27.801  1.00  0.00     0.163 HD
ATOM     27  O   UNL A   1      33.333  29.525  27.351  1.00  0.00    -0.269 OA
BRANCH  25  28
ATOM     28  C   UNL A   1      35.528  30.014  28.032  1.00  0.00     0.039 A 
ATOM     29  C   UNL A   1      36.476  30.078  27.008  1.00  0.00     0.014 A 
ATOM     30  C   UNL A   1      35.908  29.593  29.309  1.00  0.00     0.014 A 
ATOM     31  C   UNL A   1      37.811  29.778  27.281  1.00  0.00     0.010 A 
ATOM     32  C   UNL A   1      37.252  29.403  29.605  1.00  0.00     0.010 A 
ATOM     33  C   UNL A   1      38.216  29.475  28.591  1.00  0.00    -0.014 A 
BRANCH  33  34
ATOM     34  C   UNL A   1      39.637  29.207  28.919  1.00  0.00     0.031 A 
ATOM     35  C   UNL A   1      40.443  30.238  29.660  1.00  0.00     0.074 A 
ATOM     36  C   UNL A   1      40.217  28.069  28.492  1.00  0.00     0.049 A 
ATOM     37  N   UNL A   1      41.714  30.227  29.976  1.00  0.00    -0.248 NA
ATOM     38  C   UNL A   1      39.736  31.460  30.076  1.00  0.00     0.031 C 
ATOM     39  C   UNL A   1      39.552  27.019  27.719  1.00  0.00     0.029 A 
ATOM     40  N   UNL A   1      41.500  27.608  28.639  1.00  0.00    -0.354 N 
ATOM     41  C   UNL A   1      41.956  31.441  30.605  1.00  0.00     0.074 A 
ATOM     42  C   UNL A   1      40.721  32.192  30.572  1.00  0.00     0.031 C 
ATOM     43  C   UNL A   1      40.422  26.025  27.486  1.00  0.00     0.029 A 
ATOM     44  C   UNL A   1      41.718  26.385  28.051  1.00  0.00     0.049 A 
ATOM     45  H   UNL A   1      42.200  28.106  29.120  1.00  0.00     0.167 HD
ATOM     46  C   UNL A   1      43.101  31.881  31.181  1.00  0.00     0.037 A 
ATOM     47  C   UNL A   1      42.840  25.646  27.969  1.00  0.00     0.037 A 
ATOM     48  C   UNL A   1      44.319  31.115  31.233  1.00  0.00     0.049 A 
ATOM     49  C   UNL A   1      44.101  26.163  28.609  1.00  0.00     0.074 A 
ATOM     50  C   UNL A   1      45.514  31.438  31.850  1.00  0.00     0.029 A 
ATOM     51  N   UNL A   1      44.496  29.873  30.639  1.00  0.00    -0.354 N 
ATOM     52  N   UNL A   1      44.299  27.278  29.269  1.00  0.00    -0.248 NA
ATOM     53  C   UNL A   1      45.294  25.313  28.496  1.00  0.00     0.031 C 
ATOM     54  C   UNL A   1      46.433  30.419  31.578  1.00  0.00     0.029 A 
ATOM     55  C   UNL A   1      45.792  29.431  30.849  1.00  0.00     0.049 A 
ATOM     56  H   UNL A   1      43.804  29.381  30.141  1.00  0.00     0.167 HD
ATOM     57  C   UNL A   1      45.626  27.249  29.676  1.00  0.00     0.074 A 
ATOM     58  C   UNL A   1      46.181  25.998  29.203  1.00  0.00     0.031 C 
ATOM     59  C   UNL A   1      46.323  28.176  30.380  1.00  0.00     0.037 A 
BRANCH  46  60
ATOM     60  C   UNL A   1      43.091  33.249  31.801  1.00  0.00     0.064 A 
ATOM     61  C   UNL A   1      43.452  34.394  31.075  1.00  0.00     0.173 A 
ATOM     62  C   UNL A   1      42.679  33.421  33.132  1.00  0.00     0.173 A 
ATOM     63  F   UNL A   1      43.864  34.285  29.803  1.00  0.00    -0.203 F 
ATOM     64  C   UNL A   1      43.433  35.655  31.666  1.00  0.00     0.198 A 
ATOM     65  C   UNL A   1      42.628  34.687  33.709  1.00  0.00     0.198 A 
ATOM     66  F   UNL A   1      42.318  32.362  33.872  1.00  0.00    -0.203 F 
ATOM     67  F   UNL A   1      43.835  36.726  30.968  1.00  0.00    -0.200 F 
ATOM     68  C   UNL A   1      43.012  35.801  32.979  1.00  0.00     0.200 A 
ATOM     69  F   UNL A   1      42.206  34.829  34.974  1.00  0.00    -0.200 F 
ATOM     70  F   UNL A   1      42.986  37.017  33.544  1.00  0.00    -0.200 F 
ENDBRANCH  46  60
BRANCH  47  71
ATOM     71  C   UNL A   1      42.818  24.331  27.276  1.00  0.00     0.064 A 
ATOM     72  C   UNL A   1      42.484  23.158  27.968  1.00  0.00     0.173 A 
ATOM     73  C   UNL A   1      43.137  24.214  25.915  1.00  0.00     0.173 A 
ATOM     74  F   UNL A   1      42.189  23.213  29.275  1.00  0.00    -0.203 F 
ATOM     75  C   UNL A   1      42.497  21.918  27.333  1.00  0.00     0.198 A 
ATOM     76  C   UNL A   1      43.118  22.977  25.273  1.00  0.00     0.198 A 
ATOM     77  F   UNL A   1      43.458  25.305  25.204  1.00  0.00    -0.203 F 
ATOM     78  F   UNL A   1      42.225  20.807  28.033  1.00  0.00    -0.200 F 
ATOM     79  C   UNL A   1      42.808  21.829  25.985  1.00  0.00     0.200 A 
ATOM     80  F   UNL A   1      43.403  22.899  23.966  1.00  0.00    -0.200 F 
ATOM     81  F   UNL A   1      42.817  20.636  25.375  1.00  0.00    -0.200 F 
ENDBRANCH  47  71
BRANCH  59  82
ATOM     82  C   UNL A   1      47.750  27.853  30.720  1.00  0.00     0.064 A 
ATOM     83  C   UNL A   1      48.812  28.225  29.884  1.00  0.00     0.173 A 
ATOM     84  C   UNL A   1      48.060  27.201  31.924  1.00  0.00     0.173 A 
ATOM     85  F   UNL A   1      48.570  28.838  28.715  1.00  0.00    -0.203 F 
ATOM     86  C   UNL A   1      50.129  27.930  30.227  1.00  0.00     0.198 A 
ATOM     87  C   UNL A   1      49.379  26.941  32.281  1.00  0.00     0.198 A 
ATOM     88  F   UNL A   1      47.081  26.831  32.765  1.00  0.00    -0.203 F 
ATOM     89  F   UNL A   1      51.125  28.248  29.387  1.00  0.00    -0.200 F 
ATOM     90  C   UNL A   1      50.412  27.298  31.427  1.00  0.00     0.200 A 
ATOM     91  F   UNL A   1      49.651  26.346  33.450  1.00  0.00    -0.200 F 
ATOM     92  F   UNL A   1      51.681  27.026  31.761  1.00  0.00    -0.200 F 
ENDBRANCH  59  82
ENDBRANCH  33  34
ENDBRANCH  25  28
ENDBRANCH  23  24
ENDBRANCH   1  23
TORSDOF 12
ENDMDL
