MODEL 1
REMARK VINA RESULT:     -12.0      0.000      0.000
REMARK SMILES C[C@H](CC(=O)NCCCNC(=O)c1ccc(-c2c3nc(c(-c4c(F)c(F)c(F)c(F)c4F)c4ccc([nH]4)c(-c4c(F)c(F)c(F)c(F)c4F)c4nc(c(-c5c(F)c(F)c(F)c(F)c5F)c5ccc2[nH]5)C=C4)C=C3)cc1)NC(=O)Cn1nc2ccccn2c1=O
REMARK SMILES IDX 7 1 6 2 4 3 5 4 3 6 2 7 1 8 76 9 77 10 78 12 79 13 80 14
REMARK SMILES IDX 81 15 88 16 82 17 87 18 89 19 83 20 86 21 84 22 85 23 8 24
REMARK SMILES IDX 9 25 10 26 11 27 12 29 13 30 14 31 75 32 15 33 74 34 16 35
REMARK SMILES IDX 17 36 18 37 68 38 19 39 73 40 67 41 69 42 20 43 72 44 66 45
REMARK SMILES IDX 65 46 21 48 53 49 33 50 52 51 34 52 37 53 51 54 70 55 35 56
REMARK SMILES IDX 36 57 50 59 71 60 38 61 22 62 23 63 31 64 24 65 25 66 29 67
REMARK SMILES IDX 32 68 26 69 27 70 30 71 28 72 54 73 55 74 63 75 56 76 57 77
REMARK SMILES IDX 61 78 64 79 58 80 59 81 62 82 60 83 39 84 40 85 48 86 41 87
REMARK SMILES IDX 42 88 46 89 49 90 43 91 44 92 47 93 45 94
REMARK H PARENT 6 5 76 11 10 28 69 47 37 58
REMARK Flexibility Score: inf
ROOT
ATOM      1  C   UNL A   1      31.407  30.173  26.060  1.00  0.00     0.117 C 
ENDROOT
BRANCH   1   2
ATOM      2  N   UNL A   1      32.132  29.922  24.827  1.00  0.00    -0.356 N 
ATOM      3  C   UNL A   1      33.137  29.044  24.566  1.00  0.00     0.222 C 
ATOM      4  O   UNL A   1      33.688  29.110  23.465  1.00  0.00    -0.275 OA
ATOM      5  H   UNL A   1      31.853  30.473  24.061  1.00  0.00     0.163 HD
BRANCH   3   6
ATOM      6  C   UNL A   1      33.547  28.000  25.584  1.00  0.00     0.124 C 
BRANCH   6   7
ATOM      7  C   UNL A   1      33.170  26.545  25.253  1.00  0.00     0.088 C 
ATOM      8  C   UNL A   1      34.344  25.580  25.406  1.00  0.00     0.031 C 
BRANCH   7   9
ATOM      9  N   UNL A   1      32.033  26.076  26.037  1.00  0.00    -0.352 N 
ATOM     10  C   UNL A   1      30.747  25.807  25.668  1.00  0.00     0.242 C 
ATOM     11  H   UNL A   1      32.227  25.927  26.992  1.00  0.00     0.163 HD
ATOM     12  O   UNL A   1      29.900  25.777  26.565  1.00  0.00    -0.273 OA
BRANCH  10  13
ATOM     13  C   UNL A   1      30.395  25.503  24.219  1.00  0.00     0.249 C 
BRANCH  13  14
ATOM     14  N   UNL A   1      29.777  26.565  23.459  1.00  0.00    -0.203 N 
ATOM     15  N   UNL A   1      30.527  27.552  22.830  1.00  0.00    -0.149 NA
ATOM     16  C   UNL A   1      28.456  27.006  23.635  1.00  0.00     0.350 A 
ATOM     17  C   UNL A   1      29.677  28.516  22.651  1.00  0.00     0.161 A 
ATOM     18  N   UNL A   1      28.415  28.252  23.075  1.00  0.00    -0.250 N 
ATOM     19  O   UNL A   1      27.559  26.449  24.254  1.00  0.00    -0.246 OA
ATOM     20  C   UNL A   1      29.930  29.868  22.057  1.00  0.00     0.050 A 
ATOM     21  C   UNL A   1      27.384  29.147  23.066  1.00  0.00     0.098 A 
ATOM     22  C   UNL A   1      29.045  30.801  22.477  1.00  0.00     0.005 A 
ATOM     23  C   UNL A   1      27.659  30.420  22.755  1.00  0.00     0.019 A 
ENDBRANCH  13  14
ENDBRANCH  10  13
ENDBRANCH   7   9
ENDBRANCH   6   7
ENDBRANCH   3   6
ENDBRANCH   1   2
BRANCH   1  24
ATOM     24  C   UNL A   1      31.347  31.666  26.361  1.00  0.00     0.042 C 
BRANCH  24  25
ATOM     25  C   UNL A   1      32.647  32.252  26.882  1.00  0.00     0.118 C 
BRANCH  25  26
ATOM     26  N   UNL A   1      32.499  33.620  27.338  1.00  0.00    -0.352 N 
ATOM     27  C   UNL A   1      33.154  34.290  28.341  1.00  0.00     0.251 C 
ATOM     28  H   UNL A   1      31.825  34.151  26.854  1.00  0.00     0.163 HD
ATOM     29  O   UNL A   1      32.734  35.382  28.710  1.00  0.00    -0.269 OA
BRANCH  27  30
ATOM     30  C   UNL A   1      34.351  33.707  28.992  1.00  0.00     0.039 A 
ATOM     31  C   UNL A   1      34.182  32.613  29.846  1.00  0.00     0.014 A 
ATOM     32  C   UNL A   1      35.627  34.246  28.808  1.00  0.00     0.014 A 
ATOM     33  C   UNL A   1      35.291  32.040  30.474  1.00  0.00     0.010 A 
ATOM     34  C   UNL A   1      36.742  33.609  29.345  1.00  0.00     0.010 A 
ATOM     35  C   UNL A   1      36.586  32.513  30.205  1.00  0.00    -0.014 A 
BRANCH  35  36
ATOM     36  C   UNL A   1      37.776  31.891  30.841  1.00  0.00     0.031 A 
ATOM     37  C   UNL A   1      38.202  32.308  32.225  1.00  0.00     0.074 A 
ATOM     38  C   UNL A   1      38.495  30.977  30.163  1.00  0.00     0.049 A 
ATOM     39  N   UNL A   1      39.223  31.901  32.937  1.00  0.00    -0.248 NA
ATOM     40  C   UNL A   1      37.388  33.340  32.888  1.00  0.00     0.031 C 
ATOM     41  C   UNL A   1      38.216  30.524  28.800  1.00  0.00     0.029 A 
ATOM     42  N   UNL A   1      39.609  30.261  30.527  1.00  0.00    -0.354 N 
ATOM     43  C   UNL A   1      39.176  32.630  34.119  1.00  0.00     0.074 A 
ATOM     44  C   UNL A   1      38.071  33.554  34.002  1.00  0.00     0.031 C 
ATOM     45  C   UNL A   1      39.108  29.581  28.457  1.00  0.00     0.029 A 
ATOM     46  C   UNL A   1      40.049  29.395  29.556  1.00  0.00     0.049 A 
ATOM     47  H   UNL A   1      40.050  30.360  31.402  1.00  0.00     0.167 HD
ATOM     48  C   UNL A   1      39.964  32.519  35.215  1.00  0.00     0.037 A 
ATOM     49  C   UNL A   1      41.096  28.548  29.553  1.00  0.00     0.037 A 
ATOM     50  C   UNL A   1      41.053  31.584  35.334  1.00  0.00     0.049 A 
ATOM     51  C   UNL A   1      41.969  28.459  30.776  1.00  0.00     0.074 A 
ATOM     52  C   UNL A   1      41.881  31.358  36.420  1.00  0.00     0.029 A 
ATOM     53  N   UNL A   1      41.469  30.724  34.329  1.00  0.00    -0.354 N 
ATOM     54  N   UNL A   1      41.872  29.103  31.913  1.00  0.00    -0.248 NA
ATOM     55  C   UNL A   1      43.094  27.516  30.716  1.00  0.00     0.031 C 
ATOM     56  C   UNL A   1      42.834  30.404  36.051  1.00  0.00     0.029 A 
ATOM     57  C   UNL A   1      42.560  29.984  34.759  1.00  0.00     0.049 A 
ATOM     58  H   UNL A   1      41.051  30.649  33.441  1.00  0.00     0.167 HD
ATOM     59  C   UNL A   1      42.901  28.623  32.714  1.00  0.00     0.074 A 
ATOM     60  C   UNL A   1      43.596  27.617  31.939  1.00  0.00     0.031 C 
ATOM     61  C   UNL A   1      43.239  28.982  33.978  1.00  0.00     0.037 A 
BRANCH  48  62
ATOM     62  C   UNL A   1      39.676  33.431  36.375  1.00  0.00     0.064 A 
ATOM     63  C   UNL A   1      38.802  33.059  37.408  1.00  0.00     0.173 A 
ATOM     64  C   UNL A   1      40.310  34.680  36.475  1.00  0.00     0.173 A 
ATOM     65  F   UNL A   1      38.161  31.881  37.359  1.00  0.00    -0.203 F 
ATOM     66  C   UNL A   1      38.545  33.914  38.477  1.00  0.00     0.198 A 
ATOM     67  C   UNL A   1      40.078  35.518  37.563  1.00  0.00     0.198 A 
ATOM     68  F   UNL A   1      41.160  35.086  35.521  1.00  0.00    -0.203 F 
ATOM     69  F   UNL A   1      37.663  33.558  39.421  1.00  0.00    -0.200 F 
ATOM     70  C   UNL A   1      39.190  35.139  38.558  1.00  0.00     0.200 A 
ATOM     71  F   UNL A   1      40.715  36.693  37.649  1.00  0.00    -0.200 F 
ATOM     72  F   UNL A   1      38.950  35.957  39.592  1.00  0.00    -0.200 F 
ENDBRANCH  48  62
BRANCH  49  73
ATOM     73  C   UNL A   1      41.363  27.699  28.361  1.00  0.00     0.064 A 
ATOM     74  C   UNL A   1      42.250  28.121  27.358  1.00  0.00     0.173 A 
ATOM     75  C   UNL A   1      40.731  26.459  28.189  1.00  0.00     0.173 A 
ATOM     76  F   UNL A   1      42.863  29.308  27.465  1.00  0.00    -0.203 F 
ATOM     77  C   UNL A   1      42.472  27.348  26.222  1.00  0.00     0.198 A 
ATOM     78  C   UNL A   1      40.981  25.671  27.069  1.00  0.00     0.198 A 
ATOM     79  F   UNL A   1      39.877  26.006  29.119  1.00  0.00    -0.203 F 
ATOM     80  F   UNL A   1      43.281  27.801  25.254  1.00  0.00    -0.200 F 
ATOM     81  C   UNL A   1      41.843  26.120  26.080  1.00  0.00     0.200 A 
ATOM     82  F   UNL A   1      40.383  24.479  26.943  1.00  0.00    -0.200 F 
ATOM     83  F   UNL A   1      42.059  25.376  24.987  1.00  0.00    -0.200 F 
ENDBRANCH  49  73
BRANCH  61  84
ATOM     84  C   UNL A   1      44.387  28.253  34.616  1.00  0.00     0.064 A 
ATOM     85  C   UNL A   1      44.203  27.056  35.324  1.00  0.00     0.173 A 
ATOM     86  C   UNL A   1      45.696  28.746  34.493  1.00  0.00     0.173 A 
ATOM     87  F   UNL A   1      42.971  26.547  35.482  1.00  0.00    -0.203 F 
ATOM     88  C   UNL A   1      45.280  26.401  35.916  1.00  0.00     0.198 A 
ATOM     89  C   UNL A   1      46.774  28.068  35.054  1.00  0.00     0.198 A 
ATOM     90  F   UNL A   1      45.929  29.882  33.818  1.00  0.00    -0.203 F 
ATOM     91  F   UNL A   1      45.071  25.293  36.640  1.00  0.00    -0.200 F 
ATOM     92  C   UNL A   1      46.564  26.904  35.774  1.00  0.00     0.200 A 
ATOM     93  F   UNL A   1      48.017  28.547  34.899  1.00  0.00    -0.200 F 
ATOM     94  F   UNL A   1      47.600  26.269  36.339  1.00  0.00    -0.200 F 
ENDBRANCH  61  84
ENDBRANCH  35  36
ENDBRANCH  27  30
ENDBRANCH  25  26
ENDBRANCH  24  25
ENDBRANCH   1  24
TORSDOF 14
ENDMDL
MODEL 2
REMARK VINA RESULT:     -12.0      1.699      3.430
REMARK SMILES C[C@H](CC(=O)NCCCNC(=O)c1ccc(-c2c3nc(c(-c4c(F)c(F)c(F)c(F)c4F)c4ccc([nH]4)c(-c4c(F)c(F)c(F)c(F)c4F)c4nc(c(-c5c(F)c(F)c(F)c(F)c5F)c5ccc2[nH]5)C=C4)C=C3)cc1)NC(=O)Cn1nc2ccccn2c1=O
REMARK SMILES IDX 7 1 6 2 4 3 5 4 3 6 2 7 1 8 76 9 77 10 78 12 79 13 80 14
REMARK SMILES IDX 81 15 88 16 82 17 87 18 89 19 83 20 86 21 84 22 85 23 8 24
REMARK SMILES IDX 9 25 10 26 11 27 12 29 13 30 14 31 75 32 15 33 74 34 16 35
REMARK SMILES IDX 17 36 18 37 68 38 19 39 73 40 67 41 69 42 20 43 72 44 66 45
REMARK SMILES IDX 65 46 21 48 53 49 33 50 52 51 34 52 37 53 51 54 70 55 35 56
REMARK SMILES IDX 36 57 50 59 71 60 38 61 22 62 23 63 31 64 24 65 25 66 29 67
REMARK SMILES IDX 32 68 26 69 27 70 30 71 28 72 54 73 55 74 63 75 56 76 57 77
REMARK SMILES IDX 61 78 64 79 58 80 59 81 62 82 60 83 39 84 40 85 48 86 41 87
REMARK SMILES IDX 42 88 46 89 49 90 43 91 44 92 47 93 45 94
REMARK H PARENT 6 5 76 11 10 28 69 47 37 58
REMARK Flexibility Score: inf
ROOT
ATOM      1  C   UNL A   1      31.400  30.699  25.930  1.00  0.00     0.117 C 
ENDROOT
BRANCH   1   2
ATOM      2  N   UNL A   1      31.663  29.741  26.990  1.00  0.00    -0.356 N 
ATOM      3  C   UNL A   1      31.539  28.386  26.995  1.00  0.00     0.222 C 
ATOM      4  O   UNL A   1      31.695  27.797  28.067  1.00  0.00    -0.275 OA
ATOM      5  H   UNL A   1      31.980  30.132  27.835  1.00  0.00     0.163 HD
BRANCH   3   6
ATOM      6  C   UNL A   1      31.246  27.624  25.720  1.00  0.00     0.124 C 
BRANCH   6   7
ATOM      7  C   UNL A   1      31.893  26.232  25.597  1.00  0.00     0.088 C 
ATOM      8  C   UNL A   1      33.417  26.278  25.692  1.00  0.00     0.031 C 
BRANCH   7   9
ATOM      9  N   UNL A   1      31.361  25.287  26.571  1.00  0.00    -0.352 N 
ATOM     10  C   UNL A   1      30.832  24.040  26.405  1.00  0.00     0.242 C 
ATOM     11  H   UNL A   1      31.388  25.600  27.505  1.00  0.00     0.163 HD
ATOM     12  O   UNL A   1      30.130  23.600  27.319  1.00  0.00    -0.273 OA
BRANCH  10  13
ATOM     13  C   UNL A   1      31.148  23.213  25.167  1.00  0.00     0.249 C 
BRANCH  13  14
ATOM     14  N   UNL A   1      32.521  22.801  24.989  1.00  0.00    -0.203 N 
ATOM     15  N   UNL A   1      33.430  22.791  26.041  1.00  0.00    -0.149 NA
ATOM     16  C   UNL A   1      33.207  22.825  23.765  1.00  0.00     0.350 A 
ATOM     17  C   UNL A   1      34.584  22.807  25.450  1.00  0.00     0.161 A 
ATOM     18  N   UNL A   1      34.534  22.795  24.094  1.00  0.00    -0.250 N 
ATOM     19  O   UNL A   1      32.732  22.958  22.644  1.00  0.00    -0.246 OA
ATOM     20  C   UNL A   1      35.941  22.854  26.084  1.00  0.00     0.050 A 
ATOM     21  C   UNL A   1      35.617  22.895  23.271  1.00  0.00     0.098 A 
ATOM     22  C   UNL A   1      36.882  23.386  25.270  1.00  0.00     0.005 A 
ATOM     23  C   UNL A   1      36.805  23.171  23.824  1.00  0.00     0.019 A 
ENDBRANCH  13  14
ENDBRANCH  10  13
ENDBRANCH   7   9
ENDBRANCH   6   7
ENDBRANCH   3   6
ENDBRANCH   1   2
BRANCH   1  24
ATOM     24  C   UNL A   1      31.338  32.118  26.484  1.00  0.00     0.042 C 
BRANCH  24  25
ATOM     25  C   UNL A   1      32.610  32.576  27.174  1.00  0.00     0.118 C 
BRANCH  25  26
ATOM     26  N   UNL A   1      32.519  33.937  27.664  1.00  0.00    -0.352 N 
ATOM     27  C   UNL A   1      33.219  34.561  28.667  1.00  0.00     0.251 C 
ATOM     28  H   UNL A   1      31.852  34.501  27.209  1.00  0.00     0.163 HD
ATOM     29  O   UNL A   1      32.844  35.657  29.071  1.00  0.00    -0.269 OA
BRANCH  27  30
ATOM     30  C   UNL A   1      34.410  33.923  29.276  1.00  0.00     0.039 A 
ATOM     31  C   UNL A   1      34.217  32.898  30.207  1.00  0.00     0.014 A 
ATOM     32  C   UNL A   1      35.707  34.347  28.978  1.00  0.00     0.014 A 
ATOM     33  C   UNL A   1      35.319  32.276  30.798  1.00  0.00     0.010 A 
ATOM     34  C   UNL A   1      36.804  33.654  29.482  1.00  0.00     0.010 A 
ATOM     35  C   UNL A   1      36.625  32.627  30.418  1.00  0.00    -0.014 A 
BRANCH  35  36
ATOM     36  C   UNL A   1      37.806  31.951  31.015  1.00  0.00     0.031 A 
ATOM     37  C   UNL A   1      38.266  32.312  32.404  1.00  0.00     0.074 A 
ATOM     38  C   UNL A   1      38.485  31.035  30.298  1.00  0.00     0.049 A 
ATOM     39  N   UNL A   1      39.285  31.852  33.086  1.00  0.00    -0.248 NA
ATOM     40  C   UNL A   1      37.495  33.348  33.110  1.00  0.00     0.031 C 
ATOM     41  C   UNL A   1      38.171  30.633  28.927  1.00  0.00     0.029 A 
ATOM     42  N   UNL A   1      39.582  30.275  30.622  1.00  0.00    -0.354 N 
ATOM     43  C   UNL A   1      39.280  32.546  34.290  1.00  0.00     0.074 A 
ATOM     44  C   UNL A   1      38.202  33.507  34.219  1.00  0.00     0.031 C 
ATOM     45  C   UNL A   1      39.027  29.674  28.541  1.00  0.00     0.029 A 
ATOM     46  C   UNL A   1      39.979  29.426  29.619  1.00  0.00     0.049 A 
ATOM     47  H   UNL A   1      40.040  30.334  31.492  1.00  0.00     0.167 HD
ATOM     48  C   UNL A   1      40.081  32.378  35.368  1.00  0.00     0.037 A 
ATOM     49  C   UNL A   1      40.999  28.548  29.572  1.00  0.00     0.037 A 
ATOM     50  C   UNL A   1      41.143  31.408  35.442  1.00  0.00     0.049 A 
ATOM     51  C   UNL A   1      41.889  28.395  30.777  1.00  0.00     0.074 A 
ATOM     52  C   UNL A   1      41.981  31.124  36.506  1.00  0.00     0.029 A 
ATOM     53  N   UNL A   1      41.516  30.566  34.404  1.00  0.00    -0.354 N 
ATOM     54  N   UNL A   1      41.830  29.008  31.935  1.00  0.00    -0.248 NA
ATOM     55  C   UNL A   1      42.982  27.420  30.671  1.00  0.00     0.031 C 
ATOM     56  C   UNL A   1      42.897  30.152  36.092  1.00  0.00     0.029 A 
ATOM     57  C   UNL A   1      42.590  29.781  34.794  1.00  0.00     0.049 A 
ATOM     58  H   UNL A   1      41.081  30.530  33.521  1.00  0.00     0.167 HD
ATOM     59  C   UNL A   1      42.855  28.472  32.703  1.00  0.00     0.074 A 
ATOM     60  C   UNL A   1      43.506  27.469  31.887  1.00  0.00     0.031 C 
ATOM     61  C   UNL A   1      43.225  28.782  33.972  1.00  0.00     0.037 A 
BRANCH  48  62
ATOM     62  C   UNL A   1      39.840  33.263  36.560  1.00  0.00     0.064 A 
ATOM     63  C   UNL A   1      40.545  34.463  36.744  1.00  0.00     0.173 A 
ATOM     64  C   UNL A   1      38.868  32.925  37.513  1.00  0.00     0.173 A 
ATOM     65  F   UNL A   1      41.494  34.830  35.869  1.00  0.00    -0.203 F 
ATOM     66  C   UNL A   1      40.311  35.273  37.853  1.00  0.00     0.198 A 
ATOM     67  C   UNL A   1      38.611  33.755  38.602  1.00  0.00     0.198 A 
ATOM     68  F   UNL A   1      38.159  31.794  37.387  1.00  0.00    -0.203 F 
ATOM     69  F   UNL A   1      41.037  36.384  38.034  1.00  0.00    -0.200 F 
ATOM     70  C   UNL A   1      39.338  34.922  38.776  1.00  0.00     0.200 A 
ATOM     71  F   UNL A   1      37.658  33.424  39.485  1.00  0.00    -0.200 F 
ATOM     72  F   UNL A   1      39.107  35.707  39.838  1.00  0.00    -0.200 F 
ENDBRANCH  48  62
BRANCH  49  73
ATOM     73  C   UNL A   1      41.221  27.727  28.351  1.00  0.00     0.064 A 
ATOM     74  C   UNL A   1      40.561  26.502  28.175  1.00  0.00     0.173 A 
ATOM     75  C   UNL A   1      42.105  28.140  27.344  1.00  0.00     0.173 A 
ATOM     76  F   UNL A   1      39.721  26.053  29.120  1.00  0.00    -0.203 F 
ATOM     77  C   UNL A   1      40.796  25.712  27.053  1.00  0.00     0.198 A 
ATOM     78  C   UNL A   1      42.313  27.365  26.206  1.00  0.00     0.198 A 
ATOM     79  F   UNL A   1      42.760  29.305  27.460  1.00  0.00    -0.203 F 
ATOM     80  F   UNL A   1      40.194  24.520  26.937  1.00  0.00    -0.200 F 
ATOM     81  C   UNL A   1      41.667  26.147  26.065  1.00  0.00     0.200 A 
ATOM     82  F   UNL A   1      43.144  27.796  25.246  1.00  0.00    -0.200 F 
ATOM     83  F   UNL A   1      41.892  25.387  24.985  1.00  0.00    -0.200 F 
ENDBRANCH  49  73
BRANCH  61  84
ATOM     84  C   UNL A   1      44.360  27.999  34.568  1.00  0.00     0.064 A 
ATOM     85  C   UNL A   1      44.152  26.778  35.226  1.00  0.00     0.173 A 
ATOM     86  C   UNL A   1      45.679  28.466  34.455  1.00  0.00     0.173 A 
ATOM     87  F   UNL A   1      42.909  26.292  35.373  1.00  0.00    -0.203 F 
ATOM     88  C   UNL A   1      45.218  26.073  35.781  1.00  0.00     0.198 A 
ATOM     89  C   UNL A   1      46.745  27.740  34.977  1.00  0.00     0.198 A 
ATOM     90  F   UNL A   1      45.935  29.624  33.827  1.00  0.00    -0.203 F 
ATOM     91  F   UNL A   1      44.987  24.940  36.459  1.00  0.00    -0.200 F 
ATOM     92  C   UNL A   1      46.513  26.551  35.649  1.00  0.00     0.200 A 
ATOM     93  F   UNL A   1      47.997  28.195  34.833  1.00  0.00    -0.200 F 
ATOM     94  F   UNL A   1      47.537  25.867  36.178  1.00  0.00    -0.200 F 
ENDBRANCH  61  84
ENDBRANCH  35  36
ENDBRANCH  27  30
ENDBRANCH  25  26
ENDBRANCH  24  25
ENDBRANCH   1  24
TORSDOF 14
ENDMDL
MODEL 3
REMARK VINA RESULT:     -11.9      5.169     10.511
REMARK SMILES C[C@H](CC(=O)NCCCNC(=O)c1ccc(-c2c3nc(c(-c4c(F)c(F)c(F)c(F)c4F)c4ccc([nH]4)c(-c4c(F)c(F)c(F)c(F)c4F)c4nc(c(-c5c(F)c(F)c(F)c(F)c5F)c5ccc2[nH]5)C=C4)C=C3)cc1)NC(=O)Cn1nc2ccccn2c1=O
REMARK SMILES IDX 7 1 6 2 4 3 5 4 3 6 2 7 1 8 76 9 77 10 78 12 79 13 80 14
REMARK SMILES IDX 81 15 88 16 82 17 87 18 89 19 83 20 86 21 84 22 85 23 8 24
REMARK SMILES IDX 9 25 10 26 11 27 12 29 13 30 14 31 75 32 15 33 74 34 16 35
REMARK SMILES IDX 17 36 18 37 68 38 19 39 73 40 67 41 69 42 20 43 72 44 66 45
REMARK SMILES IDX 65 46 21 48 53 49 33 50 52 51 34 52 37 53 51 54 70 55 35 56
REMARK SMILES IDX 36 57 50 59 71 60 38 61 22 62 23 63 31 64 24 65 25 66 29 67
REMARK SMILES IDX 32 68 26 69 27 70 30 71 28 72 54 73 55 74 63 75 56 76 57 77
REMARK SMILES IDX 61 78 64 79 58 80 59 81 62 82 60 83 39 84 40 85 48 86 41 87
REMARK SMILES IDX 42 88 46 89 49 90 43 91 44 92 47 93 45 94
REMARK H PARENT 6 5 76 11 10 28 69 47 37 58
REMARK Flexibility Score: inf
ROOT
ATOM      1  C   UNL A   1      36.435  20.109  25.004  1.00  0.00     0.117 C 
ENDROOT
BRANCH   1   2
ATOM      2  N   UNL A   1      36.475  21.435  25.597  1.00  0.00    -0.356 N 
ATOM      3  C   UNL A   1      35.489  22.154  26.199  1.00  0.00     0.222 C 
ATOM      4  O   UNL A   1      35.734  23.322  26.508  1.00  0.00    -0.275 OA
ATOM      5  H   UNL A   1      37.350  21.883  25.557  1.00  0.00     0.163 HD
BRANCH   3   6
ATOM      6  C   UNL A   1      34.143  21.530  26.505  1.00  0.00     0.124 C 
BRANCH   6   7
ATOM      7  C   UNL A   1      32.977  21.952  25.593  1.00  0.00     0.088 C 
ATOM      8  C   UNL A   1      32.809  21.034  24.383  1.00  0.00     0.031 C 
BRANCH   7   9
ATOM      9  N   UNL A   1      31.717  22.058  26.319  1.00  0.00    -0.352 N 
ATOM     10  C   UNL A   1      30.931  23.141  26.585  1.00  0.00     0.242 C 
ATOM     11  H   UNL A   1      31.376  21.205  26.675  1.00  0.00     0.163 HD
ATOM     12  O   UNL A   1      30.122  23.035  27.511  1.00  0.00    -0.273 OA
BRANCH  10  13
ATOM     13  C   UNL A   1      31.017  24.401  25.735  1.00  0.00     0.249 C 
BRANCH  13  14
ATOM     14  N   UNL A   1      31.703  25.534  26.310  1.00  0.00    -0.203 N 
ATOM     15  N   UNL A   1      31.023  26.540  26.988  1.00  0.00    -0.149 NA
ATOM     16  C   UNL A   1      32.957  26.003  25.890  1.00  0.00     0.350 A 
ATOM     17  C   UNL A   1      31.848  27.540  26.960  1.00  0.00     0.161 A 
ATOM     18  N   UNL A   1      33.034  27.287  26.351  1.00  0.00    -0.250 N 
ATOM     19  O   UNL A   1      33.765  25.432  25.169  1.00  0.00    -0.246 OA
ATOM     20  C   UNL A   1      31.636  28.923  27.497  1.00  0.00     0.050 A 
ATOM     21  C   UNL A   1      34.013  28.213  26.131  1.00  0.00     0.098 A 
ATOM     22  C   UNL A   1      32.399  29.851  26.875  1.00  0.00     0.005 A 
ATOM     23  C   UNL A   1      33.737  29.496  26.397  1.00  0.00     0.019 A 
ENDBRANCH  13  14
ENDBRANCH  10  13
ENDBRANCH   7   9
ENDBRANCH   6   7
ENDBRANCH   3   6
ENDBRANCH   1   2
BRANCH   1  24
ATOM     24  C   UNL A   1      37.844  19.581  24.763  1.00  0.00     0.042 C 
BRANCH  24  25
ATOM     25  C   UNL A   1      38.885  20.109  25.733  1.00  0.00     0.118 C 
BRANCH  25  26
ATOM     26  N   UNL A   1      40.006  19.205  25.895  1.00  0.00    -0.352 N 
ATOM     27  C   UNL A   1      41.332  19.477  26.122  1.00  0.00     0.251 C 
ATOM     28  H   UNL A   1      39.783  18.247  25.834  1.00  0.00     0.163 HD
ATOM     29  O   UNL A   1      42.159  18.575  26.017  1.00  0.00    -0.269 OA
BRANCH  27  30
ATOM     30  C   UNL A   1      41.780  20.845  26.475  1.00  0.00     0.039 A 
ATOM     31  C   UNL A   1      41.930  21.785  25.452  1.00  0.00     0.014 A 
ATOM     32  C   UNL A   1      42.096  21.200  27.789  1.00  0.00     0.014 A 
ATOM     33  C   UNL A   1      42.349  23.083  25.753  1.00  0.00     0.010 A 
ATOM     34  C   UNL A   1      42.407  22.520  28.103  1.00  0.00     0.010 A 
ATOM     35  C   UNL A   1      42.562  23.473  27.087  1.00  0.00    -0.014 A 
BRANCH  35  36
ATOM     36  C   UNL A   1      42.977  24.859  27.423  1.00  0.00     0.031 A 
ATOM     37  C   UNL A   1      44.394  25.309  27.176  1.00  0.00     0.074 A 
ATOM     38  C   UNL A   1      42.090  25.705  27.981  1.00  0.00     0.049 A 
ATOM     39  N   UNL A   1      44.951  26.467  27.425  1.00  0.00    -0.248 NA
ATOM     40  C   UNL A   1      45.314  24.317  26.598  1.00  0.00     0.031 C 
ATOM     41  C   UNL A   1      40.704  25.377  28.315  1.00  0.00     0.029 A 
ATOM     42  N   UNL A   1      42.221  27.016  28.367  1.00  0.00    -0.354 N 
ATOM     43  C   UNL A   1      46.281  26.338  27.043  1.00  0.00     0.074 A 
ATOM     44  C   UNL A   1      46.466  24.970  26.613  1.00  0.00     0.031 C 
ATOM     45  C   UNL A   1      40.101  26.466  28.818  1.00  0.00     0.029 A 
ATOM     46  C   UNL A   1      41.069  27.556  28.885  1.00  0.00     0.049 A 
ATOM     47  H   UNL A   1      43.062  27.522  28.280  1.00  0.00     0.167 HD
ATOM     48  C   UNL A   1      47.253  27.280  27.024  1.00  0.00     0.037 A 
ATOM     49  C   UNL A   1      40.823  28.790  29.364  1.00  0.00     0.037 A 
ATOM     50  C   UNL A   1      47.061  28.646  27.437  1.00  0.00     0.049 A 
ATOM     51  C   UNL A   1      41.927  29.814  29.352  1.00  0.00     0.074 A 
ATOM     52  C   UNL A   1      47.967  29.692  27.411  1.00  0.00     0.029 A 
ATOM     53  N   UNL A   1      45.879  29.155  27.958  1.00  0.00    -0.354 N 
ATOM     54  N   UNL A   1      43.160  29.698  28.923  1.00  0.00    -0.248 NA
ATOM     55  C   UNL A   1      41.599  31.143  29.882  1.00  0.00     0.031 C 
ATOM     56  C   UNL A   1      47.352  30.817  27.970  1.00  0.00     0.029 A 
ATOM     57  C   UNL A   1      46.042  30.493  28.282  1.00  0.00     0.049 A 
ATOM     58  H   UNL A   1      45.048  28.642  28.078  1.00  0.00     0.167 HD
ATOM     59  C   UNL A   1      43.745  30.945  29.103  1.00  0.00     0.074 A 
ATOM     60  C   UNL A   1      42.725  31.807  29.660  1.00  0.00     0.031 C 
ATOM     61  C   UNL A   1      45.015  31.341  28.831  1.00  0.00     0.037 A 
BRANCH  48  62
ATOM     62  C   UNL A   1      48.615  26.867  26.539  1.00  0.00     0.064 A 
ATOM     63  C   UNL A   1      49.567  26.300  27.403  1.00  0.00     0.173 A 
ATOM     64  C   UNL A   1      48.963  27.006  25.187  1.00  0.00     0.173 A 
ATOM     65  F   UNL A   1      49.292  26.154  28.708  1.00  0.00    -0.203 F 
ATOM     66  C   UNL A   1      50.824  25.922  26.939  1.00  0.00     0.198 A 
ATOM     67  C   UNL A   1      50.209  26.594  24.719  1.00  0.00     0.198 A 
ATOM     68  F   UNL A   1      48.093  27.535  24.315  1.00  0.00    -0.203 F 
ATOM     69  F   UNL A   1      51.734  25.437  27.795  1.00  0.00    -0.200 F 
ATOM     70  C   UNL A   1      51.141  26.061  25.596  1.00  0.00     0.200 A 
ATOM     71  F   UNL A   1      50.507  26.713  23.418  1.00  0.00    -0.200 F 
ATOM     72  F   UNL A   1      52.348  25.688  25.149  1.00  0.00    -0.200 F 
ENDBRANCH  48  62
BRANCH  49  73
ATOM     73  C   UNL A   1      39.468  29.135  29.874  1.00  0.00     0.064 A 
ATOM     74  C   UNL A   1      38.481  29.640  29.015  1.00  0.00     0.173 A 
ATOM     75  C   UNL A   1      39.136  28.982  31.228  1.00  0.00     0.173 A 
ATOM     76  F   UNL A   1      38.755  29.824  27.715  1.00  0.00    -0.203 F 
ATOM     77  C   UNL A   1      37.224  30.001  29.495  1.00  0.00     0.198 A 
ATOM     78  C   UNL A   1      37.868  29.312  31.700  1.00  0.00     0.198 A 
ATOM     79  F   UNL A   1      40.041  28.501  32.092  1.00  0.00    -0.203 F 
ATOM     80  F   UNL A   1      36.319  30.533  28.663  1.00  0.00    -0.200 F 
ATOM     81  C   UNL A   1      36.917  29.832  30.837  1.00  0.00     0.200 A 
ATOM     82  F   UNL A   1      37.569  29.132  32.994  1.00  0.00    -0.200 F 
ATOM     83  F   UNL A   1      35.707  30.178  31.297  1.00  0.00    -0.200 F 
ENDBRANCH  49  73
BRANCH  61  84
ATOM     84  C   UNL A   1      45.357  32.780  29.094  1.00  0.00     0.064 A 
ATOM     85  C   UNL A   1      45.913  33.198  30.313  1.00  0.00     0.173 A 
ATOM     86  C   UNL A   1      45.152  33.750  28.101  1.00  0.00     0.173 A 
ATOM     87  F   UNL A   1      46.119  32.313  31.301  1.00  0.00    -0.203 F 
ATOM     88  C   UNL A   1      46.215  34.539  30.540  1.00  0.00     0.198 A 
ATOM     89  C   UNL A   1      45.490  35.082  28.318  1.00  0.00     0.198 A 
ATOM     90  F   UNL A   1      44.632  33.403  26.914  1.00  0.00    -0.203 F 
ATOM     91  F   UNL A   1      46.686  34.923  31.734  1.00  0.00    -0.200 F 
ATOM     92  C   UNL A   1      46.010  35.477  29.540  1.00  0.00     0.200 A 
ATOM     93  F   UNL A   1      45.308  35.985  27.344  1.00  0.00    -0.200 F 
ATOM     94  F   UNL A   1      46.306  36.766  29.759  1.00  0.00    -0.200 F 
ENDBRANCH  61  84
ENDBRANCH  35  36
ENDBRANCH  27  30
ENDBRANCH  25  26
ENDBRANCH  24  25
ENDBRANCH   1  24
TORSDOF 14
ENDMDL
