MODEL 1
REMARK VINA RESULT:     -13.5      0.000      0.000
REMARK SMILES CC(C)OC(=O)c1c(NC(=O)[C@H]2[C@@H](C(=O)NCCCNC(=O)c3ccc(-c4c5nc(c(-c6c(F)c(F)c(F)c(F)c6F)c6ccc([nH]6)c(-c6c(F)c(F)c(F)c(F)c6F)c6nc(c(-c7c(F)c(F)c(F)c(F)c7F)c7ccc4[nH]7)C=C6)C=C5)cc3)[C@@H]3C=C[C@H]2CC3)sc2c1CCC2
REMARK SMILES IDX 14 1 15 2 16 3 13 5 12 6 89 7 86 8 88 9 90 10 87 11 91 12
REMARK SMILES IDX 10 13 9 14 11 16 8 17 7 18 94 19 92 20 93 21 95 22 97 23
REMARK SMILES IDX 96 24 5 25 6 26 4 27 2 28 1 29 3 30 17 31 18 32 19 33 20 34
REMARK SMILES IDX 21 35 22 37 23 38 24 39 85 40 25 41 84 42 26 43 27 44 28 45
REMARK SMILES IDX 78 46 29 47 83 48 77 49 79 50 30 51 82 52 76 53 75 54 31 56
REMARK SMILES IDX 63 57 43 58 62 59 44 60 47 61 61 62 80 63 45 64 46 65 60 67
REMARK SMILES IDX 81 68 48 69 32 70 33 71 41 72 34 73 35 74 39 75 42 76 36 77
REMARK SMILES IDX 37 78 40 79 38 80 64 81 65 82 73 83 66 84 67 85 71 86 74 87
REMARK SMILES IDX 68 88 69 89 72 90 70 91 49 92 50 93 58 94 51 95 52 96 56 97
REMARK SMILES IDX 59 98 53 99 54 100 57 101 55 102
REMARK H PARENT 16 4 9 15 20 36 79 55 47 66
REMARK Flexibility Score: inf
ROOT
ATOM      1  C   UNL A   1      34.533  24.778  25.175  1.00  0.00     0.224 C 
ATOM      2  O   UNL A   1      34.185  25.819  25.753  1.00  0.00    -0.275 OA
ATOM      3  N   UNL A   1      35.832  24.433  25.353  1.00  0.00    -0.356 N 
ATOM      4  H   UNL A   1      36.250  24.925  26.096  1.00  0.00     0.163 HD
ENDROOT
BRANCH   1   5
ATOM      5  C   UNL A   1      33.536  24.082  24.246  1.00  0.00     0.098 C 
ATOM      6  C   UNL A   1      32.001  24.319  24.564  1.00  0.00     0.099 C 
ATOM      7  C   UNL A   1      31.253  22.943  24.494  1.00  0.00     0.025 C 
ATOM      8  C   UNL A   1      33.734  22.594  23.873  1.00  0.00     0.025 C 
ATOM      9  C   UNL A   1      31.463  22.414  23.091  1.00  0.00    -0.027 C 
ATOM     10  C   UNL A   1      31.888  21.942  25.470  1.00  0.00     0.009 C 
ATOM     11  C   UNL A   1      32.752  22.253  22.761  1.00  0.00    -0.027 C 
ATOM     12  C   UNL A   1      33.349  21.707  25.084  1.00  0.00     0.009 C 
BRANCH   6  13
ATOM     13  C   UNL A   1      31.575  25.059  25.833  1.00  0.00     0.229 C 
ATOM     14  N   UNL A   1      31.051  26.337  25.796  1.00  0.00    -0.317 N 
ATOM     15  H   UNL A   1      31.090  26.833  26.644  1.00  0.00     0.170 HD
ATOM     16  O   UNL A   1      31.559  24.488  26.929  1.00  0.00    -0.274 OA
BRANCH  14  17
ATOM     17  C   UNL A   1      30.474  27.020  24.732  1.00  0.00     0.110 A 
ATOM     18  C   UNL A   1      30.968  28.181  24.125  1.00  0.00     0.098 A 
ATOM     19  C   UNL A   1      29.887  28.821  23.445  1.00  0.00    -0.017 A 
ATOM     20  S   UNL A   1      29.030  26.492  23.969  1.00  0.00    -0.122 S 
ATOM     21  C   UNL A   1      28.766  28.039  23.412  1.00  0.00     0.011 A 
ATOM     22  C   UNL A   1      29.620  30.125  22.784  1.00  0.00     0.038 C 
ATOM     23  C   UNL A   1      27.558  28.688  22.864  1.00  0.00     0.047 C 
ATOM     24  C   UNL A   1      28.056  30.157  22.718  1.00  0.00     0.010 C 
BRANCH  18  25
ATOM     25  C   UNL A   1      32.329  28.653  24.335  1.00  0.00     0.341 C 
ATOM     26  O   UNL A   1      33.035  29.018  23.393  1.00  0.00    -0.246 OA
BRANCH  25  27
ATOM     27  O   UNL A   1      32.714  28.657  25.637  1.00  0.00    -0.459 OA
BRANCH  27  28
ATOM     28  C   UNL A   1      33.281  29.859  26.212  1.00  0.00     0.170 C 
ATOM     29  C   UNL A   1      32.261  30.820  26.822  1.00  0.00     0.052 C 
ATOM     30  C   UNL A   1      34.403  29.497  27.178  1.00  0.00     0.052 C 
ENDBRANCH  27  28
ENDBRANCH  25  27
ENDBRANCH  18  25
ENDBRANCH  14  17
ENDBRANCH   6  13
ENDBRANCH   1   5
BRANCH   3  31
ATOM     31  C   UNL A   1      36.758  23.510  24.712  1.00  0.00     0.117 C 
BRANCH  31  32
ATOM     32  C   UNL A   1      37.362  22.507  25.694  1.00  0.00     0.042 C 
BRANCH  32  33
ATOM     33  C   UNL A   1      38.567  23.098  26.400  1.00  0.00     0.118 C 
BRANCH  33  34
ATOM     34  N   UNL A   1      39.781  22.316  26.140  1.00  0.00    -0.352 N 
ATOM     35  C   UNL A   1      41.087  22.743  26.073  1.00  0.00     0.251 C 
ATOM     36  H   UNL A   1      39.641  21.353  25.994  1.00  0.00     0.163 HD
ATOM     37  O   UNL A   1      41.964  22.040  25.588  1.00  0.00    -0.269 OA
BRANCH  35  38
ATOM     38  C   UNL A   1      41.401  24.088  26.571  1.00  0.00     0.039 A 
ATOM     39  C   UNL A   1      40.947  25.213  25.882  1.00  0.00     0.014 A 
ATOM     40  C   UNL A   1      42.050  24.199  27.797  1.00  0.00     0.014 A 
ATOM     41  C   UNL A   1      41.054  26.457  26.493  1.00  0.00     0.010 A 
ATOM     42  C   UNL A   1      42.025  25.405  28.457  1.00  0.00     0.010 A 
ATOM     43  C   UNL A   1      41.561  26.543  27.799  1.00  0.00    -0.014 A 
BRANCH  43  44
ATOM     44  C   UNL A   1      41.509  27.813  28.517  1.00  0.00     0.031 A 
ATOM     45  C   UNL A   1      42.592  28.794  28.203  1.00  0.00     0.074 A 
ATOM     46  C   UNL A   1      40.439  28.186  29.252  1.00  0.00     0.049 A 
ATOM     47  N   UNL A   1      43.447  29.320  29.018  1.00  0.00    -0.248 NA
ATOM     48  C   UNL A   1      42.799  29.185  26.798  1.00  0.00     0.031 C 
ATOM     49  C   UNL A   1      39.151  27.502  29.404  1.00  0.00     0.029 A 
ATOM     50  N   UNL A   1      40.240  29.352  29.922  1.00  0.00    -0.354 N 
ATOM     51  C   UNL A   1      44.214  30.217  28.271  1.00  0.00     0.074 A 
ATOM     52  C   UNL A   1      43.852  30.003  26.894  1.00  0.00     0.031 C 
ATOM     53  C   UNL A   1      38.238  28.371  29.886  1.00  0.00     0.029 A 
ATOM     54  C   UNL A   1      38.914  29.607  30.236  1.00  0.00     0.049 A 
ATOM     55  H   UNL A   1      40.974  29.961  30.164  1.00  0.00     0.167 HD
ATOM     56  C   UNL A   1      44.961  31.189  28.869  1.00  0.00     0.037 A 
ATOM     57  C   UNL A   1      38.402  30.771  30.701  1.00  0.00     0.037 A 
ATOM     58  C   UNL A   1      45.138  30.923  30.273  1.00  0.00     0.049 A 
ATOM     59  C   UNL A   1      39.530  31.560  31.260  1.00  0.00     0.074 A 
ATOM     60  C   UNL A   1      45.698  29.883  30.992  1.00  0.00     0.029 A 
ATOM     61  N   UNL A   1      44.374  31.624  31.173  1.00  0.00    -0.354 N 
ATOM     62  N   UNL A   1      40.184  31.230  32.340  1.00  0.00    -0.248 NA
ATOM     63  C   UNL A   1      40.231  32.467  30.362  1.00  0.00     0.031 C 
ATOM     64  C   UNL A   1      44.831  29.712  32.111  1.00  0.00     0.029 A 
ATOM     65  C   UNL A   1      43.850  30.701  32.041  1.00  0.00     0.049 A 
ATOM     66  H   UNL A   1      44.231  32.598  31.191  1.00  0.00     0.167 HD
ATOM     67  C   UNL A   1      41.510  31.515  32.050  1.00  0.00     0.074 A 
ATOM     68  C   UNL A   1      41.466  32.364  30.861  1.00  0.00     0.031 C 
ATOM     69  C   UNL A   1      42.530  30.806  32.616  1.00  0.00     0.037 A 
BRANCH  56  70
ATOM     70  C   UNL A   1      45.279  32.540  28.276  1.00  0.00     0.064 A 
ATOM     71  C   UNL A   1      44.231  33.451  28.021  1.00  0.00     0.173 A 
ATOM     72  C   UNL A   1      46.516  32.857  27.677  1.00  0.00     0.173 A 
ATOM     73  F   UNL A   1      43.006  33.245  28.529  1.00  0.00    -0.203 F 
ATOM     74  C   UNL A   1      44.390  34.544  27.165  1.00  0.00     0.198 A 
ATOM     75  C   UNL A   1      46.685  33.979  26.866  1.00  0.00     0.198 A 
ATOM     76  F   UNL A   1      47.572  32.039  27.758  1.00  0.00    -0.203 F 
ATOM     77  F   UNL A   1      43.332  35.304  26.850  1.00  0.00    -0.200 F 
ATOM     78  C   UNL A   1      45.616  34.802  26.582  1.00  0.00     0.200 A 
ATOM     79  F   UNL A   1      47.878  34.205  26.297  1.00  0.00    -0.200 F 
ATOM     80  F   UNL A   1      45.757  35.811  25.712  1.00  0.00    -0.200 F 
ENDBRANCH  56  70
BRANCH  57  81
ATOM     81  C   UNL A   1      37.058  31.338  30.451  1.00  0.00     0.064 A 
ATOM     82  C   UNL A   1      36.197  31.653  31.514  1.00  0.00     0.173 A 
ATOM     83  C   UNL A   1      36.684  31.817  29.180  1.00  0.00     0.173 A 
ATOM     84  F   UNL A   1      36.502  31.275  32.763  1.00  0.00    -0.203 F 
ATOM     85  C   UNL A   1      35.042  32.417  31.318  1.00  0.00     0.198 A 
ATOM     86  C   UNL A   1      35.525  32.568  28.983  1.00  0.00     0.198 A 
ATOM     87  F   UNL A   1      37.482  31.644  28.116  1.00  0.00    -0.203 F 
ATOM     88  F   UNL A   1      34.276  32.749  32.366  1.00  0.00    -0.200 F 
ATOM     89  C   UNL A   1      34.712  32.880  30.054  1.00  0.00     0.200 A 
ATOM     90  F   UNL A   1      35.237  33.038  27.761  1.00  0.00    -0.200 F 
ATOM     91  F   UNL A   1      33.635  33.660  29.877  1.00  0.00    -0.200 F 
ENDBRANCH  57  81
BRANCH  69  92
ATOM     92  C   UNL A   1      42.216  29.874  33.753  1.00  0.00     0.064 A 
ATOM     93  C   UNL A   1      41.805  28.539  33.588  1.00  0.00     0.173 A 
ATOM     94  C   UNL A   1      42.503  30.299  35.058  1.00  0.00     0.173 A 
ATOM     95  F   UNL A   1      41.619  28.015  32.372  1.00  0.00    -0.203 F 
ATOM     96  C   UNL A   1      41.644  27.690  34.682  1.00  0.00     0.198 A 
ATOM     97  C   UNL A   1      42.381  29.437  36.144  1.00  0.00     0.198 A 
ATOM     98  F   UNL A   1      42.956  31.544  35.274  1.00  0.00    -0.203 F 
ATOM     99  F   UNL A   1      41.240  26.424  34.497  1.00  0.00    -0.200 F 
ATOM    100  C   UNL A   1      41.941  28.137  35.958  1.00  0.00     0.200 A 
ATOM    101  F   UNL A   1      42.721  29.859  37.370  1.00  0.00    -0.200 F 
ATOM    102  F   UNL A   1      41.829  27.308  37.005  1.00  0.00    -0.200 F 
ENDBRANCH  69  92
ENDBRANCH  43  44
ENDBRANCH  35  38
ENDBRANCH  33  34
ENDBRANCH  32  33
ENDBRANCH  31  32
ENDBRANCH   3  31
TORSDOF 15
ENDMDL
MODEL 2
REMARK VINA RESULT:     -13.3      2.959      8.696
REMARK SMILES CC(C)OC(=O)c1c(NC(=O)[C@H]2[C@@H](C(=O)NCCCNC(=O)c3ccc(-c4c5nc(c(-c6c(F)c(F)c(F)c(F)c6F)c6ccc([nH]6)c(-c6c(F)c(F)c(F)c(F)c6F)c6nc(c(-c7c(F)c(F)c(F)c(F)c7F)c7ccc4[nH]7)C=C6)C=C5)cc3)[C@@H]3C=C[C@H]2CC3)sc2c1CCC2
REMARK SMILES IDX 14 1 15 2 16 3 13 5 12 6 89 7 86 8 88 9 90 10 87 11 91 12
REMARK SMILES IDX 10 13 9 14 11 16 8 17 7 18 94 19 92 20 93 21 95 22 97 23
REMARK SMILES IDX 96 24 5 25 6 26 4 27 2 28 1 29 3 30 17 31 18 32 19 33 20 34
REMARK SMILES IDX 21 35 22 37 23 38 24 39 85 40 25 41 84 42 26 43 27 44 28 45
REMARK SMILES IDX 78 46 29 47 83 48 77 49 79 50 30 51 82 52 76 53 75 54 31 56
REMARK SMILES IDX 63 57 43 58 62 59 44 60 47 61 61 62 80 63 45 64 46 65 60 67
REMARK SMILES IDX 81 68 48 69 32 70 33 71 41 72 34 73 35 74 39 75 42 76 36 77
REMARK SMILES IDX 37 78 40 79 38 80 64 81 65 82 73 83 66 84 67 85 71 86 74 87
REMARK SMILES IDX 68 88 69 89 72 90 70 91 49 92 50 93 58 94 51 95 52 96 56 97
REMARK SMILES IDX 59 98 53 99 54 100 57 101 55 102
REMARK H PARENT 16 4 9 15 20 36 79 55 47 66
REMARK Flexibility Score: inf
ROOT
ATOM      1  C   UNL A   1      33.507  26.793  25.324  1.00  0.00     0.224 C 
ATOM      2  O   UNL A   1      34.392  26.021  25.722  1.00  0.00    -0.275 OA
ATOM      3  N   UNL A   1      33.824  28.110  25.395  1.00  0.00    -0.356 N 
ATOM      4  H   UNL A   1      34.788  28.255  25.533  1.00  0.00     0.163 HD
ENDROOT
BRANCH   1   5
ATOM      5  C   UNL A   1      32.146  26.215  24.930  1.00  0.00     0.098 C 
ATOM      6  C   UNL A   1      32.166  25.056  23.849  1.00  0.00     0.099 C 
ATOM      7  C   UNL A   1      31.053  25.343  22.781  1.00  0.00     0.025 C 
ATOM      8  C   UNL A   1      30.966  27.162  24.610  1.00  0.00     0.025 C 
ATOM      9  C   UNL A   1      29.741  25.390  23.534  1.00  0.00    -0.027 C 
ATOM     10  C   UNL A   1      31.273  26.722  22.141  1.00  0.00     0.009 C 
ATOM     11  C   UNL A   1      29.704  26.320  24.499  1.00  0.00    -0.027 C 
ATOM     12  C   UNL A   1      31.187  27.805  23.217  1.00  0.00     0.009 C 
BRANCH   6  13
ATOM     13  C   UNL A   1      33.465  24.683  23.133  1.00  0.00     0.229 C 
ATOM     14  N   UNL A   1      34.003  23.412  23.207  1.00  0.00    -0.317 N 
ATOM     15  H   UNL A   1      34.959  23.346  22.982  1.00  0.00     0.170 HD
ATOM     16  O   UNL A   1      34.011  25.469  22.351  1.00  0.00    -0.274 OA
BRANCH  14  17
ATOM     17  C   UNL A   1      33.388  22.215  23.551  1.00  0.00     0.110 A 
ATOM     18  C   UNL A   1      33.617  21.469  24.714  1.00  0.00     0.098 A 
ATOM     19  C   UNL A   1      33.191  20.126  24.471  1.00  0.00    -0.017 A 
ATOM     20  S   UNL A   1      32.192  21.474  22.568  1.00  0.00    -0.122 S 
ATOM     21  C   UNL A   1      32.520  20.007  23.286  1.00  0.00     0.011 A 
ATOM     22  C   UNL A   1      33.302  18.800  25.132  1.00  0.00     0.038 C 
ATOM     23  C   UNL A   1      32.182  18.626  22.886  1.00  0.00     0.047 C 
ATOM     24  C   UNL A   1      32.955  17.812  23.967  1.00  0.00     0.010 C 
BRANCH  18  25
ATOM     25  C   UNL A   1      34.313  22.016  25.869  1.00  0.00     0.341 C 
ATOM     26  O   UNL A   1      33.938  21.777  27.019  1.00  0.00    -0.246 OA
BRANCH  25  27
ATOM     27  O   UNL A   1      35.387  22.783  25.550  1.00  0.00    -0.459 OA
BRANCH  27  28
ATOM     28  C   UNL A   1      36.722  22.257  25.740  1.00  0.00     0.170 C 
ATOM     29  C   UNL A   1      37.144  21.197  24.722  1.00  0.00     0.052 C 
ATOM     30  C   UNL A   1      37.724  23.400  25.851  1.00  0.00     0.052 C 
ENDBRANCH  27  28
ENDBRANCH  25  27
ENDBRANCH  18  25
ENDBRANCH  14  17
ENDBRANCH   6  13
ENDBRANCH   1   5
BRANCH   3  31
ATOM     31  C   UNL A   1      33.084  29.361  25.317  1.00  0.00     0.117 C 
BRANCH  31  32
ATOM     32  C   UNL A   1      32.526  29.800  26.670  1.00  0.00     0.042 C 
BRANCH  32  33
ATOM     33  C   UNL A   1      33.645  30.200  27.613  1.00  0.00     0.118 C 
BRANCH  33  34
ATOM     34  N   UNL A   1      34.148  31.545  27.313  1.00  0.00    -0.352 N 
ATOM     35  C   UNL A   1      35.342  32.124  27.678  1.00  0.00     0.251 C 
ATOM     36  H   UNL A   1      33.548  32.112  26.777  1.00  0.00     0.163 HD
ATOM     37  O   UNL A   1      35.519  33.332  27.590  1.00  0.00    -0.269 OA
BRANCH  35  38
ATOM     38  C   UNL A   1      36.398  31.253  28.208  1.00  0.00     0.039 A 
ATOM     39  C   UNL A   1      36.634  30.006  27.627  1.00  0.00     0.014 A 
ATOM     40  C   UNL A   1      37.219  31.754  29.213  1.00  0.00     0.014 A 
ATOM     41  C   UNL A   1      37.779  29.307  27.992  1.00  0.00     0.010 A 
ATOM     42  C   UNL A   1      38.418  31.131  29.466  1.00  0.00     0.010 A 
ATOM     43  C   UNL A   1      38.689  29.892  28.885  1.00  0.00    -0.014 A 
BRANCH  43  44
ATOM     44  C   UNL A   1      39.978  29.252  29.134  1.00  0.00     0.031 A 
ATOM     45  C   UNL A   1      40.297  28.943  30.561  1.00  0.00     0.074 A 
ATOM     46  C   UNL A   1      40.746  28.761  28.138  1.00  0.00     0.049 A 
ATOM     47  N   UNL A   1      41.307  29.356  31.256  1.00  0.00    -0.248 NA
ATOM     48  C   UNL A   1      39.340  28.134  31.335  1.00  0.00     0.031 C 
ATOM     49  C   UNL A   1      40.443  28.675  26.707  1.00  0.00     0.029 A 
ATOM     50  N   UNL A   1      41.930  28.101  28.233  1.00  0.00    -0.354 N 
ATOM     51  C   UNL A   1      41.202  28.755  32.511  1.00  0.00     0.074 A 
ATOM     52  C   UNL A   1      39.913  28.113  32.542  1.00  0.00     0.031 C 
ATOM     53  C   UNL A   1      41.274  27.785  26.126  1.00  0.00     0.029 A 
ATOM     54  C   UNL A   1      42.269  27.377  27.101  1.00  0.00     0.049 A 
ATOM     55  H   UNL A   1      42.498  28.135  29.036  1.00  0.00     0.167 HD
ATOM     56  C   UNL A   1      42.266  28.687  33.363  1.00  0.00     0.037 A 
ATOM     57  C   UNL A   1      43.266  26.468  26.990  1.00  0.00     0.037 A 
ATOM     58  C   UNL A   1      43.308  29.601  32.970  1.00  0.00     0.049 A 
ATOM     59  C   UNL A   1      44.216  26.712  28.106  1.00  0.00     0.074 A 
ATOM     60  C   UNL A   1      43.374  30.971  32.804  1.00  0.00     0.029 A 
ATOM     61  N   UNL A   1      44.407  29.097  32.319  1.00  0.00    -0.354 N 
ATOM     62  N   UNL A   1      44.975  27.771  28.197  1.00  0.00    -0.248 NA
ATOM     63  C   UNL A   1      43.988  26.002  29.356  1.00  0.00     0.031 C 
ATOM     64  C   UNL A   1      44.180  31.155  31.642  1.00  0.00     0.029 A 
ATOM     65  C   UNL A   1      44.610  29.896  31.223  1.00  0.00     0.049 A 
ATOM     66  H   UNL A   1      44.943  28.316  32.587  1.00  0.00     0.167 HD
ATOM     67  C   UNL A   1      44.949  28.107  29.542  1.00  0.00     0.074 A 
ATOM     68  C   UNL A   1      44.408  26.930  30.219  1.00  0.00     0.031 C 
ATOM     69  C   UNL A   1      45.088  29.402  29.954  1.00  0.00     0.037 A 
BRANCH  56  70
ATOM     70  C   UNL A   1      42.516  27.592  34.370  1.00  0.00     0.064 A 
ATOM     71  C   UNL A   1      43.105  26.381  33.947  1.00  0.00     0.173 A 
ATOM     72  C   UNL A   1      41.932  27.565  35.654  1.00  0.00     0.173 A 
ATOM     73  F   UNL A   1      43.679  26.285  32.738  1.00  0.00    -0.203 F 
ATOM     74  C   UNL A   1      43.039  25.216  34.716  1.00  0.00     0.198 A 
ATOM     75  C   UNL A   1      41.916  26.414  36.442  1.00  0.00     0.198 A 
ATOM     76  F   UNL A   1      41.260  28.612  36.148  1.00  0.00    -0.203 F 
ATOM     77  F   UNL A   1      43.498  24.060  34.216  1.00  0.00    -0.200 F 
ATOM     78  C   UNL A   1      42.438  25.232  35.960  1.00  0.00     0.200 A 
ATOM     79  F   UNL A   1      41.315  26.445  37.639  1.00  0.00    -0.200 F 
ATOM     80  F   UNL A   1      42.317  24.104  36.672  1.00  0.00    -0.200 F 
ENDBRANCH  56  70
BRANCH  57  81
ATOM     81  C   UNL A   1      43.301  25.254  26.144  1.00  0.00     0.064 A 
ATOM     82  C   UNL A   1      44.383  25.000  25.287  1.00  0.00     0.173 A 
ATOM     83  C   UNL A   1      42.396  24.192  26.341  1.00  0.00     0.173 A 
ATOM     84  F   UNL A   1      45.315  25.941  25.081  1.00  0.00    -0.203 F 
ATOM     85  C   UNL A   1      44.557  23.752  24.679  1.00  0.00     0.198 A 
ATOM     86  C   UNL A   1      42.564  22.952  25.723  1.00  0.00     0.198 A 
ATOM     87  F   UNL A   1      41.379  24.304  27.207  1.00  0.00    -0.203 F 
ATOM     88  F   UNL A   1      45.635  23.528  23.914  1.00  0.00    -0.200 F 
ATOM     89  C   UNL A   1      43.652  22.727  24.904  1.00  0.00     0.200 A 
ATOM     90  F   UNL A   1      41.699  21.960  25.978  1.00  0.00    -0.200 F 
ATOM     91  F   UNL A   1      43.851  21.516  24.366  1.00  0.00    -0.200 F 
ENDBRANCH  57  81
BRANCH  69  92
ATOM     92  C   UNL A   1      45.521  30.435  28.951  1.00  0.00     0.064 A 
ATOM     93  C   UNL A   1      44.640  31.133  28.106  1.00  0.00     0.173 A 
ATOM     94  C   UNL A   1      46.860  30.851  28.965  1.00  0.00     0.173 A 
ATOM     95  F   UNL A   1      43.327  30.879  28.110  1.00  0.00    -0.203 F 
ATOM     96  C   UNL A   1      45.090  32.163  27.282  1.00  0.00     0.198 A 
ATOM     97  C   UNL A   1      47.298  31.907  28.171  1.00  0.00     0.198 A 
ATOM     98  F   UNL A   1      47.738  30.264  29.794  1.00  0.00    -0.203 F 
ATOM     99  F   UNL A   1      44.231  32.804  26.476  1.00  0.00    -0.200 F 
ATOM    100  C   UNL A   1      46.417  32.555  27.322  1.00  0.00     0.200 A 
ATOM    101  F   UNL A   1      48.572  32.318  28.255  1.00  0.00    -0.200 F 
ATOM    102  F   UNL A   1      46.841  33.575  26.563  1.00  0.00    -0.200 F 
ENDBRANCH  69  92
ENDBRANCH  43  44
ENDBRANCH  35  38
ENDBRANCH  33  34
ENDBRANCH  32  33
ENDBRANCH  31  32
ENDBRANCH   3  31
TORSDOF 15
ENDMDL
MODEL 3
REMARK VINA RESULT:     -12.9      1.320      2.067
REMARK SMILES CC(C)OC(=O)c1c(NC(=O)[C@H]2[C@@H](C(=O)NCCCNC(=O)c3ccc(-c4c5nc(c(-c6c(F)c(F)c(F)c(F)c6F)c6ccc([nH]6)c(-c6c(F)c(F)c(F)c(F)c6F)c6nc(c(-c7c(F)c(F)c(F)c(F)c7F)c7ccc4[nH]7)C=C6)C=C5)cc3)[C@@H]3C=C[C@H]2CC3)sc2c1CCC2
REMARK SMILES IDX 14 1 15 2 16 3 13 5 12 6 89 7 86 8 88 9 90 10 87 11 91 12
REMARK SMILES IDX 10 13 9 14 11 16 8 17 7 18 94 19 92 20 93 21 95 22 97 23
REMARK SMILES IDX 96 24 5 25 6 26 4 27 2 28 1 29 3 30 17 31 18 32 19 33 20 34
REMARK SMILES IDX 21 35 22 37 23 38 24 39 85 40 25 41 84 42 26 43 27 44 28 45
REMARK SMILES IDX 78 46 29 47 83 48 77 49 79 50 30 51 82 52 76 53 75 54 31 56
REMARK SMILES IDX 63 57 43 58 62 59 44 60 47 61 61 62 80 63 45 64 46 65 60 67
REMARK SMILES IDX 81 68 48 69 32 70 33 71 41 72 34 73 35 74 39 75 42 76 36 77
REMARK SMILES IDX 37 78 40 79 38 80 64 81 65 82 73 83 66 84 67 85 71 86 74 87
REMARK SMILES IDX 68 88 69 89 72 90 70 91 49 92 50 93 58 94 51 95 52 96 56 97
REMARK SMILES IDX 59 98 53 99 54 100 57 101 55 102
REMARK H PARENT 16 4 9 15 20 36 79 55 47 66
REMARK Flexibility Score: inf
ROOT
ATOM      1  C   UNL A   1      35.892  22.907  23.726  1.00  0.00     0.224 C 
ATOM      2  O   UNL A   1      36.107  23.511  22.665  1.00  0.00    -0.275 OA
ATOM      3  N   UNL A   1      36.965  22.793  24.547  1.00  0.00    -0.356 N 
ATOM      4  H   UNL A   1      37.696  23.402  24.292  1.00  0.00     0.163 HD
ENDROOT
BRANCH   1   5
ATOM      5  C   UNL A   1      34.523  22.259  23.941  1.00  0.00     0.098 C 
ATOM      6  C   UNL A   1      33.473  23.102  24.779  1.00  0.00     0.099 C 
ATOM      7  C   UNL A   1      32.793  22.159  25.831  1.00  0.00     0.025 C 
ATOM      8  C   UNL A   1      34.427  20.780  24.385  1.00  0.00     0.025 C 
ATOM      9  C   UNL A   1      32.127  21.051  25.044  1.00  0.00    -0.027 C 
ATOM     10  C   UNL A   1      33.856  21.515  26.734  1.00  0.00     0.009 C 
ATOM     11  C   UNL A   1      32.972  20.349  24.276  1.00  0.00    -0.027 C 
ATOM     12  C   UNL A   1      34.805  20.669  25.884  1.00  0.00     0.009 C 
BRANCH   6  13
ATOM     13  C   UNL A   1      33.893  24.403  25.465  1.00  0.00     0.229 C 
ATOM     14  N   UNL A   1      33.385  25.629  25.084  1.00  0.00    -0.317 N 
ATOM     15  H   UNL A   1      33.917  26.410  25.360  1.00  0.00     0.170 HD
ATOM     16  O   UNL A   1      34.600  24.389  26.478  1.00  0.00    -0.274 OA
BRANCH  14  17
ATOM     17  C   UNL A   1      32.230  25.920  24.369  1.00  0.00     0.110 A 
ATOM     18  C   UNL A   1      32.146  26.695  23.206  1.00  0.00     0.098 A 
ATOM     19  C   UNL A   1      30.798  27.150  23.072  1.00  0.00    -0.017 A 
ATOM     20  S   UNL A   1      30.688  25.315  24.818  1.00  0.00    -0.122 S 
ATOM     21  C   UNL A   1      29.962  26.553  23.973  1.00  0.00     0.011 A 
ATOM     22  C   UNL A   1      30.044  28.126  22.243  1.00  0.00     0.038 C 
ATOM     23  C   UNL A   1      28.584  27.082  24.004  1.00  0.00     0.047 C 
ATOM     24  C   UNL A   1      28.722  28.315  23.062  1.00  0.00     0.010 C 
BRANCH  18  25
ATOM     25  C   UNL A   1      33.317  27.048  22.416  1.00  0.00     0.341 C 
ATOM     26  O   UNL A   1      33.869  28.143  22.538  1.00  0.00    -0.246 OA
BRANCH  25  27
ATOM     27  O   UNL A   1      33.724  26.067  21.570  1.00  0.00    -0.459 OA
BRANCH  27  28
ATOM     28  C   UNL A   1      32.737  25.246  20.901  1.00  0.00     0.170 C 
ATOM     29  C   UNL A   1      32.575  25.529  19.408  1.00  0.00     0.052 C 
ATOM     30  C   UNL A   1      32.994  23.773  21.197  1.00  0.00     0.052 C 
ENDBRANCH  27  28
ENDBRANCH  25  27
ENDBRANCH  18  25
ENDBRANCH  14  17
ENDBRANCH   6  13
ENDBRANCH   1   5
BRANCH   3  31
ATOM     31  C   UNL A   1      37.299  21.991  25.714  1.00  0.00     0.117 C 
BRANCH  31  32
ATOM     32  C   UNL A   1      38.539  21.124  25.496  1.00  0.00     0.042 C 
BRANCH  32  33
ATOM     33  C   UNL A   1      39.628  21.477  26.491  1.00  0.00     0.118 C 
BRANCH  33  34
ATOM     34  N   UNL A   1      40.935  21.608  25.837  1.00  0.00    -0.352 N 
ATOM     35  C   UNL A   1      41.764  22.704  25.772  1.00  0.00     0.251 C 
ATOM     36  H   UNL A   1      41.263  20.799  25.381  1.00  0.00     0.163 HD
ATOM     37  O   UNL A   1      42.691  22.756  24.975  1.00  0.00    -0.269 OA
BRANCH  35  38
ATOM     38  C   UNL A   1      41.488  23.832  26.669  1.00  0.00     0.039 A 
ATOM     39  C   UNL A   1      42.129  23.916  27.906  1.00  0.00     0.014 A 
ATOM     40  C   UNL A   1      40.674  24.859  26.202  1.00  0.00     0.014 A 
ATOM     41  C   UNL A   1      42.031  25.099  28.629  1.00  0.00     0.010 A 
ATOM     42  C   UNL A   1      40.697  26.073  26.847  1.00  0.00     0.010 A 
ATOM     43  C   UNL A   1      41.344  26.190  28.077  1.00  0.00    -0.014 A 
BRANCH  43  44
ATOM     44  C   UNL A   1      41.389  27.490  28.740  1.00  0.00     0.031 A 
ATOM     45  C   UNL A   1      42.491  28.409  28.319  1.00  0.00     0.074 A 
ATOM     46  C   UNL A   1      40.383  27.940  29.520  1.00  0.00     0.049 A 
ATOM     47  N   UNL A   1      43.416  28.929  29.058  1.00  0.00    -0.248 NA
ATOM     48  C   UNL A   1      42.627  28.731  26.889  1.00  0.00     0.031 C 
ATOM     49  C   UNL A   1      39.080  27.321  29.779  1.00  0.00     0.029 A 
ATOM     50  N   UNL A   1      40.274  29.140  30.148  1.00  0.00    -0.354 N 
ATOM     51  C   UNL A   1      44.172  29.759  28.228  1.00  0.00     0.074 A 
ATOM     52  C   UNL A   1      43.717  29.504  26.885  1.00  0.00     0.031 C 
ATOM     53  C   UNL A   1      38.235  28.248  30.275  1.00  0.00     0.029 A 
ATOM     54  C   UNL A   1      38.982  29.466  30.529  1.00  0.00     0.049 A 
ATOM     55  H   UNL A   1      41.047  29.726  30.319  1.00  0.00     0.167 HD
ATOM     56  C   UNL A   1      44.994  30.722  28.737  1.00  0.00     0.037 A 
ATOM     57  C   UNL A   1      38.549  30.670  30.972  1.00  0.00     0.037 A 
ATOM     58  C   UNL A   1      45.246  30.506  30.138  1.00  0.00     0.049 A 
ATOM     59  C   UNL A   1      39.741  31.431  31.428  1.00  0.00     0.074 A 
ATOM     60  C   UNL A   1      45.805  29.473  30.867  1.00  0.00     0.029 A 
ATOM     61  N   UNL A   1      44.569  31.277  31.050  1.00  0.00    -0.354 N 
ATOM     62  N   UNL A   1      40.445  31.117  32.481  1.00  0.00    -0.248 NA
ATOM     63  C   UNL A   1      40.422  32.268  30.451  1.00  0.00     0.031 C 
ATOM     64  C   UNL A   1      45.002  29.387  32.043  1.00  0.00     0.029 A 
ATOM     65  C   UNL A   1      44.060  30.415  31.988  1.00  0.00     0.049 A 
ATOM     66  H   UNL A   1      44.468  32.256  31.034  1.00  0.00     0.167 HD
ATOM     67  C   UNL A   1      41.761  31.332  32.100  1.00  0.00     0.074 A 
ATOM     68  C   UNL A   1      41.680  32.131  30.879  1.00  0.00     0.031 C 
ATOM     69  C   UNL A   1      42.784  30.602  32.635  1.00  0.00     0.037 A 
BRANCH  56  70
ATOM     70  C   UNL A   1      45.331  32.032  28.067  1.00  0.00     0.064 A 
ATOM     71  C   UNL A   1      44.300  32.953  27.786  1.00  0.00     0.173 A 
ATOM     72  C   UNL A   1      46.562  32.285  27.426  1.00  0.00     0.173 A 
ATOM     73  F   UNL A   1      43.082  32.804  28.328  1.00  0.00    -0.203 F 
ATOM     74  C   UNL A   1      44.467  33.996  26.869  1.00  0.00     0.198 A 
ATOM     75  C   UNL A   1      46.741  33.359  26.554  1.00  0.00     0.198 A 
ATOM     76  F   UNL A   1      47.600  31.447  27.529  1.00  0.00    -0.203 F 
ATOM     77  F   UNL A   1      43.421  34.765  26.537  1.00  0.00    -0.200 F 
ATOM     78  C   UNL A   1      45.685  34.193  26.249  1.00  0.00     0.200 A 
ATOM     79  F   UNL A   1      47.925  33.526  25.950  1.00  0.00    -0.200 F 
ATOM     80  F   UNL A   1      45.831  35.151  25.324  1.00  0.00    -0.200 F 
ENDBRANCH  56  70
BRANCH  57  81
ATOM     81  C   UNL A   1      37.217  31.286  30.779  1.00  0.00     0.064 A 
ATOM     82  C   UNL A   1      36.382  31.563  31.872  1.00  0.00     0.173 A 
ATOM     83  C   UNL A   1      36.836  31.845  29.542  1.00  0.00     0.173 A 
ATOM     84  F   UNL A   1      36.696  31.108  33.093  1.00  0.00    -0.203 F 
ATOM     85  C   UNL A   1      35.245  32.367  31.739  1.00  0.00     0.198 A 
ATOM     86  C   UNL A   1      35.694  32.636  29.408  1.00  0.00     0.198 A 
ATOM     87  F   UNL A   1      37.611  31.711  28.457  1.00  0.00    -0.203 F 
ATOM     88  F   UNL A   1      34.505  32.660  32.818  1.00  0.00    -0.200 F 
ATOM     89  C   UNL A   1      34.907  32.909  30.509  1.00  0.00     0.200 A 
ATOM     90  F   UNL A   1      35.400  33.182  28.220  1.00  0.00    -0.200 F 
ATOM     91  F   UNL A   1      33.849  33.725  30.395  1.00  0.00    -0.200 F 
ENDBRANCH  57  81
BRANCH  69  92
ATOM     92  C   UNL A   1      42.502  29.732  33.828  1.00  0.00     0.064 A 
ATOM     93  C   UNL A   1      41.994  28.423  33.749  1.00  0.00     0.173 A 
ATOM     94  C   UNL A   1      42.918  30.182  35.090  1.00  0.00     0.173 A 
ATOM     95  F   UNL A   1      41.679  27.872  32.572  1.00  0.00    -0.203 F 
ATOM     96  C   UNL A   1      41.866  27.625  34.884  1.00  0.00     0.198 A 
ATOM     97  C   UNL A   1      42.828  29.368  36.215  1.00  0.00     0.198 A 
ATOM     98  F   UNL A   1      43.467  31.400  35.221  1.00  0.00    -0.203 F 
ATOM     99  F   UNL A   1      41.368  26.384  34.781  1.00  0.00    -0.200 F 
ATOM    100  C   UNL A   1      42.291  28.095  36.115  1.00  0.00     0.200 A 
ATOM    101  F   UNL A   1      43.291  29.808  37.394  1.00  0.00    -0.200 F 
ATOM    102  F   UNL A   1      42.210  27.312  37.200  1.00  0.00    -0.200 F 
ENDBRANCH  69  92
ENDBRANCH  43  44
ENDBRANCH  35  38
ENDBRANCH  33  34
ENDBRANCH  32  33
ENDBRANCH  31  32
ENDBRANCH   3  31
TORSDOF 15
ENDMDL
