MODEL 1
REMARK VINA RESULT:     -12.7      0.000      0.000
REMARK SMILES COc1ccc(C(=O)N[C@H](C(=O)NCCCNC(=O)c2ccc(-c3c4nc(c(-c5c(F)c(F)c(F)c(F)c5F)c5ccc([nH]5)c(-c5c(F)c(F)c(F)c(F)c5F)c5nc(c(-c6c(F)c(F)c(F)c(F)c6F)c6ccc3[nH]6)C=C5)C=C4)cc2)C2=C(C)N=N[C@H]2C)c(F)c1F
REMARK SMILES IDX 14 1 13 2 11 3 12 4 10 6 9 7 7 8 8 9 6 11 3 12 4 13 92 14
REMARK SMILES IDX 5 15 90 16 93 17 91 18 2 19 1 20 83 21 84 22 88 23 85 24
REMARK SMILES IDX 86 25 87 26 89 27 15 28 16 29 17 30 18 31 19 33 20 34 21 35
REMARK SMILES IDX 82 36 22 37 81 38 23 39 24 40 25 41 75 42 26 43 80 44 74 45
REMARK SMILES IDX 76 46 27 47 79 48 73 49 72 50 28 52 60 53 40 54 59 55 41 56
REMARK SMILES IDX 44 57 58 58 77 59 42 60 43 61 57 63 78 64 45 65 29 66 30 67
REMARK SMILES IDX 38 68 31 69 32 70 36 71 39 72 33 73 34 74 37 75 35 76 61 77
REMARK SMILES IDX 62 78 70 79 63 80 64 81 68 82 71 83 65 84 66 85 69 86 67 87
REMARK SMILES IDX 46 88 47 89 55 90 48 91 49 92 53 93 56 94 50 95 51 96 54 97
REMARK SMILES IDX 52 98
REMARK H PARENT 13 5 9 10 17 32 76 51 44 62
REMARK Flexibility Score: inf
ROOT
ATOM      1  C   UNL A   1      32.232  27.764  27.026  1.00  0.00     0.117 C 
ENDROOT
BRANCH   1   2
ATOM      2  N   UNL A   1      31.168  26.771  27.010  1.00  0.00    -0.354 N 
ATOM      3  C   UNL A   1      30.858  25.773  26.136  1.00  0.00     0.247 C 
ATOM      4  O   UNL A   1      29.867  25.086  26.414  1.00  0.00    -0.272 OA
ATOM      5  H   UNL A   1      30.554  26.834  27.777  1.00  0.00     0.163 HD
BRANCH   3   6
ATOM      6  C   UNL A   1      31.674  25.507  24.833  1.00  0.00     0.202 C 
BRANCH   6   7
ATOM      7  N   UNL A   1      31.475  24.066  24.633  1.00  0.00    -0.336 N 
ATOM      8  C   UNL A   1      32.260  22.952  24.666  1.00  0.00     0.255 C 
ATOM      9  O   UNL A   1      31.726  21.856  24.490  1.00  0.00    -0.269 OA
ATOM     10  H   UNL A   1      30.538  23.850  24.424  1.00  0.00     0.165 HD
BRANCH   8  11
ATOM     11  C   UNL A   1      33.729  22.981  24.778  1.00  0.00     0.078 A 
ATOM     12  C   UNL A   1      36.501  23.134  25.182  1.00  0.00     0.157 A 
ATOM     13  C   UNL A   1      35.642  23.246  26.273  1.00  0.00     0.050 A 
ATOM     14  C   UNL A   1      35.968  23.007  23.897  1.00  0.00     0.201 A 
ATOM     15  C   UNL A   1      34.262  23.167  26.070  1.00  0.00     0.021 A 
ATOM     16  C   UNL A   1      34.591  22.942  23.692  1.00  0.00     0.175 A 
ATOM     17  F   UNL A   1      36.790  22.941  22.837  1.00  0.00    -0.200 F 
ATOM     18  F   UNL A   1      34.127  22.901  22.435  1.00  0.00    -0.203 F 
BRANCH  12  19
ATOM     19  O   UNL A   1      37.859  23.247  25.307  1.00  0.00    -0.494 OA
ATOM     20  C   UNL A   1      38.246  24.052  26.418  1.00  0.00     0.278 C 
ENDBRANCH  12  19
ENDBRANCH   8  11
ENDBRANCH   6   7
BRANCH   6  21
ATOM     21  C   UNL A   1      31.160  26.308  23.669  1.00  0.00     0.011 C 
ATOM     22  C   UNL A   1      31.594  26.523  22.416  1.00  0.00     0.064 C 
ATOM     23  C   UNL A   1      29.977  27.228  23.801  1.00  0.00     0.156 C 
ATOM     24  C   UNL A   1      32.734  25.943  21.657  1.00  0.00     0.069 C 
ATOM     25  N   UNL A   1      30.876  27.497  21.766  1.00  0.00    -0.160 NA
ATOM     26  N   UNL A   1      29.985  27.964  22.513  1.00  0.00    -0.181 NA
ATOM     27  C   UNL A   1      28.612  26.550  23.909  1.00  0.00     0.040 C 
ENDBRANCH   6  21
ENDBRANCH   3   6
ENDBRANCH   1   2
BRANCH   1  28
ATOM     28  C   UNL A   1      31.735  29.192  26.775  1.00  0.00     0.042 C 
BRANCH  28  29
ATOM     29  C   UNL A   1      32.702  30.104  26.013  1.00  0.00     0.118 C 
BRANCH  29  30
ATOM     30  N   UNL A   1      32.559  31.494  26.406  1.00  0.00    -0.352 N 
ATOM     31  C   UNL A   1      33.273  32.234  27.316  1.00  0.00     0.251 C 
ATOM     32  H   UNL A   1      31.836  31.982  25.949  1.00  0.00     0.163 HD
ATOM     33  O   UNL A   1      32.830  33.323  27.674  1.00  0.00    -0.269 OA
BRANCH  31  34
ATOM     34  C   UNL A   1      34.565  31.763  27.877  1.00  0.00     0.039 A 
ATOM     35  C   UNL A   1      34.622  30.469  28.410  1.00  0.00     0.014 A 
ATOM     36  C   UNL A   1      35.678  32.601  27.998  1.00  0.00     0.014 A 
ATOM     37  C   UNL A   1      35.782  30.017  29.049  1.00  0.00     0.010 A 
ATOM     38  C   UNL A   1      36.856  32.132  28.592  1.00  0.00     0.010 A 
ATOM     39  C   UNL A   1      36.911  30.843  29.146  1.00  0.00    -0.014 A 
BRANCH  39  40
ATOM     40  C   UNL A   1      38.125  30.382  29.874  1.00  0.00     0.031 A 
ATOM     41  C   UNL A   1      38.389  30.843  31.282  1.00  0.00     0.074 A 
ATOM     42  C   UNL A   1      38.990  29.538  29.279  1.00  0.00     0.049 A 
ATOM     43  N   UNL A   1      39.385  30.543  32.081  1.00  0.00    -0.248 NA
ATOM     44  C   UNL A   1      37.412  31.773  31.871  1.00  0.00     0.031 C 
ATOM     45  C   UNL A   1      38.862  29.024  27.916  1.00  0.00     0.029 A 
ATOM     46  N   UNL A   1      40.145  28.958  29.747  1.00  0.00    -0.354 N 
ATOM     47  C   UNL A   1      39.155  31.248  33.256  1.00  0.00     0.074 A 
ATOM     48  C   UNL A   1      37.952  32.027  33.054  1.00  0.00     0.031 C 
ATOM     49  C   UNL A   1      39.879  28.182  27.667  1.00  0.00     0.029 A 
ATOM     50  C   UNL A   1      40.745  28.115  28.842  1.00  0.00     0.049 A 
ATOM     51  H   UNL A   1      40.508  29.129  30.647  1.00  0.00     0.167 HD
ATOM     52  C   UNL A   1      39.867  31.228  34.408  1.00  0.00     0.037 A 
ATOM     53  C   UNL A   1      41.862  27.370  28.948  1.00  0.00     0.037 A 
ATOM     54  C   UNL A   1      41.047  30.434  34.625  1.00  0.00     0.049 A 
ATOM     55  C   UNL A   1      42.648  27.381  30.232  1.00  0.00     0.074 A 
ATOM     56  C   UNL A   1      41.811  30.323  35.775  1.00  0.00     0.029 A 
ATOM     57  N   UNL A   1      41.630  29.610  33.677  1.00  0.00    -0.354 N 
ATOM     58  N   UNL A   1      42.397  28.022  31.346  1.00  0.00    -0.248 NA
ATOM     59  C   UNL A   1      43.870  26.565  30.273  1.00  0.00     0.031 C 
ATOM     60  C   UNL A   1      42.876  29.458  35.512  1.00  0.00     0.029 A 
ATOM     61  C   UNL A   1      42.754  28.999  34.211  1.00  0.00     0.049 A 
ATOM     62  H   UNL A   1      41.297  29.477  32.760  1.00  0.00     0.167 HD
ATOM     63  C   UNL A   1      43.411  27.670  32.227  1.00  0.00     0.074 A 
ATOM     64  C   UNL A   1      44.279  26.751  31.521  1.00  0.00     0.031 C 
ATOM     65  C   UNL A   1      43.602  28.075  33.505  1.00  0.00     0.037 A 
BRANCH  52  66
ATOM     66  C   UNL A   1      39.385  32.080  35.545  1.00  0.00     0.064 A 
ATOM     67  C   UNL A   1      39.841  33.398  35.694  1.00  0.00     0.173 A 
ATOM     68  C   UNL A   1      38.535  31.562  36.533  1.00  0.00     0.173 A 
ATOM     69  F   UNL A   1      40.663  33.937  34.782  1.00  0.00    -0.203 F 
ATOM     70  C   UNL A   1      39.472  34.162  36.798  1.00  0.00     0.198 A 
ATOM     71  C   UNL A   1      38.149  32.336  37.624  1.00  0.00     0.198 A 
ATOM     72  F   UNL A   1      38.066  30.309  36.429  1.00  0.00    -0.203 F 
ATOM     73  F   UNL A   1      39.945  35.408  36.938  1.00  0.00    -0.200 F 
ATOM     74  C   UNL A   1      38.625  33.631  37.760  1.00  0.00     0.200 A 
ATOM     75  F   UNL A   1      37.315  31.829  38.541  1.00  0.00    -0.200 F 
ATOM     76  F   UNL A   1      38.267  34.370  38.820  1.00  0.00    -0.200 F 
ENDBRANCH  52  66
BRANCH  53  77
ATOM     77  C   UNL A   1      42.282  26.512  27.810  1.00  0.00     0.064 A 
ATOM     78  C   UNL A   1      43.213  26.958  26.861  1.00  0.00     0.173 A 
ATOM     79  C   UNL A   1      41.739  25.231  27.642  1.00  0.00     0.173 A 
ATOM     80  F   UNL A   1      43.760  28.177  26.979  1.00  0.00    -0.203 F 
ATOM     81  C   UNL A   1      43.571  26.162  25.776  1.00  0.00     0.198 A 
ATOM     82  C   UNL A   1      42.116  24.426  26.568  1.00  0.00     0.198 A 
ATOM     83  F   UNL A   1      40.863  24.753  28.537  1.00  0.00    -0.203 F 
ATOM     84  F   UNL A   1      44.442  26.622  24.868  1.00  0.00    -0.200 F 
ATOM     85  C   UNL A   1      43.025  24.895  25.632  1.00  0.00     0.200 A 
ATOM     86  F   UNL A   1      41.602  23.194  26.446  1.00  0.00    -0.200 F 
ATOM     87  F   UNL A   1      43.377  24.124  24.594  1.00  0.00    -0.200 F 
ENDBRANCH  53  77
BRANCH  65  88
ATOM     88  C   UNL A   1      44.780  27.519  34.247  1.00  0.00     0.064 A 
ATOM     89  C   UNL A   1      46.027  28.161  34.181  1.00  0.00     0.173 A 
ATOM     90  C   UNL A   1      44.699  26.304  34.940  1.00  0.00     0.173 A 
ATOM     91  F   UNL A   1      46.156  29.322  33.523  1.00  0.00    -0.203 F 
ATOM     92  C   UNL A   1      47.154  27.594  34.769  1.00  0.00     0.198 A 
ATOM     93  C   UNL A   1      45.825  25.751  35.546  1.00  0.00     0.198 A 
ATOM     94  F   UNL A   1      43.526  25.660  35.038  1.00  0.00    -0.203 F 
ATOM     95  F   UNL A   1      48.342  28.206  34.666  1.00  0.00    -0.200 F 
ATOM     96  C   UNL A   1      47.052  26.390  35.451  1.00  0.00     0.200 A 
ATOM     97  F   UNL A   1      45.722  24.597  36.220  1.00  0.00    -0.200 F 
ATOM     98  F   UNL A   1      48.138  25.846  36.017  1.00  0.00    -0.200 F 
ENDBRANCH  65  88
ENDBRANCH  39  40
ENDBRANCH  31  34
ENDBRANCH  29  30
ENDBRANCH  28  29
ENDBRANCH   1  28
TORSDOF 14
ENDMDL
MODEL 2
REMARK VINA RESULT:     -12.6      1.702      3.931
REMARK SMILES COc1ccc(C(=O)N[C@H](C(=O)NCCCNC(=O)c2ccc(-c3c4nc(c(-c5c(F)c(F)c(F)c(F)c5F)c5ccc([nH]5)c(-c5c(F)c(F)c(F)c(F)c5F)c5nc(c(-c6c(F)c(F)c(F)c(F)c6F)c6ccc3[nH]6)C=C5)C=C4)cc2)C2=C(C)N=N[C@H]2C)c(F)c1F
REMARK SMILES IDX 14 1 13 2 11 3 12 4 10 6 9 7 7 8 8 9 6 11 3 12 4 13 92 14
REMARK SMILES IDX 5 15 90 16 93 17 91 18 2 19 1 20 83 21 84 22 88 23 85 24
REMARK SMILES IDX 86 25 87 26 89 27 15 28 16 29 17 30 18 31 19 33 20 34 21 35
REMARK SMILES IDX 82 36 22 37 81 38 23 39 24 40 25 41 75 42 26 43 80 44 74 45
REMARK SMILES IDX 76 46 27 47 79 48 73 49 72 50 28 52 60 53 40 54 59 55 41 56
REMARK SMILES IDX 44 57 58 58 77 59 42 60 43 61 57 63 78 64 45 65 29 66 30 67
REMARK SMILES IDX 38 68 31 69 32 70 36 71 39 72 33 73 34 74 37 75 35 76 61 77
REMARK SMILES IDX 62 78 70 79 63 80 64 81 68 82 71 83 65 84 66 85 69 86 67 87
REMARK SMILES IDX 46 88 47 89 55 90 48 91 49 92 53 93 56 94 50 95 51 96 54 97
REMARK SMILES IDX 52 98
REMARK H PARENT 13 5 9 10 17 32 76 51 44 62
REMARK Flexibility Score: inf
ROOT
ATOM      1  C   UNL A   1      31.881  26.875  26.353  1.00  0.00     0.117 C 
ENDROOT
BRANCH   1   2
ATOM      2  N   UNL A   1      33.230  26.360  26.174  1.00  0.00    -0.354 N 
ATOM      3  C   UNL A   1      33.720  25.289  25.489  1.00  0.00     0.247 C 
ATOM      4  O   UNL A   1      34.945  25.120  25.534  1.00  0.00    -0.272 OA
ATOM      5  H   UNL A   1      33.921  26.887  26.637  1.00  0.00     0.163 HD
BRANCH   3   6
ATOM      6  C   UNL A   1      32.805  24.296  24.707  1.00  0.00     0.202 C 
BRANCH   6   7
ATOM      7  N   UNL A   1      33.178  24.566  23.313  1.00  0.00    -0.336 N 
ATOM      8  C   UNL A   1      32.944  25.559  22.408  1.00  0.00     0.255 C 
ATOM      9  O   UNL A   1      33.476  25.476  21.301  1.00  0.00    -0.269 OA
ATOM     10  H   UNL A   1      33.739  23.850  22.937  1.00  0.00     0.165 HD
BRANCH   8  11
ATOM     11  C   UNL A   1      31.998  26.667  22.626  1.00  0.00     0.078 A 
ATOM     12  C   UNL A   1      30.366  28.901  23.092  1.00  0.00     0.157 A 
ATOM     13  C   UNL A   1      31.725  29.084  22.843  1.00  0.00     0.050 A 
ATOM     14  C   UNL A   1      29.848  27.606  23.163  1.00  0.00     0.201 A 
ATOM     15  C   UNL A   1      32.536  27.971  22.609  1.00  0.00     0.021 A 
ATOM     16  C   UNL A   1      30.659  26.494  22.943  1.00  0.00     0.175 A 
ATOM     17  F   UNL A   1      28.548  27.421  23.443  1.00  0.00    -0.200 F 
ATOM     18  F   UNL A   1      30.134  25.271  23.102  1.00  0.00    -0.203 F 
BRANCH  12  19
ATOM     19  O   UNL A   1      29.527  29.945  23.371  1.00  0.00    -0.494 OA
ATOM     20  C   UNL A   1      29.031  30.584  22.197  1.00  0.00     0.278 C 
ENDBRANCH  12  19
ENDBRANCH   8  11
ENDBRANCH   6   7
BRANCH   6  21
ATOM     21  C   UNL A   1      33.067  22.865  25.088  1.00  0.00     0.011 C 
ATOM     22  C   UNL A   1      33.149  22.208  26.257  1.00  0.00     0.064 C 
ATOM     23  C   UNL A   1      33.464  21.833  24.069  1.00  0.00     0.156 C 
ATOM     24  C   UNL A   1      32.901  22.652  27.654  1.00  0.00     0.069 C 
ATOM     25  N   UNL A   1      33.600  20.919  26.110  1.00  0.00    -0.160 NA
ATOM     26  N   UNL A   1      33.841  20.668  24.906  1.00  0.00    -0.181 NA
ATOM     27  C   UNL A   1      32.354  21.358  23.132  1.00  0.00     0.040 C 
ENDBRANCH   6  21
ENDBRANCH   3   6
ENDBRANCH   1   2
BRANCH   1  28
ATOM     28  C   UNL A   1      31.842  28.363  26.720  1.00  0.00     0.042 C 
BRANCH  28  29
ATOM     29  C   UNL A   1      32.986  29.213  26.158  1.00  0.00     0.118 C 
BRANCH  29  30
ATOM     30  N   UNL A   1      32.807  30.624  26.450  1.00  0.00    -0.352 N 
ATOM     31  C   UNL A   1      33.521  31.453  27.278  1.00  0.00     0.251 C 
ATOM     32  H   UNL A   1      32.054  31.052  25.982  1.00  0.00     0.163 HD
ATOM     33  O   UNL A   1      33.052  32.552  27.568  1.00  0.00    -0.269 OA
BRANCH  31  34
ATOM     34  C   UNL A   1      34.846  31.068  27.831  1.00  0.00     0.039 A 
ATOM     35  C   UNL A   1      34.990  29.781  28.366  1.00  0.00     0.014 A 
ATOM     36  C   UNL A   1      35.902  31.977  27.944  1.00  0.00     0.014 A 
ATOM     37  C   UNL A   1      36.181  29.406  28.997  1.00  0.00     0.010 A 
ATOM     38  C   UNL A   1      37.112  31.586  28.530  1.00  0.00     0.010 A 
ATOM     39  C   UNL A   1      37.255  30.305  29.085  1.00  0.00    -0.014 A 
BRANCH  39  40
ATOM     40  C   UNL A   1      38.501  29.924  29.805  1.00  0.00     0.031 A 
ATOM     41  C   UNL A   1      38.780  30.465  31.182  1.00  0.00     0.074 A 
ATOM     42  C   UNL A   1      39.383  29.082  29.232  1.00  0.00     0.049 A 
ATOM     43  N   UNL A   1      39.804  30.242  31.970  1.00  0.00    -0.248 NA
ATOM     44  C   UNL A   1      37.783  31.388  31.747  1.00  0.00     0.031 C 
ATOM     45  C   UNL A   1      39.243  28.496  27.899  1.00  0.00     0.029 A 
ATOM     46  N   UNL A   1      40.569  28.568  29.700  1.00  0.00    -0.354 N 
ATOM     47  C   UNL A   1      39.575  30.997  33.113  1.00  0.00     0.074 A 
ATOM     48  C   UNL A   1      38.340  31.721  32.903  1.00  0.00     0.031 C 
ATOM     49  C   UNL A   1      40.284  27.679  27.669  1.00  0.00     0.029 A 
ATOM     50  C   UNL A   1      41.179  27.703  28.824  1.00  0.00     0.049 A 
ATOM     51  H   UNL A   1      40.945  28.797  30.581  1.00  0.00     0.167 HD
ATOM     52  C   UNL A   1      40.314  31.060  34.247  1.00  0.00     0.037 A 
ATOM     53  C   UNL A   1      42.325  27.004  28.939  1.00  0.00     0.037 A 
ATOM     54  C   UNL A   1      41.527  30.321  34.475  1.00  0.00     0.049 A 
ATOM     55  C   UNL A   1      43.139  27.109  30.201  1.00  0.00     0.074 A 
ATOM     56  C   UNL A   1      42.320  30.295  35.609  1.00  0.00     0.029 A 
ATOM     57  N   UNL A   1      42.118  29.471  33.555  1.00  0.00    -0.354 N 
ATOM     58  N   UNL A   1      42.889  27.796  31.288  1.00  0.00    -0.248 NA
ATOM     59  C   UNL A   1      44.391  26.339  30.253  1.00  0.00     0.031 C 
ATOM     60  C   UNL A   1      43.410  29.457  35.364  1.00  0.00     0.029 A 
ATOM     61  C   UNL A   1      43.275  28.928  34.091  1.00  0.00     0.049 A 
ATOM     62  H   UNL A   1      41.769  29.280  32.654  1.00  0.00     0.167 HD
ATOM     63  C   UNL A   1      43.936  27.525  32.160  1.00  0.00     0.074 A 
ATOM     64  C   UNL A   1      44.820  26.603  31.480  1.00  0.00     0.031 C 
ATOM     65  C   UNL A   1      44.140  28.000  33.411  1.00  0.00     0.037 A 
BRANCH  52  66
ATOM     66  C   UNL A   1      39.827  31.951  35.352  1.00  0.00     0.064 A 
ATOM     67  C   UNL A   1      38.846  31.505  36.250  1.00  0.00     0.173 A 
ATOM     68  C   UNL A   1      40.273  33.276  35.469  1.00  0.00     0.173 A 
ATOM     69  F   UNL A   1      38.380  30.250  36.174  1.00  0.00    -0.203 F 
ATOM     70  C   UNL A   1      38.321  32.357  37.218  1.00  0.00     0.198 A 
ATOM     71  C   UNL A   1      39.763  34.119  36.453  1.00  0.00     0.198 A 
ATOM     72  F   UNL A   1      41.215  33.746  34.638  1.00  0.00    -0.203 F 
ATOM     73  F   UNL A   1      37.362  31.920  38.046  1.00  0.00    -0.200 F 
ATOM     74  C   UNL A   1      38.782  33.662  37.320  1.00  0.00     0.200 A 
ATOM     75  F   UNL A   1      40.223  35.372  36.562  1.00  0.00    -0.200 F 
ATOM     76  F   UNL A   1      38.279  34.480  38.256  1.00  0.00    -0.200 F 
ENDBRANCH  52  66
BRANCH  53  77
ATOM     77  C   UNL A   1      42.750  26.106  27.835  1.00  0.00     0.064 A 
ATOM     78  C   UNL A   1      42.306  24.778  27.759  1.00  0.00     0.173 A 
ATOM     79  C   UNL A   1      43.631  26.558  26.843  1.00  0.00     0.173 A 
ATOM     80  F   UNL A   1      41.463  24.298  28.686  1.00  0.00    -0.203 F 
ATOM     81  C   UNL A   1      42.742  23.931  26.743  1.00  0.00     0.198 A 
ATOM     82  C   UNL A   1      44.048  25.717  25.814  1.00  0.00     0.198 A 
ATOM     83  F   UNL A   1      44.064  27.828  26.862  1.00  0.00    -0.203 F 
ATOM     84  F   UNL A   1      42.325  22.659  26.708  1.00  0.00    -0.200 F 
ATOM     85  C   UNL A   1      43.609  24.403  25.768  1.00  0.00     0.200 A 
ATOM     86  F   UNL A   1      44.869  26.184  24.862  1.00  0.00    -0.200 F 
ATOM     87  F   UNL A   1      44.021  23.592  24.784  1.00  0.00    -0.200 F 
ENDBRANCH  53  77
BRANCH  65  88
ATOM     88  C   UNL A   1      45.354  27.525  34.150  1.00  0.00     0.064 A 
ATOM     89  C   UNL A   1      45.287  26.385  34.966  1.00  0.00     0.173 A 
ATOM     90  C   UNL A   1      46.553  28.251  34.129  1.00  0.00     0.173 A 
ATOM     91  F   UNL A   1      44.159  25.662  35.026  1.00  0.00    -0.203 F 
ATOM     92  C   UNL A   1      46.373  25.999  35.748  1.00  0.00     0.198 A 
ATOM     93  C   UNL A   1      47.645  27.850  34.895  1.00  0.00     0.198 A 
ATOM     94  F   UNL A   1      46.668  29.342  33.356  1.00  0.00    -0.203 F 
ATOM     95  F   UNL A   1      46.277  24.927  36.545  1.00  0.00    -0.200 F 
ATOM     96  C   UNL A   1      47.551  26.732  35.711  1.00  0.00     0.200 A 
ATOM     97  F   UNL A   1      48.788  28.548  34.846  1.00  0.00    -0.200 F 
ATOM     98  F   UNL A   1      48.596  26.360  36.463  1.00  0.00    -0.200 F 
ENDBRANCH  65  88
ENDBRANCH  39  40
ENDBRANCH  31  34
ENDBRANCH  29  30
ENDBRANCH  28  29
ENDBRANCH   1  28
TORSDOF 14
ENDMDL
MODEL 3
REMARK VINA RESULT:     -12.4      4.083      9.126
REMARK SMILES COc1ccc(C(=O)N[C@H](C(=O)NCCCNC(=O)c2ccc(-c3c4nc(c(-c5c(F)c(F)c(F)c(F)c5F)c5ccc([nH]5)c(-c5c(F)c(F)c(F)c(F)c5F)c5nc(c(-c6c(F)c(F)c(F)c(F)c6F)c6ccc3[nH]6)C=C5)C=C4)cc2)C2=C(C)N=N[C@H]2C)c(F)c1F
REMARK SMILES IDX 14 1 13 2 11 3 12 4 10 6 9 7 7 8 8 9 6 11 3 12 4 13 92 14
REMARK SMILES IDX 5 15 90 16 93 17 91 18 2 19 1 20 83 21 84 22 88 23 85 24
REMARK SMILES IDX 86 25 87 26 89 27 15 28 16 29 17 30 18 31 19 33 20 34 21 35
REMARK SMILES IDX 82 36 22 37 81 38 23 39 24 40 25 41 75 42 26 43 80 44 74 45
REMARK SMILES IDX 76 46 27 47 79 48 73 49 72 50 28 52 60 53 40 54 59 55 41 56
REMARK SMILES IDX 44 57 58 58 77 59 42 60 43 61 57 63 78 64 45 65 29 66 30 67
REMARK SMILES IDX 38 68 31 69 32 70 36 71 39 72 33 73 34 74 37 75 35 76 61 77
REMARK SMILES IDX 62 78 70 79 63 80 64 81 68 82 71 83 65 84 66 85 69 86 67 87
REMARK SMILES IDX 46 88 47 89 55 90 48 91 49 92 53 93 56 94 50 95 51 96 54 97
REMARK SMILES IDX 52 98
REMARK H PARENT 13 5 9 10 17 32 76 51 44 62
REMARK Flexibility Score: inf
ROOT
ATOM      1  C   UNL A   1      34.936  23.642  23.646  1.00  0.00     0.117 C 
ENDROOT
BRANCH   1   2
ATOM      2  N   UNL A   1      34.878  24.734  24.605  1.00  0.00    -0.354 N 
ATOM      3  C   UNL A   1      33.862  25.547  25.012  1.00  0.00     0.247 C 
ATOM      4  O   UNL A   1      34.146  26.398  25.864  1.00  0.00    -0.272 OA
ATOM      5  H   UNL A   1      35.739  24.924  25.045  1.00  0.00     0.163 HD
BRANCH   3   6
ATOM      6  C   UNL A   1      32.419  25.449  24.429  1.00  0.00     0.202 C 
BRANCH   6   7
ATOM      7  N   UNL A   1      31.651  24.973  25.586  1.00  0.00    -0.336 N 
ATOM      8  C   UNL A   1      31.513  23.792  26.255  1.00  0.00     0.255 C 
ATOM      9  O   UNL A   1      30.790  23.768  27.251  1.00  0.00    -0.269 OA
ATOM     10  H   UNL A   1      31.096  25.685  25.977  1.00  0.00     0.165 HD
BRANCH   8  11
ATOM     11  C   UNL A   1      32.080  22.513  25.795  1.00  0.00     0.078 A 
ATOM     12  C   UNL A   1      33.320  20.106  25.059  1.00  0.00     0.157 A 
ATOM     13  C   UNL A   1      33.639  20.696  26.280  1.00  0.00     0.050 A 
ATOM     14  C   UNL A   1      32.433  20.751  24.194  1.00  0.00     0.201 A 
ATOM     15  C   UNL A   1      33.019  21.894  26.646  1.00  0.00     0.021 A 
ATOM     16  C   UNL A   1      31.824  21.952  24.552  1.00  0.00     0.175 A 
ATOM     17  F   UNL A   1      32.154  20.208  22.998  1.00  0.00    -0.200 F 
ATOM     18  F   UNL A   1      31.043  22.572  23.656  1.00  0.00    -0.203 F 
BRANCH  12  19
ATOM     19  O   UNL A   1      33.924  18.959  24.622  1.00  0.00    -0.494 OA
ATOM     20  C   UNL A   1      33.211  17.782  24.999  1.00  0.00     0.278 C 
ENDBRANCH  12  19
ENDBRANCH   8  11
ENDBRANCH   6   7
BRANCH   6  21
ATOM     21  C   UNL A   1      31.917  26.778  23.934  1.00  0.00     0.011 C 
ATOM     22  C   UNL A   1      32.436  27.744  23.159  1.00  0.00     0.064 C 
ATOM     23  C   UNL A   1      30.619  27.364  24.415  1.00  0.00     0.156 C 
ATOM     24  C   UNL A   1      33.707  27.811  22.390  1.00  0.00     0.069 C 
ATOM     25  N   UNL A   1      31.663  28.879  23.137  1.00  0.00    -0.160 NA
ATOM     26  N   UNL A   1      30.653  28.742  23.865  1.00  0.00    -0.181 NA
ATOM     27  C   UNL A   1      29.349  26.708  23.876  1.00  0.00     0.040 C 
ENDBRANCH   6  21
ENDBRANCH   3   6
ENDBRANCH   1   2
BRANCH   1  28
ATOM     28  C   UNL A   1      35.972  22.571  24.006  1.00  0.00     0.042 C 
BRANCH  28  29
ATOM     29  C   UNL A   1      36.491  22.611  25.447  1.00  0.00     0.118 C 
BRANCH  29  30
ATOM     30  N   UNL A   1      37.430  21.537  25.715  1.00  0.00    -0.352 N 
ATOM     31  C   UNL A   1      38.739  21.588  26.126  1.00  0.00     0.251 C 
ATOM     32  H   UNL A   1      37.072  20.630  25.579  1.00  0.00     0.163 HD
ATOM     33  O   UNL A   1      39.424  20.570  26.056  1.00  0.00    -0.269 OA
BRANCH  31  34
ATOM     34  C   UNL A   1      39.352  22.833  26.656  1.00  0.00     0.039 A 
ATOM     35  C   UNL A   1      38.937  24.056  26.116  1.00  0.00     0.014 A 
ATOM     36  C   UNL A   1      40.403  22.814  27.578  1.00  0.00     0.014 A 
ATOM     37  C   UNL A   1      39.561  25.249  26.501  1.00  0.00     0.010 A 
ATOM     38  C   UNL A   1      40.993  24.011  28.003  1.00  0.00     0.010 A 
ATOM     39  C   UNL A   1      40.595  25.238  27.449  1.00  0.00    -0.014 A 
BRANCH  39  40
ATOM     40  C   UNL A   1      41.295  26.500  27.818  1.00  0.00     0.031 A 
ATOM     41  C   UNL A   1      42.719  26.733  27.388  1.00  0.00     0.074 A 
ATOM     42  C   UNL A   1      40.653  27.446  28.529  1.00  0.00     0.049 A 
ATOM     43  N   UNL A   1      43.491  27.770  27.604  1.00  0.00    -0.248 NA
ATOM     44  C   UNL A   1      43.367  25.656  26.623  1.00  0.00     0.031 C 
ATOM     45  C   UNL A   1      39.279  27.344  29.020  1.00  0.00     0.029 A 
ATOM     46  N   UNL A   1      41.068  28.685  28.957  1.00  0.00    -0.354 N 
ATOM     47  C   UNL A   1      44.709  27.468  27.009  1.00  0.00     0.074 A 
ATOM     48  C   UNL A   1      44.593  26.133  26.461  1.00  0.00     0.031 C 
ATOM     49  C   UNL A   1      38.954  28.482  29.654  1.00  0.00     0.029 A 
ATOM     50  C   UNL A   1      40.102  29.385  29.640  1.00  0.00     0.049 A 
ATOM     51  H   UNL A   1      41.972  29.037  28.790  1.00  0.00     0.167 HD
ATOM     52  C   UNL A   1      45.816  28.241  26.905  1.00  0.00     0.037 A 
ATOM     53  C   UNL A   1      40.136  30.616  30.187  1.00  0.00     0.037 A 
ATOM     54  C   UNL A   1      45.929  29.580  27.421  1.00  0.00     0.049 A 
ATOM     55  C   UNL A   1      41.385  31.448  30.076  1.00  0.00     0.074 A 
ATOM     56  C   UNL A   1      47.000  30.451  27.327  1.00  0.00     0.029 A 
ATOM     57  N   UNL A   1      44.934  30.243  28.120  1.00  0.00    -0.354 N 
ATOM     58  N   UNL A   1      42.514  31.163  29.476  1.00  0.00    -0.248 NA
ATOM     59  C   UNL A   1      41.363  32.772  30.715  1.00  0.00     0.031 C 
ATOM     60  C   UNL A   1      46.667  31.629  28.000  1.00  0.00     0.029 A 
ATOM     61  C   UNL A   1      45.374  31.508  28.478  1.00  0.00     0.049 A 
ATOM     62  H   UNL A   1      44.047  29.872  28.332  1.00  0.00     0.167 HD
ATOM     63  C   UNL A   1      43.328  32.276  29.644  1.00  0.00     0.074 A 
ATOM     64  C   UNL A   1      42.560  33.248  30.394  1.00  0.00     0.031 C 
ATOM     65  C   UNL A   1      44.596  32.471  29.212  1.00  0.00     0.037 A 
BRANCH  52  66
ATOM     66  C   UNL A   1      47.004  27.673  26.186  1.00  0.00     0.064 A 
ATOM     67  C   UNL A   1      48.091  27.151  26.903  1.00  0.00     0.173 A 
ATOM     68  C   UNL A   1      47.101  27.720  24.788  1.00  0.00     0.173 A 
ATOM     69  F   UNL A   1      48.051  27.092  28.243  1.00  0.00    -0.203 F 
ATOM     70  C   UNL A   1      49.236  26.709  26.246  1.00  0.00     0.198 A 
ATOM     71  C   UNL A   1      48.238  27.256  24.132  1.00  0.00     0.198 A 
ATOM     72  F   UNL A   1      46.083  28.203  24.058  1.00  0.00    -0.203 F 
ATOM     73  F   UNL A   1      50.276  26.243  26.952  1.00  0.00    -0.200 F 
ATOM     74  C   UNL A   1      49.307  26.760  24.861  1.00  0.00     0.200 A 
ATOM     75  F   UNL A   1      48.297  27.287  22.794  1.00  0.00    -0.200 F 
ATOM     76  F   UNL A   1      50.408  26.329  24.230  1.00  0.00    -0.200 F 
ENDBRANCH  52  66
BRANCH  53  77
ATOM     77  C   UNL A   1      38.924  31.154  30.856  1.00  0.00     0.064 A 
ATOM     78  C   UNL A   1      37.945  31.860  30.142  1.00  0.00     0.173 A 
ATOM     79  C   UNL A   1      38.735  30.988  32.235  1.00  0.00     0.173 A 
ATOM     80  F   UNL A   1      38.082  32.045  28.821  1.00  0.00    -0.203 F 
ATOM     81  C   UNL A   1      36.832  32.395  30.786  1.00  0.00     0.198 A 
ATOM     82  C   UNL A   1      37.610  31.503  32.874  1.00  0.00     0.198 A 
ATOM     83  F   UNL A   1      39.634  30.300  32.955  1.00  0.00    -0.203 F 
ATOM     84  F   UNL A   1      35.925  33.089  30.086  1.00  0.00    -0.200 F 
ATOM     85  C   UNL A   1      36.663  32.213  32.151  1.00  0.00     0.200 A 
ATOM     86  F   UNL A   1      37.439  31.306  34.189  1.00  0.00    -0.200 F 
ATOM     87  F   UNL A   1      35.587  32.718  32.768  1.00  0.00    -0.200 F 
ENDBRANCH  53  77
BRANCH  65  88
ATOM     88  C   UNL A   1      45.243  33.789  29.514  1.00  0.00     0.064 A 
ATOM     89  C   UNL A   1      45.915  33.988  30.731  1.00  0.00     0.173 A 
ATOM     90  C   UNL A   1      45.116  34.882  28.645  1.00  0.00     0.173 A 
ATOM     91  F   UNL A   1      46.055  32.975  31.598  1.00  0.00    -0.203 F 
ATOM     92  C   UNL A   1      46.419  35.239  31.073  1.00  0.00     0.198 A 
ATOM     93  C   UNL A   1      45.642  36.127  28.981  1.00  0.00     0.198 A 
ATOM     94  F   UNL A   1      44.491  34.737  27.467  1.00  0.00    -0.203 F 
ATOM     95  F   UNL A   1      47.027  35.416  32.254  1.00  0.00    -0.200 F 
ATOM     96  C   UNL A   1      46.282  36.307  30.198  1.00  0.00     0.200 A 
ATOM     97  F   UNL A   1      45.524  37.153  28.128  1.00  0.00    -0.200 F 
ATOM     98  F   UNL A   1      46.769  37.512  30.528  1.00  0.00    -0.200 F 
ENDBRANCH  65  88
ENDBRANCH  39  40
ENDBRANCH  31  34
ENDBRANCH  29  30
ENDBRANCH  28  29
ENDBRANCH   1  28
TORSDOF 14
ENDMDL
