MODEL 1
REMARK VINA RESULT:     -11.3      0.000      0.000
REMARK SMILES CC1(C)CCC[C@@H]1[C@H](O)C(=O)NCCCNC(=O)c1ccc(-c2c3nc(c(-c4c(F)c(F)c(F)c(F)c4F)c4ccc([nH]4)c(-c4c(F)c(F)c(F)c(F)c4F)c4nc(c(-c5c(F)c(F)c(F)c(F)c5F)c5ccc2[nH]5)C=C4)C=C3)cc1
REMARK SMILES IDX 14 1 13 2 12 3 10 4 11 5 8 7 7 8 1 9 2 10 3 11 4 12 5 13
REMARK SMILES IDX 6 14 9 15 15 17 16 18 17 19 18 21 19 22 20 23 81 24 21 25
REMARK SMILES IDX 80 26 22 27 23 28 24 29 74 30 25 31 79 32 73 33 75 34 26 35
REMARK SMILES IDX 78 36 72 37 71 38 27 40 59 41 39 42 58 43 40 44 43 45 57 46
REMARK SMILES IDX 76 47 41 48 42 49 56 51 77 52 44 53 28 54 29 55 37 56 30 57
REMARK SMILES IDX 31 58 35 59 38 60 32 61 33 62 36 63 34 64 60 65 61 66 69 67
REMARK SMILES IDX 62 68 63 69 67 70 70 71 64 72 65 73 68 74 66 75 45 76 46 77
REMARK SMILES IDX 54 78 47 79 48 80 52 81 55 82 49 83 50 84 53 85 51 86
REMARK H PARENT 12 6 9 16 16 20 75 39 43 50
REMARK Flexibility Score: inf
ROOT
ATOM      1  C   UNL A   1      32.628  27.811  25.720  1.00  0.00     0.042 C 
ENDROOT
BRANCH   1   2
ATOM      2  C   UNL A   1      31.207  27.740  25.164  1.00  0.00     0.117 C 
BRANCH   2   3
ATOM      3  N   UNL A   1      31.216  27.245  23.795  1.00  0.00    -0.354 N 
ATOM      4  C   UNL A   1      30.843  27.877  22.643  1.00  0.00     0.249 C 
ATOM      5  O   UNL A   1      30.762  27.216  21.605  1.00  0.00    -0.272 OA
ATOM      6  H   UNL A   1      31.537  26.322  23.684  1.00  0.00     0.163 HD
BRANCH   4   7
ATOM      7  C   UNL A   1      30.634  29.403  22.626  1.00  0.00     0.206 C 
BRANCH   7   8
ATOM      8  C   UNL A   1      29.226  29.933  22.266  1.00  0.00     0.033 C 
ATOM      9  C   UNL A   1      28.852  32.464  22.104  1.00  0.00     0.011 C 
ATOM     10  C   UNL A   1      28.786  31.245  23.035  1.00  0.00    -0.030 C 
ATOM     11  C   UNL A   1      29.601  31.574  24.301  1.00  0.00     0.011 C 
ATOM     12  C   UNL A   1      27.320  30.977  23.448  1.00  0.00     0.007 C 
ATOM     13  C   UNL A   1      27.253  29.472  23.626  1.00  0.00     0.001 C 
ATOM     14  C   UNL A   1      28.042  28.969  22.433  1.00  0.00     0.007 C 
ENDBRANCH   7   8
BRANCH   7  15
ATOM     15  O   UNL A   1      31.544  29.939  21.646  1.00  0.00    -0.383 OA
ATOM     16  H   UNL A   1      32.440  29.959  22.015  1.00  0.00     0.211 HD
ENDBRANCH   7  15
ENDBRANCH   4   7
ENDBRANCH   2   3
ENDBRANCH   1   2
BRANCH   1  17
ATOM     17  C   UNL A   1      33.428  28.975  25.152  1.00  0.00     0.118 C 
BRANCH  17  18
ATOM     18  N   UNL A   1      32.878  30.252  25.570  1.00  0.00    -0.352 N 
ATOM     19  C   UNL A   1      33.148  31.010  26.683  1.00  0.00     0.251 C 
ATOM     20  H   UNL A   1      32.205  30.633  24.961  1.00  0.00     0.163 HD
ATOM     21  O   UNL A   1      32.386  31.924  26.982  1.00  0.00    -0.269 OA
BRANCH  19  22
ATOM     22  C   UNL A   1      34.336  30.743  27.533  1.00  0.00     0.039 A 
ATOM     23  C   UNL A   1      35.330  31.724  27.621  1.00  0.00     0.014 A 
ATOM     24  C   UNL A   1      34.527  29.517  28.177  1.00  0.00     0.014 A 
ATOM     25  C   UNL A   1      36.486  31.491  28.372  1.00  0.00     0.010 A 
ATOM     26  C   UNL A   1      35.634  29.321  29.001  1.00  0.00     0.010 A 
ATOM     27  C   UNL A   1      36.641  30.292  29.086  1.00  0.00    -0.014 A 
BRANCH  27  28
ATOM     28  C   UNL A   1      37.872  30.014  29.875  1.00  0.00     0.031 A 
ATOM     29  C   UNL A   1      38.942  29.117  29.309  1.00  0.00     0.074 A 
ATOM     30  C   UNL A   1      38.015  30.527  31.111  1.00  0.00     0.049 A 
ATOM     31  N   UNL A   1      40.052  28.694  29.862  1.00  0.00    -0.248 NA
ATOM     32  C   UNL A   1      38.722  28.604  27.947  1.00  0.00     0.031 C 
ATOM     33  C   UNL A   1      37.041  31.383  31.790  1.00  0.00     0.029 A 
ATOM     34  N   UNL A   1      39.037  30.400  32.020  1.00  0.00    -0.354 N 
ATOM     35  C   UNL A   1      40.644  27.852  28.930  1.00  0.00     0.074 A 
ATOM     36  C   UNL A   1      39.746  27.779  27.797  1.00  0.00     0.031 C 
ATOM     37  C   UNL A   1      37.525  31.727  32.994  1.00  0.00     0.029 A 
ATOM     38  C   UNL A   1      38.823  31.089  33.188  1.00  0.00     0.049 A 
ATOM     39  H   UNL A   1      39.845  29.865  31.850  1.00  0.00     0.167 HD
ATOM     40  C   UNL A   1      41.839  27.216  28.996  1.00  0.00     0.037 A 
ATOM     41  C   UNL A   1      39.588  31.192  34.293  1.00  0.00     0.037 A 
ATOM     42  C   UNL A   1      42.750  27.318  30.104  1.00  0.00     0.049 A 
ATOM     43  C   UNL A   1      40.910  30.476  34.344  1.00  0.00     0.074 A 
ATOM     44  C   UNL A   1      44.008  26.758  30.244  1.00  0.00     0.029 A 
ATOM     45  N   UNL A   1      42.501  28.037  31.266  1.00  0.00    -0.354 N 
ATOM     46  N   UNL A   1      41.480  29.722  33.436  1.00  0.00    -0.248 NA
ATOM     47  C   UNL A   1      41.697  30.630  35.576  1.00  0.00     0.031 C 
ATOM     48  C   UNL A   1      44.505  27.108  31.505  1.00  0.00     0.029 A 
ATOM     49  C   UNL A   1      43.576  27.921  32.132  1.00  0.00     0.049 A 
ATOM     50  H   UNL A   1      41.682  28.552  31.446  1.00  0.00     0.167 HD
ATOM     51  C   UNL A   1      42.701  29.337  33.971  1.00  0.00     0.074 A 
ATOM     52  C   UNL A   1      42.795  29.948  35.281  1.00  0.00     0.031 C 
ATOM     53  C   UNL A   1      43.658  28.545  33.427  1.00  0.00     0.037 A 
BRANCH  40  54
ATOM     54  C   UNL A   1      42.231  26.358  27.828  1.00  0.00     0.064 A 
ATOM     55  C   UNL A   1      43.096  26.827  26.828  1.00  0.00     0.173 A 
ATOM     56  C   UNL A   1      41.752  25.044  27.716  1.00  0.00     0.173 A 
ATOM     57  F   UNL A   1      43.573  28.080  26.881  1.00  0.00    -0.203 F 
ATOM     58  C   UNL A   1      43.438  26.026  25.741  1.00  0.00     0.198 A 
ATOM     59  C   UNL A   1      42.122  24.234  26.644  1.00  0.00     0.198 A 
ATOM     60  F   UNL A   1      40.927  24.541  28.647  1.00  0.00    -0.203 F 
ATOM     61  F   UNL A   1      44.221  26.516  24.770  1.00  0.00    -0.200 F 
ATOM     62  C   UNL A   1      42.956  24.729  25.653  1.00  0.00     0.200 A 
ATOM     63  F   UNL A   1      41.664  22.977  26.566  1.00  0.00    -0.200 F 
ATOM     64  F   UNL A   1      43.288  23.959  24.607  1.00  0.00    -0.200 F 
ENDBRANCH  40  54
BRANCH  41  65
ATOM     65  C   UNL A   1      39.138  32.036  35.429  1.00  0.00     0.064 A 
ATOM     66  C   UNL A   1      38.382  31.485  36.474  1.00  0.00     0.173 A 
ATOM     67  C   UNL A   1      39.451  33.400  35.499  1.00  0.00     0.173 A 
ATOM     68  F   UNL A   1      38.038  30.189  36.439  1.00  0.00    -0.203 F 
ATOM     69  C   UNL A   1      37.945  32.270  37.538  1.00  0.00     0.198 A 
ATOM     70  C   UNL A   1      39.036  34.179  36.576  1.00  0.00     0.198 A 
ATOM     71  F   UNL A   1      40.176  33.974  34.526  1.00  0.00    -0.203 F 
ATOM     72  F   UNL A   1      37.190  31.727  38.503  1.00  0.00    -0.200 F 
ATOM     73  C   UNL A   1      38.277  33.616  37.592  1.00  0.00     0.200 A 
ATOM     74  F   UNL A   1      39.369  35.476  36.632  1.00  0.00    -0.200 F 
ATOM     75  F   UNL A   1      37.861  34.370  38.618  1.00  0.00    -0.200 F 
ENDBRANCH  41  65
BRANCH  53  76
ATOM     76  C   UNL A   1      44.906  28.327  34.230  1.00  0.00     0.064 A 
ATOM     77  C   UNL A   1      45.035  27.240  35.106  1.00  0.00     0.173 A 
ATOM     78  C   UNL A   1      46.002  29.191  34.089  1.00  0.00     0.173 A 
ATOM     79  F   UNL A   1      44.010  26.392  35.287  1.00  0.00    -0.203 F 
ATOM     80  C   UNL A   1      46.208  27.040  35.831  1.00  0.00     0.198 A 
ATOM     81  C   UNL A   1      47.182  28.974  34.794  1.00  0.00     0.198 A 
ATOM     82  F   UNL A   1      45.930  30.243  33.258  1.00  0.00    -0.203 F 
ATOM     83  F   UNL A   1      46.294  26.021  36.696  1.00  0.00    -0.200 F 
ATOM     84  C   UNL A   1      47.282  27.903  35.669  1.00  0.00     0.200 A 
ATOM     85  F   UNL A   1      48.222  29.802  34.628  1.00  0.00    -0.200 F 
ATOM     86  F   UNL A   1      48.412  27.706  36.362  1.00  0.00    -0.200 F 
ENDBRANCH  53  76
ENDBRANCH  27  28
ENDBRANCH  19  22
ENDBRANCH  17  18
ENDBRANCH   1  17
TORSDOF 12
ENDMDL
MODEL 2
REMARK VINA RESULT:     -11.3      3.122      9.383
REMARK SMILES CC1(C)CCC[C@@H]1[C@H](O)C(=O)NCCCNC(=O)c1ccc(-c2c3nc(c(-c4c(F)c(F)c(F)c(F)c4F)c4ccc([nH]4)c(-c4c(F)c(F)c(F)c(F)c4F)c4nc(c(-c5c(F)c(F)c(F)c(F)c5F)c5ccc2[nH]5)C=C4)C=C3)cc1
REMARK SMILES IDX 14 1 13 2 12 3 10 4 11 5 8 7 7 8 1 9 2 10 3 11 4 12 5 13
REMARK SMILES IDX 6 14 9 15 15 17 16 18 17 19 18 21 19 22 20 23 81 24 21 25
REMARK SMILES IDX 80 26 22 27 23 28 24 29 74 30 25 31 79 32 73 33 75 34 26 35
REMARK SMILES IDX 78 36 72 37 71 38 27 40 59 41 39 42 58 43 40 44 43 45 57 46
REMARK SMILES IDX 76 47 41 48 42 49 56 51 77 52 44 53 28 54 29 55 37 56 30 57
REMARK SMILES IDX 31 58 35 59 38 60 32 61 33 62 36 63 34 64 60 65 61 66 69 67
REMARK SMILES IDX 62 68 63 69 67 70 70 71 64 72 65 73 68 74 66 75 45 76 46 77
REMARK SMILES IDX 54 78 47 79 48 80 52 81 55 82 49 83 50 84 53 85 51 86
REMARK H PARENT 12 6 9 16 16 20 75 39 43 50
REMARK Flexibility Score: inf
ROOT
ATOM      1  C   UNL A   1      33.009  34.855  29.054  1.00  0.00     0.042 C 
ENDROOT
BRANCH   1   2
ATOM      2  C   UNL A   1      33.618  36.004  29.854  1.00  0.00     0.117 C 
BRANCH   2   3
ATOM      3  N   UNL A   1      32.676  36.492  30.851  1.00  0.00    -0.354 N 
ATOM      4  C   UNL A   1      32.760  36.455  32.214  1.00  0.00     0.249 C 
ATOM      5  O   UNL A   1      31.768  36.768  32.877  1.00  0.00    -0.272 OA
ATOM      6  H   UNL A   1      31.861  36.909  30.491  1.00  0.00     0.163 HD
BRANCH   4   7
ATOM      7  C   UNL A   1      34.100  36.133  32.901  1.00  0.00     0.206 C 
BRANCH   7   8
ATOM      8  C   UNL A   1      34.289  34.712  33.482  1.00  0.00     0.033 C 
ATOM      9  C   UNL A   1      36.392  34.196  34.854  1.00  0.00     0.011 C 
ATOM     10  C   UNL A   1      35.773  34.165  33.449  1.00  0.00    -0.030 C 
ATOM     11  C   UNL A   1      36.731  34.908  32.497  1.00  0.00     0.011 C 
ATOM     12  C   UNL A   1      35.636  32.702  32.967  1.00  0.00     0.007 C 
ATOM     13  C   UNL A   1      34.405  32.717  32.081  1.00  0.00     0.001 C 
ATOM     14  C   UNL A   1      33.444  33.581  32.875  1.00  0.00     0.007 C 
ENDBRANCH   7   8
BRANCH   7  15
ATOM     15  O   UNL A   1      34.237  37.054  34.002  1.00  0.00    -0.383 OA
ATOM     16  H   UNL A   1      34.615  37.887  33.679  1.00  0.00     0.211 HD
ENDBRANCH   7  15
ENDBRANCH   4   7
ENDBRANCH   2   3
ENDBRANCH   1   2
BRANCH   1  17
ATOM     17  C   UNL A   1      34.045  33.842  28.592  1.00  0.00     0.118 C 
BRANCH  17  18
ATOM     18  N   UNL A   1      33.428  32.738  27.879  1.00  0.00    -0.352 N 
ATOM     19  C   UNL A   1      33.948  31.521  27.510  1.00  0.00     0.251 C 
ATOM     20  H   UNL A   1      32.490  32.885  27.618  1.00  0.00     0.163 HD
ATOM     21  O   UNL A   1      33.346  30.839  26.686  1.00  0.00    -0.269 OA
BRANCH  19  22
ATOM     22  C   UNL A   1      35.224  31.018  28.080  1.00  0.00     0.039 A 
ATOM     23  C   UNL A   1      35.210  29.811  28.789  1.00  0.00     0.014 A 
ATOM     24  C   UNL A   1      36.411  31.750  28.001  1.00  0.00     0.014 A 
ATOM     25  C   UNL A   1      36.380  29.329  29.383  1.00  0.00     0.010 A 
ATOM     26  C   UNL A   1      37.598  31.224  28.511  1.00  0.00     0.010 A 
ATOM     27  C   UNL A   1      37.592  30.022  29.233  1.00  0.00    -0.014 A 
BRANCH  27  28
ATOM     28  C   UNL A   1      38.845  29.539  29.874  1.00  0.00     0.031 A 
ATOM     29  C   UNL A   1      39.308  30.144  31.174  1.00  0.00     0.074 A 
ATOM     30  C   UNL A   1      39.590  28.591  29.274  1.00  0.00     0.049 A 
ATOM     31  N   UNL A   1      40.404  29.914  31.854  1.00  0.00    -0.248 NA
ATOM     32  C   UNL A   1      38.435  31.164  31.775  1.00  0.00     0.031 C 
ATOM     33  C   UNL A   1      39.274  27.947  27.999  1.00  0.00     0.029 A 
ATOM     34  N   UNL A   1      40.772  28.007  29.658  1.00  0.00    -0.354 N 
ATOM     35  C   UNL A   1      40.361  30.775  32.944  1.00  0.00     0.074 A 
ATOM     36  C   UNL A   1      39.160  31.570  32.806  1.00  0.00     0.031 C 
ATOM     37  C   UNL A   1      40.221  27.037  27.721  1.00  0.00     0.029 A 
ATOM     38  C   UNL A   1      41.229  27.058  28.776  1.00  0.00     0.049 A 
ATOM     39  H   UNL A   1      41.247  28.246  30.486  1.00  0.00     0.167 HD
ATOM     40  C   UNL A   1      41.228  30.877  33.980  1.00  0.00     0.037 A 
ATOM     41  C   UNL A   1      42.338  26.294  28.815  1.00  0.00     0.037 A 
ATOM     42  C   UNL A   1      42.401  30.061  34.139  1.00  0.00     0.049 A 
ATOM     43  C   UNL A   1      43.286  26.427  29.975  1.00  0.00     0.074 A 
ATOM     44  C   UNL A   1      43.312  30.050  35.182  1.00  0.00     0.029 A 
ATOM     45  N   UNL A   1      42.823  29.102  33.229  1.00  0.00    -0.354 N 
ATOM     46  N   UNL A   1      43.209  27.210  31.023  1.00  0.00    -0.248 NA
ATOM     47  C   UNL A   1      44.476  25.564  29.958  1.00  0.00     0.031 C 
ATOM     48  C   UNL A   1      44.305  29.110  34.884  1.00  0.00     0.029 A 
ATOM     49  C   UNL A   1      43.989  28.505  33.678  1.00  0.00     0.049 A 
ATOM     50  H   UNL A   1      42.362  28.880  32.389  1.00  0.00     0.167 HD
ATOM     51  C   UNL A   1      44.319  26.916  31.803  1.00  0.00     0.074 A 
ATOM     52  C   UNL A   1      45.050  25.874  31.112  1.00  0.00     0.031 C 
ATOM     53  C   UNL A   1      44.698  27.461  32.984  1.00  0.00     0.037 A 
BRANCH  40  54
ATOM     54  C   UNL A   1      40.930  31.909  35.031  1.00  0.00     0.064 A 
ATOM     55  C   UNL A   1      41.555  33.165  35.027  1.00  0.00     0.173 A 
ATOM     56  C   UNL A   1      39.992  31.646  36.041  1.00  0.00     0.173 A 
ATOM     57  F   UNL A   1      42.468  33.461  34.090  1.00  0.00    -0.203 F 
ATOM     58  C   UNL A   1      41.281  34.106  36.017  1.00  0.00     0.198 A 
ATOM     59  C   UNL A   1      39.698  32.602  37.011  1.00  0.00     0.198 A 
ATOM     60  F   UNL A   1      39.359  30.465  36.089  1.00  0.00    -0.203 F 
ATOM     61  F   UNL A   1      41.934  35.277  36.025  1.00  0.00    -0.200 F 
ATOM     62  C   UNL A   1      40.349  33.826  37.004  1.00  0.00     0.200 A 
ATOM     63  F   UNL A   1      38.788  32.335  37.958  1.00  0.00    -0.200 F 
ATOM     64  F   UNL A   1      40.086  34.734  37.955  1.00  0.00    -0.200 F 
ENDBRANCH  40  54
BRANCH  41  65
ATOM     65  C   UNL A   1      42.594  25.307  27.735  1.00  0.00     0.064 A 
ATOM     66  C   UNL A   1      43.456  25.616  26.673  1.00  0.00     0.173 A 
ATOM     67  C   UNL A   1      41.993  24.041  27.740  1.00  0.00     0.173 A 
ATOM     68  F   UNL A   1      44.037  26.824  26.613  1.00  0.00    -0.203 F 
ATOM     69  C   UNL A   1      43.694  24.703  25.649  1.00  0.00     0.198 A 
ATOM     70  C   UNL A   1      42.251  23.118  26.729  1.00  0.00     0.198 A 
ATOM     71  F   UNL A   1      41.164  23.695  28.737  1.00  0.00    -0.203 F 
ATOM     72  F   UNL A   1      44.490  25.039  24.625  1.00  0.00    -0.200 F 
ATOM     73  C   UNL A   1      43.096  23.451  25.681  1.00  0.00     0.200 A 
ATOM     74  F   UNL A   1      41.682  21.905  26.769  1.00  0.00    -0.200 F 
ATOM     75  F   UNL A   1      43.329  22.571  24.698  1.00  0.00    -0.200 F 
ENDBRANCH  41  65
BRANCH  53  76
ATOM     76  C   UNL A   1      45.940  26.915  33.625  1.00  0.00     0.064 A 
ATOM     77  C   UNL A   1      45.898  25.808  34.483  1.00  0.00     0.173 A 
ATOM     78  C   UNL A   1      47.193  27.482  33.344  1.00  0.00     0.173 A 
ATOM     79  F   UNL A   1      44.722  25.239  34.795  1.00  0.00    -0.203 F 
ATOM     80  C   UNL A   1      47.062  25.302  35.057  1.00  0.00     0.198 A 
ATOM     81  C   UNL A   1      48.356  26.958  33.898  1.00  0.00     0.198 A 
ATOM     82  F   UNL A   1      47.287  28.541  32.524  1.00  0.00    -0.203 F 
ATOM     83  F   UNL A   1      46.993  24.270  35.909  1.00  0.00    -0.200 F 
ATOM     84  C   UNL A   1      48.290  25.872  34.758  1.00  0.00     0.200 A 
ATOM     85  F   UNL A   1      49.544  27.503  33.599  1.00  0.00    -0.200 F 
ATOM     86  F   UNL A   1      49.410  25.380  35.305  1.00  0.00    -0.200 F 
ENDBRANCH  53  76
ENDBRANCH  27  28
ENDBRANCH  19  22
ENDBRANCH  17  18
ENDBRANCH   1  17
TORSDOF 12
ENDMDL
MODEL 3
REMARK VINA RESULT:     -11.2      5.559      9.525
REMARK SMILES CC1(C)CCC[C@@H]1[C@H](O)C(=O)NCCCNC(=O)c1ccc(-c2c3nc(c(-c4c(F)c(F)c(F)c(F)c4F)c4ccc([nH]4)c(-c4c(F)c(F)c(F)c(F)c4F)c4nc(c(-c5c(F)c(F)c(F)c(F)c5F)c5ccc2[nH]5)C=C4)C=C3)cc1
REMARK SMILES IDX 14 1 13 2 12 3 10 4 11 5 8 7 7 8 1 9 2 10 3 11 4 12 5 13
REMARK SMILES IDX 6 14 9 15 15 17 16 18 17 19 18 21 19 22 20 23 81 24 21 25
REMARK SMILES IDX 80 26 22 27 23 28 24 29 74 30 25 31 79 32 73 33 75 34 26 35
REMARK SMILES IDX 78 36 72 37 71 38 27 40 59 41 39 42 58 43 40 44 43 45 57 46
REMARK SMILES IDX 76 47 41 48 42 49 56 51 77 52 44 53 28 54 29 55 37 56 30 57
REMARK SMILES IDX 31 58 35 59 38 60 32 61 33 62 36 63 34 64 60 65 61 66 69 67
REMARK SMILES IDX 62 68 63 69 67 70 70 71 64 72 65 73 68 74 66 75 45 76 46 77
REMARK SMILES IDX 54 78 47 79 48 80 52 81 55 82 49 83 50 84 53 85 51 86
REMARK H PARENT 12 6 9 16 16 20 75 39 43 50
REMARK Flexibility Score: inf
ROOT
ATOM      1  C   UNL A   1      40.989  20.053  26.184  1.00  0.00     0.042 C 
ENDROOT
BRANCH   1   2
ATOM      2  C   UNL A   1      42.431  19.698  26.541  1.00  0.00     0.117 C 
BRANCH   2   3
ATOM      3  N   UNL A   1      43.180  19.329  25.348  1.00  0.00    -0.354 N 
ATOM      4  C   UNL A   1      44.248  19.952  24.768  1.00  0.00     0.249 C 
ATOM      5  O   UNL A   1      44.625  19.570  23.657  1.00  0.00    -0.272 OA
ATOM      6  H   UNL A   1      42.871  18.513  24.894  1.00  0.00     0.163 HD
BRANCH   4   7
ATOM      7  C   UNL A   1      45.027  21.036  25.536  1.00  0.00     0.206 C 
BRANCH   7   8
ATOM      8  C   UNL A   1      45.041  22.467  24.948  1.00  0.00     0.033 C 
ATOM      9  C   UNL A   1      46.830  24.123  25.742  1.00  0.00     0.011 C 
ATOM     10  C   UNL A   1      45.401  23.613  25.978  1.00  0.00    -0.030 C 
ATOM     11  C   UNL A   1      45.278  23.227  27.465  1.00  0.00     0.011 C 
ATOM     12  C   UNL A   1      44.384  24.738  25.675  1.00  0.00     0.007 C 
ATOM     13  C   UNL A   1      43.158  24.004  25.165  1.00  0.00     0.001 C 
ATOM     14  C   UNL A   1      43.764  22.959  24.249  1.00  0.00     0.007 C 
ENDBRANCH   7   8
BRANCH   7  15
ATOM     15  O   UNL A   1      46.398  20.599  25.601  1.00  0.00    -0.383 OA
ATOM     16  H   UNL A   1      46.434  19.635  25.507  1.00  0.00     0.211 HD
ENDBRANCH   7  15
ENDBRANCH   4   7
ENDBRANCH   2   3
ENDBRANCH   1   2
BRANCH   1  17
ATOM     17  C   UNL A   1      40.699  21.542  26.311  1.00  0.00     0.118 C 
BRANCH  17  18
ATOM     18  N   UNL A   1      39.378  21.870  25.804  1.00  0.00    -0.352 N 
ATOM     19  C   UNL A   1      38.595  22.976  26.025  1.00  0.00     0.251 C 
ATOM     20  H   UNL A   1      38.982  21.193  25.208  1.00  0.00     0.163 HD
ATOM     21  O   UNL A   1      37.407  22.938  25.717  1.00  0.00    -0.269 OA
BRANCH  19  22
ATOM     22  C   UNL A   1      39.150  24.210  26.636  1.00  0.00     0.039 A 
ATOM     23  C   UNL A   1      38.896  24.459  27.990  1.00  0.00     0.014 A 
ATOM     24  C   UNL A   1      39.844  25.163  25.885  1.00  0.00     0.014 A 
ATOM     25  C   UNL A   1      39.360  25.634  28.590  1.00  0.00     0.010 A 
ATOM     26  C   UNL A   1      40.387  26.288  26.504  1.00  0.00     0.010 A 
ATOM     27  C   UNL A   1      40.128  26.552  27.856  1.00  0.00    -0.014 A 
BRANCH  27  28
ATOM     28  C   UNL A   1      40.614  27.819  28.468  1.00  0.00     0.031 A 
ATOM     29  C   UNL A   1      42.081  27.999  28.762  1.00  0.00     0.074 A 
ATOM     30  C   UNL A   1      39.742  28.789  28.799  1.00  0.00     0.049 A 
ATOM     31  N   UNL A   1      42.695  28.992  29.355  1.00  0.00    -0.248 NA
ATOM     32  C   UNL A   1      42.974  26.900  28.360  1.00  0.00     0.031 C 
ATOM     33  C   UNL A   1      38.293  28.729  28.600  1.00  0.00     0.029 A 
ATOM     34  N   UNL A   1      39.948  30.017  29.379  1.00  0.00    -0.354 N 
ATOM     35  C   UNL A   1      44.034  28.628  29.417  1.00  0.00     0.074 A 
ATOM     36  C   UNL A   1      44.136  27.300  28.852  1.00  0.00     0.031 C 
ATOM     37  C   UNL A   1      37.745  29.880  29.022  1.00  0.00     0.029 A 
ATOM     38  C   UNL A   1      38.795  30.743  29.554  1.00  0.00     0.049 A 
ATOM     39  H   UNL A   1      40.837  30.345  29.644  1.00  0.00     0.167 HD
ATOM     40  C   UNL A   1      45.088  29.344  29.877  1.00  0.00     0.037 A 
ATOM     41  C   UNL A   1      38.607  31.966  30.088  1.00  0.00     0.037 A 
ATOM     42  C   UNL A   1      44.994  30.679  30.403  1.00  0.00     0.049 A 
ATOM     43  C   UNL A   1      39.793  32.740  30.594  1.00  0.00     0.074 A 
ATOM     44  C   UNL A   1      46.011  31.509  30.843  1.00  0.00     0.029 A 
ATOM     45  N   UNL A   1      43.808  31.385  30.553  1.00  0.00    -0.354 N 
ATOM     46  N   UNL A   1      41.060  32.405  30.602  1.00  0.00    -0.248 NA
ATOM     47  C   UNL A   1      39.522  34.068  31.163  1.00  0.00     0.031 C 
ATOM     48  C   UNL A   1      45.436  32.703  31.295  1.00  0.00     0.029 A 
ATOM     49  C   UNL A   1      44.067  32.633  31.094  1.00  0.00     0.049 A 
ATOM     50  H   UNL A   1      42.916  31.047  30.312  1.00  0.00     0.167 HD
ATOM     51  C   UNL A   1      41.739  33.486  31.146  1.00  0.00     0.074 A 
ATOM     52  C   UNL A   1      40.744  34.495  31.448  1.00  0.00     0.031 C 
ATOM     53  C   UNL A   1      43.067  33.630  31.378  1.00  0.00     0.037 A 
BRANCH  40  54
ATOM     54  C   UNL A   1      46.441  28.693  29.823  1.00  0.00     0.064 A 
ATOM     55  C   UNL A   1      46.933  27.928  30.891  1.00  0.00     0.173 A 
ATOM     56  C   UNL A   1      47.247  28.819  28.681  1.00  0.00     0.173 A 
ATOM     57  F   UNL A   1      46.207  27.787  32.011  1.00  0.00    -0.203 F 
ATOM     58  C   UNL A   1      48.196  27.344  30.834  1.00  0.00     0.198 A 
ATOM     59  C   UNL A   1      48.497  28.207  28.615  1.00  0.00     0.198 A 
ATOM     60  F   UNL A   1      46.824  29.533  27.628  1.00  0.00    -0.203 F 
ATOM     61  F   UNL A   1      48.667  26.666  31.890  1.00  0.00    -0.200 F 
ATOM     62  C   UNL A   1      48.974  27.478  29.695  1.00  0.00     0.200 A 
ATOM     63  F   UNL A   1      49.243  28.328  27.508  1.00  0.00    -0.200 F 
ATOM     64  F   UNL A   1      50.189  26.914  29.640  1.00  0.00    -0.200 F 
ENDBRANCH  40  54
BRANCH  41  65
ATOM     65  C   UNL A   1      37.242  32.550  30.138  1.00  0.00     0.064 A 
ATOM     66  C   UNL A   1      36.808  33.437  29.143  1.00  0.00     0.173 A 
ATOM     67  C   UNL A   1      36.346  32.237  31.169  1.00  0.00     0.173 A 
ATOM     68  F   UNL A   1      37.638  33.784  28.148  1.00  0.00    -0.203 F 
ATOM     69  C   UNL A   1      35.535  34.000  29.186  1.00  0.00     0.198 A 
ATOM     70  C   UNL A   1      35.065  32.780  31.198  1.00  0.00     0.198 A 
ATOM     71  F   UNL A   1      36.714  31.389  32.143  1.00  0.00    -0.203 F 
ATOM     72  F   UNL A   1      35.159  34.876  28.244  1.00  0.00    -0.200 F 
ATOM     73  C   UNL A   1      34.661  33.667  30.211  1.00  0.00     0.200 A 
ATOM     74  F   UNL A   1      34.218  32.446  32.183  1.00  0.00    -0.200 F 
ATOM     75  F   UNL A   1      33.435  34.204  30.249  1.00  0.00    -0.200 F 
ENDBRANCH  41  65
BRANCH  53  76
ATOM     76  C   UNL A   1      43.527  34.938  31.949  1.00  0.00     0.064 A 
ATOM     77  C   UNL A   1      43.684  35.122  33.331  1.00  0.00     0.173 A 
ATOM     78  C   UNL A   1      43.853  36.008  31.102  1.00  0.00     0.173 A 
ATOM     79  F   UNL A   1      43.371  34.133  34.183  1.00  0.00    -0.203 F 
ATOM     80  C   UNL A   1      44.130  36.337  33.844  1.00  0.00     0.198 A 
ATOM     81  C   UNL A   1      44.323  37.212  31.617  1.00  0.00     0.198 A 
ATOM     82  F   UNL A   1      43.724  35.881  29.772  1.00  0.00    -0.203 F 
ATOM     83  F   UNL A   1      44.231  36.505  35.170  1.00  0.00    -0.200 F 
ATOM     84  C   UNL A   1      44.455  37.378  32.988  1.00  0.00     0.200 A 
ATOM     85  F   UNL A   1      44.647  38.213  30.788  1.00  0.00    -0.200 F 
ATOM     86  F   UNL A   1      44.889  38.545  33.484  1.00  0.00    -0.200 F 
ENDBRANCH  53  76
ENDBRANCH  27  28
ENDBRANCH  19  22
ENDBRANCH  17  18
ENDBRANCH   1  17
TORSDOF 12
ENDMDL
