MODEL 1
REMARK VINA RESULT:     -13.4      0.000      0.000
REMARK SMILES COc1cccc(-c2ccc(=O)n(CC(=O)N[C@@H](C(=O)NCCCNC(=O)c3ccc(-c4c5nc(c(-c6c(F)c(F)c(F)c(F)c6F)c6ccc([nH]6)c(-c6c(F)c(F)c(F)c(F)c6F)c6nc(c(-c7c(F)c(F)c(F)c(F)c7F)c7ccc4[nH]7)C=C6)C=C5)cc3)C(C)C)n2)c1
REMARK SMILES IDX 19 1 20 2 21 3 18 5 17 6 15 7 16 8 14 10 13 11 8 12 9 13
REMARK SMILES IDX 94 14 10 15 11 16 12 17 7 18 3 19 4 20 95 21 5 22 6 23 2 24
REMARK SMILES IDX 1 25 91 26 92 27 93 28 22 29 23 30 24 31 25 32 26 33 27 35
REMARK SMILES IDX 28 36 29 37 90 38 30 39 89 40 31 41 32 42 33 43 83 44 34 45
REMARK SMILES IDX 88 46 82 47 84 48 35 49 87 50 81 51 80 52 36 54 68 55 48 56
REMARK SMILES IDX 67 57 49 58 52 59 66 60 85 61 50 62 51 63 65 65 86 66 53 67
REMARK SMILES IDX 37 68 38 69 46 70 39 71 40 72 44 73 47 74 41 75 42 76 45 77
REMARK SMILES IDX 43 78 69 79 70 80 78 81 71 82 72 83 76 84 79 85 73 86 74 87
REMARK SMILES IDX 77 88 75 89 54 90 55 91 63 92 56 93 57 94 61 95 64 96 58 97
REMARK SMILES IDX 59 98 62 99 60 100
REMARK H PARENT 21 4 17 9 25 34 84 53 52 64
REMARK Flexibility Score: inf
ROOT
ATOM      1  C   UNL A   1      30.725  29.656  24.144  1.00  0.00     0.242 C 
ATOM      2  O   UNL A   1      29.769  29.733  23.371  1.00  0.00    -0.273 OA
ATOM      3  N   UNL A   1      30.903  30.711  24.999  1.00  0.00    -0.354 N 
ATOM      4  H   UNL A   1      30.359  31.511  24.824  1.00  0.00     0.163 HD
ENDROOT
BRANCH   1   5
ATOM      5  C   UNL A   1      31.656  28.398  24.233  1.00  0.00     0.173 C 
BRANCH   5   6
ATOM      6  N   UNL A   1      31.193  27.560  25.348  1.00  0.00    -0.342 N 
ATOM      7  C   UNL A   1      30.474  26.397  25.374  1.00  0.00     0.242 C 
ATOM      8  O   UNL A   1      30.215  25.939  26.492  1.00  0.00    -0.273 OA
ATOM      9  H   UNL A   1      31.445  27.897  26.238  1.00  0.00     0.164 HD
BRANCH   7  10
ATOM     10  C   UNL A   1      30.065  25.637  24.099  1.00  0.00     0.248 C 
BRANCH  10  11
ATOM     11  N   UNL A   1      31.165  25.013  23.365  1.00  0.00    -0.220 N 
ATOM     12  C   UNL A   1      32.708  23.328  23.325  1.00  0.00     0.091 A 
ATOM     13  C   UNL A   1      33.376  23.858  22.126  1.00  0.00     0.036 A 
ATOM     14  N   UNL A   1      31.685  23.859  23.910  1.00  0.00    -0.169 NA
ATOM     15  C   UNL A   1      32.805  24.925  21.564  1.00  0.00     0.075 A 
ATOM     16  C   UNL A   1      31.601  25.556  22.160  1.00  0.00     0.267 A 
ATOM     17  O   UNL A   1      31.114  26.538  21.610  1.00  0.00    -0.268 OA
BRANCH  12  18
ATOM     18  C   UNL A   1      33.245  22.069  23.854  1.00  0.00     0.006 A 
ATOM     19  C   UNL A   1      32.805  19.789  24.489  1.00  0.00     0.119 A 
ATOM     20  C   UNL A   1      34.118  19.693  24.961  1.00  0.00     0.046 A 
ATOM     21  C   UNL A   1      32.363  20.990  23.946  1.00  0.00     0.056 A 
ATOM     22  C   UNL A   1      34.994  20.779  24.871  1.00  0.00     0.005 A 
ATOM     23  C   UNL A   1      34.560  21.981  24.313  1.00  0.00     0.011 A 
BRANCH  19  24
ATOM     24  O   UNL A   1      32.039  18.665  24.638  1.00  0.00    -0.497 OA
ATOM     25  C   UNL A   1      32.634  17.598  25.370  1.00  0.00     0.278 C 
ENDBRANCH  19  24
ENDBRANCH  12  18
ENDBRANCH  10  11
ENDBRANCH   7  10
ENDBRANCH   5   6
BRANCH   5  26
ATOM     26  C   UNL A   1      33.134  28.838  24.401  1.00  0.00     0.015 C 
ATOM     27  C   UNL A   1      33.916  27.994  25.410  1.00  0.00     0.010 C 
ATOM     28  C   UNL A   1      33.863  28.787  23.049  1.00  0.00     0.010 C 
ENDBRANCH   5  26
ENDBRANCH   1   5
BRANCH   3  29
ATOM     29  C   UNL A   1      31.796  30.779  26.125  1.00  0.00     0.117 C 
BRANCH  29  30
ATOM     30  C   UNL A   1      31.523  31.946  27.053  1.00  0.00     0.042 C 
BRANCH  30  31
ATOM     31  C   UNL A   1      32.771  32.764  27.322  1.00  0.00     0.118 C 
BRANCH  31  32
ATOM     32  N   UNL A   1      32.470  34.162  27.626  1.00  0.00    -0.352 N 
ATOM     33  C   UNL A   1      32.982  34.988  28.600  1.00  0.00     0.251 C 
ATOM     34  H   UNL A   1      31.795  34.578  27.043  1.00  0.00     0.163 HD
ATOM     35  O   UNL A   1      32.457  36.070  28.814  1.00  0.00    -0.269 OA
BRANCH  33  36
ATOM     36  C   UNL A   1      34.149  34.545  29.394  1.00  0.00     0.039 A 
ATOM     37  C   UNL A   1      33.947  34.016  30.671  1.00  0.00     0.014 A 
ATOM     38  C   UNL A   1      35.438  34.625  28.864  1.00  0.00     0.014 A 
ATOM     39  C   UNL A   1      35.031  33.485  31.375  1.00  0.00     0.010 A 
ATOM     40  C   UNL A   1      36.489  33.991  29.511  1.00  0.00     0.010 A 
ATOM     41  C   UNL A   1      36.300  33.421  30.777  1.00  0.00    -0.014 A 
BRANCH  41  42
ATOM     42  C   UNL A   1      37.455  32.773  31.449  1.00  0.00     0.031 A 
ATOM     43  C   UNL A   1      38.146  31.610  30.791  1.00  0.00     0.074 A 
ATOM     44  C   UNL A   1      37.813  33.163  32.687  1.00  0.00     0.049 A 
ATOM     45  N   UNL A   1      39.086  30.828  31.260  1.00  0.00    -0.248 NA
ATOM     46  C   UNL A   1      37.689  31.249  29.439  1.00  0.00     0.031 C 
ATOM     47  C   UNL A   1      37.177  34.233  33.458  1.00  0.00     0.029 A 
ATOM     48  N   UNL A   1      38.793  32.692  33.525  1.00  0.00    -0.354 N 
ATOM     49  C   UNL A   1      39.308  29.874  30.276  1.00  0.00     0.074 A 
ATOM     50  C   UNL A   1      38.363  30.132  29.213  1.00  0.00     0.031 C 
ATOM     51  C   UNL A   1      37.800  34.356  34.640  1.00  0.00     0.029 A 
ATOM     52  C   UNL A   1      38.848  33.347  34.732  1.00  0.00     0.049 A 
ATOM     53  H   UNL A   1      39.399  31.954  33.284  1.00  0.00     0.167 HD
ATOM     54  C   UNL A   1      40.238  28.890  30.248  1.00  0.00     0.037 A 
ATOM     55  C   UNL A   1      39.650  33.146  35.795  1.00  0.00     0.037 A 
ATOM     56  C   UNL A   1      41.202  28.667  31.292  1.00  0.00     0.049 A 
ATOM     57  C   UNL A   1      40.686  32.055  35.733  1.00  0.00     0.074 A 
ATOM     58  C   UNL A   1      42.233  27.745  31.331  1.00  0.00     0.029 A 
ATOM     59  N   UNL A   1      41.253  29.377  32.483  1.00  0.00    -0.354 N 
ATOM     60  N   UNL A   1      40.937  31.207  34.766  1.00  0.00    -0.248 NA
ATOM     61  C   UNL A   1      41.554  31.901  36.907  1.00  0.00     0.031 C 
ATOM     62  C   UNL A   1      42.880  27.867  32.565  1.00  0.00     0.029 A 
ATOM     63  C   UNL A   1      42.287  28.901  33.273  1.00  0.00     0.049 A 
ATOM     64  H   UNL A   1      40.645  30.111  32.731  1.00  0.00     0.167 HD
ATOM     65  C   UNL A   1      42.008  30.439  35.201  1.00  0.00     0.074 A 
ATOM     66  C   UNL A   1      42.369  30.934  36.514  1.00  0.00     0.031 C 
ATOM     67  C   UNL A   1      42.637  29.416  34.572  1.00  0.00     0.037 A 
BRANCH  54  68
ATOM     68  C   UNL A   1      40.264  27.993  29.044  1.00  0.00     0.064 A 
ATOM     69  C   UNL A   1      41.004  28.318  27.898  1.00  0.00     0.173 A 
ATOM     70  C   UNL A   1      39.562  26.777  29.047  1.00  0.00     0.173 A 
ATOM     71  F   UNL A   1      41.682  29.475  27.837  1.00  0.00    -0.203 F 
ATOM     72  C   UNL A   1      41.013  27.480  26.786  1.00  0.00     0.198 A 
ATOM     73  C   UNL A   1      39.602  25.924  27.946  1.00  0.00     0.198 A 
ATOM     74  F   UNL A   1      38.842  26.413  30.119  1.00  0.00    -0.203 F 
ATOM     75  F   UNL A   1      41.679  27.841  25.681  1.00  0.00    -0.200 F 
ATOM     76  C   UNL A   1      40.318  26.281  26.815  1.00  0.00     0.200 A 
ATOM     77  F   UNL A   1      38.941  24.759  27.980  1.00  0.00    -0.200 F 
ATOM     78  F   UNL A   1      40.333  25.471  25.746  1.00  0.00    -0.200 F 
ENDBRANCH  54  68
BRANCH  55  79
ATOM     79  C   UNL A   1      39.528  34.016  36.994  1.00  0.00     0.064 A 
ATOM     80  C   UNL A   1      38.773  33.608  38.102  1.00  0.00     0.173 A 
ATOM     81  C   UNL A   1      40.158  35.268  37.059  1.00  0.00     0.173 A 
ATOM     82  F   UNL A   1      38.135  32.428  38.079  1.00  0.00    -0.203 F 
ATOM     83  C   UNL A   1      38.629  34.429  39.219  1.00  0.00     0.198 A 
ATOM     84  C   UNL A   1      40.037  36.076  38.188  1.00  0.00     0.198 A 
ATOM     85  F   UNL A   1      40.896  35.703  36.028  1.00  0.00    -0.203 F 
ATOM     86  F   UNL A   1      37.859  34.035  40.241  1.00  0.00    -0.200 F 
ATOM     87  C   UNL A   1      39.267  35.659  39.263  1.00  0.00     0.200 A 
ATOM     88  F   UNL A   1      40.666  37.258  38.235  1.00  0.00    -0.200 F 
ATOM     89  F   UNL A   1      39.130  36.448  40.338  1.00  0.00    -0.200 F 
ENDBRANCH  55  79
BRANCH  67  90
ATOM     90  C   UNL A   1      43.807  28.789  35.274  1.00  0.00     0.064 A 
ATOM     91  C   UNL A   1      43.644  27.726  36.173  1.00  0.00     0.173 A 
ATOM     92  C   UNL A   1      45.111  29.233  35.009  1.00  0.00     0.173 A 
ATOM     93  F   UNL A   1      42.416  27.275  36.471  1.00  0.00    -0.203 F 
ATOM     94  C   UNL A   1      44.743  27.146  36.801  1.00  0.00     0.198 A 
ATOM     95  C   UNL A   1      46.210  28.629  35.614  1.00  0.00     0.198 A 
ATOM     96  F   UNL A   1      45.322  30.243  34.151  1.00  0.00    -0.203 F 
ATOM     97  F   UNL A   1      44.561  26.162  37.693  1.00  0.00    -0.200 F 
ATOM     98  C   UNL A   1      46.025  27.592  36.514  1.00  0.00     0.200 A 
ATOM     99  F   UNL A   1      47.449  29.052  35.323  1.00  0.00    -0.200 F 
ATOM    100  F   UNL A   1      47.082  27.026  37.111  1.00  0.00    -0.200 F 
ENDBRANCH  67  90
ENDBRANCH  41  42
ENDBRANCH  33  36
ENDBRANCH  31  32
ENDBRANCH  30  31
ENDBRANCH  29  30
ENDBRANCH   3  29
TORSDOF 16
ENDMDL
MODEL 2
REMARK VINA RESULT:     -13.4      1.116      2.396
REMARK SMILES COc1cccc(-c2ccc(=O)n(CC(=O)N[C@@H](C(=O)NCCCNC(=O)c3ccc(-c4c5nc(c(-c6c(F)c(F)c(F)c(F)c6F)c6ccc([nH]6)c(-c6c(F)c(F)c(F)c(F)c6F)c6nc(c(-c7c(F)c(F)c(F)c(F)c7F)c7ccc4[nH]7)C=C6)C=C5)cc3)C(C)C)n2)c1
REMARK SMILES IDX 19 1 20 2 21 3 18 5 17 6 15 7 16 8 14 10 13 11 8 12 9 13
REMARK SMILES IDX 94 14 10 15 11 16 12 17 7 18 3 19 4 20 95 21 5 22 6 23 2 24
REMARK SMILES IDX 1 25 91 26 92 27 93 28 22 29 23 30 24 31 25 32 26 33 27 35
REMARK SMILES IDX 28 36 29 37 90 38 30 39 89 40 31 41 32 42 33 43 83 44 34 45
REMARK SMILES IDX 88 46 82 47 84 48 35 49 87 50 81 51 80 52 36 54 68 55 48 56
REMARK SMILES IDX 67 57 49 58 52 59 66 60 85 61 50 62 51 63 65 65 86 66 53 67
REMARK SMILES IDX 37 68 38 69 46 70 39 71 40 72 44 73 47 74 41 75 42 76 45 77
REMARK SMILES IDX 43 78 69 79 70 80 78 81 71 82 72 83 76 84 79 85 73 86 74 87
REMARK SMILES IDX 77 88 75 89 54 90 55 91 63 92 56 93 57 94 61 95 64 96 58 97
REMARK SMILES IDX 59 98 62 99 60 100
REMARK H PARENT 21 4 17 9 25 34 84 53 52 64
REMARK Flexibility Score: inf
ROOT
ATOM      1  C   UNL A   1      33.031  29.074  24.075  1.00  0.00     0.242 C 
ATOM      2  O   UNL A   1      33.735  29.329  23.096  1.00  0.00    -0.273 OA
ATOM      3  N   UNL A   1      32.913  30.064  25.013  1.00  0.00    -0.354 N 
ATOM      4  H   UNL A   1      33.520  30.832  24.917  1.00  0.00     0.163 HD
ENDROOT
BRANCH   1   5
ATOM      5  C   UNL A   1      32.231  27.736  24.229  1.00  0.00     0.173 C 
BRANCH   5   6
ATOM      6  N   UNL A   1      32.768  26.764  23.265  1.00  0.00    -0.342 N 
ATOM      7  C   UNL A   1      33.469  25.604  23.438  1.00  0.00     0.242 C 
ATOM      8  O   UNL A   1      33.808  25.011  22.408  1.00  0.00    -0.273 OA
ATOM      9  H   UNL A   1      32.591  26.992  22.323  1.00  0.00     0.164 HD
BRANCH   7  10
ATOM     10  C   UNL A   1      33.766  25.004  24.824  1.00  0.00     0.248 C 
BRANCH  10  11
ATOM     11  N   UNL A   1      32.831  23.971  25.269  1.00  0.00    -0.220 N 
ATOM     12  C   UNL A   1      32.139  21.806  25.033  1.00  0.00     0.091 A 
ATOM     13  C   UNL A   1      30.986  21.991  25.929  1.00  0.00     0.036 A 
ATOM     14  N   UNL A   1      32.997  22.719  24.716  1.00  0.00    -0.169 NA
ATOM     15  C   UNL A   1      30.893  23.184  26.520  1.00  0.00     0.075 A 
ATOM     16  C   UNL A   1      31.873  24.261  26.236  1.00  0.00     0.267 A 
ATOM     17  O   UNL A   1      31.745  25.342  26.800  1.00  0.00    -0.268 OA
BRANCH  12  18
ATOM     18  C   UNL A   1      32.326  20.451  24.502  1.00  0.00     0.006 A 
ATOM     19  C   UNL A   1      32.990  18.178  24.941  1.00  0.00     0.119 A 
ATOM     20  C   UNL A   1      32.837  17.897  23.580  1.00  0.00     0.046 A 
ATOM     21  C   UNL A   1      32.746  19.467  25.401  1.00  0.00     0.056 A 
ATOM     22  C   UNL A   1      32.422  18.888  22.684  1.00  0.00     0.005 A 
ATOM     23  C   UNL A   1      32.162  20.178  23.143  1.00  0.00     0.011 A 
BRANCH  19  24
ATOM     24  O   UNL A   1      33.408  17.133  25.717  1.00  0.00    -0.497 OA
ATOM     25  C   UNL A   1      32.619  15.949  25.647  1.00  0.00     0.278 C 
ENDBRANCH  19  24
ENDBRANCH  12  18
ENDBRANCH  10  11
ENDBRANCH   7  10
ENDBRANCH   5   6
BRANCH   5  26
ATOM     26  C   UNL A   1      30.715  27.992  24.024  1.00  0.00     0.015 C 
ATOM     27  C   UNL A   1      30.378  28.661  22.689  1.00  0.00     0.010 C 
ATOM     28  C   UNL A   1      29.932  26.673  24.123  1.00  0.00     0.010 C 
ENDBRANCH   5  26
ENDBRANCH   1   5
BRANCH   3  29
ATOM     29  C   UNL A   1      32.001  30.107  26.125  1.00  0.00     0.117 C 
BRANCH  29  30
ATOM     30  C   UNL A   1      31.626  31.510  26.557  1.00  0.00     0.042 C 
BRANCH  30  31
ATOM     31  C   UNL A   1      32.776  32.221  27.245  1.00  0.00     0.118 C 
BRANCH  31  32
ATOM     32  N   UNL A   1      32.514  33.645  27.446  1.00  0.00    -0.352 N 
ATOM     33  C   UNL A   1      33.043  34.524  28.363  1.00  0.00     0.251 C 
ATOM     34  H   UNL A   1      31.856  34.038  26.828  1.00  0.00     0.163 HD
ATOM     35  O   UNL A   1      32.549  35.633  28.495  1.00  0.00    -0.269 OA
BRANCH  33  36
ATOM     36  C   UNL A   1      34.191  34.104  29.198  1.00  0.00     0.039 A 
ATOM     37  C   UNL A   1      33.955  33.396  30.379  1.00  0.00     0.014 A 
ATOM     38  C   UNL A   1      35.498  34.384  28.797  1.00  0.00     0.014 A 
ATOM     39  C   UNL A   1      35.036  32.893  31.107  1.00  0.00     0.010 A 
ATOM     40  C   UNL A   1      36.562  33.784  29.453  1.00  0.00     0.010 A 
ATOM     41  C   UNL A   1      36.346  33.038  30.620  1.00  0.00    -0.014 A 
BRANCH  41  42
ATOM     42  C   UNL A   1      37.513  32.431  31.309  1.00  0.00     0.031 A 
ATOM     43  C   UNL A   1      38.234  31.272  30.676  1.00  0.00     0.074 A 
ATOM     44  C   UNL A   1      37.857  32.854  32.540  1.00  0.00     0.049 A 
ATOM     45  N   UNL A   1      39.190  30.522  31.164  1.00  0.00    -0.248 NA
ATOM     46  C   UNL A   1      37.790  30.872  29.330  1.00  0.00     0.031 C 
ATOM     47  C   UNL A   1      37.194  33.924  33.287  1.00  0.00     0.029 A 
ATOM     48  N   UNL A   1      38.845  32.423  33.390  1.00  0.00    -0.354 N 
ATOM     49  C   UNL A   1      39.438  29.554  30.200  1.00  0.00     0.074 A 
ATOM     50  C   UNL A   1      38.491  29.767  29.129  1.00  0.00     0.031 C 
ATOM     51  C   UNL A   1      37.809  34.085  34.468  1.00  0.00     0.029 A 
ATOM     52  C   UNL A   1      38.881  33.103  34.583  1.00  0.00     0.049 A 
ATOM     53  H   UNL A   1      39.470  31.695  33.165  1.00  0.00     0.167 HD
ATOM     54  C   UNL A   1      40.391  28.591  30.195  1.00  0.00     0.037 A 
ATOM     55  C   UNL A   1      39.684  32.943  35.652  1.00  0.00     0.037 A 
ATOM     56  C   UNL A   1      41.356  28.412  31.246  1.00  0.00     0.049 A 
ATOM     57  C   UNL A   1      40.745  31.876  35.615  1.00  0.00     0.074 A 
ATOM     58  C   UNL A   1      42.408  27.516  31.307  1.00  0.00     0.029 A 
ATOM     59  N   UNL A   1      41.387  29.147  32.422  1.00  0.00    -0.354 N 
ATOM     60  N   UNL A   1      41.020  31.014  34.667  1.00  0.00    -0.248 NA
ATOM     61  C   UNL A   1      41.612  31.765  36.796  1.00  0.00     0.031 C 
ATOM     62  C   UNL A   1      43.048  27.678  32.540  1.00  0.00     0.029 A 
ATOM     63  C   UNL A   1      42.429  28.711  33.224  1.00  0.00     0.049 A 
ATOM     64  H   UNL A   1      40.760  29.871  32.653  1.00  0.00     0.167 HD
ATOM     65  C   UNL A   1      42.107  30.280  35.121  1.00  0.00     0.074 A 
ATOM     66  C   UNL A   1      42.452  30.810  36.424  1.00  0.00     0.031 C 
ATOM     67  C   UNL A   1      42.762  29.260  34.514  1.00  0.00     0.037 A 
BRANCH  54  68
ATOM     68  C   UNL A   1      40.442  27.671  29.009  1.00  0.00     0.064 A 
ATOM     69  C   UNL A   1      39.676  26.497  28.953  1.00  0.00     0.173 A 
ATOM     70  C   UNL A   1      41.247  27.981  27.902  1.00  0.00     0.173 A 
ATOM     71  F   UNL A   1      38.900  26.147  29.991  1.00  0.00    -0.203 F 
ATOM     72  C   UNL A   1      39.739  25.650  27.850  1.00  0.00     0.198 A 
ATOM     73  C   UNL A   1      41.281  27.148  26.785  1.00  0.00     0.198 A 
ATOM     74  F   UNL A   1      41.997  29.093  27.898  1.00  0.00    -0.203 F 
ATOM     75  F   UNL A   1      39.043  24.504  27.846  1.00  0.00    -0.200 F 
ATOM     76  C   UNL A   1      40.535  25.980  26.765  1.00  0.00     0.200 A 
ATOM     77  F   UNL A   1      42.041  27.475  25.731  1.00  0.00    -0.200 F 
ATOM     78  F   UNL A   1      40.590  25.166  25.700  1.00  0.00    -0.200 F 
ENDBRANCH  54  68
BRANCH  55  79
ATOM     79  C   UNL A   1      39.538  33.833  36.833  1.00  0.00     0.064 A 
ATOM     80  C   UNL A   1      38.770  33.439  37.938  1.00  0.00     0.173 A 
ATOM     81  C   UNL A   1      40.155  35.092  36.884  1.00  0.00     0.173 A 
ATOM     82  F   UNL A   1      38.143  32.253  37.929  1.00  0.00    -0.203 F 
ATOM     83  C   UNL A   1      38.604  34.279  39.037  1.00  0.00     0.198 A 
ATOM     84  C   UNL A   1      40.012  35.919  37.997  1.00  0.00     0.198 A 
ATOM     85  F   UNL A   1      40.904  35.514  35.856  1.00  0.00    -0.203 F 
ATOM     86  F   UNL A   1      37.822  33.897  40.056  1.00  0.00    -0.200 F 
ATOM     87  C   UNL A   1      39.230  35.516  39.068  1.00  0.00     0.200 A 
ATOM     88  F   UNL A   1      40.629  37.108  38.030  1.00  0.00    -0.200 F 
ATOM     89  F   UNL A   1      39.071  36.323  40.126  1.00  0.00    -0.200 F 
ENDBRANCH  55  79
BRANCH  67  90
ATOM     90  C   UNL A   1      43.943  28.676  35.232  1.00  0.00     0.064 A 
ATOM     91  C   UNL A   1      45.248  29.133  35.001  1.00  0.00     0.173 A 
ATOM     92  C   UNL A   1      43.758  27.674  36.198  1.00  0.00     0.173 A 
ATOM     93  F   UNL A   1      45.479  30.079  34.077  1.00  0.00    -0.203 F 
ATOM     94  C   UNL A   1      46.328  28.590  35.691  1.00  0.00     0.198 A 
ATOM     95  C   UNL A   1      44.837  27.157  36.909  1.00  0.00     0.198 A 
ATOM     96  F   UNL A   1      42.529  27.207  36.462  1.00  0.00    -0.203 F 
ATOM     97  F   UNL A   1      47.573  29.009  35.420  1.00  0.00    -0.200 F 
ATOM     98  C   UNL A   1      46.121  27.611  36.651  1.00  0.00     0.200 A 
ATOM     99  F   UNL A   1      44.633  26.221  37.847  1.00  0.00    -0.200 F 
ATOM    100  F   UNL A   1      47.161  27.097  37.321  1.00  0.00    -0.200 F 
ENDBRANCH  67  90
ENDBRANCH  41  42
ENDBRANCH  33  36
ENDBRANCH  31  32
ENDBRANCH  30  31
ENDBRANCH  29  30
ENDBRANCH   3  29
TORSDOF 16
ENDMDL
MODEL 3
REMARK VINA RESULT:     -13.3      1.402      2.318
REMARK SMILES COc1cccc(-c2ccc(=O)n(CC(=O)N[C@@H](C(=O)NCCCNC(=O)c3ccc(-c4c5nc(c(-c6c(F)c(F)c(F)c(F)c6F)c6ccc([nH]6)c(-c6c(F)c(F)c(F)c(F)c6F)c6nc(c(-c7c(F)c(F)c(F)c(F)c7F)c7ccc4[nH]7)C=C6)C=C5)cc3)C(C)C)n2)c1
REMARK SMILES IDX 19 1 20 2 21 3 18 5 17 6 15 7 16 8 14 10 13 11 8 12 9 13
REMARK SMILES IDX 94 14 10 15 11 16 12 17 7 18 3 19 4 20 95 21 5 22 6 23 2 24
REMARK SMILES IDX 1 25 91 26 92 27 93 28 22 29 23 30 24 31 25 32 26 33 27 35
REMARK SMILES IDX 28 36 29 37 90 38 30 39 89 40 31 41 32 42 33 43 83 44 34 45
REMARK SMILES IDX 88 46 82 47 84 48 35 49 87 50 81 51 80 52 36 54 68 55 48 56
REMARK SMILES IDX 67 57 49 58 52 59 66 60 85 61 50 62 51 63 65 65 86 66 53 67
REMARK SMILES IDX 37 68 38 69 46 70 39 71 40 72 44 73 47 74 41 75 42 76 45 77
REMARK SMILES IDX 43 78 69 79 70 80 78 81 71 82 72 83 76 84 79 85 73 86 74 87
REMARK SMILES IDX 77 88 75 89 54 90 55 91 63 92 56 93 57 94 61 95 64 96 58 97
REMARK SMILES IDX 59 98 62 99 60 100
REMARK H PARENT 21 4 17 9 25 34 84 53 52 64
REMARK Flexibility Score: inf
ROOT
ATOM      1  C   UNL A   1      31.797  29.310  23.861  1.00  0.00     0.242 C 
ATOM      2  O   UNL A   1      32.458  29.283  22.821  1.00  0.00    -0.273 OA
ATOM      3  N   UNL A   1      32.439  29.778  24.976  1.00  0.00    -0.354 N 
ATOM      4  H   UNL A   1      33.412  29.903  24.900  1.00  0.00     0.163 HD
ENDROOT
BRANCH   1   5
ATOM      5  C   UNL A   1      30.281  28.919  23.923  1.00  0.00     0.173 C 
BRANCH   5   6
ATOM      6  N   UNL A   1      30.147  27.521  23.487  1.00  0.00    -0.342 N 
ATOM      7  C   UNL A   1      30.558  26.348  24.056  1.00  0.00     0.242 C 
ATOM      8  O   UNL A   1      30.314  25.317  23.420  1.00  0.00    -0.273 OA
ATOM      9  H   UNL A   1      29.678  27.410  22.629  1.00  0.00     0.164 HD
BRANCH   7  10
ATOM     10  C   UNL A   1      31.218  26.277  25.445  1.00  0.00     0.248 C 
BRANCH  10  11
ATOM     11  N   UNL A   1      31.676  24.949  25.850  1.00  0.00    -0.220 N 
ATOM     12  C   UNL A   1      33.376  23.423  25.784  1.00  0.00     0.091 A 
ATOM     13  C   UNL A   1      32.569  22.375  26.428  1.00  0.00     0.036 A 
ATOM     14  N   UNL A   1      32.969  24.618  25.506  1.00  0.00    -0.169 NA
ATOM     15  C   UNL A   1      31.351  22.741  26.832  1.00  0.00     0.075 A 
ATOM     16  C   UNL A   1      30.840  24.113  26.586  1.00  0.00     0.267 A 
ATOM     17  O   UNL A   1      29.713  24.403  26.971  1.00  0.00    -0.268 OA
BRANCH  12  18
ATOM     18  C   UNL A   1      34.766  23.065  25.478  1.00  0.00     0.006 A 
ATOM     19  C   UNL A   1      36.362  21.306  25.082  1.00  0.00     0.119 A 
ATOM     20  C   UNL A   1      37.374  22.271  25.031  1.00  0.00     0.046 A 
ATOM     21  C   UNL A   1      35.052  21.707  25.321  1.00  0.00     0.056 A 
ATOM     22  C   UNL A   1      37.080  23.629  25.194  1.00  0.00     0.005 A 
ATOM     23  C   UNL A   1      35.767  24.036  25.419  1.00  0.00     0.011 A 
BRANCH  19  24
ATOM     24  O   UNL A   1      36.770  20.012  24.918  1.00  0.00    -0.497 OA
ATOM     25  C   UNL A   1      38.169  19.777  25.052  1.00  0.00     0.278 C 
ENDBRANCH  19  24
ENDBRANCH  12  18
ENDBRANCH  10  11
ENDBRANCH   7  10
ENDBRANCH   5   6
BRANCH   5  26
ATOM     26  C   UNL A   1      29.443  29.890  23.051  1.00  0.00     0.015 C 
ATOM     27  C   UNL A   1      28.122  29.294  22.560  1.00  0.00     0.010 C 
ATOM     28  C   UNL A   1      29.139  31.180  23.831  1.00  0.00     0.010 C 
ENDBRANCH   5  26
ENDBRANCH   1   5
BRANCH   3  29
ATOM     29  C   UNL A   1      31.850  30.106  26.247  1.00  0.00     0.117 C 
BRANCH  29  30
ATOM     30  C   UNL A   1      31.590  31.587  26.437  1.00  0.00     0.042 C 
BRANCH  30  31
ATOM     31  C   UNL A   1      32.711  32.270  27.196  1.00  0.00     0.118 C 
BRANCH  31  32
ATOM     32  N   UNL A   1      32.444  33.688  27.434  1.00  0.00    -0.352 N 
ATOM     33  C   UNL A   1      32.979  34.547  28.366  1.00  0.00     0.251 C 
ATOM     34  H   UNL A   1      31.777  34.091  26.833  1.00  0.00     0.163 HD
ATOM     35  O   UNL A   1      32.480  35.650  28.530  1.00  0.00    -0.269 OA
BRANCH  33  36
ATOM     36  C   UNL A   1      34.137  34.114  29.178  1.00  0.00     0.039 A 
ATOM     37  C   UNL A   1      33.932  33.260  30.264  1.00  0.00     0.014 A 
ATOM     38  C   UNL A   1      35.429  34.528  28.847  1.00  0.00     0.014 A 
ATOM     39  C   UNL A   1      35.032  32.751  30.958  1.00  0.00     0.010 A 
ATOM     40  C   UNL A   1      36.521  33.931  29.459  1.00  0.00     0.010 A 
ATOM     41  C   UNL A   1      36.337  33.042  30.526  1.00  0.00    -0.014 A 
BRANCH  41  42
ATOM     42  C   UNL A   1      37.532  32.441  31.172  1.00  0.00     0.031 A 
ATOM     43  C   UNL A   1      38.256  31.310  30.496  1.00  0.00     0.074 A 
ATOM     44  C   UNL A   1      37.899  32.844  32.403  1.00  0.00     0.049 A 
ATOM     45  N   UNL A   1      39.238  30.567  30.943  1.00  0.00    -0.248 NA
ATOM     46  C   UNL A   1      37.786  30.932  29.153  1.00  0.00     0.031 C 
ATOM     47  C   UNL A   1      37.236  33.885  33.190  1.00  0.00     0.029 A 
ATOM     48  N   UNL A   1      38.916  32.412  33.218  1.00  0.00    -0.354 N 
ATOM     49  C   UNL A   1      39.479  29.625  29.952  1.00  0.00     0.074 A 
ATOM     50  C   UNL A   1      38.501  29.844  28.910  1.00  0.00     0.031 C 
ATOM     51  C   UNL A   1      37.878  34.032  34.359  1.00  0.00     0.029 A 
ATOM     52  C   UNL A   1      38.970  33.067  34.426  1.00  0.00     0.049 A 
ATOM     53  H   UNL A   1      39.547  31.702  32.962  1.00  0.00     0.167 HD
ATOM     54  C   UNL A   1      40.448  28.680  29.902  1.00  0.00     0.037 A 
ATOM     55  C   UNL A   1      39.802  32.898  35.471  1.00  0.00     0.037 A 
ATOM     56  C   UNL A   1      41.442  28.496  30.924  1.00  0.00     0.049 A 
ATOM     57  C   UNL A   1      40.881  31.852  35.384  1.00  0.00     0.074 A 
ATOM     58  C   UNL A   1      42.512  27.617  30.939  1.00  0.00     0.029 A 
ATOM     59  N   UNL A   1      41.490  29.205  32.116  1.00  0.00    -0.354 N 
ATOM     60  N   UNL A   1      41.147  31.016  34.409  1.00  0.00    -0.248 NA
ATOM     61  C   UNL A   1      41.779  31.731  36.539  1.00  0.00     0.031 C 
ATOM     62  C   UNL A   1      43.179  27.765  32.159  1.00  0.00     0.029 A 
ATOM     63  C   UNL A   1      42.559  28.771  32.882  1.00  0.00     0.049 A 
ATOM     64  H   UNL A   1      40.856  29.913  32.378  1.00  0.00     0.167 HD
ATOM     65  C   UNL A   1      42.258  30.293  34.820  1.00  0.00     0.074 A 
ATOM     66  C   UNL A   1      42.626  30.800  36.126  1.00  0.00     0.031 C 
ATOM     67  C   UNL A   1      42.915  29.298  34.175  1.00  0.00     0.037 A 
BRANCH  54  68
ATOM     68  C   UNL A   1      40.485  27.787  28.695  1.00  0.00     0.064 A 
ATOM     69  C   UNL A   1      41.223  28.124  27.551  1.00  0.00     0.173 A 
ATOM     70  C   UNL A   1      39.797  26.564  28.694  1.00  0.00     0.173 A 
ATOM     71  F   UNL A   1      41.889  29.288  27.494  1.00  0.00    -0.203 F 
ATOM     72  C   UNL A   1      41.243  27.289  26.437  1.00  0.00     0.198 A 
ATOM     73  C   UNL A   1      39.848  25.715  27.590  1.00  0.00     0.198 A 
ATOM     74  F   UNL A   1      39.079  26.188  29.763  1.00  0.00    -0.203 F 
ATOM     75  F   UNL A   1      41.907  27.661  25.333  1.00  0.00    -0.200 F 
ATOM     76  C   UNL A   1      40.562  26.082  26.461  1.00  0.00     0.200 A 
ATOM     77  F   UNL A   1      39.199  24.542  27.620  1.00  0.00    -0.200 F 
ATOM     78  F   UNL A   1      40.587  25.275  25.390  1.00  0.00    -0.200 F 
ENDBRANCH  54  68
BRANCH  55  79
ATOM     79  C   UNL A   1      39.670  33.760  36.674  1.00  0.00     0.064 A 
ATOM     80  C   UNL A   1      38.881  33.358  37.761  1.00  0.00     0.173 A 
ATOM     81  C   UNL A   1      40.321  34.999  36.765  1.00  0.00     0.173 A 
ATOM     82  F   UNL A   1      38.222  32.190  37.714  1.00  0.00    -0.203 F 
ATOM     83  C   UNL A   1      38.729  34.172  38.882  1.00  0.00     0.198 A 
ATOM     84  C   UNL A   1      40.191  35.800  37.898  1.00  0.00     0.198 A 
ATOM     85  F   UNL A   1      41.091  35.428  35.755  1.00  0.00    -0.203 F 
ATOM     86  F   UNL A   1      37.928  33.784  39.884  1.00  0.00    -0.200 F 
ATOM     87  C   UNL A   1      39.388  35.389  38.952  1.00  0.00     0.200 A 
ATOM     88  F   UNL A   1      40.841  36.969  37.969  1.00  0.00    -0.200 F 
ATOM     89  F   UNL A   1      39.242  36.171  40.031  1.00  0.00    -0.200 F 
ENDBRANCH  55  79
BRANCH  67  90
ATOM     90  C   UNL A   1      44.124  28.720  34.850  1.00  0.00     0.064 A 
ATOM     91  C   UNL A   1      45.400  29.277  34.684  1.00  0.00     0.173 A 
ATOM     92  C   UNL A   1      43.994  27.619  35.710  1.00  0.00     0.173 A 
ATOM     93  F   UNL A   1      45.579  30.322  33.861  1.00  0.00    -0.203 F 
ATOM     94  C   UNL A   1      46.506  28.737  35.335  1.00  0.00     0.198 A 
ATOM     95  C   UNL A   1      45.097  27.102  36.384  1.00  0.00     0.198 A 
ATOM     96  F   UNL A   1      42.794  27.053  35.910  1.00  0.00    -0.203 F 
ATOM     97  F   UNL A   1      47.724  29.257  35.125  1.00  0.00    -0.200 F 
ATOM     98  C   UNL A   1      46.352  27.657  36.191  1.00  0.00     0.200 A 
ATOM     99  F   UNL A   1      44.943  26.067  37.223  1.00  0.00    -0.200 F 
ATOM    100  F   UNL A   1      47.416  27.145  36.824  1.00  0.00    -0.200 F 
ENDBRANCH  67  90
ENDBRANCH  41  42
ENDBRANCH  33  36
ENDBRANCH  31  32
ENDBRANCH  30  31
ENDBRANCH  29  30
ENDBRANCH   3  29
TORSDOF 16
ENDMDL
