MODEL 1
REMARK VINA RESULT:     -13.4      0.000      0.000
REMARK SMILES CC1=C(C(=O)NCCCNC(=O)c2ccc(-c3c4nc(c(-c5c(F)c(F)c(F)c(F)c5F)c5ccc([nH]5)c(-c5c(F)c(F)c(F)c(F)c5F)c5nc(c(-c6c(F)c(F)c(F)c(F)c6F)c6ccc3[nH]6)C=C5)C=C4)cc2)N2C(=O)[C@@H](NC(=O)c3ccn(C)n3)[C@H]2SC1
REMARK SMILES IDX 8 1 7 2 6 3 4 4 5 5 3 7 1 8 2 9 91 10 76 11 90 12 77 13
REMARK SMILES IDX 89 14 78 15 79 16 80 17 81 18 82 20 83 21 84 22 88 23 85 24
REMARK SMILES IDX 86 25 87 26 9 27 10 28 11 29 12 31 13 32 14 33 75 34 15 35
REMARK SMILES IDX 74 36 16 37 17 38 18 39 68 40 19 41 73 42 67 43 69 44 20 45
REMARK SMILES IDX 72 46 66 47 65 48 21 50 53 51 33 52 52 53 34 54 37 55 51 56
REMARK SMILES IDX 70 57 35 58 36 59 50 61 71 62 38 63 22 64 23 65 31 66 24 67
REMARK SMILES IDX 25 68 29 69 32 70 26 71 27 72 30 73 28 74 54 75 55 76 63 77
REMARK SMILES IDX 56 78 57 79 61 80 64 81 58 82 59 83 62 84 60 85 39 86 40 87
REMARK SMILES IDX 48 88 41 89 42 90 46 91 49 92 43 93 44 94 47 95 45 96
REMARK H PARENT 6 6 80 19 10 30 69 49 37 60
REMARK Flexibility Score: inf
ROOT
ATOM      1  C   UNL A   1      31.415  32.091  26.537  1.00  0.00     0.042 C 
ENDROOT
BRANCH   1   2
ATOM      2  C   UNL A   1      31.512  30.587  26.419  1.00  0.00     0.118 C 
BRANCH   2   3
ATOM      3  N   UNL A   1      32.590  30.077  25.599  1.00  0.00    -0.351 N 
ATOM      4  C   UNL A   1      32.525  29.243  24.516  1.00  0.00     0.268 C 
ATOM      5  O   UNL A   1      33.524  29.128  23.804  1.00  0.00    -0.268 OA
ATOM      6  H   UNL A   1      33.494  30.368  25.856  1.00  0.00     0.163 HD
BRANCH   4   7
ATOM      7  C   UNL A   1      31.286  28.431  24.222  1.00  0.00     0.110 C 
ATOM      8  C   UNL A   1      30.654  29.483  22.002  1.00  0.00     0.043 C 
ATOM      9  C   UNL A   1      30.404  28.611  23.206  1.00  0.00    -0.034 C 
ATOM     10  C   UNL A   1      29.048  27.904  23.126  1.00  0.00     0.104 C 
ATOM     11  N   UNL A   1      31.148  27.300  24.962  1.00  0.00    -0.290 N 
ATOM     12  S   UNL A   1      28.733  26.629  24.398  1.00  0.00    -0.129 SA
ATOM     13  C   UNL A   1      31.590  26.736  26.102  1.00  0.00     0.253 C 
ATOM     14  C   UNL A   1      30.469  26.141  24.430  1.00  0.00     0.181 C 
ATOM     15  O   UNL A   1      32.178  27.155  27.071  1.00  0.00    -0.272 OA
ATOM     16  C   UNL A   1      31.054  25.357  25.618  1.00  0.00     0.206 C 
BRANCH  16  17
ATOM     17  N   UNL A   1      30.124  24.590  26.470  1.00  0.00    -0.336 N 
ATOM     18  C   UNL A   1      30.279  23.275  26.876  1.00  0.00     0.272 C 
ATOM     19  H   UNL A   1      29.316  25.058  26.779  1.00  0.00     0.164 HD
ATOM     20  O   UNL A   1      29.334  22.702  27.417  1.00  0.00    -0.267 OA
BRANCH  18  21
ATOM     21  C   UNL A   1      31.575  22.625  26.619  1.00  0.00     0.150 A 
ATOM     22  C   UNL A   1      32.766  22.720  27.397  1.00  0.00     0.056 A 
ATOM     23  N   UNL A   1      31.791  21.867  25.526  1.00  0.00    -0.168 NA
ATOM     24  C   UNL A   1      33.720  22.019  26.702  1.00  0.00     0.109 A 
ATOM     25  N   UNL A   1      33.077  21.491  25.624  1.00  0.00    -0.275 N 
ATOM     26  C   UNL A   1      33.661  20.627  24.625  1.00  0.00     0.173 C 
ENDBRANCH  18  21
ENDBRANCH  16  17
ENDBRANCH   4   7
ENDBRANCH   2   3
ENDBRANCH   1   2
BRANCH   1  27
ATOM     27  C   UNL A   1      32.573  32.757  27.256  1.00  0.00     0.118 C 
BRANCH  27  28
ATOM     28  N   UNL A   1      32.333  34.150  27.623  1.00  0.00    -0.352 N 
ATOM     29  C   UNL A   1      32.932  34.971  28.553  1.00  0.00     0.251 C 
ATOM     30  H   UNL A   1      31.609  34.581  27.112  1.00  0.00     0.163 HD
ATOM     31  O   UNL A   1      32.470  36.092  28.752  1.00  0.00    -0.269 OA
BRANCH  29  32
ATOM     32  C   UNL A   1      34.089  34.506  29.351  1.00  0.00     0.039 A 
ATOM     33  C   UNL A   1      33.872  33.984  30.629  1.00  0.00     0.014 A 
ATOM     34  C   UNL A   1      35.387  34.568  28.851  1.00  0.00     0.014 A 
ATOM     35  C   UNL A   1      34.938  33.432  31.346  1.00  0.00     0.010 A 
ATOM     36  C   UNL A   1      36.412  33.885  29.491  1.00  0.00     0.010 A 
ATOM     37  C   UNL A   1      36.207  33.321  30.757  1.00  0.00    -0.014 A 
BRANCH  37  38
ATOM     38  C   UNL A   1      37.336  32.644  31.447  1.00  0.00     0.031 A 
ATOM     39  C   UNL A   1      38.049  31.493  30.784  1.00  0.00     0.074 A 
ATOM     40  C   UNL A   1      37.680  33.018  32.697  1.00  0.00     0.049 A 
ATOM     41  N   UNL A   1      39.016  30.740  31.246  1.00  0.00    -0.248 NA
ATOM     42  C   UNL A   1      37.591  31.112  29.437  1.00  0.00     0.031 C 
ATOM     43  C   UNL A   1      37.026  34.072  33.476  1.00  0.00     0.029 A 
ATOM     44  N   UNL A   1      38.662  32.552  33.534  1.00  0.00    -0.354 N 
ATOM     45  C   UNL A   1      39.265  29.796  30.257  1.00  0.00     0.074 A 
ATOM     46  C   UNL A   1      38.297  30.017  29.207  1.00  0.00     0.031 C 
ATOM     47  C   UNL A   1      37.654  34.203  34.655  1.00  0.00     0.029 A 
ATOM     48  C   UNL A   1      38.720  33.211  34.739  1.00  0.00     0.049 A 
ATOM     49  H   UNL A   1      39.269  31.814  33.294  1.00  0.00     0.167 HD
ATOM     50  C   UNL A   1      40.236  28.854  30.207  1.00  0.00     0.037 A 
ATOM     51  C   UNL A   1      39.539  33.033  35.793  1.00  0.00     0.037 A 
ATOM     52  C   UNL A   1      41.214  28.652  31.243  1.00  0.00     0.049 A 
ATOM     53  C   UNL A   1      40.603  31.970  35.719  1.00  0.00     0.074 A 
ATOM     54  C   UNL A   1      42.273  27.763  31.268  1.00  0.00     0.029 A 
ATOM     55  N   UNL A   1      41.245  29.348  32.444  1.00  0.00    -0.354 N 
ATOM     56  N   UNL A   1      40.878  31.138  34.744  1.00  0.00    -0.248 NA
ATOM     57  C   UNL A   1      41.477  31.829  36.891  1.00  0.00     0.031 C 
ATOM     58  C   UNL A   1      42.908  27.876  32.509  1.00  0.00     0.029 A 
ATOM     59  C   UNL A   1      42.292  28.888  33.228  1.00  0.00     0.049 A 
ATOM     60  H   UNL A   1      40.619  30.062  32.700  1.00  0.00     0.167 HD
ATOM     61  C   UNL A   1      41.975  30.399  35.169  1.00  0.00     0.074 A 
ATOM     62  C   UNL A   1      42.326  30.899  36.483  1.00  0.00     0.031 C 
ATOM     63  C   UNL A   1      42.632  29.399  34.531  1.00  0.00     0.037 A 
BRANCH  50  64
ATOM     64  C   UNL A   1      40.292  27.975  28.988  1.00  0.00     0.064 A 
ATOM     65  C   UNL A   1      41.032  28.336  27.849  1.00  0.00     0.173 A 
ATOM     66  C   UNL A   1      39.621  26.744  28.965  1.00  0.00     0.173 A 
ATOM     67  F   UNL A   1      41.683  29.510  27.810  1.00  0.00    -0.203 F 
ATOM     68  C   UNL A   1      41.066  27.517  26.724  1.00  0.00     0.198 A 
ATOM     69  C   UNL A   1      39.689  25.908  27.853  1.00  0.00     0.198 A 
ATOM     70  F   UNL A   1      38.903  26.344  30.025  1.00  0.00    -0.203 F 
ATOM     71  F   UNL A   1      41.727  27.914  25.629  1.00  0.00    -0.200 F 
ATOM     72  C   UNL A   1      40.402  26.300  26.730  1.00  0.00     0.200 A 
ATOM     73  F   UNL A   1      39.060  24.724  27.867  1.00  0.00    -0.200 F 
ATOM     74  F   UNL A   1      40.443  25.507  25.650  1.00  0.00    -0.200 F 
ENDBRANCH  50  64
BRANCH  51  75
ATOM     75  C   UNL A   1      39.409  33.898  36.996  1.00  0.00     0.064 A 
ATOM     76  C   UNL A   1      38.690  33.467  38.122  1.00  0.00     0.173 A 
ATOM     77  C   UNL A   1      39.985  35.177  37.045  1.00  0.00     0.173 A 
ATOM     78  F   UNL A   1      38.105  32.260  38.119  1.00  0.00    -0.203 F 
ATOM     79  C   UNL A   1      38.529  34.290  39.234  1.00  0.00     0.198 A 
ATOM     80  C   UNL A   1      39.852  35.985  38.172  1.00  0.00     0.198 A 
ATOM     81  F   UNL A   1      40.690  35.636  36.001  1.00  0.00    -0.203 F 
ATOM     82  F   UNL A   1      37.789  33.873  40.271  1.00  0.00    -0.200 F 
ATOM     83  C   UNL A   1      39.114  35.546  39.261  1.00  0.00     0.200 A 
ATOM     84  F   UNL A   1      40.436  37.190  38.201  1.00  0.00    -0.200 F 
ATOM     85  F   UNL A   1      38.961  36.336  40.332  1.00  0.00    -0.200 F 
ENDBRANCH  51  75
BRANCH  63  86
ATOM     86  C   UNL A   1      43.828  28.808  35.225  1.00  0.00     0.064 A 
ATOM     87  C   UNL A   1      45.124  29.307  35.024  1.00  0.00     0.173 A 
ATOM     88  C   UNL A   1      43.668  27.743  36.125  1.00  0.00     0.173 A 
ATOM     89  F   UNL A   1      45.335  30.316  34.165  1.00  0.00    -0.203 F 
ATOM     90  C   UNL A   1      46.219  28.734  35.666  1.00  0.00     0.198 A 
ATOM     91  C   UNL A   1      44.760  27.199  36.796  1.00  0.00     0.198 A 
ATOM     92  F   UNL A   1      42.450  27.235  36.364  1.00  0.00    -0.203 F 
ATOM     93  F   UNL A   1      47.454  29.183  35.407  1.00  0.00    -0.200 F 
ATOM     94  C   UNL A   1      46.035  27.686  36.557  1.00  0.00     0.200 A 
ATOM     95  F   UNL A   1      44.577  26.202  37.672  1.00  0.00    -0.200 F 
ATOM     96  F   UNL A   1      47.089  27.141  37.178  1.00  0.00    -0.200 F 
ENDBRANCH  63  86
ENDBRANCH  37  38
ENDBRANCH  29  32
ENDBRANCH  27  28
ENDBRANCH   1  27
TORSDOF 12
ENDMDL
MODEL 2
REMARK VINA RESULT:     -13.4      0.610      7.262
REMARK SMILES CC1=C(C(=O)NCCCNC(=O)c2ccc(-c3c4nc(c(-c5c(F)c(F)c(F)c(F)c5F)c5ccc([nH]5)c(-c5c(F)c(F)c(F)c(F)c5F)c5nc(c(-c6c(F)c(F)c(F)c(F)c6F)c6ccc3[nH]6)C=C5)C=C4)cc2)N2C(=O)[C@@H](NC(=O)c3ccn(C)n3)[C@H]2SC1
REMARK SMILES IDX 8 1 7 2 6 3 4 4 5 5 3 7 1 8 2 9 91 10 76 11 90 12 77 13
REMARK SMILES IDX 89 14 78 15 79 16 80 17 81 18 82 20 83 21 84 22 88 23 85 24
REMARK SMILES IDX 86 25 87 26 9 27 10 28 11 29 12 31 13 32 14 33 75 34 15 35
REMARK SMILES IDX 74 36 16 37 17 38 18 39 68 40 19 41 73 42 67 43 69 44 20 45
REMARK SMILES IDX 72 46 66 47 65 48 21 50 53 51 33 52 52 53 34 54 37 55 51 56
REMARK SMILES IDX 70 57 35 58 36 59 50 61 71 62 38 63 22 64 23 65 31 66 24 67
REMARK SMILES IDX 25 68 29 69 32 70 26 71 27 72 30 73 28 74 54 75 55 76 63 77
REMARK SMILES IDX 56 78 57 79 61 80 64 81 58 82 59 83 62 84 60 85 39 86 40 87
REMARK SMILES IDX 48 88 41 89 42 90 46 91 49 92 43 93 44 94 47 95 45 96
REMARK H PARENT 6 6 80 19 10 30 69 49 37 60
REMARK Flexibility Score: inf
ROOT
ATOM      1  C   UNL A   1      31.366  32.147  26.495  1.00  0.00     0.042 C 
ENDROOT
BRANCH   1   2
ATOM      2  C   UNL A   1      31.420  30.646  26.322  1.00  0.00     0.118 C 
BRANCH   2   3
ATOM      3  N   UNL A   1      32.513  30.132  25.526  1.00  0.00    -0.351 N 
ATOM      4  C   UNL A   1      32.471  29.278  24.458  1.00  0.00     0.268 C 
ATOM      5  O   UNL A   1      33.481  29.159  23.761  1.00  0.00    -0.268 OA
ATOM      6  H   UNL A   1      33.411  30.437  25.789  1.00  0.00     0.163 HD
BRANCH   4   7
ATOM      7  C   UNL A   1      31.245  28.448  24.163  1.00  0.00     0.110 C 
ATOM      8  C   UNL A   1      30.601  29.487  21.940  1.00  0.00     0.043 C 
ATOM      9  C   UNL A   1      30.362  28.614  23.145  1.00  0.00    -0.034 C 
ATOM     10  C   UNL A   1      29.016  27.887  23.064  1.00  0.00     0.104 C 
ATOM     11  N   UNL A   1      31.121  27.316  24.905  1.00  0.00    -0.290 N 
ATOM     12  S   UNL A   1      28.717  26.610  24.337  1.00  0.00    -0.129 SA
ATOM     13  C   UNL A   1      31.570  26.760  26.045  1.00  0.00     0.253 C 
ATOM     14  C   UNL A   1      30.459  26.146  24.373  1.00  0.00     0.181 C 
ATOM     15  O   UNL A   1      32.150  27.189  27.015  1.00  0.00    -0.272 OA
ATOM     16  C   UNL A   1      31.053  25.373  25.563  1.00  0.00     0.206 C 
BRANCH  16  17
ATOM     17  N   UNL A   1      30.133  24.593  26.415  1.00  0.00    -0.336 N 
ATOM     18  C   UNL A   1      30.322  23.293  26.850  1.00  0.00     0.272 C 
ATOM     19  H   UNL A   1      29.305  25.042  26.701  1.00  0.00     0.164 HD
ATOM     20  O   UNL A   1      29.386  22.701  27.386  1.00  0.00    -0.267 OA
BRANCH  18  21
ATOM     21  C   UNL A   1      31.642  22.679  26.628  1.00  0.00     0.150 A 
ATOM     22  C   UNL A   1      32.805  22.799  27.443  1.00  0.00     0.056 A 
ATOM     23  N   UNL A   1      31.911  21.936  25.537  1.00  0.00    -0.168 NA
ATOM     24  C   UNL A   1      33.799  22.129  26.773  1.00  0.00     0.109 A 
ATOM     25  N   UNL A   1      33.203  21.592  25.672  1.00  0.00    -0.275 N 
ATOM     26  C   UNL A   1      33.840  20.752  24.686  1.00  0.00     0.173 C 
ENDBRANCH  18  21
ENDBRANCH  16  17
ENDBRANCH   4   7
ENDBRANCH   2   3
ENDBRANCH   1   2
BRANCH   1  27
ATOM     27  C   UNL A   1      32.573  32.761  27.177  1.00  0.00     0.118 C 
BRANCH  27  28
ATOM     28  N   UNL A   1      32.375  34.134  27.632  1.00  0.00    -0.352 N 
ATOM     29  C   UNL A   1      33.017  34.885  28.592  1.00  0.00     0.251 C 
ATOM     30  H   UNL A   1      31.649  34.610  27.168  1.00  0.00     0.163 HD
ATOM     31  O   UNL A   1      32.587  36.003  28.869  1.00  0.00    -0.269 OA
BRANCH  29  32
ATOM     32  C   UNL A   1      34.184  34.349  29.329  1.00  0.00     0.039 A 
ATOM     33  C   UNL A   1      33.972  33.555  30.460  1.00  0.00     0.014 A 
ATOM     34  C   UNL A   1      35.487  34.611  28.914  1.00  0.00     0.014 A 
ATOM     35  C   UNL A   1      35.057  32.944  31.095  1.00  0.00     0.010 A 
ATOM     36  C   UNL A   1      36.545  33.885  29.445  1.00  0.00     0.010 A 
ATOM     37  C   UNL A   1      36.349  33.054  30.555  1.00  0.00    -0.014 A 
BRANCH  37  38
ATOM     38  C   UNL A   1      37.508  32.332  31.142  1.00  0.00     0.031 A 
ATOM     39  C   UNL A   1      38.016  32.701  32.512  1.00  0.00     0.074 A 
ATOM     40  C   UNL A   1      38.145  31.388  30.420  1.00  0.00     0.049 A 
ATOM     41  N   UNL A   1      39.045  32.227  33.170  1.00  0.00    -0.248 NA
ATOM     42  C   UNL A   1      37.297  33.770  33.225  1.00  0.00     0.031 C 
ATOM     43  C   UNL A   1      37.795  30.984  29.056  1.00  0.00     0.029 A 
ATOM     44  N   UNL A   1      39.225  30.599  30.729  1.00  0.00    -0.354 N 
ATOM     45  C   UNL A   1      39.101  32.950  34.356  1.00  0.00     0.074 A 
ATOM     46  C   UNL A   1      38.056  33.946  34.294  1.00  0.00     0.031 C 
ATOM     47  C   UNL A   1      38.612  29.994  28.666  1.00  0.00     0.029 A 
ATOM     48  C   UNL A   1      39.576  29.725  29.728  1.00  0.00     0.049 A 
ATOM     49  H   UNL A   1      39.704  30.654  31.588  1.00  0.00     0.167 HD
ATOM     50  C   UNL A   1      39.921  32.776  35.419  1.00  0.00     0.037 A 
ATOM     51  C   UNL A   1      40.565  28.813  29.671  1.00  0.00     0.037 A 
ATOM     52  C   UNL A   1      40.945  31.768  35.488  1.00  0.00     0.049 A 
ATOM     53  C   UNL A   1      41.473  28.648  30.862  1.00  0.00     0.074 A 
ATOM     54  C   UNL A   1      41.794  31.470  36.538  1.00  0.00     0.029 A 
ATOM     55  N   UNL A   1      41.261  30.894  34.456  1.00  0.00    -0.354 N 
ATOM     56  N   UNL A   1      41.463  29.283  32.008  1.00  0.00    -0.248 NA
ATOM     57  C   UNL A   1      42.526  27.629  30.751  1.00  0.00     0.031 C 
ATOM     58  C   UNL A   1      42.666  30.460  36.122  1.00  0.00     0.029 A 
ATOM     59  C   UNL A   1      42.313  30.075  34.838  1.00  0.00     0.049 A 
ATOM     60  H   UNL A   1      40.807  30.861  33.585  1.00  0.00     0.167 HD
ATOM     61  C   UNL A   1      42.481  28.720  32.767  1.00  0.00     0.074 A 
ATOM     62  C   UNL A   1      43.073  27.677  31.955  1.00  0.00     0.031 C 
ATOM     63  C   UNL A   1      42.888  29.038  34.021  1.00  0.00     0.037 A 
BRANCH  50  64
ATOM     64  C   UNL A   1      39.739  33.693  36.596  1.00  0.00     0.064 A 
ATOM     65  C   UNL A   1      40.377  34.944  36.666  1.00  0.00     0.173 A 
ATOM     66  C   UNL A   1      38.895  33.334  37.657  1.00  0.00     0.173 A 
ATOM     67  F   UNL A   1      41.206  35.335  35.686  1.00  0.00    -0.203 F 
ATOM     68  C   UNL A   1      40.206  35.778  37.767  1.00  0.00     0.198 A 
ATOM     69  C   UNL A   1      38.695  34.187  38.739  1.00  0.00     0.198 A 
ATOM     70  F   UNL A   1      38.256  32.154  37.644  1.00  0.00    -0.203 F 
ATOM     71  F   UNL A   1      40.874  36.937  37.837  1.00  0.00    -0.200 F 
ATOM     72  C   UNL A   1      39.358  35.403  38.798  1.00  0.00     0.200 A 
ATOM     73  F   UNL A   1      37.863  33.830  39.727  1.00  0.00    -0.200 F 
ATOM     74  F   UNL A   1      39.187  36.211  39.854  1.00  0.00    -0.200 F 
ENDBRANCH  50  64
BRANCH  51  75
ATOM     75  C   UNL A   1      40.733  27.964  28.461  1.00  0.00     0.064 A 
ATOM     76  C   UNL A   1      41.510  28.398  27.377  1.00  0.00     0.173 A 
ATOM     77  C   UNL A   1      40.112  26.710  28.355  1.00  0.00     0.173 A 
ATOM     78  F   UNL A   1      42.110  29.597  27.421  1.00  0.00    -0.203 F 
ATOM     79  C   UNL A   1      41.635  27.626  26.223  1.00  0.00     0.198 A 
ATOM     80  C   UNL A   1      40.267  25.924  27.215  1.00  0.00     0.198 A 
ATOM     81  F   UNL A   1      39.365  26.242  29.365  1.00  0.00    -0.203 F 
ATOM     82  F   UNL A   1      42.337  28.093  25.181  1.00  0.00    -0.200 F 
ATOM     83  C   UNL A   1      41.017  26.388  26.145  1.00  0.00     0.200 A 
ATOM     84  F   UNL A   1      39.685  24.719  27.152  1.00  0.00    -0.200 F 
ATOM     85  F   UNL A   1      41.141  25.644  25.037  1.00  0.00    -0.200 F 
ENDBRANCH  51  75
BRANCH  63  86
ATOM     86  C   UNL A   1      44.000  28.216  34.612  1.00  0.00     0.064 A 
ATOM     87  C   UNL A   1      45.345  28.600  34.506  1.00  0.00     0.173 A 
ATOM     88  C   UNL A   1      43.709  27.037  35.318  1.00  0.00     0.173 A 
ATOM     89  F   UNL A   1      45.680  29.711  33.832  1.00  0.00    -0.203 F 
ATOM     90  C   UNL A   1      46.358  27.814  35.049  1.00  0.00     0.198 A 
ATOM     91  C   UNL A   1      44.722  26.276  35.894  1.00  0.00     0.198 A 
ATOM     92  F   UNL A   1      42.439  26.629  35.460  1.00  0.00    -0.203 F 
ATOM     93  F   UNL A   1      47.640  28.166  34.877  1.00  0.00    -0.200 F 
ATOM     94  C   UNL A   1      46.046  26.658  35.749  1.00  0.00     0.200 A 
ATOM     95  F   UNL A   1      44.415  25.172  36.588  1.00  0.00    -0.200 F 
ATOM     96  F   UNL A   1      47.023  25.908  36.275  1.00  0.00    -0.200 F 
ENDBRANCH  63  86
ENDBRANCH  37  38
ENDBRANCH  29  32
ENDBRANCH  27  28
ENDBRANCH   1  27
TORSDOF 12
ENDMDL
MODEL 3
REMARK VINA RESULT:     -13.2      1.147      7.418
REMARK SMILES CC1=C(C(=O)NCCCNC(=O)c2ccc(-c3c4nc(c(-c5c(F)c(F)c(F)c(F)c5F)c5ccc([nH]5)c(-c5c(F)c(F)c(F)c(F)c5F)c5nc(c(-c6c(F)c(F)c(F)c(F)c6F)c6ccc3[nH]6)C=C5)C=C4)cc2)N2C(=O)[C@@H](NC(=O)c3ccn(C)n3)[C@H]2SC1
REMARK SMILES IDX 8 1 7 2 6 3 4 4 5 5 3 7 1 8 2 9 91 10 76 11 90 12 77 13
REMARK SMILES IDX 89 14 78 15 79 16 80 17 81 18 82 20 83 21 84 22 88 23 85 24
REMARK SMILES IDX 86 25 87 26 9 27 10 28 11 29 12 31 13 32 14 33 75 34 15 35
REMARK SMILES IDX 74 36 16 37 17 38 18 39 68 40 19 41 73 42 67 43 69 44 20 45
REMARK SMILES IDX 72 46 66 47 65 48 21 50 53 51 33 52 52 53 34 54 37 55 51 56
REMARK SMILES IDX 70 57 35 58 36 59 50 61 71 62 38 63 22 64 23 65 31 66 24 67
REMARK SMILES IDX 25 68 29 69 32 70 26 71 27 72 30 73 28 74 54 75 55 76 63 77
REMARK SMILES IDX 56 78 57 79 61 80 64 81 58 82 59 83 62 84 60 85 39 86 40 87
REMARK SMILES IDX 48 88 41 89 42 90 46 91 49 92 43 93 44 94 47 95 45 96
REMARK H PARENT 6 6 80 19 10 30 69 49 37 60
REMARK Flexibility Score: inf
ROOT
ATOM      1  C   UNL A   1      31.027  32.478  26.434  1.00  0.00     0.042 C 
ENDROOT
BRANCH   1   2
ATOM      2  C   UNL A   1      30.889  31.149  25.725  1.00  0.00     0.118 C 
BRANCH   2   3
ATOM      3  N   UNL A   1      32.119  30.436  25.456  1.00  0.00    -0.351 N 
ATOM      4  C   UNL A   1      32.312  29.308  24.707  1.00  0.00     0.268 C 
ATOM      5  O   UNL A   1      33.464  29.002  24.393  1.00  0.00    -0.268 OA
ATOM      6  H   UNL A   1      32.928  30.814  25.869  1.00  0.00     0.163 HD
BRANCH   4   7
ATOM      7  C   UNL A   1      31.158  28.415  24.319  1.00  0.00     0.110 C 
ATOM      8  C   UNL A   1      30.646  29.414  22.045  1.00  0.00     0.043 C 
ATOM      9  C   UNL A   1      30.354  28.533  23.231  1.00  0.00    -0.034 C 
ATOM     10  C   UNL A   1      29.058  27.738  23.046  1.00  0.00     0.104 C 
ATOM     11  N   UNL A   1      31.031  27.280  25.056  1.00  0.00    -0.290 N 
ATOM     12  S   UNL A   1      28.721  26.450  24.299  1.00  0.00    -0.129 SA
ATOM     13  C   UNL A   1      31.413  26.750  26.233  1.00  0.00     0.253 C 
ATOM     14  C   UNL A   1      30.476  26.076  24.480  1.00  0.00     0.181 C 
ATOM     15  O   UNL A   1      31.890  27.211  27.244  1.00  0.00    -0.272 OA
ATOM     16  C   UNL A   1      31.010  25.338  25.719  1.00  0.00     0.206 C 
BRANCH  16  17
ATOM     17  N   UNL A   1      30.064  24.514  26.499  1.00  0.00    -0.336 N 
ATOM     18  C   UNL A   1      30.254  23.202  26.898  1.00  0.00     0.272 C 
ATOM     19  H   UNL A   1      29.215  24.939  26.759  1.00  0.00     0.164 HD
ATOM     20  O   UNL A   1      29.304  22.577  27.368  1.00  0.00    -0.267 OA
BRANCH  18  21
ATOM     21  C   UNL A   1      31.595  22.618  26.719  1.00  0.00     0.150 A 
ATOM     22  C   UNL A   1      32.662  22.585  27.663  1.00  0.00     0.056 A 
ATOM     23  N   UNL A   1      31.984  22.065  25.554  1.00  0.00    -0.168 NA
ATOM     24  C   UNL A   1      33.726  22.025  27.000  1.00  0.00     0.109 A 
ATOM     25  N   UNL A   1      33.256  21.688  25.768  1.00  0.00    -0.275 N 
ATOM     26  C   UNL A   1      34.001  21.017  24.728  1.00  0.00     0.173 C 
ENDBRANCH  18  21
ENDBRANCH  16  17
ENDBRANCH   4   7
ENDBRANCH   2   3
ENDBRANCH   1   2
BRANCH   1  27
ATOM     27  C   UNL A   1      32.422  32.798  26.935  1.00  0.00     0.118 C 
BRANCH  27  28
ATOM     28  N   UNL A   1      32.536  34.084  27.617  1.00  0.00    -0.352 N 
ATOM     29  C   UNL A   1      33.434  34.553  28.550  1.00  0.00     0.251 C 
ATOM     30  H   UNL A   1      31.842  34.737  27.364  1.00  0.00     0.163 HD
ATOM     31  O   UNL A   1      33.251  35.655  29.063  1.00  0.00    -0.269 OA
BRANCH  29  32
ATOM     32  C   UNL A   1      34.586  33.729  28.983  1.00  0.00     0.039 A 
ATOM     33  C   UNL A   1      35.883  34.220  28.805  1.00  0.00     0.014 A 
ATOM     34  C   UNL A   1      34.405  32.481  29.572  1.00  0.00     0.014 A 
ATOM     35  C   UNL A   1      36.973  33.510  29.316  1.00  0.00     0.010 A 
ATOM     36  C   UNL A   1      35.465  31.854  30.213  1.00  0.00     0.010 A 
ATOM     37  C   UNL A   1      36.768  32.349  30.080  1.00  0.00    -0.014 A 
BRANCH  37  38
ATOM     38  C   UNL A   1      37.895  31.628  30.728  1.00  0.00     0.031 A 
ATOM     39  C   UNL A   1      38.277  31.943  32.151  1.00  0.00     0.074 A 
ATOM     40  C   UNL A   1      38.617  30.736  30.019  1.00  0.00     0.049 A 
ATOM     41  N   UNL A   1      39.262  31.465  32.871  1.00  0.00    -0.248 NA
ATOM     42  C   UNL A   1      37.471  32.959  32.849  1.00  0.00     0.031 C 
ATOM     43  C   UNL A   1      38.393  30.390  28.614  1.00  0.00     0.029 A 
ATOM     44  N   UNL A   1      39.690  29.961  30.381  1.00  0.00    -0.354 N 
ATOM     45  C   UNL A   1      39.198  32.130  34.089  1.00  0.00     0.074 A 
ATOM     46  C   UNL A   1      38.133  33.102  33.986  1.00  0.00     0.031 C 
ATOM     47  C   UNL A   1      39.268  29.441  28.248  1.00  0.00     0.029 A 
ATOM     48  C   UNL A   1      40.148  29.145  29.374  1.00  0.00     0.049 A 
ATOM     49  H   UNL A   1      40.094  29.986  31.279  1.00  0.00     0.167 HD
ATOM     50  C   UNL A   1      39.932  31.926  35.209  1.00  0.00     0.037 A 
ATOM     51  C   UNL A   1      41.164  28.262  29.359  1.00  0.00     0.037 A 
ATOM     52  C   UNL A   1      40.975  30.941  35.316  1.00  0.00     0.049 A 
ATOM     53  C   UNL A   1      41.975  28.062  30.613  1.00  0.00     0.074 A 
ATOM     54  C   UNL A   1      41.742  30.615  36.420  1.00  0.00     0.029 A 
ATOM     55  N   UNL A   1      41.401  30.127  34.276  1.00  0.00    -0.354 N 
ATOM     56  N   UNL A   1      41.851  28.641  31.782  1.00  0.00    -0.248 NA
ATOM     57  C   UNL A   1      43.062  27.077  30.544  1.00  0.00     0.031 C 
ATOM     58  C   UNL A   1      42.675  29.648  36.032  1.00  0.00     0.029 A 
ATOM     59  C   UNL A   1      42.441  29.317  34.707  1.00  0.00     0.049 A 
ATOM     60  H   UNL A   1      41.022  30.124  33.369  1.00  0.00     0.167 HD
ATOM     61  C   UNL A   1      42.819  28.068  32.597  1.00  0.00     0.074 A 
ATOM     62  C   UNL A   1      43.506  27.080  31.791  1.00  0.00     0.031 C 
ATOM     63  C   UNL A   1      43.112  28.335  33.894  1.00  0.00     0.037 A 
BRANCH  50  64
ATOM     64  C   UNL A   1      39.626  32.781  36.407  1.00  0.00     0.064 A 
ATOM     65  C   UNL A   1      38.582  32.466  37.293  1.00  0.00     0.173 A 
ATOM     66  C   UNL A   1      40.402  33.914  36.692  1.00  0.00     0.173 A 
ATOM     67  F   UNL A   1      37.799  31.400  37.063  1.00  0.00    -0.203 F 
ATOM     68  C   UNL A   1      38.304  33.272  38.394  1.00  0.00     0.198 A 
ATOM     69  C   UNL A   1      40.146  34.697  37.815  1.00  0.00     0.198 A 
ATOM     70  F   UNL A   1      41.415  34.261  35.884  1.00  0.00    -0.203 F 
ATOM     71  F   UNL A   1      37.264  32.984  39.187  1.00  0.00    -0.200 F 
ATOM     72  C   UNL A   1      39.093  34.382  38.659  1.00  0.00     0.200 A 
ATOM     73  F   UNL A   1      40.920  35.760  38.079  1.00  0.00    -0.200 F 
ATOM     74  F   UNL A   1      38.830  35.153  39.724  1.00  0.00    -0.200 F 
ENDBRANCH  50  64
BRANCH  51  75
ATOM     75  C   UNL A   1      41.456  27.477  28.130  1.00  0.00     0.064 A 
ATOM     76  C   UNL A   1      40.858  26.227  27.912  1.00  0.00     0.173 A 
ATOM     77  C   UNL A   1      42.347  27.949  27.154  1.00  0.00     0.173 A 
ATOM     78  F   UNL A   1      40.013  25.723  28.823  1.00  0.00    -0.203 F 
ATOM     79  C   UNL A   1      41.162  25.468  26.784  1.00  0.00     0.198 A 
ATOM     80  C   UNL A   1      42.623  27.205  26.009  1.00  0.00     0.198 A 
ATOM     81  F   UNL A   1      42.941  29.142  27.306  1.00  0.00    -0.203 F 
ATOM     82  F   UNL A   1      40.618  24.252  26.632  1.00  0.00    -0.200 F 
ATOM     83  C   UNL A   1      42.039  25.960  25.830  1.00  0.00     0.200 A 
ATOM     84  F   UNL A   1      43.456  27.692  25.080  1.00  0.00    -0.200 F 
ATOM     85  F   UNL A   1      42.328  25.231  24.744  1.00  0.00    -0.200 F 
ENDBRANCH  51  75
BRANCH  63  86
ATOM     86  C   UNL A   1      44.194  27.513  34.539  1.00  0.00     0.064 A 
ATOM     87  C   UNL A   1      43.928  26.269  35.132  1.00  0.00     0.173 A 
ATOM     88  C   UNL A   1      45.521  27.969  34.540  1.00  0.00     0.173 A 
ATOM     89  F   UNL A   1      42.675  25.792  35.169  1.00  0.00    -0.203 F 
ATOM     90  C   UNL A   1      44.944  25.533  35.736  1.00  0.00     0.198 A 
ATOM     91  C   UNL A   1      46.541  27.211  35.109  1.00  0.00     0.198 A 
ATOM     92  F   UNL A   1      45.834  29.146  33.977  1.00  0.00    -0.203 F 
ATOM     93  F   UNL A   1      44.655  24.380  36.354  1.00  0.00    -0.200 F 
ATOM     94  C   UNL A   1      46.250  26.000  35.717  1.00  0.00     0.200 A 
ATOM     95  F   UNL A   1      47.804  27.655  35.070  1.00  0.00    -0.200 F 
ATOM     96  F   UNL A   1      47.226  25.288  36.294  1.00  0.00    -0.200 F 
ENDBRANCH  63  86
ENDBRANCH  37  38
ENDBRANCH  29  32
ENDBRANCH  27  28
ENDBRANCH   1  27
TORSDOF 12
ENDMDL
