MODEL 1
REMARK VINA RESULT:     -12.9      0.000      0.000
REMARK SMILES Cc1cccc([C@H]([NH3+])[C@H](O)C(=O)NCCCNC(=O)c2ccc(-c3c4nc(c(-c5c(F)c(F)c(F)c(F)c5F)c5ccc([nH]5)c(-c5c(F)c(F)c(F)c(F)c5F)c5nc(c(-c6c(F)c(F)c(F)c(F)c6F)c6ccc3[nH]6)C=C5)C=C4)cc2)c1
REMARK SMILES IDX 15 1 14 2 13 3 11 4 12 5 9 7 7 8 6 9 1 10 2 11 3 12 83 13
REMARK SMILES IDX 4 14 5 15 8 16 10 20 16 22 17 23 18 24 19 26 20 27 21 28
REMARK SMILES IDX 82 29 22 30 81 31 23 32 24 33 25 34 75 35 26 36 80 37 74 38
REMARK SMILES IDX 76 39 27 40 79 41 73 42 72 43 28 45 60 46 40 47 59 48 41 49
REMARK SMILES IDX 44 50 58 51 77 52 42 53 43 54 57 56 78 57 45 58 29 59 30 60
REMARK SMILES IDX 38 61 31 62 32 63 36 64 39 65 33 66 34 67 37 68 35 69 61 70
REMARK SMILES IDX 62 71 70 72 63 73 64 74 68 75 71 76 65 77 66 78 69 79 67 80
REMARK SMILES IDX 46 81 47 82 55 83 48 84 49 85 53 86 56 87 50 88 51 89 54 90
REMARK SMILES IDX 52 91
REMARK H PARENT 13 6 8 17 8 18 8 19 10 21 17 25 76 44 44 55
REMARK Flexibility Score: inf
ROOT
ATOM      1  C   UNL A   1      32.507  30.838  26.677  1.00  0.00     0.042 C 
ENDROOT
BRANCH   1   2
ATOM      2  C   UNL A   1      32.034  29.877  25.597  1.00  0.00     0.117 C 
BRANCH   2   3
ATOM      3  N   UNL A   1      33.017  29.703  24.546  1.00  0.00    -0.354 N 
ATOM      4  C   UNL A   1      33.019  28.955  23.417  1.00  0.00     0.255 C 
ATOM      5  O   UNL A   1      34.068  28.998  22.753  1.00  0.00    -0.272 OA
ATOM      6  H   UNL A   1      33.841  30.226  24.679  1.00  0.00     0.163 HD
BRANCH   4   7
ATOM      7  C   UNL A   1      31.906  27.983  22.956  1.00  0.00     0.266 C 
BRANCH   7   8
ATOM      8  C   UNL A   1      32.265  26.484  22.668  1.00  0.00     0.250 C 
BRANCH   8   9
ATOM      9  C   UNL A   1      33.115  25.670  23.649  1.00  0.00     0.013 A 
ATOM     10  C   UNL A   1      35.839  22.984  23.345  1.00  0.00     0.044 C 
ATOM     11  C   UNL A   1      34.845  23.940  23.934  1.00  0.00    -0.051 A 
ATOM     12  C   UNL A   1      34.731  24.053  25.320  1.00  0.00     0.003 A 
ATOM     13  C   UNL A   1      34.028  24.733  23.115  1.00  0.00     0.013 A 
ATOM     14  C   UNL A   1      33.866  24.991  25.870  1.00  0.00     0.001 A 
ATOM     15  C   UNL A   1      33.090  25.811  25.042  1.00  0.00     0.010 A 
ENDBRANCH   8   9
BRANCH   8  16
ATOM     16  N   UNL A   1      32.905  26.348  21.334  1.00  0.00    -0.349 N 
ATOM     17  H   UNL A   1      32.375  26.882  20.647  1.00  0.00     0.345 HD
ATOM     18  H   UNL A   1      32.920  25.365  21.064  1.00  0.00     0.345 HD
ATOM     19  H   UNL A   1      33.860  26.704  21.378  1.00  0.00     0.345 HD
ENDBRANCH   8  16
ENDBRANCH   7   8
BRANCH   7  20
ATOM     20  O   UNL A   1      31.044  28.599  22.002  1.00  0.00    -0.378 OA
ATOM     21  H   UNL A   1      31.527  29.297  21.533  1.00  0.00     0.211 HD
ENDBRANCH   7  20
ENDBRANCH   4   7
ENDBRANCH   2   3
ENDBRANCH   1   2
BRANCH   1  22
ATOM     22  C   UNL A   1      33.693  30.326  27.474  1.00  0.00     0.118 C 
BRANCH  22  23
ATOM     23  N   UNL A   1      34.358  31.367  28.261  1.00  0.00    -0.352 N 
ATOM     24  C   UNL A   1      35.559  31.305  28.950  1.00  0.00     0.251 C 
ATOM     25  H   UNL A   1      33.885  32.228  28.308  1.00  0.00     0.163 HD
ATOM     26  O   UNL A   1      35.980  32.261  29.576  1.00  0.00    -0.269 OA
BRANCH  24  27
ATOM     27  C   UNL A   1      36.384  30.087  28.792  1.00  0.00     0.039 A 
ATOM     28  C   UNL A   1      36.642  29.328  29.937  1.00  0.00     0.014 A 
ATOM     29  C   UNL A   1      37.115  29.899  27.624  1.00  0.00     0.014 A 
ATOM     30  C   UNL A   1      37.811  28.578  29.994  1.00  0.00     0.010 A 
ATOM     31  C   UNL A   1      38.328  29.253  27.719  1.00  0.00     0.010 A 
ATOM     32  C   UNL A   1      38.707  28.659  28.929  1.00  0.00    -0.014 A 
BRANCH  32  33
ATOM     33  C   UNL A   1      40.103  28.252  29.031  1.00  0.00     0.031 A 
ATOM     34  C   UNL A   1      40.522  26.928  28.533  1.00  0.00     0.074 A 
ATOM     35  C   UNL A   1      41.017  29.139  29.486  1.00  0.00     0.049 A 
ATOM     36  N   UNL A   1      41.622  26.339  28.860  1.00  0.00    -0.248 NA
ATOM     37  C   UNL A   1      39.686  26.129  27.647  1.00  0.00     0.031 C 
ATOM     38  C   UNL A   1      42.471  29.053  29.376  1.00  0.00     0.029 A 
ATOM     39  N   UNL A   1      40.798  30.233  30.342  1.00  0.00    -0.354 N 
ATOM     40  C   UNL A   1      41.765  25.231  28.056  1.00  0.00     0.074 A 
ATOM     41  C   UNL A   1      40.508  25.117  27.356  1.00  0.00     0.031 C 
ATOM     42  C   UNL A   1      43.024  29.821  30.328  1.00  0.00     0.029 A 
ATOM     43  C   UNL A   1      41.940  30.290  31.174  1.00  0.00     0.049 A 
ATOM     44  H   UNL A   1      40.016  30.831  30.359  1.00  0.00     0.167 HD
ATOM     45  C   UNL A   1      42.980  24.613  27.993  1.00  0.00     0.037 A 
ATOM     46  C   UNL A   1      41.859  30.084  32.520  1.00  0.00     0.037 A 
ATOM     47  C   UNL A   1      43.915  25.203  28.948  1.00  0.00     0.049 A 
ATOM     48  C   UNL A   1      42.729  28.953  33.017  1.00  0.00     0.074 A 
ATOM     49  C   UNL A   1      44.902  26.168  28.822  1.00  0.00     0.029 A 
ATOM     50  N   UNL A   1      43.688  25.047  30.311  1.00  0.00    -0.354 N 
ATOM     51  N   UNL A   1      43.156  27.982  32.261  1.00  0.00    -0.248 NA
ATOM     52  C   UNL A   1      43.149  28.808  34.408  1.00  0.00     0.031 C 
ATOM     53  C   UNL A   1      45.233  26.630  30.119  1.00  0.00     0.029 A 
ATOM     54  C   UNL A   1      44.466  25.930  31.034  1.00  0.00     0.049 A 
ATOM     55  H   UNL A   1      43.061  24.398  30.704  1.00  0.00     0.167 HD
ATOM     56  C   UNL A   1      43.873  27.095  33.021  1.00  0.00     0.074 A 
ATOM     57  C   UNL A   1      43.853  27.664  34.356  1.00  0.00     0.031 C 
ATOM     58  C   UNL A   1      44.410  25.959  32.486  1.00  0.00     0.037 A 
BRANCH  45  59
ATOM     59  C   UNL A   1      43.405  23.686  26.873  1.00  0.00     0.064 A 
ATOM     60  C   UNL A   1      42.948  22.349  26.831  1.00  0.00     0.173 A 
ATOM     61  C   UNL A   1      44.313  24.022  25.853  1.00  0.00     0.173 A 
ATOM     62  F   UNL A   1      41.990  21.909  27.657  1.00  0.00    -0.203 F 
ATOM     63  C   UNL A   1      43.460  21.405  25.934  1.00  0.00     0.198 A 
ATOM     64  C   UNL A   1      44.870  23.066  24.995  1.00  0.00     0.198 A 
ATOM     65  F   UNL A   1      44.645  25.294  25.606  1.00  0.00    -0.203 F 
ATOM     66  F   UNL A   1      42.992  20.149  25.953  1.00  0.00    -0.200 F 
ATOM     67  C   UNL A   1      44.453  21.753  25.045  1.00  0.00     0.200 A 
ATOM     68  F   UNL A   1      45.813  23.435  24.115  1.00  0.00    -0.200 F 
ATOM     69  F   UNL A   1      44.981  20.839  24.221  1.00  0.00    -0.200 F 
ENDBRANCH  45  59
BRANCH  46  70
ATOM     70  C   UNL A   1      40.537  30.449  33.096  1.00  0.00     0.064 A 
ATOM     71  C   UNL A   1      40.202  31.814  33.201  1.00  0.00     0.173 A 
ATOM     72  C   UNL A   1      39.494  29.520  33.184  1.00  0.00     0.173 A 
ATOM     73  F   UNL A   1      41.164  32.747  33.120  1.00  0.00    -0.203 F 
ATOM     74  C   UNL A   1      38.875  32.232  33.260  1.00  0.00     0.198 A 
ATOM     75  C   UNL A   1      38.166  29.943  33.265  1.00  0.00     0.198 A 
ATOM     76  F   UNL A   1      39.743  28.207  33.078  1.00  0.00    -0.203 F 
ATOM     77  F   UNL A   1      38.586  33.542  33.230  1.00  0.00    -0.200 F 
ATOM     78  C   UNL A   1      37.857  31.296  33.265  1.00  0.00     0.200 A 
ATOM     79  F   UNL A   1      37.177  29.039  33.235  1.00  0.00    -0.200 F 
ATOM     80  F   UNL A   1      36.578  31.695  33.221  1.00  0.00    -0.200 F 
ENDBRANCH  46  70
BRANCH  58  81
ATOM     81  C   UNL A   1      45.008  24.807  33.255  1.00  0.00     0.064 A 
ATOM     82  C   UNL A   1      44.311  23.627  33.564  1.00  0.00     0.173 A 
ATOM     83  C   UNL A   1      46.388  24.800  33.571  1.00  0.00     0.173 A 
ATOM     84  F   UNL A   1      43.029  23.462  33.212  1.00  0.00    -0.203 F 
ATOM     85  C   UNL A   1      44.935  22.544  34.192  1.00  0.00     0.198 A 
ATOM     86  C   UNL A   1      47.019  23.696  34.144  1.00  0.00     0.198 A 
ATOM     87  F   UNL A   1      47.174  25.854  33.307  1.00  0.00    -0.203 F 
ATOM     88  F   UNL A   1      44.217  21.454  34.499  1.00  0.00    -0.200 F 
ATOM     89  C   UNL A   1      46.288  22.573  34.469  1.00  0.00     0.200 A 
ATOM     90  F   UNL A   1      48.342  23.722  34.357  1.00  0.00    -0.200 F 
ATOM     91  F   UNL A   1      46.891  21.514  35.025  1.00  0.00    -0.200 F 
ENDBRANCH  58  81
ENDBRANCH  32  33
ENDBRANCH  24  27
ENDBRANCH  22  23
ENDBRANCH   1  22
TORSDOF 14
ENDMDL
MODEL 2
REMARK VINA RESULT:     -12.7      4.268     10.236
REMARK SMILES Cc1cccc([C@H]([NH3+])[C@H](O)C(=O)NCCCNC(=O)c2ccc(-c3c4nc(c(-c5c(F)c(F)c(F)c(F)c5F)c5ccc([nH]5)c(-c5c(F)c(F)c(F)c(F)c5F)c5nc(c(-c6c(F)c(F)c(F)c(F)c6F)c6ccc3[nH]6)C=C5)C=C4)cc2)c1
REMARK SMILES IDX 15 1 14 2 13 3 11 4 12 5 9 7 7 8 6 9 1 10 2 11 3 12 83 13
REMARK SMILES IDX 4 14 5 15 8 16 10 20 16 22 17 23 18 24 19 26 20 27 21 28
REMARK SMILES IDX 82 29 22 30 81 31 23 32 24 33 25 34 75 35 26 36 80 37 74 38
REMARK SMILES IDX 76 39 27 40 79 41 73 42 72 43 28 45 60 46 40 47 59 48 41 49
REMARK SMILES IDX 44 50 58 51 77 52 42 53 43 54 57 56 78 57 45 58 29 59 30 60
REMARK SMILES IDX 38 61 31 62 32 63 36 64 39 65 33 66 34 67 37 68 35 69 61 70
REMARK SMILES IDX 62 71 70 72 63 73 64 74 68 75 71 76 65 77 66 78 69 79 67 80
REMARK SMILES IDX 46 81 47 82 55 83 48 84 49 85 53 86 56 87 50 88 51 89 54 90
REMARK SMILES IDX 52 91
REMARK H PARENT 13 6 8 17 8 18 8 19 10 21 17 25 76 44 44 55
REMARK Flexibility Score: inf
ROOT
ATOM      1  C   UNL A   1      38.097  21.205  25.225  1.00  0.00     0.042 C 
ENDROOT
BRANCH   1   2
ATOM      2  C   UNL A   1      36.584  21.099  25.103  1.00  0.00     0.117 C 
BRANCH   2   3
ATOM      3  N   UNL A   1      35.905  22.261  25.642  1.00  0.00    -0.354 N 
ATOM      4  C   UNL A   1      34.686  22.420  26.210  1.00  0.00     0.255 C 
ATOM      5  O   UNL A   1      34.391  23.586  26.518  1.00  0.00    -0.272 OA
ATOM      6  H   UNL A   1      36.429  23.093  25.584  1.00  0.00     0.163 HD
BRANCH   4   7
ATOM      7  C   UNL A   1      33.606  21.326  26.391  1.00  0.00     0.266 C 
BRANCH   7   8
ATOM      8  C   UNL A   1      32.666  20.965  25.189  1.00  0.00     0.250 C 
BRANCH   8   9
ATOM      9  C   UNL A   1      32.867  19.676  24.385  1.00  0.00     0.013 A 
ATOM     10  C   UNL A   1      34.903  16.453  24.834  1.00  0.00     0.044 C 
ATOM     11  C   UNL A   1      33.999  17.492  24.241  1.00  0.00    -0.051 A 
ATOM     12  C   UNL A   1      33.388  17.256  23.008  1.00  0.00     0.003 A 
ATOM     13  C   UNL A   1      33.748  18.701  24.907  1.00  0.00     0.013 A 
ATOM     14  C   UNL A   1      32.491  18.184  22.490  1.00  0.00     0.001 A 
ATOM     15  C   UNL A   1      32.212  19.365  23.188  1.00  0.00     0.010 A 
ENDBRANCH   8   9
BRANCH   8  16
ATOM     16  N   UNL A   1      32.626  22.079  24.207  1.00  0.00    -0.349 N 
ATOM     17  H   UNL A   1      33.577  22.349  23.960  1.00  0.00     0.345 HD
ATOM     18  H   UNL A   1      32.141  22.876  24.618  1.00  0.00     0.345 HD
ATOM     19  H   UNL A   1      32.130  21.774  23.368  1.00  0.00     0.345 HD
ENDBRANCH   8  16
ENDBRANCH   7   8
BRANCH   7  20
ATOM     20  O   UNL A   1      32.961  21.440  27.658  1.00  0.00    -0.378 OA
ATOM     21  H   UNL A   1      33.345  20.798  28.275  1.00  0.00     0.211 HD
ENDBRANCH   7  20
ENDBRANCH   4   7
ENDBRANCH   2   3
ENDBRANCH   1   2
BRANCH   1  22
ATOM     22  C   UNL A   1      38.567  22.480  25.903  1.00  0.00     0.118 C 
BRANCH  22  23
ATOM     23  N   UNL A   1      40.008  22.505  26.159  1.00  0.00    -0.352 N 
ATOM     24  C   UNL A   1      40.808  23.570  26.543  1.00  0.00     0.251 C 
ATOM     25  H   UNL A   1      40.474  21.646  26.040  1.00  0.00     0.163 HD
ATOM     26  O   UNL A   1      42.007  23.436  26.706  1.00  0.00    -0.269 OA
BRANCH  24  27
ATOM     27  C   UNL A   1      40.141  24.847  26.880  1.00  0.00     0.039 A 
ATOM     28  C   UNL A   1      40.566  25.996  26.207  1.00  0.00     0.014 A 
ATOM     29  C   UNL A   1      39.361  24.933  28.028  1.00  0.00     0.014 A 
ATOM     30  C   UNL A   1      40.441  27.227  26.840  1.00  0.00     0.010 A 
ATOM     31  C   UNL A   1      39.341  26.131  28.707  1.00  0.00     0.010 A 
ATOM     32  C   UNL A   1      39.950  27.260  28.145  1.00  0.00    -0.014 A 
BRANCH  32  33
ATOM     33  C   UNL A   1      40.134  28.398  29.037  1.00  0.00     0.031 A 
ATOM     34  C   UNL A   1      39.087  29.432  29.136  1.00  0.00     0.074 A 
ATOM     35  C   UNL A   1      41.220  28.435  29.842  1.00  0.00     0.049 A 
ATOM     36  N   UNL A   1      39.271  30.614  29.617  1.00  0.00    -0.248 NA
ATOM     37  C   UNL A   1      37.733  29.220  28.642  1.00  0.00     0.031 C 
ATOM     38  C   UNL A   1      41.436  29.294  31.004  1.00  0.00     0.029 A 
ATOM     39  N   UNL A   1      42.463  27.813  29.634  1.00  0.00    -0.354 N 
ATOM     40  C   UNL A   1      38.042  31.222  29.734  1.00  0.00     0.074 A 
ATOM     41  C   UNL A   1      37.124  30.331  29.064  1.00  0.00     0.031 C 
ATOM     42  C   UNL A   1      42.755  29.391  31.232  1.00  0.00     0.029 A 
ATOM     43  C   UNL A   1      43.425  28.727  30.126  1.00  0.00     0.049 A 
ATOM     44  H   UNL A   1      42.631  26.931  29.231  1.00  0.00     0.167 HD
ATOM     45  C   UNL A   1      37.932  32.351  30.492  1.00  0.00     0.037 A 
ATOM     46  C   UNL A   1      44.341  29.318  29.306  1.00  0.00     0.037 A 
ATOM     47  C   UNL A   1      39.244  32.799  30.953  1.00  0.00     0.049 A 
ATOM     48  C   UNL A   1      44.292  30.827  29.323  1.00  0.00     0.074 A 
ATOM     49  C   UNL A   1      39.937  32.612  32.138  1.00  0.00     0.029 A 
ATOM     50  N   UNL A   1      40.167  33.274  30.028  1.00  0.00    -0.354 N 
ATOM     51  N   UNL A   1      43.247  31.514  29.688  1.00  0.00    -0.248 NA
ATOM     52  C   UNL A   1      45.400  31.676  28.893  1.00  0.00     0.031 C 
ATOM     53  C   UNL A   1      41.297  32.930  31.907  1.00  0.00     0.029 A 
ATOM     54  C   UNL A   1      41.427  33.333  30.590  1.00  0.00     0.049 A 
ATOM     55  H   UNL A   1      39.952  33.532  29.102  1.00  0.00     0.167 HD
ATOM     56  C   UNL A   1      43.508  32.852  29.541  1.00  0.00     0.074 A 
ATOM     57  C   UNL A   1      44.874  32.903  29.056  1.00  0.00     0.031 C 
ATOM     58  C   UNL A   1      42.568  33.802  29.820  1.00  0.00     0.037 A 
BRANCH  45  59
ATOM     59  C   UNL A   1      36.626  32.873  31.055  1.00  0.00     0.064 A 
ATOM     60  C   UNL A   1      35.782  33.696  30.276  1.00  0.00     0.173 A 
ATOM     61  C   UNL A   1      36.180  32.665  32.373  1.00  0.00     0.173 A 
ATOM     62  F   UNL A   1      36.004  33.891  28.970  1.00  0.00    -0.203 F 
ATOM     63  C   UNL A   1      34.671  34.357  30.810  1.00  0.00     0.198 A 
ATOM     64  C   UNL A   1      35.104  33.371  32.925  1.00  0.00     0.198 A 
ATOM     65  F   UNL A   1      36.725  31.726  33.153  1.00  0.00    -0.203 F 
ATOM     66  F   UNL A   1      33.916  35.134  30.019  1.00  0.00    -0.200 F 
ATOM     67  C   UNL A   1      34.357  34.229  32.145  1.00  0.00     0.200 A 
ATOM     68  F   UNL A   1      34.798  33.207  34.220  1.00  0.00    -0.200 F 
ATOM     69  F   UNL A   1      33.324  34.901  32.670  1.00  0.00    -0.200 F 
ENDBRANCH  45  59
BRANCH  46  70
ATOM     70  C   UNL A   1      44.681  28.497  28.112  1.00  0.00     0.064 A 
ATOM     71  C   UNL A   1      45.468  27.342  28.292  1.00  0.00     0.173 A 
ATOM     72  C   UNL A   1      43.963  28.609  26.916  1.00  0.00     0.173 A 
ATOM     73  F   UNL A   1      46.175  27.182  29.422  1.00  0.00    -0.203 F 
ATOM     74  C   UNL A   1      45.434  26.292  27.377  1.00  0.00     0.198 A 
ATOM     75  C   UNL A   1      43.948  27.563  25.992  1.00  0.00     0.198 A 
ATOM     76  F   UNL A   1      43.184  29.676  26.689  1.00  0.00    -0.203 F 
ATOM     77  F   UNL A   1      46.095  25.155  27.641  1.00  0.00    -0.200 F 
ATOM     78  C   UNL A   1      44.653  26.393  26.241  1.00  0.00     0.200 A 
ATOM     79  F   UNL A   1      43.165  27.645  24.907  1.00  0.00    -0.200 F 
ATOM     80  F   UNL A   1      44.539  25.348  25.409  1.00  0.00    -0.200 F 
ENDBRANCH  46  70
BRANCH  58  81
ATOM     81  C   UNL A   1      42.654  35.270  29.480  1.00  0.00     0.064 A 
ATOM     82  C   UNL A   1      43.372  36.208  30.238  1.00  0.00     0.173 A 
ATOM     83  C   UNL A   1      42.128  35.749  28.255  1.00  0.00     0.173 A 
ATOM     84  F   UNL A   1      44.016  35.854  31.358  1.00  0.00    -0.203 F 
ATOM     85  C   UNL A   1      43.506  37.539  29.831  1.00  0.00     0.198 A 
ATOM     86  C   UNL A   1      42.315  37.063  27.824  1.00  0.00     0.198 A 
ATOM     87  F   UNL A   1      41.442  34.950  27.425  1.00  0.00    -0.203 F 
ATOM     88  F   UNL A   1      44.170  38.406  30.609  1.00  0.00    -0.200 F 
ATOM     89  C   UNL A   1      42.991  37.962  28.620  1.00  0.00     0.200 A 
ATOM     90  F   UNL A   1      41.853  37.441  26.624  1.00  0.00    -0.200 F 
ATOM     91  F   UNL A   1      43.166  39.226  28.212  1.00  0.00    -0.200 F 
ENDBRANCH  58  81
ENDBRANCH  32  33
ENDBRANCH  24  27
ENDBRANCH  22  23
ENDBRANCH   1  22
TORSDOF 14
ENDMDL
MODEL 3
REMARK VINA RESULT:     -12.7      0.682      1.286
REMARK SMILES Cc1cccc([C@H]([NH3+])[C@H](O)C(=O)NCCCNC(=O)c2ccc(-c3c4nc(c(-c5c(F)c(F)c(F)c(F)c5F)c5ccc([nH]5)c(-c5c(F)c(F)c(F)c(F)c5F)c5nc(c(-c6c(F)c(F)c(F)c(F)c6F)c6ccc3[nH]6)C=C5)C=C4)cc2)c1
REMARK SMILES IDX 15 1 14 2 13 3 11 4 12 5 9 7 7 8 6 9 1 10 2 11 3 12 83 13
REMARK SMILES IDX 4 14 5 15 8 16 10 20 16 22 17 23 18 24 19 26 20 27 21 28
REMARK SMILES IDX 82 29 22 30 81 31 23 32 24 33 25 34 75 35 26 36 80 37 74 38
REMARK SMILES IDX 76 39 27 40 79 41 73 42 72 43 28 45 60 46 40 47 59 48 41 49
REMARK SMILES IDX 44 50 58 51 77 52 42 53 43 54 57 56 78 57 45 58 29 59 30 60
REMARK SMILES IDX 38 61 31 62 32 63 36 64 39 65 33 66 34 67 37 68 35 69 61 70
REMARK SMILES IDX 62 71 70 72 63 73 64 74 68 75 71 76 65 77 66 78 69 79 67 80
REMARK SMILES IDX 46 81 47 82 55 83 48 84 49 85 53 86 56 87 50 88 51 89 54 90
REMARK SMILES IDX 52 91
REMARK H PARENT 13 6 8 17 8 18 8 19 10 21 17 25 76 44 44 55
REMARK Flexibility Score: inf
ROOT
ATOM      1  C   UNL A   1      32.109  30.825  26.624  1.00  0.00     0.042 C 
ENDROOT
BRANCH   1   2
ATOM      2  C   UNL A   1      31.709  29.874  25.506  1.00  0.00     0.117 C 
BRANCH   2   3
ATOM      3  N   UNL A   1      32.766  29.699  24.528  1.00  0.00    -0.354 N 
ATOM      4  C   UNL A   1      32.844  28.960  23.397  1.00  0.00     0.255 C 
ATOM      5  O   UNL A   1      33.938  28.999  22.811  1.00  0.00    -0.272 OA
ATOM      6  H   UNL A   1      33.581  30.216  24.724  1.00  0.00     0.163 HD
BRANCH   4   7
ATOM      7  C   UNL A   1      31.760  27.999  22.849  1.00  0.00     0.266 C 
BRANCH   7   8
ATOM      8  C   UNL A   1      32.121  26.493  22.600  1.00  0.00     0.250 C 
BRANCH   8   9
ATOM      9  C   UNL A   1      32.924  25.691  23.629  1.00  0.00     0.013 A 
ATOM     10  C   UNL A   1      35.892  23.261  23.501  1.00  0.00     0.044 C 
ATOM     11  C   UNL A   1      34.758  24.093  24.021  1.00  0.00    -0.051 A 
ATOM     12  C   UNL A   1      34.480  24.107  25.388  1.00  0.00     0.003 A 
ATOM     13  C   UNL A   1      33.971  24.867  23.155  1.00  0.00     0.013 A 
ATOM     14  C   UNL A   1      33.479  24.935  25.883  1.00  0.00     0.001 A 
ATOM     15  C   UNL A   1      32.732  25.740  25.015  1.00  0.00     0.010 A 
ENDBRANCH   8   9
BRANCH   8  16
ATOM     16  N   UNL A   1      32.815  26.333  21.297  1.00  0.00    -0.349 N 
ATOM     17  H   UNL A   1      32.228  26.703  20.551  1.00  0.00     0.345 HD
ATOM     18  H   UNL A   1      32.996  25.343  21.129  1.00  0.00     0.345 HD
ATOM     19  H   UNL A   1      33.700  26.842  21.318  1.00  0.00     0.345 HD
ENDBRANCH   8  16
ENDBRANCH   7   8
BRANCH   7  20
ATOM     20  O   UNL A   1      30.989  28.620  21.823  1.00  0.00    -0.378 OA
ATOM     21  H   UNL A   1      31.524  29.299  21.383  1.00  0.00     0.211 HD
ENDBRANCH   7  20
ENDBRANCH   4   7
ENDBRANCH   2   3
ENDBRANCH   1   2
BRANCH   1  22
ATOM     22  C   UNL A   1      33.326  30.367  27.410  1.00  0.00     0.118 C 
BRANCH  22  23
ATOM     23  N   UNL A   1      33.968  31.444  28.167  1.00  0.00    -0.352 N 
ATOM     24  C   UNL A   1      35.176  31.431  28.846  1.00  0.00     0.251 C 
ATOM     25  H   UNL A   1      33.472  32.293  28.198  1.00  0.00     0.163 HD
ATOM     26  O   UNL A   1      35.575  32.413  29.447  1.00  0.00    -0.269 OA
BRANCH  24  27
ATOM     27  C   UNL A   1      36.032  30.233  28.710  1.00  0.00     0.039 A 
ATOM     28  C   UNL A   1      36.360  29.536  29.877  1.00  0.00     0.014 A 
ATOM     29  C   UNL A   1      36.722  30.013  27.523  1.00  0.00     0.014 A 
ATOM     30  C   UNL A   1      37.554  28.824  29.918  1.00  0.00     0.010 A 
ATOM     31  C   UNL A   1      37.958  29.409  27.596  1.00  0.00     0.010 A 
ATOM     32  C   UNL A   1      38.404  28.883  28.815  1.00  0.00    -0.014 A 
BRANCH  32  33
ATOM     33  C   UNL A   1      39.815  28.524  28.877  1.00  0.00     0.031 A 
ATOM     34  C   UNL A   1      40.250  27.175  28.467  1.00  0.00     0.074 A 
ATOM     35  C   UNL A   1      40.722  29.469  29.212  1.00  0.00     0.049 A 
ATOM     36  N   UNL A   1      41.382  26.645  28.784  1.00  0.00    -0.248 NA
ATOM     37  C   UNL A   1      39.397  26.283  27.693  1.00  0.00     0.031 C 
ATOM     38  C   UNL A   1      42.171  29.414  29.034  1.00  0.00     0.029 A 
ATOM     39  N   UNL A   1      40.511  30.624  29.986  1.00  0.00    -0.354 N 
ATOM     40  C   UNL A   1      41.520  25.478  28.067  1.00  0.00     0.074 A 
ATOM     41  C   UNL A   1      40.234  25.273  27.444  1.00  0.00     0.031 C 
ATOM     42  C   UNL A   1      42.746  30.272  29.891  1.00  0.00     0.029 A 
ATOM     43  C   UNL A   1      41.691  30.781  30.751  1.00  0.00     0.049 A 
ATOM     44  H   UNL A   1      39.713  31.200  29.995  1.00  0.00     0.167 HD
ATOM     45  C   UNL A   1      42.749  24.890  27.991  1.00  0.00     0.037 A 
ATOM     46  C   UNL A   1      41.683  30.684  32.111  1.00  0.00     0.037 A 
ATOM     47  C   UNL A   1      43.712  25.582  28.845  1.00  0.00     0.049 A 
ATOM     48  C   UNL A   1      42.610  29.622  32.653  1.00  0.00     0.074 A 
ATOM     49  C   UNL A   1      44.661  26.559  28.591  1.00  0.00     0.029 A 
ATOM     50  N   UNL A   1      43.556  25.533  30.226  1.00  0.00    -0.354 N 
ATOM     51  N   UNL A   1      43.030  28.604  31.957  1.00  0.00    -0.248 NA
ATOM     52  C   UNL A   1      43.103  29.604  34.028  1.00  0.00     0.031 C 
ATOM     53  C   UNL A   1      45.040  27.136  29.827  1.00  0.00     0.029 A 
ATOM     54  C   UNL A   1      44.341  26.493  30.834  1.00  0.00     0.049 A 
ATOM     55  H   UNL A   1      42.970  24.902  30.703  1.00  0.00     0.167 HD
ATOM     56  C   UNL A   1      43.811  27.802  32.749  1.00  0.00     0.074 A 
ATOM     57  C   UNL A   1      43.839  28.479  34.032  1.00  0.00     0.031 C 
ATOM     58  C   UNL A   1      44.356  26.641  32.281  1.00  0.00     0.037 A 
BRANCH  45  59
ATOM     59  C   UNL A   1      43.147  23.885  26.929  1.00  0.00     0.064 A 
ATOM     60  C   UNL A   1      42.765  22.530  27.041  1.00  0.00     0.173 A 
ATOM     61  C   UNL A   1      43.962  24.171  25.819  1.00  0.00     0.173 A 
ATOM     62  F   UNL A   1      41.893  22.120  27.971  1.00  0.00    -0.203 F 
ATOM     63  C   UNL A   1      43.266  21.533  26.196  1.00  0.00     0.198 A 
ATOM     64  C   UNL A   1      44.511  23.168  25.010  1.00  0.00     0.198 A 
ATOM     65  F   UNL A   1      44.204  25.429  25.436  1.00  0.00    -0.203 F 
ATOM     66  F   UNL A   1      42.872  20.262  26.361  1.00  0.00    -0.200 F 
ATOM     67  C   UNL A   1      44.173  21.847  25.208  1.00  0.00     0.200 A 
ATOM     68  F   UNL A   1      45.369  23.500  24.034  1.00  0.00    -0.200 F 
ATOM     69  F   UNL A   1      44.694  20.887  24.431  1.00  0.00    -0.200 F 
ENDBRANCH  45  59
BRANCH  46  70
ATOM     70  C   UNL A   1      40.380  31.060  32.723  1.00  0.00     0.064 A 
ATOM     71  C   UNL A   1      40.014  32.420  32.745  1.00  0.00     0.173 A 
ATOM     72  C   UNL A   1      39.368  30.115  32.930  1.00  0.00     0.173 A 
ATOM     73  F   UNL A   1      40.945  33.368  32.549  1.00  0.00    -0.203 F 
ATOM     74  C   UNL A   1      38.680  32.811  32.838  1.00  0.00     0.198 A 
ATOM     75  C   UNL A   1      38.034  30.513  33.044  1.00  0.00     0.198 A 
ATOM     76  F   UNL A   1      39.647  28.804  32.907  1.00  0.00    -0.203 F 
ATOM     77  F   UNL A   1      38.355  34.107  32.727  1.00  0.00    -0.200 F 
ATOM     78  C   UNL A   1      37.689  31.855  32.961  1.00  0.00     0.200 A 
ATOM     79  F   UNL A   1      37.069  29.586  33.128  1.00  0.00    -0.200 F 
ATOM     80  F   UNL A   1      36.399  32.219  32.950  1.00  0.00    -0.200 F 
ENDBRANCH  46  70
BRANCH  58  81
ATOM     81  C   UNL A   1      45.026  25.572  33.109  1.00  0.00     0.064 A 
ATOM     82  C   UNL A   1      46.410  25.332  33.104  1.00  0.00     0.173 A 
ATOM     83  C   UNL A   1      44.285  24.848  34.074  1.00  0.00     0.173 A 
ATOM     84  F   UNL A   1      47.237  26.035  32.320  1.00  0.00    -0.203 F 
ATOM     85  C   UNL A   1      46.999  24.397  33.961  1.00  0.00     0.198 A 
ATOM     86  C   UNL A   1      44.885  23.961  34.967  1.00  0.00     0.198 A 
ATOM     87  F   UNL A   1      42.958  25.002  34.200  1.00  0.00    -0.203 F 
ATOM     88  F   UNL A   1      48.320  24.177  33.893  1.00  0.00    -0.200 F 
ATOM     89  C   UNL A   1      46.241  23.724  34.900  1.00  0.00     0.200 A 
ATOM     90  F   UNL A   1      44.141  23.356  35.904  1.00  0.00    -0.200 F 
ATOM     91  F   UNL A   1      46.818  22.866  35.752  1.00  0.00    -0.200 F 
ENDBRANCH  58  81
ENDBRANCH  32  33
ENDBRANCH  24  27
ENDBRANCH  22  23
ENDBRANCH   1  22
TORSDOF 14
ENDMDL
