MODEL 1
REMARK VINA RESULT:     -13.8      0.000      0.000
REMARK SMILES Cc1ccc(NC(=O)c2ccc(SCC(=O)NCCCNC(=O)c3ccc(-c4c5nc(c(-c6c(F)c(F)c(F)c(F)c6F)c6ccc([nH]6)c(-c6c(F)c(F)c(F)c(F)c6F)c6nc(c(-c7c(F)c(F)c(F)c(F)c7F)c7ccc4[nH]7)C=C6)C=C5)cc3)c([N+](=O)[O-])c2)cc1
REMARK SMILES IDX 18 1 17 2 15 3 16 4 14 6 13 7 12 8 9 9 10 10 91 11 11 12
REMARK SMILES IDX 87 13 7 14 6 15 8 17 5 18 1 19 2 20 3 21 93 22 4 23 92 24
REMARK SMILES IDX 88 25 89 26 90 27 19 28 20 29 21 30 22 31 23 33 24 34 25 35
REMARK SMILES IDX 86 36 26 37 85 38 27 39 28 40 29 41 79 42 30 43 84 44 78 45
REMARK SMILES IDX 80 46 31 47 83 48 77 49 76 50 32 52 64 53 44 54 63 55 45 56
REMARK SMILES IDX 48 57 62 58 81 59 46 60 47 61 61 63 82 64 49 65 33 66 34 67
REMARK SMILES IDX 42 68 35 69 36 70 40 71 43 72 37 73 38 74 41 75 39 76 65 77
REMARK SMILES IDX 66 78 74 79 67 80 68 81 72 82 75 83 69 84 70 85 73 86 71 87
REMARK SMILES IDX 50 88 51 89 59 90 52 91 53 92 57 93 60 94 54 95 55 96 58 97
REMARK SMILES IDX 56 98
REMARK H PARENT 17 5 6 16 21 32 80 51 48 62
REMARK Flexibility Score: inf
ROOT
ATOM      1  C   UNL A   1      32.072  30.102  26.304  1.00  0.00     0.117 C 
ENDROOT
BRANCH   1   2
ATOM      2  N   UNL A   1      32.743  29.891  25.031  1.00  0.00    -0.355 N 
ATOM      3  C   UNL A   1      32.498  28.950  24.071  1.00  0.00     0.230 C 
ATOM      4  O   UNL A   1      33.349  28.792  23.194  1.00  0.00    -0.274 OA
ATOM      5  H   UNL A   1      33.478  30.515  24.832  1.00  0.00     0.163 HD
BRANCH   3   6
ATOM      6  C   UNL A   1      31.214  28.149  24.080  1.00  0.00     0.175 C 
BRANCH   6   7
ATOM      7  S   UNL A   1      31.361  26.542  23.235  1.00  0.00    -0.109 SA
BRANCH   7   8
ATOM      8  C   UNL A   1      32.534  25.555  24.170  1.00  0.00     0.086 A 
ATOM      9  C   UNL A   1      34.717  24.104  25.300  1.00  0.00     0.047 A 
ATOM     10  C   UNL A   1      34.743  24.477  23.958  1.00  0.00     0.015 A 
ATOM     11  C   UNL A   1      33.631  24.485  26.093  1.00  0.00     0.100 A 
ATOM     12  C   UNL A   1      33.664  25.183  23.405  1.00  0.00     0.023 A 
ATOM     13  C   UNL A   1      32.555  25.202  25.528  1.00  0.00     0.283 A 
BRANCH   9  14
ATOM     14  C   UNL A   1      35.900  23.417  25.885  1.00  0.00     0.255 C 
ATOM     15  N   UNL A   1      35.819  22.101  26.280  1.00  0.00    -0.322 N 
ATOM     16  H   UNL A   1      36.455  21.832  26.983  1.00  0.00     0.170 HD
ATOM     17  O   UNL A   1      36.911  24.078  26.110  1.00  0.00    -0.269 OA
BRANCH  15  18
ATOM     18  C   UNL A   1      34.962  21.085  25.828  1.00  0.00     0.041 A 
ATOM     19  C   UNL A   1      32.510  17.765  24.598  1.00  0.00     0.044 C 
ATOM     20  C   UNL A   1      33.361  18.940  24.977  1.00  0.00    -0.051 A 
ATOM     21  C   UNL A   1      32.812  19.971  25.745  1.00  0.00     0.005 A 
ATOM     22  C   UNL A   1      34.705  19.016  24.597  1.00  0.00     0.005 A 
ATOM     23  C   UNL A   1      33.606  21.040  26.163  1.00  0.00     0.026 A 
ATOM     24  C   UNL A   1      35.496  20.095  25.002  1.00  0.00     0.026 A 
ENDBRANCH  15  18
ENDBRANCH   9  14
BRANCH  13  25
ATOM     25  N   UNL A   1      31.547  25.646  26.473  1.00  0.00     0.063 N 
ATOM     26  O   UNL A   1      31.776  26.685  27.104  1.00  0.00    -0.258 OA
ATOM     27  O   UNL A   1      30.565  24.911  26.642  1.00  0.00    -0.258 OA
ENDBRANCH  13  25
ENDBRANCH   7   8
ENDBRANCH   6   7
ENDBRANCH   3   6
ENDBRANCH   1   2
BRANCH   1  28
ATOM     28  C   UNL A   1      32.855  31.075  27.181  1.00  0.00     0.042 C 
BRANCH  28  29
ATOM     29  C   UNL A   1      34.030  30.424  27.903  1.00  0.00     0.118 C 
BRANCH  29  30
ATOM     30  N   UNL A   1      34.803  31.343  28.736  1.00  0.00    -0.352 N 
ATOM     31  C   UNL A   1      36.025  31.117  29.355  1.00  0.00     0.251 C 
ATOM     32  H   UNL A   1      34.406  32.234  28.876  1.00  0.00     0.163 HD
ATOM     33  O   UNL A   1      36.594  31.988  29.985  1.00  0.00    -0.269 OA
BRANCH  31  34
ATOM     34  C   UNL A   1      36.672  29.806  29.122  1.00  0.00     0.039 A 
ATOM     35  C   UNL A   1      37.077  29.077  30.242  1.00  0.00     0.014 A 
ATOM     36  C   UNL A   1      37.134  29.490  27.848  1.00  0.00     0.014 A 
ATOM     37  C   UNL A   1      38.155  28.206  30.116  1.00  0.00     0.010 A 
ATOM     38  C   UNL A   1      38.256  28.689  27.738  1.00  0.00     0.010 A 
ATOM     39  C   UNL A   1      38.816  28.122  28.890  1.00  0.00    -0.014 A 
BRANCH  39  40
ATOM     40  C   UNL A   1      40.180  27.612  28.777  1.00  0.00     0.031 A 
ATOM     41  C   UNL A   1      40.443  26.199  28.450  1.00  0.00     0.074 A 
ATOM     42  C   UNL A   1      41.225  28.454  28.942  1.00  0.00     0.049 A 
ATOM     43  N   UNL A   1      41.532  25.578  28.757  1.00  0.00    -0.248 NA
ATOM     44  C   UNL A   1      39.465  25.352  27.790  1.00  0.00     0.031 C 
ATOM     45  C   UNL A   1      42.636  28.181  28.672  1.00  0.00     0.029 A 
ATOM     46  N   UNL A   1      41.238  29.686  29.623  1.00  0.00    -0.354 N 
ATOM     47  C   UNL A   1      41.529  24.366  28.108  1.00  0.00     0.074 A 
ATOM     48  C   UNL A   1      40.181  24.240  27.600  1.00  0.00     0.031 C 
ATOM     49  C   UNL A   1      43.381  28.983  29.447  1.00  0.00     0.029 A 
ATOM     50  C   UNL A   1      42.474  29.708  30.315  1.00  0.00     0.049 A 
ATOM     51  H   UNL A   1      40.540  30.380  29.619  1.00  0.00     0.167 HD
ATOM     52  C   UNL A   1      42.709  23.684  27.981  1.00  0.00     0.037 A 
ATOM     53  C   UNL A   1      42.521  29.729  31.678  1.00  0.00     0.037 A 
ATOM     54  C   UNL A   1      43.788  24.329  28.741  1.00  0.00     0.049 A 
ATOM     55  C   UNL A   1      43.240  28.555  32.311  1.00  0.00     0.074 A 
ATOM     56  C   UNL A   1      44.910  25.074  28.414  1.00  0.00     0.029 A 
ATOM     57  N   UNL A   1      43.654  24.445  30.115  1.00  0.00    -0.354 N 
ATOM     58  N   UNL A   1      43.753  27.558  31.647  1.00  0.00    -0.248 NA
ATOM     59  C   UNL A   1      43.333  28.362  33.758  1.00  0.00     0.031 C 
ATOM     60  C   UNL A   1      45.469  25.602  29.614  1.00  0.00     0.029 A 
ATOM     61  C   UNL A   1      44.682  25.183  30.670  1.00  0.00     0.049 A 
ATOM     62  H   UNL A   1      42.916  24.051  30.634  1.00  0.00     0.167 HD
ATOM     63  C   UNL A   1      44.177  26.593  32.526  1.00  0.00     0.074 A 
ATOM     64  C   UNL A   1      43.887  27.142  33.836  1.00  0.00     0.031 C 
ATOM     65  C   UNL A   1      44.688  25.397  32.107  1.00  0.00     0.037 A 
BRANCH  52  66
ATOM     66  C   UNL A   1      42.963  22.563  26.982  1.00  0.00     0.064 A 
ATOM     67  C   UNL A   1      42.321  21.310  27.124  1.00  0.00     0.173 A 
ATOM     68  C   UNL A   1      43.869  22.619  25.907  1.00  0.00     0.173 A 
ATOM     69  F   UNL A   1      41.326  21.125  27.999  1.00  0.00    -0.203 F 
ATOM     70  C   UNL A   1      42.667  20.190  26.361  1.00  0.00     0.198 A 
ATOM     71  C   UNL A   1      44.252  21.490  25.174  1.00  0.00     0.198 A 
ATOM     72  F   UNL A   1      44.365  23.777  25.463  1.00  0.00    -0.203 F 
ATOM     73  F   UNL A   1      42.031  19.027  26.561  1.00  0.00    -0.200 F 
ATOM     74  C   UNL A   1      43.664  20.269  25.413  1.00  0.00     0.200 A 
ATOM     75  F   UNL A   1      45.193  21.605  24.225  1.00  0.00    -0.200 F 
ATOM     76  F   UNL A   1      44.027  19.188  24.710  1.00  0.00    -0.200 F 
ENDBRANCH  52  66
BRANCH  53  77
ATOM     77  C   UNL A   1      41.393  30.478  32.289  1.00  0.00     0.064 A 
ATOM     78  C   UNL A   1      41.364  31.880  32.152  1.00  0.00     0.173 A 
ATOM     79  C   UNL A   1      40.212  29.845  32.691  1.00  0.00     0.173 A 
ATOM     80  F   UNL A   1      42.467  32.539  31.761  1.00  0.00    -0.203 F 
ATOM     81  C   UNL A   1      40.182  32.601  32.300  1.00  0.00     0.198 A 
ATOM     82  C   UNL A   1      39.033  30.574  32.860  1.00  0.00     0.198 A 
ATOM     83  F   UNL A   1      40.163  28.511  32.812  1.00  0.00    -0.203 F 
ATOM     84  F   UNL A   1      40.165  33.916  32.043  1.00  0.00    -0.200 F 
ATOM     85  C   UNL A   1      39.012  31.943  32.632  1.00  0.00     0.200 A 
ATOM     86  F   UNL A   1      37.893  29.933  33.153  1.00  0.00    -0.200 F 
ATOM     87  F   UNL A   1      37.856  32.618  32.689  1.00  0.00    -0.200 F 
ENDBRANCH  53  77
BRANCH  65  88
ATOM     88  C   UNL A   1      45.197  24.307  33.019  1.00  0.00     0.064 A 
ATOM     89  C   UNL A   1      44.419  23.205  33.412  1.00  0.00     0.173 A 
ATOM     90  C   UNL A   1      46.475  24.392  33.622  1.00  0.00     0.173 A 
ATOM     91  F   UNL A   1      43.149  23.076  33.003  1.00  0.00    -0.203 F 
ATOM     92  C   UNL A   1      44.914  22.218  34.270  1.00  0.00     0.198 A 
ATOM     93  C   UNL A   1      46.946  23.434  34.519  1.00  0.00     0.198 A 
ATOM     94  F   UNL A   1      47.317  25.398  33.351  1.00  0.00    -0.203 F 
ATOM     95  F   UNL A   1      44.156  21.153  34.564  1.00  0.00    -0.200 F 
ATOM     96  C   UNL A   1      46.174  22.334  34.827  1.00  0.00     0.200 A 
ATOM     97  F   UNL A   1      48.157  23.584  35.074  1.00  0.00    -0.200 F 
ATOM     98  F   UNL A   1      46.641  21.395  35.659  1.00  0.00    -0.200 F 
ENDBRANCH  65  88
ENDBRANCH  39  40
ENDBRANCH  31  34
ENDBRANCH  29  30
ENDBRANCH  28  29
ENDBRANCH   1  28
TORSDOF 15
ENDMDL
MODEL 2
REMARK VINA RESULT:     -13.7      3.496     10.295
REMARK SMILES Cc1ccc(NC(=O)c2ccc(SCC(=O)NCCCNC(=O)c3ccc(-c4c5nc(c(-c6c(F)c(F)c(F)c(F)c6F)c6ccc([nH]6)c(-c6c(F)c(F)c(F)c(F)c6F)c6nc(c(-c7c(F)c(F)c(F)c(F)c7F)c7ccc4[nH]7)C=C6)C=C5)cc3)c([N+](=O)[O-])c2)cc1
REMARK SMILES IDX 18 1 17 2 15 3 16 4 14 6 13 7 12 8 9 9 10 10 91 11 11 12
REMARK SMILES IDX 87 13 7 14 6 15 8 17 5 18 1 19 2 20 3 21 93 22 4 23 92 24
REMARK SMILES IDX 88 25 89 26 90 27 19 28 20 29 21 30 22 31 23 33 24 34 25 35
REMARK SMILES IDX 86 36 26 37 85 38 27 39 28 40 29 41 79 42 30 43 84 44 78 45
REMARK SMILES IDX 80 46 31 47 83 48 77 49 76 50 32 52 64 53 44 54 63 55 45 56
REMARK SMILES IDX 48 57 62 58 81 59 46 60 47 61 61 63 82 64 49 65 33 66 34 67
REMARK SMILES IDX 42 68 35 69 36 70 40 71 43 72 37 73 38 74 41 75 39 76 65 77
REMARK SMILES IDX 66 78 74 79 67 80 68 81 72 82 75 83 69 84 70 85 73 86 71 87
REMARK SMILES IDX 50 88 51 89 59 90 52 91 53 92 57 93 60 94 54 95 55 96 58 97
REMARK SMILES IDX 56 98
REMARK H PARENT 17 5 6 16 21 32 80 51 48 62
REMARK Flexibility Score: inf
ROOT
ATOM      1  C   UNL A   1      36.881  21.417  25.103  1.00  0.00     0.117 C 
ENDROOT
BRANCH   1   2
ATOM      2  N   UNL A   1      35.975  21.371  26.240  1.00  0.00    -0.355 N 
ATOM      3  C   UNL A   1      34.613  21.473  26.264  1.00  0.00     0.230 C 
ATOM      4  O   UNL A   1      34.072  21.666  27.354  1.00  0.00    -0.274 OA
ATOM      5  H   UNL A   1      36.404  21.249  27.118  1.00  0.00     0.163 HD
BRANCH   3   6
ATOM      6  C   UNL A   1      33.802  21.333  24.994  1.00  0.00     0.175 C 
BRANCH   6   7
ATOM      7  S   UNL A   1      32.266  22.311  25.006  1.00  0.00    -0.109 SA
BRANCH   7   8
ATOM      8  C   UNL A   1      32.738  24.043  24.982  1.00  0.00     0.086 A 
ATOM      9  C   UNL A   1      33.420  26.779  25.428  1.00  0.00     0.047 A 
ATOM     10  C   UNL A   1      32.706  26.069  26.389  1.00  0.00     0.015 A 
ATOM     11  C   UNL A   1      33.834  26.125  24.264  1.00  0.00     0.100 A 
ATOM     12  C   UNL A   1      32.365  24.727  26.162  1.00  0.00     0.023 A 
ATOM     13  C   UNL A   1      33.493  24.773  24.050  1.00  0.00     0.283 A 
BRANCH   9  14
ATOM     14  C   UNL A   1      33.832  28.179  25.717  1.00  0.00     0.255 C 
ATOM     15  N   UNL A   1      33.382  29.216  24.931  1.00  0.00    -0.322 N 
ATOM     16  H   UNL A   1      33.961  30.012  24.912  1.00  0.00     0.170 HD
ATOM     17  O   UNL A   1      34.666  28.377  26.597  1.00  0.00    -0.269 OA
BRANCH  15  18
ATOM     18  C   UNL A   1      32.216  29.304  24.152  1.00  0.00     0.041 A 
ATOM     19  C   UNL A   1      28.653  29.884  21.805  1.00  0.00     0.044 C 
ATOM     20  C   UNL A   1      29.871  29.641  22.645  1.00  0.00    -0.051 A 
ATOM     21  C   UNL A   1      31.011  29.078  22.063  1.00  0.00     0.005 A 
ATOM     22  C   UNL A   1      29.899  29.987  24.000  1.00  0.00     0.005 A 
ATOM     23  C   UNL A   1      32.175  28.905  22.814  1.00  0.00     0.026 A 
ATOM     24  C   UNL A   1      31.060  29.799  24.755  1.00  0.00     0.026 A 
ENDBRANCH  15  18
ENDBRANCH   9  14
BRANCH  13  25
ATOM     25  N   UNL A   1      34.081  24.169  22.867  1.00  0.00     0.063 N 
ATOM     26  O   UNL A   1      35.244  23.757  22.956  1.00  0.00    -0.258 OA
ATOM     27  O   UNL A   1      33.406  24.183  21.829  1.00  0.00    -0.258 OA
ENDBRANCH  13  25
ENDBRANCH   7   8
ENDBRANCH   6   7
ENDBRANCH   3   6
ENDBRANCH   1   2
BRANCH   1  28
ATOM     28  C   UNL A   1      38.336  21.447  25.564  1.00  0.00     0.042 C 
BRANCH  28  29
ATOM     29  C   UNL A   1      38.800  22.831  26.004  1.00  0.00     0.118 C 
BRANCH  29  30
ATOM     30  N   UNL A   1      40.233  22.921  26.279  1.00  0.00    -0.352 N 
ATOM     31  C   UNL A   1      40.969  24.045  26.627  1.00  0.00     0.251 C 
ATOM     32  H   UNL A   1      40.738  22.078  26.209  1.00  0.00     0.163 HD
ATOM     33  O   UNL A   1      42.157  23.978  26.882  1.00  0.00    -0.269 OA
BRANCH  31  34
ATOM     34  C   UNL A   1      40.231  25.317  26.791  1.00  0.00     0.039 A 
ATOM     35  C   UNL A   1      40.796  26.469  26.240  1.00  0.00     0.014 A 
ATOM     36  C   UNL A   1      39.201  25.393  27.724  1.00  0.00     0.014 A 
ATOM     37  C   UNL A   1      40.514  27.698  26.828  1.00  0.00     0.010 A 
ATOM     38  C   UNL A   1      38.983  26.600  28.362  1.00  0.00     0.010 A 
ATOM     39  C   UNL A   1      39.710  27.731  27.969  1.00  0.00    -0.014 A 
BRANCH  39  40
ATOM     40  C   UNL A   1      39.724  28.860  28.896  1.00  0.00     0.031 A 
ATOM     41  C   UNL A   1      38.719  29.935  28.807  1.00  0.00     0.074 A 
ATOM     42  C   UNL A   1      40.654  28.909  29.877  1.00  0.00     0.049 A 
ATOM     43  N   UNL A   1      38.902  31.132  29.253  1.00  0.00    -0.248 NA
ATOM     44  C   UNL A   1      37.435  29.755  28.153  1.00  0.00     0.031 C 
ATOM     45  C   UNL A   1      40.704  29.836  31.006  1.00  0.00     0.029 A 
ATOM     46  N   UNL A   1      41.899  28.251  29.916  1.00  0.00    -0.354 N 
ATOM     47  C   UNL A   1      37.697  31.791  29.210  1.00  0.00     0.074 A 
ATOM     48  C   UNL A   1      36.844  30.921  28.431  1.00  0.00     0.031 C 
ATOM     49  C   UNL A   1      41.979  29.953  31.404  1.00  0.00     0.029 A 
ATOM     50  C   UNL A   1      42.794  29.198  30.472  1.00  0.00     0.049 A 
ATOM     51  H   UNL A   1      42.101  27.334  29.621  1.00  0.00     0.167 HD
ATOM     52  C   UNL A   1      37.544  32.934  29.948  1.00  0.00     0.037 A 
ATOM     53  C   UNL A   1      43.843  29.687  29.751  1.00  0.00     0.037 A 
ATOM     54  C   UNL A   1      38.814  33.356  30.555  1.00  0.00     0.049 A 
ATOM     55  C   UNL A   1      43.833  31.189  29.549  1.00  0.00     0.074 A 
ATOM     56  C   UNL A   1      39.340  33.348  31.837  1.00  0.00     0.029 A 
ATOM     57  N   UNL A   1      39.874  33.674  29.722  1.00  0.00    -0.354 N 
ATOM     58  N   UNL A   1      42.896  31.987  29.977  1.00  0.00    -0.248 NA
ATOM     59  C   UNL A   1      44.833  31.892  28.744  1.00  0.00     0.031 C 
ATOM     60  C   UNL A   1      40.717  33.707  31.764  1.00  0.00     0.029 A 
ATOM     61  C   UNL A   1      41.030  33.927  30.437  1.00  0.00     0.049 A 
ATOM     62  H   UNL A   1      39.813  33.716  28.740  1.00  0.00     0.167 HD
ATOM     63  C   UNL A   1      43.109  33.250  29.483  1.00  0.00     0.074 A 
ATOM     64  C   UNL A   1      44.331  33.137  28.712  1.00  0.00     0.031 C 
ATOM     65  C   UNL A   1      42.236  34.278  29.707  1.00  0.00     0.037 A 
BRANCH  52  66
ATOM     66  C   UNL A   1      36.206  33.554  30.326  1.00  0.00     0.064 A 
ATOM     67  C   UNL A   1      35.367  34.121  29.338  1.00  0.00     0.173 A 
ATOM     68  C   UNL A   1      35.712  33.691  31.637  1.00  0.00     0.173 A 
ATOM     69  F   UNL A   1      35.609  33.956  28.032  1.00  0.00    -0.203 F 
ATOM     70  C   UNL A   1      34.232  34.876  29.648  1.00  0.00     0.198 A 
ATOM     71  C   UNL A   1      34.604  34.485  31.954  1.00  0.00     0.198 A 
ATOM     72  F   UNL A   1      36.226  33.001  32.658  1.00  0.00    -0.203 F 
ATOM     73  F   UNL A   1      33.492  35.401  28.661  1.00  0.00    -0.200 F 
ATOM     74  C   UNL A   1      33.873  35.094  30.961  1.00  0.00     0.200 A 
ATOM     75  F   UNL A   1      34.250  34.643  33.239  1.00  0.00    -0.200 F 
ATOM     76  F   UNL A   1      32.811  35.852  31.263  1.00  0.00    -0.200 F 
ENDBRANCH  52  66
BRANCH  53  77
ATOM     77  C   UNL A   1      44.413  28.696  28.803  1.00  0.00     0.064 A 
ATOM     78  C   UNL A   1      45.137  27.606  29.326  1.00  0.00     0.173 A 
ATOM     79  C   UNL A   1      43.988  28.609  27.473  1.00  0.00     0.173 A 
ATOM     80  F   UNL A   1      45.562  27.631  30.599  1.00  0.00    -0.203 F 
ATOM     81  C   UNL A   1      45.328  26.440  28.589  1.00  0.00     0.198 A 
ATOM     82  C   UNL A   1      44.201  27.447  26.730  1.00  0.00     0.198 A 
ATOM     83  F   UNL A   1      43.271  29.599  26.923  1.00  0.00    -0.203 F 
ATOM     84  F   UNL A   1      45.915  25.378  29.159  1.00  0.00    -0.200 F 
ATOM     85  C   UNL A   1      44.839  26.353  27.298  1.00  0.00     0.200 A 
ATOM     86  F   UNL A   1      43.703  27.352  25.488  1.00  0.00    -0.200 F 
ATOM     87  F   UNL A   1      44.943  25.204  26.617  1.00  0.00    -0.200 F 
ENDBRANCH  53  77
BRANCH  65  88
ATOM     88  C   UNL A   1      42.424  35.693  29.217  1.00  0.00     0.064 A 
ATOM     89  C   UNL A   1      41.854  36.180  28.030  1.00  0.00     0.173 A 
ATOM     90  C   UNL A   1      43.288  36.592  29.888  1.00  0.00     0.173 A 
ATOM     91  F   UNL A   1      41.114  35.386  27.243  1.00  0.00    -0.203 F 
ATOM     92  C   UNL A   1      42.059  37.494  27.594  1.00  0.00     0.198 A 
ATOM     93  C   UNL A   1      43.532  37.885  29.424  1.00  0.00     0.198 A 
ATOM     94  F   UNL A   1      43.912  36.256  31.025  1.00  0.00    -0.203 F 
ATOM     95  F   UNL A   1      41.440  37.931  26.489  1.00  0.00    -0.200 F 
ATOM     96  C   UNL A   1      42.900  38.344  28.288  1.00  0.00     0.200 A 
ATOM     97  F   UNL A   1      44.379  38.680  30.092  1.00  0.00    -0.200 F 
ATOM     98  F   UNL A   1      43.106  39.596  27.862  1.00  0.00    -0.200 F 
ENDBRANCH  65  88
ENDBRANCH  39  40
ENDBRANCH  31  34
ENDBRANCH  29  30
ENDBRANCH  28  29
ENDBRANCH   1  28
TORSDOF 15
ENDMDL
MODEL 3
REMARK VINA RESULT:     -13.7      1.602      2.186
REMARK SMILES Cc1ccc(NC(=O)c2ccc(SCC(=O)NCCCNC(=O)c3ccc(-c4c5nc(c(-c6c(F)c(F)c(F)c(F)c6F)c6ccc([nH]6)c(-c6c(F)c(F)c(F)c(F)c6F)c6nc(c(-c7c(F)c(F)c(F)c(F)c7F)c7ccc4[nH]7)C=C6)C=C5)cc3)c([N+](=O)[O-])c2)cc1
REMARK SMILES IDX 18 1 17 2 15 3 16 4 14 6 13 7 12 8 9 9 10 10 91 11 11 12
REMARK SMILES IDX 87 13 7 14 6 15 8 17 5 18 1 19 2 20 3 21 93 22 4 23 92 24
REMARK SMILES IDX 88 25 89 26 90 27 19 28 20 29 21 30 22 31 23 33 24 34 25 35
REMARK SMILES IDX 86 36 26 37 85 38 27 39 28 40 29 41 79 42 30 43 84 44 78 45
REMARK SMILES IDX 80 46 31 47 83 48 77 49 76 50 32 52 64 53 44 54 63 55 45 56
REMARK SMILES IDX 48 57 62 58 81 59 46 60 47 61 61 63 82 64 49 65 33 66 34 67
REMARK SMILES IDX 42 68 35 69 36 70 40 71 43 72 37 73 38 74 41 75 39 76 65 77
REMARK SMILES IDX 66 78 74 79 67 80 68 81 72 82 75 83 69 84 70 85 73 86 71 87
REMARK SMILES IDX 50 88 51 89 59 90 52 91 53 92 57 93 60 94 54 95 55 96 58 97
REMARK SMILES IDX 56 98
REMARK H PARENT 17 5 6 16 21 32 80 51 48 62
REMARK Flexibility Score: inf
ROOT
ATOM      1  C   UNL A   1      32.405  30.413  25.802  1.00  0.00     0.117 C 
ENDROOT
BRANCH   1   2
ATOM      2  N   UNL A   1      31.432  29.471  25.270  1.00  0.00    -0.355 N 
ATOM      3  C   UNL A   1      31.319  28.969  24.005  1.00  0.00     0.230 C 
ATOM      4  O   UNL A   1      30.273  28.388  23.711  1.00  0.00    -0.274 OA
ATOM      5  H   UNL A   1      30.760  29.150  25.914  1.00  0.00     0.163 HD
BRANCH   3   6
ATOM      6  C   UNL A   1      32.451  29.106  23.012  1.00  0.00     0.175 C 
BRANCH   6   7
ATOM      7  S   UNL A   1      33.901  28.084  23.423  1.00  0.00    -0.109 SA
BRANCH   7   8
ATOM      8  C   UNL A   1      33.289  26.566  24.162  1.00  0.00     0.086 A 
ATOM      9  C   UNL A   1      32.291  24.415  25.751  1.00  0.00     0.047 A 
ATOM     10  C   UNL A   1      32.865  25.528  26.359  1.00  0.00     0.015 A 
ATOM     11  C   UNL A   1      32.172  24.384  24.358  1.00  0.00     0.100 A 
ATOM     12  C   UNL A   1      33.362  26.579  25.574  1.00  0.00     0.023 A 
ATOM     13  C   UNL A   1      32.668  25.450  23.579  1.00  0.00     0.283 A 
BRANCH   9  14
ATOM     14  C   UNL A   1      31.706  23.343  26.602  1.00  0.00     0.255 C 
ATOM     15  N   UNL A   1      32.196  22.057  26.541  1.00  0.00    -0.322 N 
ATOM     16  H   UNL A   1      31.560  21.351  26.798  1.00  0.00     0.170 HD
ATOM     17  O   UNL A   1      30.710  23.602  27.272  1.00  0.00    -0.269 OA
BRANCH  15  18
ATOM     18  C   UNL A   1      33.472  21.606  26.165  1.00  0.00     0.041 A 
ATOM     19  C   UNL A   1      37.313  20.301  24.718  1.00  0.00     0.044 C 
ATOM     20  C   UNL A   1      35.974  20.713  25.252  1.00  0.00    -0.051 A 
ATOM     21  C   UNL A   1      35.891  21.756  26.180  1.00  0.00     0.005 A 
ATOM     22  C   UNL A   1      34.798  20.089  24.823  1.00  0.00     0.005 A 
ATOM     23  C   UNL A   1      34.648  22.195  26.638  1.00  0.00     0.026 A 
ATOM     24  C   UNL A   1      33.554  20.519  25.294  1.00  0.00     0.026 A 
ENDBRANCH  15  18
ENDBRANCH   9  14
BRANCH  13  25
ATOM     25  N   UNL A   1      32.379  25.363  22.159  1.00  0.00     0.063 N 
ATOM     26  O   UNL A   1      33.204  24.780  21.445  1.00  0.00    -0.258 OA
ATOM     27  O   UNL A   1      31.369  25.950  21.749  1.00  0.00    -0.258 OA
ENDBRANCH  13  25
ENDBRANCH   7   8
ENDBRANCH   6   7
ENDBRANCH   3   6
ENDBRANCH   1   2
BRANCH   1  28
ATOM     28  C   UNL A   1      32.680  30.140  27.278  1.00  0.00     0.042 C 
BRANCH  28  29
ATOM     29  C   UNL A   1      34.160  29.940  27.589  1.00  0.00     0.118 C 
BRANCH  29  30
ATOM     30  N   UNL A   1      34.711  30.916  28.527  1.00  0.00    -0.352 N 
ATOM     31  C   UNL A   1      35.940  30.886  29.171  1.00  0.00     0.251 C 
ATOM     32  H   UNL A   1      34.138  31.692  28.726  1.00  0.00     0.163 HD
ATOM     33  O   UNL A   1      36.306  31.792  29.894  1.00  0.00    -0.269 OA
BRANCH  31  34
ATOM     34  C   UNL A   1      36.847  29.759  28.853  1.00  0.00     0.039 A 
ATOM     35  C   UNL A   1      37.163  28.872  29.884  1.00  0.00     0.014 A 
ATOM     36  C   UNL A   1      37.587  29.790  27.674  1.00  0.00     0.014 A 
ATOM     37  C   UNL A   1      38.384  28.208  29.841  1.00  0.00     0.010 A 
ATOM     38  C   UNL A   1      38.836  29.197  27.669  1.00  0.00     0.010 A 
ATOM     39  C   UNL A   1      39.266  28.482  28.794  1.00  0.00    -0.014 A 
BRANCH  39  40
ATOM     40  C   UNL A   1      40.697  28.205  28.891  1.00  0.00     0.031 A 
ATOM     41  C   UNL A   1      41.276  26.971  28.331  1.00  0.00     0.074 A 
ATOM     42  C   UNL A   1      41.515  29.109  29.476  1.00  0.00     0.049 A 
ATOM     43  N   UNL A   1      42.382  26.444  28.738  1.00  0.00    -0.248 NA
ATOM     44  C   UNL A   1      40.618  26.198  27.292  1.00  0.00     0.031 C 
ATOM     45  C   UNL A   1      42.977  29.105  29.487  1.00  0.00     0.029 A 
ATOM     46  N   UNL A   1      41.166  30.116  30.396  1.00  0.00    -0.354 N 
ATOM     47  C   UNL A   1      42.729  25.449  27.855  1.00  0.00     0.074 A 
ATOM     48  C   UNL A   1      41.553  25.277  27.033  1.00  0.00     0.031 C 
ATOM     49  C   UNL A   1      43.396  29.774  30.571  1.00  0.00     0.029 A 
ATOM     50  C   UNL A   1      42.220  30.125  31.344  1.00  0.00     0.049 A 
ATOM     51  H   UNL A   1      40.366  30.688  30.383  1.00  0.00     0.167 HD
ATOM     52  C   UNL A   1      44.017  24.986  27.858  1.00  0.00     0.037 A 
ATOM     53  C   UNL A   1      41.998  29.803  32.650  1.00  0.00     0.037 A 
ATOM     54  C   UNL A   1      44.790  25.554  28.971  1.00  0.00     0.049 A 
ATOM     55  C   UNL A   1      42.787  28.613  33.158  1.00  0.00     0.074 A 
ATOM     56  C   UNL A   1      45.796  26.501  29.086  1.00  0.00     0.029 A 
ATOM     57  N   UNL A   1      44.375  25.296  30.267  1.00  0.00    -0.354 N 
ATOM     58  N   UNL A   1      43.595  27.897  32.428  1.00  0.00    -0.248 NA
ATOM     59  C   UNL A   1      42.634  28.071  34.508  1.00  0.00     0.031 C 
ATOM     60  C   UNL A   1      46.005  26.774  30.469  1.00  0.00     0.029 A 
ATOM     61  C   UNL A   1      45.121  25.998  31.194  1.00  0.00     0.049 A 
ATOM     62  H   UNL A   1      43.637  24.687  30.500  1.00  0.00     0.167 HD
ATOM     63  C   UNL A   1      44.014  26.805  33.147  1.00  0.00     0.074 A 
ATOM     64  C   UNL A   1      43.380  26.957  34.441  1.00  0.00     0.031 C 
ATOM     65  C   UNL A   1      44.810  25.835  32.604  1.00  0.00     0.037 A 
BRANCH  52  66
ATOM     66  C   UNL A   1      44.663  24.203  26.724  1.00  0.00     0.064 A 
ATOM     67  C   UNL A   1      44.376  22.829  26.539  1.00  0.00     0.173 A 
ATOM     68  C   UNL A   1      45.621  24.708  25.825  1.00  0.00     0.173 A 
ATOM     69  F   UNL A   1      43.389  22.222  27.207  1.00  0.00    -0.203 F 
ATOM     70  C   UNL A   1      45.087  22.019  25.648  1.00  0.00     0.198 A 
ATOM     71  C   UNL A   1      46.367  23.891  24.966  1.00  0.00     0.198 A 
ATOM     72  F   UNL A   1      45.824  26.020  25.676  1.00  0.00    -0.203 F 
ATOM     73  F   UNL A   1      44.775  20.720  25.538  1.00  0.00    -0.200 F 
ATOM     74  C   UNL A   1      46.113  22.542  24.891  1.00  0.00     0.200 A 
ATOM     75  F   UNL A   1      47.329  24.436  24.206  1.00  0.00    -0.200 F 
ATOM     76  F   UNL A   1      46.823  21.759  24.067  1.00  0.00    -0.200 F 
ENDBRANCH  52  66
BRANCH  53  77
ATOM     77  C   UNL A   1      40.654  30.213  33.133  1.00  0.00     0.064 A 
ATOM     78  C   UNL A   1      40.383  31.588  33.279  1.00  0.00     0.173 A 
ATOM     79  C   UNL A   1      39.563  29.338  33.123  1.00  0.00     0.173 A 
ATOM     80  F   UNL A   1      41.392  32.474  33.286  1.00  0.00    -0.203 F 
ATOM     81  C   UNL A   1      39.079  32.073  33.301  1.00  0.00     0.198 A 
ATOM     82  C   UNL A   1      38.256  29.826  33.169  1.00  0.00     0.198 A 
ATOM     83  F   UNL A   1      39.750  28.021  32.959  1.00  0.00    -0.203 F 
ATOM     84  F   UNL A   1      38.857  33.395  33.319  1.00  0.00    -0.200 F 
ATOM     85  C   UNL A   1      38.015  31.192  33.223  1.00  0.00     0.200 A 
ATOM     86  F   UNL A   1      37.226  28.975  33.064  1.00  0.00    -0.200 F 
ATOM     87  F   UNL A   1      36.761  31.659  33.156  1.00  0.00    -0.200 F 
ENDBRANCH  53  77
BRANCH  65  88
ATOM     88  C   UNL A   1      45.328  24.627  33.346  1.00  0.00     0.064 A 
ATOM     89  C   UNL A   1      44.545  23.490  33.608  1.00  0.00     0.173 A 
ATOM     90  C   UNL A   1      46.622  24.616  33.919  1.00  0.00     0.173 A 
ATOM     91  F   UNL A   1      43.263  23.431  33.221  1.00  0.00    -0.203 F 
ATOM     92  C   UNL A   1      45.048  22.390  34.311  1.00  0.00     0.198 A 
ATOM     93  C   UNL A   1      47.103  23.540  34.665  1.00  0.00     0.198 A 
ATOM     94  F   UNL A   1      47.471  25.641  33.763  1.00  0.00    -0.203 F 
ATOM     95  F   UNL A   1      44.283  21.303  34.479  1.00  0.00    -0.200 F 
ATOM     96  C   UNL A   1      46.324  22.417  34.842  1.00  0.00     0.200 A 
ATOM     97  F   UNL A   1      48.330  23.602  35.201  1.00  0.00    -0.200 F 
ATOM     98  F   UNL A   1      46.800  21.369  35.527  1.00  0.00    -0.200 F 
ENDBRANCH  65  88
ENDBRANCH  39  40
ENDBRANCH  31  34
ENDBRANCH  29  30
ENDBRANCH  28  29
ENDBRANCH   1  28
TORSDOF 15
ENDMDL
