MODEL 1
REMARK VINA RESULT:     -12.8      0.000      0.000
REMARK SMILES CC(C)c1nc(C(=O)NCCCNC(=O)c2ccc(-c3c4nc(c(-c5c(F)c(F)c(F)c(F)c5F)c5ccc([nH]5)c(-c5c(F)c(F)c(F)c(F)c5F)c5nc(c(-c6c(F)c(F)c(F)c(F)c6F)c6ccc3[nH]6)C=C5)C=C4)cc2)nn1-c1ccccc1F
REMARK SMILES IDX 11 1 10 2 9 3 7 4 8 5 6 7 4 8 5 9 80 10 79 11 2 12 1 13 3 14
REMARK SMILES IDX 81 15 82 16 86 17 83 18 85 19 87 20 84 21 12 22 13 23 14 24
REMARK SMILES IDX 15 26 16 27 17 28 78 29 18 30 77 31 19 32 20 33 21 34 71 35
REMARK SMILES IDX 22 36 76 37 70 38 72 39 23 40 75 41 69 42 68 43 24 45 56 46
REMARK SMILES IDX 36 47 55 48 37 49 40 50 54 51 73 52 38 53 39 54 53 56 74 57
REMARK SMILES IDX 41 58 25 59 26 60 34 61 27 62 28 63 32 64 35 65 29 66 30 67
REMARK SMILES IDX 33 68 31 69 57 70 58 71 66 72 59 73 60 74 64 75 67 76 61 77
REMARK SMILES IDX 62 78 65 79 63 80 42 81 43 82 51 83 44 84 45 85 49 86 52 87
REMARK SMILES IDX 46 88 47 89 50 90 48 91
REMARK H PARENT 9 6 13 25 72 44 40 55
REMARK Flexibility Score: inf
ROOT
ATOM      1  C   UNL A   1      34.733  34.946  29.250  1.00  0.00     0.042 C 
ENDROOT
BRANCH   1   2
ATOM      2  C   UNL A   1      33.740  34.578  30.359  1.00  0.00     0.118 C 
BRANCH   2   3
ATOM      3  N   UNL A   1      33.895  35.399  31.556  1.00  0.00    -0.349 N 
ATOM      4  C   UNL A   1      34.888  35.431  32.525  1.00  0.00     0.290 C 
ATOM      5  O   UNL A   1      34.727  36.230  33.451  1.00  0.00    -0.266 OA
ATOM      6  H   UNL A   1      33.166  36.044  31.702  1.00  0.00     0.163 HD
BRANCH   4   7
ATOM      7  C   UNL A   1      36.057  34.525  32.450  1.00  0.00     0.239 A 
ATOM      8  C   UNL A   1      37.220  32.743  32.231  1.00  0.00     0.136 A 
ATOM      9  N   UNL A   1      35.970  33.144  32.392  1.00  0.00    -0.207 NA
ATOM     10  N   UNL A   1      38.020  33.861  32.093  1.00  0.00    -0.214 N 
ATOM     11  N   UNL A   1      37.326  34.953  32.454  1.00  0.00    -0.140 NA
BRANCH   8  12
ATOM     12  C   UNL A   1      37.746  31.344  32.376  1.00  0.00     0.051 C 
ATOM     13  C   UNL A   1      38.386  31.165  33.756  1.00  0.00     0.016 C 
ATOM     14  C   UNL A   1      36.652  30.305  32.148  1.00  0.00     0.016 C 
ENDBRANCH   8  12
BRANCH  10  15
ATOM     15  C   UNL A   1      39.331  34.033  31.614  1.00  0.00     0.102 A 
ATOM     16  C   UNL A   1      40.394  34.061  32.531  1.00  0.00     0.031 A 
ATOM     17  C   UNL A   1      39.569  34.305  30.271  1.00  0.00     0.148 A 
ATOM     18  C   UNL A   1      41.690  34.312  32.083  1.00  0.00     0.002 A 
ATOM     19  C   UNL A   1      40.859  34.578  29.828  1.00  0.00     0.041 A 
ATOM     20  F   UNL A   1      38.561  34.413  29.393  1.00  0.00    -0.205 F 
ATOM     21  C   UNL A   1      41.922  34.573  30.733  1.00  0.00     0.003 A 
ENDBRANCH  10  15
ENDBRANCH   4   7
ENDBRANCH   2   3
ENDBRANCH   1   2
BRANCH   1  22
ATOM     22  C   UNL A   1      35.488  33.722  28.753  1.00  0.00     0.118 C 
BRANCH  22  23
ATOM     23  N   UNL A   1      34.620  32.763  28.066  1.00  0.00    -0.352 N 
ATOM     24  C   UNL A   1      34.896  31.461  27.687  1.00  0.00     0.251 C 
ATOM     25  H   UNL A   1      33.718  33.088  27.844  1.00  0.00     0.163 HD
ATOM     26  O   UNL A   1      34.195  30.884  26.876  1.00  0.00    -0.269 OA
BRANCH  24  27
ATOM     27  C   UNL A   1      36.077  30.790  28.264  1.00  0.00     0.039 A 
ATOM     28  C   UNL A   1      36.066  29.413  28.495  1.00  0.00     0.014 A 
ATOM     29  C   UNL A   1      37.217  31.543  28.536  1.00  0.00     0.014 A 
ATOM     30  C   UNL A   1      37.243  28.791  28.901  1.00  0.00     0.010 A 
ATOM     31  C   UNL A   1      38.411  30.913  28.793  1.00  0.00     0.010 A 
ATOM     32  C   UNL A   1      38.429  29.540  29.011  1.00  0.00    -0.014 A 
BRANCH  32  33
ATOM     33  C   UNL A   1      39.704  28.861  29.235  1.00  0.00     0.031 A 
ATOM     34  C   UNL A   1      40.056  28.653  30.669  1.00  0.00     0.074 A 
ATOM     35  C   UNL A   1      40.450  28.293  28.262  1.00  0.00     0.049 A 
ATOM     36  N   UNL A   1      41.038  29.182  31.322  1.00  0.00    -0.248 NA
ATOM     37  C   UNL A   1      39.147  27.855  31.507  1.00  0.00     0.031 C 
ATOM     38  C   UNL A   1      40.127  28.119  26.842  1.00  0.00     0.029 A 
ATOM     39  N   UNL A   1      41.651  27.658  28.374  1.00  0.00    -0.354 N 
ATOM     40  C   UNL A   1      40.980  28.660  32.611  1.00  0.00     0.074 A 
ATOM     41  C   UNL A   1      39.722  27.964  32.706  1.00  0.00     0.031 C 
ATOM     42  C   UNL A   1      40.988  27.237  26.285  1.00  0.00     0.029 A 
ATOM     43  C   UNL A   1      42.025  26.931  27.251  1.00  0.00     0.049 A 
ATOM     44  H   UNL A   1      42.207  27.709  29.185  1.00  0.00     0.167 HD
ATOM     45  C   UNL A   1      42.074  28.671  33.421  1.00  0.00     0.037 A 
ATOM     46  C   UNL A   1      43.108  26.127  27.126  1.00  0.00     0.037 A 
ATOM     47  C   UNL A   1      43.065  29.600  32.936  1.00  0.00     0.049 A 
ATOM     48  C   UNL A   1      44.077  26.529  28.171  1.00  0.00     0.074 A 
ATOM     49  C   UNL A   1      43.103  30.963  32.723  1.00  0.00     0.029 A 
ATOM     50  N   UNL A   1      44.128  29.086  32.239  1.00  0.00    -0.354 N 
ATOM     51  N   UNL A   1      44.717  27.664  28.173  1.00  0.00    -0.248 NA
ATOM     52  C   UNL A   1      44.028  25.835  29.447  1.00  0.00     0.031 C 
ATOM     53  C   UNL A   1      43.876  31.129  31.535  1.00  0.00     0.029 A 
ATOM     54  C   UNL A   1      44.317  29.869  31.132  1.00  0.00     0.049 A 
ATOM     55  H   UNL A   1      44.660  28.296  32.489  1.00  0.00     0.167 HD
ATOM     56  C   UNL A   1      44.754  28.038  29.506  1.00  0.00     0.074 A 
ATOM     57  C   UNL A   1      44.423  26.826  30.250  1.00  0.00     0.031 C 
ATOM     58  C   UNL A   1      44.771  29.355  29.860  1.00  0.00     0.037 A 
BRANCH  45  59
ATOM     59  C   UNL A   1      42.423  27.593  34.420  1.00  0.00     0.064 A 
ATOM     60  C   UNL A   1      43.029  26.404  33.961  1.00  0.00     0.173 A 
ATOM     61  C   UNL A   1      41.903  27.539  35.731  1.00  0.00     0.173 A 
ATOM     62  F   UNL A   1      43.550  26.334  32.726  1.00  0.00    -0.203 F 
ATOM     63  C   UNL A   1      43.023  25.228  34.717  1.00  0.00     0.198 A 
ATOM     64  C   UNL A   1      41.946  26.377  36.503  1.00  0.00     0.198 A 
ATOM     65  F   UNL A   1      41.234  28.561  36.276  1.00  0.00    -0.203 F 
ATOM     66  F   UNL A   1      43.485  24.090  34.182  1.00  0.00    -0.200 F 
ATOM     67  C   UNL A   1      42.472  25.214  35.984  1.00  0.00     0.200 A 
ATOM     68  F   UNL A   1      41.391  26.380  37.723  1.00  0.00    -0.200 F 
ATOM     69  F   UNL A   1      42.400  24.075  36.683  1.00  0.00    -0.200 F 
ENDBRANCH  45  59
BRANCH  46  70
ATOM     70  C   UNL A   1      43.264  24.877  26.349  1.00  0.00     0.064 A 
ATOM     71  C   UNL A   1      44.289  24.742  25.397  1.00  0.00     0.173 A 
ATOM     72  C   UNL A   1      42.612  23.691  26.738  1.00  0.00     0.173 A 
ATOM     73  F   UNL A   1      44.985  25.818  24.999  1.00  0.00    -0.203 F 
ATOM     74  C   UNL A   1      44.670  23.492  24.899  1.00  0.00     0.198 A 
ATOM     75  C   UNL A   1      42.989  22.444  26.237  1.00  0.00     0.198 A 
ATOM     76  F   UNL A   1      41.668  23.709  27.690  1.00  0.00    -0.203 F 
ATOM     77  F   UNL A   1      45.703  23.398  24.050  1.00  0.00    -0.200 F 
ATOM     78  C   UNL A   1      44.029  22.343  25.331  1.00  0.00     0.200 A 
ATOM     79  F   UNL A   1      42.386  21.335  26.689  1.00  0.00    -0.200 F 
ATOM     80  F   UNL A   1      44.442  21.139  24.911  1.00  0.00    -0.200 F 
ENDBRANCH  46  70
BRANCH  58  81
ATOM     81  C   UNL A   1      45.069  30.367  28.787  1.00  0.00     0.064 A 
ATOM     82  C   UNL A   1      44.118  30.874  27.884  1.00  0.00     0.173 A 
ATOM     83  C   UNL A   1      46.349  30.938  28.762  1.00  0.00     0.173 A 
ATOM     84  F   UNL A   1      42.848  30.453  27.905  1.00  0.00    -0.203 F 
ATOM     85  C   UNL A   1      44.451  31.874  26.970  1.00  0.00     0.198 A 
ATOM     86  C   UNL A   1      46.667  31.964  27.877  1.00  0.00     0.198 A 
ATOM     87  F   UNL A   1      47.284  30.529  29.634  1.00  0.00    -0.203 F 
ATOM     88  F   UNL A   1      43.531  32.330  26.108  1.00  0.00    -0.200 F 
ATOM     89  C   UNL A   1      45.723  32.423  26.974  1.00  0.00     0.200 A 
ATOM     90  F   UNL A   1      47.883  32.524  27.917  1.00  0.00    -0.200 F 
ATOM     91  F   UNL A   1      46.032  33.413  26.124  1.00  0.00    -0.200 F 
ENDBRANCH  58  81
ENDBRANCH  32  33
ENDBRANCH  24  27
ENDBRANCH  22  23
ENDBRANCH   1  22
TORSDOF 12
ENDMDL
MODEL 2
REMARK VINA RESULT:     -12.8      4.250     10.489
REMARK SMILES CC(C)c1nc(C(=O)NCCCNC(=O)c2ccc(-c3c4nc(c(-c5c(F)c(F)c(F)c(F)c5F)c5ccc([nH]5)c(-c5c(F)c(F)c(F)c(F)c5F)c5nc(c(-c6c(F)c(F)c(F)c(F)c6F)c6ccc3[nH]6)C=C5)C=C4)cc2)nn1-c1ccccc1F
REMARK SMILES IDX 11 1 10 2 9 3 7 4 8 5 6 7 4 8 5 9 80 10 79 11 2 12 1 13 3 14
REMARK SMILES IDX 81 15 82 16 86 17 83 18 85 19 87 20 84 21 12 22 13 23 14 24
REMARK SMILES IDX 15 26 16 27 17 28 78 29 18 30 77 31 19 32 20 33 21 34 71 35
REMARK SMILES IDX 22 36 76 37 70 38 72 39 23 40 75 41 69 42 68 43 24 45 56 46
REMARK SMILES IDX 36 47 55 48 37 49 40 50 54 51 73 52 38 53 39 54 53 56 74 57
REMARK SMILES IDX 41 58 25 59 26 60 34 61 27 62 28 63 32 64 35 65 29 66 30 67
REMARK SMILES IDX 33 68 31 69 57 70 58 71 66 72 59 73 60 74 64 75 67 76 61 77
REMARK SMILES IDX 62 78 65 79 63 80 42 81 43 82 51 83 44 84 45 85 49 86 52 87
REMARK SMILES IDX 46 88 47 89 50 90 48 91
REMARK H PARENT 9 6 13 25 72 44 40 55
REMARK Flexibility Score: inf
ROOT
ATOM      1  C   UNL A   1      38.329  21.411  25.375  1.00  0.00     0.042 C 
ENDROOT
BRANCH   1   2
ATOM      2  C   UNL A   1      37.019  22.206  25.367  1.00  0.00     0.118 C 
BRANCH   2   3
ATOM      3  N   UNL A   1      35.969  21.578  26.164  1.00  0.00    -0.349 N 
ATOM      4  C   UNL A   1      34.643  21.929  26.376  1.00  0.00     0.290 C 
ATOM      5  O   UNL A   1      33.997  21.203  27.137  1.00  0.00    -0.266 OA
ATOM      6  H   UNL A   1      36.251  20.761  26.634  1.00  0.00     0.163 HD
BRANCH   4   7
ATOM      7  C   UNL A   1      34.060  23.131  25.737  1.00  0.00     0.239 A 
ATOM      8  C   UNL A   1      32.888  24.358  24.435  1.00  0.00     0.136 A 
ATOM      9  N   UNL A   1      33.276  23.104  24.595  1.00  0.00    -0.207 NA
ATOM     10  N   UNL A   1      33.345  25.095  25.511  1.00  0.00    -0.214 N 
ATOM     11  N   UNL A   1      34.253  24.377  26.190  1.00  0.00    -0.140 NA
BRANCH   8  12
ATOM     12  C   UNL A   1      32.248  24.956  23.215  1.00  0.00     0.051 C 
ATOM     13  C   UNL A   1      32.912  24.404  21.950  1.00  0.00     0.016 C 
ATOM     14  C   UNL A   1      30.743  24.706  23.189  1.00  0.00     0.016 C 
ENDBRANCH   8  12
BRANCH  10  15
ATOM     15  C   UNL A   1      32.991  26.363  26.006  1.00  0.00     0.102 A 
ATOM     16  C   UNL A   1      33.983  27.350  26.126  1.00  0.00     0.031 A 
ATOM     17  C   UNL A   1      31.712  26.604  26.499  1.00  0.00     0.148 A 
ATOM     18  C   UNL A   1      33.669  28.584  26.691  1.00  0.00     0.002 A 
ATOM     19  C   UNL A   1      31.406  27.829  27.084  1.00  0.00     0.041 A 
ATOM     20  F   UNL A   1      30.780  25.641  26.518  1.00  0.00    -0.205 F 
ATOM     21  C   UNL A   1      32.382  28.822  27.173  1.00  0.00     0.003 A 
ENDBRANCH  10  15
ENDBRANCH   4   7
ENDBRANCH   2   3
ENDBRANCH   1   2
BRANCH   1  22
ATOM     22  C   UNL A   1      39.295  21.945  26.423  1.00  0.00     0.118 C 
BRANCH  22  23
ATOM     23  N   UNL A   1      40.689  21.913  25.976  1.00  0.00    -0.352 N 
ATOM     24  C   UNL A   1      41.626  22.931  25.984  1.00  0.00     0.251 C 
ATOM     25  H   UNL A   1      41.003  21.049  25.623  1.00  0.00     0.163 HD
ATOM     26  O   UNL A   1      42.645  22.848  25.323  1.00  0.00    -0.269 OA
BRANCH  24  27
ATOM     27  C   UNL A   1      41.355  24.138  26.789  1.00  0.00     0.039 A 
ATOM     28  C   UNL A   1      41.976  24.319  28.026  1.00  0.00     0.014 A 
ATOM     29  C   UNL A   1      40.502  25.114  26.277  1.00  0.00     0.014 A 
ATOM     30  C   UNL A   1      41.812  25.532  28.689  1.00  0.00     0.010 A 
ATOM     31  C   UNL A   1      40.459  26.360  26.856  1.00  0.00     0.010 A 
ATOM     32  C   UNL A   1      41.082  26.569  28.081  1.00  0.00    -0.014 A 
BRANCH  32  33
ATOM     33  C   UNL A   1      41.080  27.906  28.673  1.00  0.00     0.031 A 
ATOM     34  C   UNL A   1      42.219  28.773  28.256  1.00  0.00     0.074 A 
ATOM     35  C   UNL A   1      40.064  28.420  29.399  1.00  0.00     0.049 A 
ATOM     36  N   UNL A   1      43.177  29.223  28.999  1.00  0.00    -0.248 NA
ATOM     37  C   UNL A   1      42.379  29.085  26.827  1.00  0.00     0.031 C 
ATOM     38  C   UNL A   1      38.738  27.847  29.656  1.00  0.00     0.029 A 
ATOM     39  N   UNL A   1      39.982  29.641  29.999  1.00  0.00    -0.354 N 
ATOM     40  C   UNL A   1      43.974  30.014  28.175  1.00  0.00     0.074 A 
ATOM     41  C   UNL A   1      43.519  29.780  26.829  1.00  0.00     0.031 C 
ATOM     42  C   UNL A   1      37.919  28.800  30.154  1.00  0.00     0.029 A 
ATOM     43  C   UNL A   1      38.705  29.989  30.423  1.00  0.00     0.049 A 
ATOM     44  H   UNL A   1      40.762  30.227  30.122  1.00  0.00     0.167 HD
ATOM     45  C   UNL A   1      44.804  30.956  28.701  1.00  0.00     0.037 A 
ATOM     46  C   UNL A   1      38.319  31.175  30.952  1.00  0.00     0.037 A 
ATOM     47  C   UNL A   1      45.021  30.726  30.108  1.00  0.00     0.049 A 
ATOM     48  C   UNL A   1      39.536  31.846  31.463  1.00  0.00     0.074 A 
ATOM     49  C   UNL A   1      45.568  29.703  30.857  1.00  0.00     0.029 A 
ATOM     50  N   UNL A   1      44.305  31.492  30.994  1.00  0.00    -0.354 N 
ATOM     51  N   UNL A   1      40.223  31.427  32.488  1.00  0.00    -0.248 NA
ATOM     52  C   UNL A   1      40.232  32.760  30.573  1.00  0.00     0.031 C 
ATOM     53  C   UNL A   1      44.762  29.636  32.033  1.00  0.00     0.029 A 
ATOM     54  C   UNL A   1      43.816  30.658  31.963  1.00  0.00     0.049 A 
ATOM     55  H   UNL A   1      44.168  32.465  30.941  1.00  0.00     0.167 HD
ATOM     56  C   UNL A   1      41.544  31.653  32.135  1.00  0.00     0.074 A 
ATOM     57  C   UNL A   1      41.482  32.578  31.007  1.00  0.00     0.031 C 
ATOM     58  C   UNL A   1      42.539  30.851  32.611  1.00  0.00     0.037 A 
BRANCH  45  59
ATOM     59  C   UNL A   1      45.118  32.289  28.061  1.00  0.00     0.064 A 
ATOM     60  C   UNL A   1      44.069  33.207  27.840  1.00  0.00     0.173 A 
ATOM     61  C   UNL A   1      46.319  32.566  27.372  1.00  0.00     0.173 A 
ATOM     62  F   UNL A   1      42.877  33.039  28.434  1.00  0.00    -0.203 F 
ATOM     63  C   UNL A   1      44.183  34.257  26.925  1.00  0.00     0.198 A 
ATOM     64  C   UNL A   1      46.445  33.647  26.499  1.00  0.00     0.198 A 
ATOM     65  F   UNL A   1      47.375  31.747  27.422  1.00  0.00    -0.203 F 
ATOM     66  F   UNL A   1      43.115  35.016  26.646  1.00  0.00    -0.200 F 
ATOM     67  C   UNL A   1      45.368  34.470  26.249  1.00  0.00     0.200 A 
ATOM     68  F   UNL A   1      47.598  33.826  25.840  1.00  0.00    -0.200 F 
ATOM     69  F   UNL A   1      45.460  35.430  25.320  1.00  0.00    -0.200 F 
ENDBRANCH  45  59
BRANCH  46  70
ATOM     70  C   UNL A   1      37.027  31.885  30.820  1.00  0.00     0.064 A 
ATOM     71  C   UNL A   1      36.130  31.957  31.898  1.00  0.00     0.173 A 
ATOM     72  C   UNL A   1      36.786  32.762  29.745  1.00  0.00     0.173 A 
ATOM     73  F   UNL A   1      36.310  31.182  32.978  1.00  0.00    -0.203 F 
ATOM     74  C   UNL A   1      35.081  32.881  31.921  1.00  0.00     0.198 A 
ATOM     75  C   UNL A   1      35.735  33.680  29.765  1.00  0.00     0.198 A 
ATOM     76  F   UNL A   1      37.626  32.815  28.701  1.00  0.00    -0.203 F 
ATOM     77  F   UNL A   1      34.292  32.971  33.002  1.00  0.00    -0.200 F 
ATOM     78  C   UNL A   1      34.893  33.753  30.860  1.00  0.00     0.200 A 
ATOM     79  F   UNL A   1      35.585  34.543  28.749  1.00  0.00    -0.200 F 
ATOM     80  F   UNL A   1      33.935  34.687  30.914  1.00  0.00    -0.200 F 
ENDBRANCH  46  70
BRANCH  58  81
ATOM     81  C   UNL A   1      42.214  29.933  33.758  1.00  0.00     0.064 A 
ATOM     82  C   UNL A   1      41.744  28.615  33.615  1.00  0.00     0.173 A 
ATOM     83  C   UNL A   1      42.517  30.372  35.054  1.00  0.00     0.173 A 
ATOM     84  F   UNL A   1      41.521  28.086  32.406  1.00  0.00    -0.203 F 
ATOM     85  C   UNL A   1      41.545  27.795  34.726  1.00  0.00     0.198 A 
ATOM     86  C   UNL A   1      42.356  29.538  36.157  1.00  0.00     0.198 A 
ATOM     87  F   UNL A   1      43.017  31.603  35.247  1.00  0.00    -0.203 F 
ATOM     88  F   UNL A   1      41.079  26.548  34.566  1.00  0.00    -0.200 F 
ATOM     89  C   UNL A   1      41.859  28.255  35.994  1.00  0.00     0.200 A 
ATOM     90  F   UNL A   1      42.707  29.971  37.374  1.00  0.00    -0.200 F 
ATOM     91  F   UNL A   1      41.707  27.454  37.058  1.00  0.00    -0.200 F 
ENDBRANCH  58  81
ENDBRANCH  32  33
ENDBRANCH  24  27
ENDBRANCH  22  23
ENDBRANCH   1  22
TORSDOF 12
ENDMDL
MODEL 3
REMARK VINA RESULT:     -12.7      3.645      6.127
REMARK SMILES CC(C)c1nc(C(=O)NCCCNC(=O)c2ccc(-c3c4nc(c(-c5c(F)c(F)c(F)c(F)c5F)c5ccc([nH]5)c(-c5c(F)c(F)c(F)c(F)c5F)c5nc(c(-c6c(F)c(F)c(F)c(F)c6F)c6ccc3[nH]6)C=C5)C=C4)cc2)nn1-c1ccccc1F
REMARK SMILES IDX 11 1 10 2 9 3 7 4 8 5 6 7 4 8 5 9 80 10 79 11 2 12 1 13 3 14
REMARK SMILES IDX 81 15 82 16 86 17 83 18 85 19 87 20 84 21 12 22 13 23 14 24
REMARK SMILES IDX 15 26 16 27 17 28 78 29 18 30 77 31 19 32 20 33 21 34 71 35
REMARK SMILES IDX 22 36 76 37 70 38 72 39 23 40 75 41 69 42 68 43 24 45 56 46
REMARK SMILES IDX 36 47 55 48 37 49 40 50 54 51 73 52 38 53 39 54 53 56 74 57
REMARK SMILES IDX 41 58 25 59 26 60 34 61 27 62 28 63 32 64 35 65 29 66 30 67
REMARK SMILES IDX 33 68 31 69 57 70 58 71 66 72 59 73 60 74 64 75 67 76 61 77
REMARK SMILES IDX 62 78 65 79 63 80 42 81 43 82 51 83 44 84 45 85 49 86 52 87
REMARK SMILES IDX 46 88 47 89 50 90 48 91
REMARK H PARENT 9 6 13 25 72 44 40 55
REMARK Flexibility Score: inf
ROOT
ATOM      1  C   UNL A   1      33.546  31.738  27.433  1.00  0.00     0.042 C 
ENDROOT
BRANCH   1   2
ATOM      2  C   UNL A   1      33.916  30.300  27.050  1.00  0.00     0.118 C 
BRANCH   2   3
ATOM      3  N   UNL A   1      33.089  29.303  27.723  1.00  0.00    -0.349 N 
ATOM      4  C   UNL A   1      32.181  28.378  27.228  1.00  0.00     0.290 C 
ATOM      5  O   UNL A   1      31.603  27.673  28.060  1.00  0.00    -0.266 OA
ATOM      6  H   UNL A   1      33.194  29.282  28.701  1.00  0.00     0.163 HD
BRANCH   4   7
ATOM      7  C   UNL A   1      31.910  28.277  25.775  1.00  0.00     0.239 A 
ATOM      8  C   UNL A   1      31.824  27.492  23.787  1.00  0.00     0.136 A 
ATOM      9  N   UNL A   1      32.376  27.254  24.965  1.00  0.00    -0.207 NA
ATOM     10  N   UNL A   1      30.970  28.570  23.917  1.00  0.00    -0.214 N 
ATOM     11  N   UNL A   1      31.201  29.183  25.089  1.00  0.00    -0.140 NA
BRANCH   8  12
ATOM     12  C   UNL A   1      32.192  26.862  22.474  1.00  0.00     0.051 C 
ATOM     13  C   UNL A   1      33.698  26.592  22.425  1.00  0.00     0.016 C 
ATOM     14  C   UNL A   1      31.404  25.580  22.224  1.00  0.00     0.016 C 
ENDBRANCH   8  12
BRANCH  10  15
ATOM     15  C   UNL A   1      29.932  29.057  23.103  1.00  0.00     0.102 A 
ATOM     16  C   UNL A   1      30.128  30.249  22.387  1.00  0.00     0.031 A 
ATOM     17  C   UNL A   1      28.680  28.450  23.106  1.00  0.00     0.148 A 
ATOM     18  C   UNL A   1      29.083  30.790  21.640  1.00  0.00     0.002 A 
ATOM     19  C   UNL A   1      27.631  29.004  22.379  1.00  0.00     0.041 A 
ATOM     20  F   UNL A   1      28.424  27.386  23.880  1.00  0.00    -0.205 F 
ATOM     21  C   UNL A   1      27.834  30.169  21.639  1.00  0.00     0.003 A 
ENDBRANCH  10  15
ENDBRANCH   4   7
ENDBRANCH   2   3
ENDBRANCH   1   2
BRANCH   1  22
ATOM     22  C   UNL A   1      34.746  32.487  27.994  1.00  0.00     0.118 C 
BRANCH  22  23
ATOM     23  N   UNL A   1      34.633  32.741  29.432  1.00  0.00    -0.352 N 
ATOM     24  C   UNL A   1      35.299  32.125  30.476  1.00  0.00     0.251 C 
ATOM     25  H   UNL A   1      33.996  33.445  29.692  1.00  0.00     0.163 HD
ATOM     26  O   UNL A   1      34.901  32.231  31.622  1.00  0.00    -0.269 OA
BRANCH  24  27
ATOM     27  C   UNL A   1      36.493  31.311  30.174  1.00  0.00     0.039 A 
ATOM     28  C   UNL A   1      37.729  31.922  29.955  1.00  0.00     0.014 A 
ATOM     29  C   UNL A   1      36.376  29.924  30.151  1.00  0.00     0.014 A 
ATOM     30  C   UNL A   1      38.859  31.120  29.818  1.00  0.00     0.010 A 
ATOM     31  C   UNL A   1      37.505  29.139  30.164  1.00  0.00     0.010 A 
ATOM     32  C   UNL A   1      38.750  29.725  29.963  1.00  0.00    -0.014 A 
BRANCH  32  33
ATOM     33  C   UNL A   1      39.955  28.900  30.027  1.00  0.00     0.031 A 
ATOM     34  C   UNL A   1      40.499  28.699  31.400  1.00  0.00     0.074 A 
ATOM     35  C   UNL A   1      40.467  28.212  28.984  1.00  0.00     0.049 A 
ATOM     36  N   UNL A   1      41.627  29.123  31.868  1.00  0.00    -0.248 NA
ATOM     37  C   UNL A   1      39.646  28.049  32.407  1.00  0.00     0.031 C 
ATOM     38  C   UNL A   1      39.908  28.031  27.640  1.00  0.00     0.029 A 
ATOM     39  N   UNL A   1      41.587  27.435  28.947  1.00  0.00    -0.354 N 
ATOM     40  C   UNL A   1      41.710  28.656  33.177  1.00  0.00     0.074 A 
ATOM     41  C   UNL A   1      40.410  28.127  33.498  1.00  0.00     0.031 C 
ATOM     42  C   UNL A   1      40.560  27.031  27.006  1.00  0.00     0.029 A 
ATOM     43  C   UNL A   1      41.692  26.630  27.819  1.00  0.00     0.049 A 
ATOM     44  H   UNL A   1      42.265  27.445  29.660  1.00  0.00     0.167 HD
ATOM     45  C   UNL A   1      42.911  28.559  33.811  1.00  0.00     0.037 A 
ATOM     46  C   UNL A   1      42.640  25.693  27.574  1.00  0.00     0.037 A 
ATOM     47  C   UNL A   1      43.917  29.339  33.134  1.00  0.00     0.049 A 
ATOM     48  C   UNL A   1      43.801  26.006  28.439  1.00  0.00     0.074 A 
ATOM     49  C   UNL A   1      44.081  30.679  32.845  1.00  0.00     0.029 A 
ATOM     50  N   UNL A   1      44.790  28.673  32.311  1.00  0.00    -0.354 N 
ATOM     51  N   UNL A   1      44.562  27.052  28.284  1.00  0.00    -0.248 NA
ATOM     52  C   UNL A   1      43.871  25.367  29.742  1.00  0.00     0.031 C 
ATOM     53  C   UNL A   1      44.674  30.707  31.547  1.00  0.00     0.029 A 
ATOM     54  C   UNL A   1      44.894  29.388  31.149  1.00  0.00     0.049 A 
ATOM     55  H   UNL A   1      45.257  27.832  32.519  1.00  0.00     0.167 HD
ATOM     56  C   UNL A   1      44.852  27.464  29.575  1.00  0.00     0.074 A 
ATOM     57  C   UNL A   1      44.501  26.328  30.423  1.00  0.00     0.031 C 
ATOM     58  C   UNL A   1      45.080  28.780  29.852  1.00  0.00     0.037 A 
BRANCH  45  59
ATOM     59  C   UNL A   1      43.283  27.479  34.801  1.00  0.00     0.064 A 
ATOM     60  C   UNL A   1      43.644  27.850  36.115  1.00  0.00     0.173 A 
ATOM     61  C   UNL A   1      43.611  26.156  34.435  1.00  0.00     0.173 A 
ATOM     62  F   UNL A   1      43.391  29.087  36.571  1.00  0.00    -0.203 F 
ATOM     63  C   UNL A   1      44.364  26.997  36.955  1.00  0.00     0.198 A 
ATOM     64  C   UNL A   1      44.284  25.289  35.296  1.00  0.00     0.198 A 
ATOM     65  F   UNL A   1      43.402  25.685  33.201  1.00  0.00    -0.203 F 
ATOM     66  F   UNL A   1      44.805  27.443  38.139  1.00  0.00    -0.200 F 
ATOM     67  C   UNL A   1      44.692  25.720  36.541  1.00  0.00     0.200 A 
ATOM     68  F   UNL A   1      44.608  24.061  34.869  1.00  0.00    -0.200 F 
ATOM     69  F   UNL A   1      45.442  24.924  37.313  1.00  0.00    -0.200 F 
ENDBRANCH  45  59
BRANCH  46  70
ATOM     70  C   UNL A   1      42.524  24.408  26.850  1.00  0.00     0.064 A 
ATOM     71  C   UNL A   1      43.145  24.224  25.603  1.00  0.00     0.173 A 
ATOM     72  C   UNL A   1      42.065  23.246  27.499  1.00  0.00     0.173 A 
ATOM     73  F   UNL A   1      43.643  25.276  24.936  1.00  0.00    -0.203 F 
ATOM     74  C   UNL A   1      43.338  22.950  25.060  1.00  0.00     0.198 A 
ATOM     75  C   UNL A   1      42.253  21.975  26.952  1.00  0.00     0.198 A 
ATOM     76  F   UNL A   1      41.520  23.313  28.722  1.00  0.00    -0.203 F 
ATOM     77  F   UNL A   1      44.005  22.811  23.904  1.00  0.00    -0.200 F 
ATOM     78  C   UNL A   1      42.905  21.825  25.742  1.00  0.00     0.200 A 
ATOM     79  F   UNL A   1      41.862  20.891  27.639  1.00  0.00    -0.200 F 
ATOM     80  F   UNL A   1      43.156  20.602  25.257  1.00  0.00    -0.200 F 
ENDBRANCH  46  70
BRANCH  58  81
ATOM     81  C   UNL A   1      45.323  29.709  28.694  1.00  0.00     0.064 A 
ATOM     82  C   UNL A   1      44.311  30.369  27.975  1.00  0.00     0.173 A 
ATOM     83  C   UNL A   1      46.651  30.041  28.388  1.00  0.00     0.173 A 
ATOM     84  F   UNL A   1      43.018  30.182  28.269  1.00  0.00    -0.203 F 
ATOM     85  C   UNL A   1      44.619  31.283  26.967  1.00  0.00     0.198 A 
ATOM     86  C   UNL A   1      46.954  30.983  27.410  1.00  0.00     0.198 A 
ATOM     87  F   UNL A   1      47.659  29.481  29.076  1.00  0.00    -0.203 F 
ATOM     88  F   UNL A   1      43.635  31.887  26.284  1.00  0.00    -0.200 F 
ATOM     89  C   UNL A   1      45.940  31.595  26.692  1.00  0.00     0.200 A 
ATOM     90  F   UNL A   1      48.231  31.316  27.181  1.00  0.00    -0.200 F 
ATOM     91  F   UNL A   1      46.236  32.503  25.752  1.00  0.00    -0.200 F 
ENDBRANCH  58  81
ENDBRANCH  32  33
ENDBRANCH  24  27
ENDBRANCH  22  23
ENDBRANCH   1  22
TORSDOF 12
ENDMDL
