MODEL 1
REMARK VINA RESULT:     -12.4      0.000      0.000
REMARK SMILES Nc1cc(C(=O)NCCCNC(=O)c2ccc(-c3c4nc(c(-c5c(F)c(F)c(F)c(F)c5F)c5ccc([nH]5)c(-c5c(F)c(F)c(F)c(F)c5F)c5nc(c(-c6c(F)c(F)c(F)c(F)c6F)c6ccc3[nH]6)C=C5)C=C4)cc2)nc2ccccc12
REMARK SMILES IDX 9 1 8 2 7 3 5 4 6 5 4 7 2 8 3 9 83 10 78 11 82 12 77 13
REMARK SMILES IDX 79 14 81 15 80 16 1 17 10 20 11 21 12 22 13 24 14 25 15 26
REMARK SMILES IDX 76 27 16 28 75 29 17 30 18 31 19 32 69 33 20 34 74 35 68 36
REMARK SMILES IDX 70 37 21 38 73 39 67 40 66 41 22 43 54 44 34 45 53 46 35 47
REMARK SMILES IDX 38 48 52 49 71 50 36 51 37 52 51 54 72 55 39 56 23 57 24 58
REMARK SMILES IDX 32 59 25 60 26 61 30 62 33 63 27 64 28 65 31 66 29 67 55 68
REMARK SMILES IDX 56 69 64 70 57 71 58 72 62 73 65 74 59 75 60 76 63 77 61 78
REMARK SMILES IDX 40 79 41 80 49 81 42 82 43 83 47 84 50 85 44 86 45 87 48 88
REMARK SMILES IDX 46 89
REMARK H PARENT 7 6 1 18 1 19 11 23 70 42 38 53
REMARK Flexibility Score: inf
ROOT
ATOM      1  C   UNL A   1      31.412  31.952  26.502  1.00  0.00     0.042 C 
ENDROOT
BRANCH   1   2
ATOM      2  C   UNL A   1      31.537  30.446  26.276  1.00  0.00     0.118 C 
BRANCH   2   3
ATOM      3  N   UNL A   1      31.394  30.120  24.873  1.00  0.00    -0.351 N 
ATOM      4  C   UNL A   1      31.366  28.931  24.178  1.00  0.00     0.269 C 
ATOM      5  O   UNL A   1      31.203  29.035  22.959  1.00  0.00    -0.268 OA
ATOM      6  H   UNL A   1      31.296  30.912  24.295  1.00  0.00     0.163 HD
BRANCH   4   7
ATOM      7  C   UNL A   1      31.497  27.565  24.807  1.00  0.00     0.130 A 
ATOM      8  C   UNL A   1      30.679  25.587  25.906  1.00  0.00     0.043 A 
ATOM      9  C   UNL A   1      30.458  26.869  25.400  1.00  0.00     0.060 A 
ATOM     10  C   UNL A   1      31.992  25.064  25.891  1.00  0.00     0.023 A 
ATOM     11  C   UNL A   1      33.002  25.871  25.327  1.00  0.00     0.073 A 
ATOM     12  C   UNL A   1      32.348  23.793  26.407  1.00  0.00     0.012 A 
ATOM     13  N   UNL A   1      32.757  27.069  24.781  1.00  0.00    -0.242 NA
ATOM     14  C   UNL A   1      34.313  25.416  25.337  1.00  0.00     0.029 A 
ATOM     15  C   UNL A   1      33.672  23.355  26.397  1.00  0.00     0.001 A 
ATOM     16  C   UNL A   1      34.659  24.174  25.872  1.00  0.00     0.002 A 
BRANCH   8  17
ATOM     17  N   UNL A   1      29.607  24.929  26.507  1.00  0.00    -0.398 N 
ATOM     18  H   UNL A   1      28.798  24.725  25.983  1.00  0.00     0.156 HD
ATOM     19  H   UNL A   1      29.658  24.668  27.455  1.00  0.00     0.156 HD
ENDBRANCH   8  17
ENDBRANCH   4   7
ENDBRANCH   2   3
ENDBRANCH   1   2
BRANCH   1  20
ATOM     20  C   UNL A   1      32.655  32.560  27.145  1.00  0.00     0.118 C 
BRANCH  20  21
ATOM     21  N   UNL A   1      32.445  33.949  27.536  1.00  0.00    -0.352 N 
ATOM     22  C   UNL A   1      33.038  34.693  28.527  1.00  0.00     0.251 C 
ATOM     23  H   UNL A   1      31.771  34.432  27.004  1.00  0.00     0.163 HD
ATOM     24  O   UNL A   1      32.566  35.780  28.838  1.00  0.00    -0.269 OA
BRANCH  22  25
ATOM     25  C   UNL A   1      34.229  34.177  29.235  1.00  0.00     0.039 A 
ATOM     26  C   UNL A   1      35.515  34.514  28.808  1.00  0.00     0.014 A 
ATOM     27  C   UNL A   1      34.057  33.355  30.352  1.00  0.00     0.014 A 
ATOM     28  C   UNL A   1      36.616  33.892  29.382  1.00  0.00     0.010 A 
ATOM     29  C   UNL A   1      35.172  32.809  30.993  1.00  0.00     0.010 A 
ATOM     30  C   UNL A   1      36.460  33.033  30.482  1.00  0.00    -0.014 A 
BRANCH  30  31
ATOM     31  C   UNL A   1      37.657  32.382  31.072  1.00  0.00     0.031 A 
ATOM     32  C   UNL A   1      38.122  32.744  32.457  1.00  0.00     0.074 A 
ATOM     33  C   UNL A   1      38.288  31.415  30.378  1.00  0.00     0.049 A 
ATOM     34  N   UNL A   1      39.135  32.269  33.138  1.00  0.00    -0.248 NA
ATOM     35  C   UNL A   1      37.356  33.776  33.173  1.00  0.00     0.031 C 
ATOM     36  C   UNL A   1      37.916  30.969  29.034  1.00  0.00     0.029 A 
ATOM     37  N   UNL A   1      39.350  30.614  30.711  1.00  0.00    -0.354 N 
ATOM     38  C   UNL A   1      39.134  32.949  34.348  1.00  0.00     0.074 A 
ATOM     39  C   UNL A   1      38.045  33.898  34.298  1.00  0.00     0.031 C 
ATOM     40  C   UNL A   1      38.697  29.937  28.682  1.00  0.00     0.029 A 
ATOM     41  C   UNL A   1      39.670  29.697  29.741  1.00  0.00     0.049 A 
ATOM     42  H   UNL A   1      39.836  30.690  31.564  1.00  0.00     0.167 HD
ATOM     43  C   UNL A   1      39.958  32.783  35.410  1.00  0.00     0.037 A 
ATOM     44  C   UNL A   1      40.651  28.774  29.698  1.00  0.00     0.037 A 
ATOM     45  C   UNL A   1      41.027  31.818  35.460  1.00  0.00     0.049 A 
ATOM     46  C   UNL A   1      41.586  28.652  30.868  1.00  0.00     0.074 A 
ATOM     47  C   UNL A   1      41.905  31.561  36.498  1.00  0.00     0.029 A 
ATOM     48  N   UNL A   1      41.360  30.950  34.430  1.00  0.00    -0.354 N 
ATOM     49  N   UNL A   1      41.570  29.298  32.009  1.00  0.00    -0.248 NA
ATOM     50  C   UNL A   1      42.683  27.684  30.740  1.00  0.00     0.031 C 
ATOM     51  C   UNL A   1      42.803  30.576  36.078  1.00  0.00     0.029 A 
ATOM     52  C   UNL A   1      42.449  30.177  34.799  1.00  0.00     0.049 A 
ATOM     53  H   UNL A   1      40.893  30.894  33.566  1.00  0.00     0.167 HD
ATOM     54  C   UNL A   1      42.640  28.804  32.741  1.00  0.00     0.074 A 
ATOM     55  C   UNL A   1      43.272  27.789  31.924  1.00  0.00     0.031 C 
ATOM     56  C   UNL A   1      43.064  29.167  33.975  1.00  0.00     0.037 A 
BRANCH  43  57
ATOM     57  C   UNL A   1      39.746  33.658  36.612  1.00  0.00     0.064 A 
ATOM     58  C   UNL A   1      40.330  34.930  36.708  1.00  0.00     0.173 A 
ATOM     59  C   UNL A   1      38.885  33.252  37.645  1.00  0.00     0.173 A 
ATOM     60  F   UNL A   1      41.169  35.362  35.755  1.00  0.00    -0.203 F 
ATOM     61  C   UNL A   1      40.069  35.758  37.798  1.00  0.00     0.198 A 
ATOM     62  C   UNL A   1      38.605  34.095  38.718  1.00  0.00     0.198 A 
ATOM     63  F   UNL A   1      38.297  32.047  37.600  1.00  0.00    -0.203 F 
ATOM     64  F   UNL A   1      40.665  36.955  37.884  1.00  0.00    -0.200 F 
ATOM     65  C   UNL A   1      39.199  35.344  38.795  1.00  0.00     0.200 A 
ATOM     66  F   UNL A   1      37.752  33.698  39.674  1.00  0.00    -0.200 F 
ATOM     67  F   UNL A   1      38.936  36.150  39.834  1.00  0.00    -0.200 F 
ENDBRANCH  43  57
BRANCH  44  68
ATOM     68  C   UNL A   1      40.786  27.899  28.505  1.00  0.00     0.064 A 
ATOM     69  C   UNL A   1      40.121  26.668  28.434  1.00  0.00     0.173 A 
ATOM     70  C   UNL A   1      41.558  28.288  27.398  1.00  0.00     0.173 A 
ATOM     71  F   UNL A   1      39.388  26.242  29.473  1.00  0.00    -0.203 F 
ATOM     72  C   UNL A   1      40.227  25.857  27.306  1.00  0.00     0.198 A 
ATOM     73  C   UNL A   1      41.636  27.492  26.259  1.00  0.00     0.198 A 
ATOM     74  F   UNL A   1      42.213  29.458  27.414  1.00  0.00    -0.203 F 
ATOM     75  F   UNL A   1      39.608  24.669  27.278  1.00  0.00    -0.200 F 
ATOM     76  C   UNL A   1      40.975  26.274  26.215  1.00  0.00     0.200 A 
ATOM     77  F   UNL A   1      42.345  27.909  25.200  1.00  0.00    -0.200 F 
ATOM     78  F   UNL A   1      41.062  25.502  25.124  1.00  0.00    -0.200 F 
ENDBRANCH  44  68
BRANCH  56  79
ATOM     79  C   UNL A   1      44.262  28.455  34.534  1.00  0.00     0.064 A 
ATOM     80  C   UNL A   1      45.556  28.978  34.394  1.00  0.00     0.173 A 
ATOM     81  C   UNL A   1      44.106  27.277  35.280  1.00  0.00     0.173 A 
ATOM     82  F   UNL A   1      45.758  30.095  33.679  1.00  0.00    -0.203 F 
ATOM     83  C   UNL A   1      46.650  28.340  34.968  1.00  0.00     0.198 A 
ATOM     84  C   UNL A   1      45.198  26.659  35.880  1.00  0.00     0.198 A 
ATOM     85  F   UNL A   1      42.887  26.739  35.450  1.00  0.00    -0.203 F 
ATOM     86  F   UNL A   1      47.882  28.838  34.792  1.00  0.00    -0.200 F 
ATOM     87  C   UNL A   1      46.470  27.188  35.721  1.00  0.00     0.200 A 
ATOM     88  F   UNL A   1      45.020  25.556  36.621  1.00  0.00    -0.200 F 
ATOM     89  F   UNL A   1      47.524  26.587  36.289  1.00  0.00    -0.200 F 
ENDBRANCH  56  79
ENDBRANCH  30  31
ENDBRANCH  22  25
ENDBRANCH  20  21
ENDBRANCH   1  20
TORSDOF 11
ENDMDL
MODEL 2
REMARK VINA RESULT:     -12.4      0.302      1.677
REMARK SMILES Nc1cc(C(=O)NCCCNC(=O)c2ccc(-c3c4nc(c(-c5c(F)c(F)c(F)c(F)c5F)c5ccc([nH]5)c(-c5c(F)c(F)c(F)c(F)c5F)c5nc(c(-c6c(F)c(F)c(F)c(F)c6F)c6ccc3[nH]6)C=C5)C=C4)cc2)nc2ccccc12
REMARK SMILES IDX 9 1 8 2 7 3 5 4 6 5 4 7 2 8 3 9 83 10 78 11 82 12 77 13
REMARK SMILES IDX 79 14 81 15 80 16 1 17 10 20 11 21 12 22 13 24 14 25 15 26
REMARK SMILES IDX 76 27 16 28 75 29 17 30 18 31 19 32 69 33 20 34 74 35 68 36
REMARK SMILES IDX 70 37 21 38 73 39 67 40 66 41 22 43 54 44 34 45 53 46 35 47
REMARK SMILES IDX 38 48 52 49 71 50 36 51 37 52 51 54 72 55 39 56 23 57 24 58
REMARK SMILES IDX 32 59 25 60 26 61 30 62 33 63 27 64 28 65 31 66 29 67 55 68
REMARK SMILES IDX 56 69 64 70 57 71 58 72 62 73 65 74 59 75 60 76 63 77 61 78
REMARK SMILES IDX 40 79 41 80 49 81 42 82 43 83 47 84 50 85 44 86 45 87 48 88
REMARK SMILES IDX 46 89
REMARK H PARENT 7 6 1 18 1 19 11 23 70 42 38 53
REMARK Flexibility Score: inf
ROOT
ATOM      1  C   UNL A   1      31.400  31.941  26.406  1.00  0.00     0.042 C 
ENDROOT
BRANCH   1   2
ATOM      2  C   UNL A   1      31.466  30.429  26.193  1.00  0.00     0.118 C 
BRANCH   2   3
ATOM      3  N   UNL A   1      31.181  30.086  24.815  1.00  0.00    -0.351 N 
ATOM      4  C   UNL A   1      31.095  28.890  24.138  1.00  0.00     0.269 C 
ATOM      5  O   UNL A   1      30.803  28.980  22.942  1.00  0.00    -0.268 OA
ATOM      6  H   UNL A   1      31.012  30.871  24.245  1.00  0.00     0.163 HD
BRANCH   4   7
ATOM      7  C   UNL A   1      31.309  27.533  24.762  1.00  0.00     0.130 A 
ATOM      8  C   UNL A   1      30.618  25.515  25.877  1.00  0.00     0.043 A 
ATOM      9  C   UNL A   1      30.321  26.785  25.377  1.00  0.00     0.060 A 
ATOM     10  C   UNL A   1      31.955  25.060  25.832  1.00  0.00     0.023 A 
ATOM     11  C   UNL A   1      32.910  25.917  25.245  1.00  0.00     0.073 A 
ATOM     12  C   UNL A   1      32.387  23.809  26.337  1.00  0.00     0.012 A 
ATOM     13  N   UNL A   1      32.593  27.102  24.707  1.00  0.00    -0.242 NA
ATOM     14  C   UNL A   1      34.242  25.529  25.225  1.00  0.00     0.029 A 
ATOM     15  C   UNL A   1      33.731  23.438  26.297  1.00  0.00     0.001 A 
ATOM     16  C   UNL A   1      34.663  24.307  25.751  1.00  0.00     0.002 A 
BRANCH   8  17
ATOM     17  N   UNL A   1      29.594  24.804  26.500  1.00  0.00    -0.398 N 
ATOM     18  H   UNL A   1      28.731  24.679  26.042  1.00  0.00     0.156 HD
ATOM     19  H   UNL A   1      29.734  24.426  27.399  1.00  0.00     0.156 HD
ENDBRANCH   8  17
ENDBRANCH   4   7
ENDBRANCH   2   3
ENDBRANCH   1   2
BRANCH   1  20
ATOM     20  C   UNL A   1      32.627  32.493  27.125  1.00  0.00     0.118 C 
BRANCH  20  21
ATOM     21  N   UNL A   1      32.452  33.886  27.517  1.00  0.00    -0.352 N 
ATOM     22  C   UNL A   1      33.064  34.614  28.508  1.00  0.00     0.251 C 
ATOM     23  H   UNL A   1      31.788  34.385  26.987  1.00  0.00     0.163 HD
ATOM     24  O   UNL A   1      32.619  35.712  28.820  1.00  0.00    -0.269 OA
BRANCH  22  25
ATOM     25  C   UNL A   1      34.244  34.069  29.212  1.00  0.00     0.039 A 
ATOM     26  C   UNL A   1      35.536  34.408  28.808  1.00  0.00     0.014 A 
ATOM     27  C   UNL A   1      34.054  33.218  30.305  1.00  0.00     0.014 A 
ATOM     28  C   UNL A   1      36.627  33.762  29.376  1.00  0.00     0.010 A 
ATOM     29  C   UNL A   1      35.158  32.645  30.941  1.00  0.00     0.010 A 
ATOM     30  C   UNL A   1      36.453  32.874  30.449  1.00  0.00    -0.014 A 
BRANCH  30  31
ATOM     31  C   UNL A   1      37.639  32.197  31.034  1.00  0.00     0.031 A 
ATOM     32  C   UNL A   1      38.098  32.523  32.429  1.00  0.00     0.074 A 
ATOM     33  C   UNL A   1      38.265  31.239  30.322  1.00  0.00     0.049 A 
ATOM     34  N   UNL A   1      39.101  32.022  33.106  1.00  0.00    -0.248 NA
ATOM     35  C   UNL A   1      37.337  33.546  33.162  1.00  0.00     0.031 C 
ATOM     36  C   UNL A   1      37.898  30.827  28.966  1.00  0.00     0.029 A 
ATOM     37  N   UNL A   1      39.316  30.420  30.645  1.00  0.00    -0.354 N 
ATOM     38  C   UNL A   1      39.098  32.676  34.331  1.00  0.00     0.074 A 
ATOM     39  C   UNL A   1      38.019  33.636  34.295  1.00  0.00     0.031 C 
ATOM     40  C   UNL A   1      38.671  29.796  28.596  1.00  0.00     0.029 A 
ATOM     41  C   UNL A   1      39.634  29.521  29.656  1.00  0.00     0.049 A 
ATOM     42  H   UNL A   1      39.797  30.471  31.502  1.00  0.00     0.167 HD
ATOM     43  C   UNL A   1      39.913  32.476  35.395  1.00  0.00     0.037 A 
ATOM     44  C   UNL A   1      40.605  28.589  29.600  1.00  0.00     0.037 A 
ATOM     45  C   UNL A   1      40.972  31.500  35.431  1.00  0.00     0.049 A 
ATOM     46  C   UNL A   1      41.531  28.432  30.772  1.00  0.00     0.074 A 
ATOM     47  C   UNL A   1      41.840  31.211  36.469  1.00  0.00     0.029 A 
ATOM     48  N   UNL A   1      41.303  30.652  34.384  1.00  0.00    -0.354 N 
ATOM     49  N   UNL A   1      41.513  29.052  31.928  1.00  0.00    -0.248 NA
ATOM     50  C   UNL A   1      42.619  27.455  30.631  1.00  0.00     0.031 C 
ATOM     51  C   UNL A   1      42.730  30.226  36.033  1.00  0.00     0.029 A 
ATOM     52  C   UNL A   1      42.381  29.859  34.743  1.00  0.00     0.049 A 
ATOM     53  H   UNL A   1      40.842  30.619  33.515  1.00  0.00     0.167 HD
ATOM     54  C   UNL A   1      42.573  28.531  32.656  1.00  0.00     0.074 A 
ATOM     55  C   UNL A   1      43.200  27.528  31.821  1.00  0.00     0.031 C 
ATOM     56  C   UNL A   1      42.992  28.861  33.901  1.00  0.00     0.037 A 
BRANCH  43  57
ATOM     57  C   UNL A   1      39.702  33.327  36.615  1.00  0.00     0.064 A 
ATOM     58  C   UNL A   1      40.347  34.562  36.771  1.00  0.00     0.173 A 
ATOM     59  C   UNL A   1      38.782  32.938  37.602  1.00  0.00     0.173 A 
ATOM     60  F   UNL A   1      41.244  34.976  35.863  1.00  0.00    -0.203 F 
ATOM     61  C   UNL A   1      40.089  35.371  37.876  1.00  0.00     0.198 A 
ATOM     62  C   UNL A   1      38.506  33.763  38.690  1.00  0.00     0.198 A 
ATOM     63  F   UNL A   1      38.133  31.768  37.499  1.00  0.00    -0.203 F 
ATOM     64  F   UNL A   1      40.743  36.532  38.020  1.00  0.00    -0.200 F 
ATOM     65  C   UNL A   1      39.161  34.976  38.827  1.00  0.00     0.200 A 
ATOM     66  F   UNL A   1      37.597  33.386  39.601  1.00  0.00    -0.200 F 
ATOM     67  F   UNL A   1      38.900  35.765  39.880  1.00  0.00    -0.200 F 
ENDBRANCH  43  57
BRANCH  44  68
ATOM     68  C   UNL A   1      40.740  27.740  28.388  1.00  0.00     0.064 A 
ATOM     69  C   UNL A   1      41.523  28.151  27.302  1.00  0.00     0.173 A 
ATOM     70  C   UNL A   1      40.115  26.485  28.303  1.00  0.00     0.173 A 
ATOM     71  F   UNL A   1      42.125  29.350  27.326  1.00  0.00    -0.203 F 
ATOM     72  C   UNL A   1      41.671  27.345  26.175  1.00  0.00     0.198 A 
ATOM     73  C   UNL A   1      40.291  25.667  27.190  1.00  0.00     0.198 A 
ATOM     74  F   UNL A   1      39.356  26.042  29.316  1.00  0.00    -0.203 F 
ATOM     75  F   UNL A   1      42.398  27.778  25.136  1.00  0.00    -0.200 F 
ATOM     76  C   UNL A   1      41.064  26.099  26.124  1.00  0.00     0.200 A 
ATOM     77  F   UNL A   1      39.717  24.456  27.155  1.00  0.00    -0.200 F 
ATOM     78  F   UNL A   1      41.221  25.318  25.048  1.00  0.00    -0.200 F 
ENDBRANCH  44  68
BRANCH  56  79
ATOM     79  C   UNL A   1      44.178  28.124  34.451  1.00  0.00     0.064 A 
ATOM     80  C   UNL A   1      44.034  26.894  35.111  1.00  0.00     0.173 A 
ATOM     81  C   UNL A   1      45.477  28.615  34.251  1.00  0.00     0.173 A 
ATOM     82  F   UNL A   1      42.812  26.389  35.338  1.00  0.00    -0.203 F 
ATOM     83  C   UNL A   1      45.146  26.191  35.563  1.00  0.00     0.198 A 
ATOM     84  C   UNL A   1      46.588  27.894  34.676  1.00  0.00     0.198 A 
ATOM     85  F   UNL A   1      45.669  29.783  33.619  1.00  0.00    -0.203 F 
ATOM     86  F   UNL A   1      44.983  25.036  36.222  1.00  0.00    -0.200 F 
ATOM     87  C   UNL A   1      46.422  26.685  35.335  1.00  0.00     0.200 A 
ATOM     88  F   UNL A   1      47.822  28.363  34.439  1.00  0.00    -0.200 F 
ATOM     89  F   UNL A   1      47.492  25.996  35.753  1.00  0.00    -0.200 F 
ENDBRANCH  56  79
ENDBRANCH  30  31
ENDBRANCH  22  25
ENDBRANCH  20  21
ENDBRANCH   1  20
TORSDOF 11
ENDMDL
MODEL 3
REMARK VINA RESULT:     -12.4      0.302      1.677
REMARK SMILES Nc1cc(C(=O)NCCCNC(=O)c2ccc(-c3c4nc(c(-c5c(F)c(F)c(F)c(F)c5F)c5ccc([nH]5)c(-c5c(F)c(F)c(F)c(F)c5F)c5nc(c(-c6c(F)c(F)c(F)c(F)c6F)c6ccc3[nH]6)C=C5)C=C4)cc2)nc2ccccc12
REMARK SMILES IDX 9 1 8 2 7 3 5 4 6 5 4 7 2 8 3 9 83 10 78 11 82 12 77 13
REMARK SMILES IDX 79 14 81 15 80 16 1 17 10 20 11 21 12 22 13 24 14 25 15 26
REMARK SMILES IDX 76 27 16 28 75 29 17 30 18 31 19 32 69 33 20 34 74 35 68 36
REMARK SMILES IDX 70 37 21 38 73 39 67 40 66 41 22 43 54 44 34 45 53 46 35 47
REMARK SMILES IDX 38 48 52 49 71 50 36 51 37 52 51 54 72 55 39 56 23 57 24 58
REMARK SMILES IDX 32 59 25 60 26 61 30 62 33 63 27 64 28 65 31 66 29 67 55 68
REMARK SMILES IDX 56 69 64 70 57 71 58 72 62 73 65 74 59 75 60 76 63 77 61 78
REMARK SMILES IDX 40 79 41 80 49 81 42 82 43 83 47 84 50 85 44 86 45 87 48 88
REMARK SMILES IDX 46 89
REMARK H PARENT 7 6 1 18 1 19 11 23 70 42 38 53
REMARK Flexibility Score: inf
ROOT
ATOM      1  C   UNL A   1      31.366  32.204  26.457  1.00  0.00     0.042 C 
ENDROOT
BRANCH   1   2
ATOM      2  C   UNL A   1      31.475  30.701  26.204  1.00  0.00     0.118 C 
BRANCH   2   3
ATOM      3  N   UNL A   1      31.126  30.380  24.836  1.00  0.00    -0.351 N 
ATOM      4  C   UNL A   1      31.012  29.194  24.144  1.00  0.00     0.269 C 
ATOM      5  O   UNL A   1      30.663  29.302  22.965  1.00  0.00    -0.268 OA
ATOM      6  H   UNL A   1      30.928  31.173  24.287  1.00  0.00     0.163 HD
BRANCH   4   7
ATOM      7  C   UNL A   1      31.259  27.828  24.735  1.00  0.00     0.130 A 
ATOM      8  C   UNL A   1      30.619  25.769  25.804  1.00  0.00     0.043 A 
ATOM      9  C   UNL A   1      30.291  27.043  25.336  1.00  0.00     0.060 A 
ATOM     10  C   UNL A   1      31.966  25.346  25.744  1.00  0.00     0.023 A 
ATOM     11  C   UNL A   1      32.898  26.238  25.175  1.00  0.00     0.073 A 
ATOM     12  C   UNL A   1      32.428  24.093  26.218  1.00  0.00     0.012 A 
ATOM     13  N   UNL A   1      32.552  27.427  24.665  1.00  0.00    -0.242 NA
ATOM     14  C   UNL A   1      34.239  25.881  25.140  1.00  0.00     0.029 A 
ATOM     15  C   UNL A   1      33.780  23.754  26.164  1.00  0.00     0.001 A 
ATOM     16  C   UNL A   1      34.689  24.657  25.635  1.00  0.00     0.002 A 
BRANCH   8  17
ATOM     17  N   UNL A   1      29.614  25.020  26.415  1.00  0.00    -0.398 N 
ATOM     18  H   UNL A   1      29.030  25.437  27.089  1.00  0.00     0.156 HD
ATOM     19  H   UNL A   1      29.488  24.075  26.170  1.00  0.00     0.156 HD
ENDBRANCH   8  17
ENDBRANCH   4   7
ENDBRANCH   2   3
ENDBRANCH   1   2
BRANCH   1  20
ATOM     20  C   UNL A   1      32.552  32.761  27.239  1.00  0.00     0.118 C 
BRANCH  20  21
ATOM     21  N   UNL A   1      32.362  34.161  27.600  1.00  0.00    -0.352 N 
ATOM     22  C   UNL A   1      32.972  34.920  28.569  1.00  0.00     0.251 C 
ATOM     23  H   UNL A   1      31.686  34.638  27.065  1.00  0.00     0.163 HD
ATOM     24  O   UNL A   1      32.514  36.018  28.860  1.00  0.00    -0.269 OA
BRANCH  22  25
ATOM     25  C   UNL A   1      34.165  34.407  29.275  1.00  0.00     0.039 A 
ATOM     26  C   UNL A   1      35.441  34.566  28.731  1.00  0.00     0.014 A 
ATOM     27  C   UNL A   1      34.007  33.771  30.510  1.00  0.00     0.014 A 
ATOM     28  C   UNL A   1      36.527  33.938  29.327  1.00  0.00     0.010 A 
ATOM     29  C   UNL A   1      35.117  33.226  31.160  1.00  0.00     0.010 A 
ATOM     30  C   UNL A   1      36.380  33.261  30.548  1.00  0.00    -0.014 A 
BRANCH  30  31
ATOM     31  C   UNL A   1      37.561  32.599  31.159  1.00  0.00     0.031 A 
ATOM     32  C   UNL A   1      38.016  32.968  32.545  1.00  0.00     0.074 A 
ATOM     33  C   UNL A   1      38.184  31.614  30.482  1.00  0.00     0.049 A 
ATOM     34  N   UNL A   1      39.014  32.485  33.242  1.00  0.00    -0.248 NA
ATOM     35  C   UNL A   1      37.257  34.019  33.241  1.00  0.00     0.031 C 
ATOM     36  C   UNL A   1      37.821  31.160  29.139  1.00  0.00     0.029 A 
ATOM     37  N   UNL A   1      39.230  30.801  30.836  1.00  0.00    -0.354 N 
ATOM     38  C   UNL A   1      39.010  33.178  34.445  1.00  0.00     0.074 A 
ATOM     39  C   UNL A   1      37.936  34.143  34.373  1.00  0.00     0.031 C 
ATOM     40  C   UNL A   1      38.589  30.113  28.806  1.00  0.00     0.029 A 
ATOM     41  C   UNL A   1      39.547  29.869  29.878  1.00  0.00     0.049 A 
ATOM     42  H   UNL A   1      39.708  30.878  31.692  1.00  0.00     0.167 HD
ATOM     43  C   UNL A   1      39.819  33.010  35.518  1.00  0.00     0.037 A 
ATOM     44  C   UNL A   1      40.514  28.931  29.857  1.00  0.00     0.037 A 
ATOM     45  C   UNL A   1      40.873  32.030  35.590  1.00  0.00     0.049 A 
ATOM     46  C   UNL A   1      41.434  28.807  31.038  1.00  0.00     0.074 A 
ATOM     47  C   UNL A   1      41.735  31.771  36.641  1.00  0.00     0.029 A 
ATOM     48  N   UNL A   1      41.204  31.146  34.573  1.00  0.00    -0.354 N 
ATOM     49  N   UNL A   1      41.415  29.465  32.172  1.00  0.00    -0.248 NA
ATOM     50  C   UNL A   1      42.518  27.821  30.933  1.00  0.00     0.031 C 
ATOM     51  C   UNL A   1      42.623  30.768  36.241  1.00  0.00     0.029 A 
ATOM     52  C   UNL A   1      42.276  30.360  34.963  1.00  0.00     0.049 A 
ATOM     53  H   UNL A   1      40.746  31.087  33.704  1.00  0.00     0.167 HD
ATOM     54  C   UNL A   1      42.469  28.963  32.921  1.00  0.00     0.074 A 
ATOM     55  C   UNL A   1      43.095  27.930  32.122  1.00  0.00     0.031 C 
ATOM     56  C   UNL A   1      42.885  29.333  34.156  1.00  0.00     0.037 A 
BRANCH  43  57
ATOM     57  C   UNL A   1      39.608  33.901  36.708  1.00  0.00     0.064 A 
ATOM     58  C   UNL A   1      38.817  33.501  37.796  1.00  0.00     0.173 A 
ATOM     59  C   UNL A   1      40.269  35.137  36.798  1.00  0.00     0.173 A 
ATOM     60  F   UNL A   1      38.154  32.336  37.757  1.00  0.00    -0.203 F 
ATOM     61  C   UNL A   1      38.687  34.309  38.923  1.00  0.00     0.198 A 
ATOM     62  C   UNL A   1      40.158  35.928  37.939  1.00  0.00     0.198 A 
ATOM     63  F   UNL A   1      41.041  35.565  35.789  1.00  0.00    -0.203 F 
ATOM     64  F   UNL A   1      37.899  33.921  39.936  1.00  0.00    -0.200 F 
ATOM     65  C   UNL A   1      39.366  35.517  38.997  1.00  0.00     0.200 A 
ATOM     66  F   UNL A   1      40.827  37.088  38.015  1.00  0.00    -0.200 F 
ATOM     67  F   UNL A   1      39.253  36.284  40.091  1.00  0.00    -0.200 F 
ENDBRANCH  43  57
BRANCH  44  68
ATOM     68  C   UNL A   1      40.649  28.041  28.674  1.00  0.00     0.064 A 
ATOM     69  C   UNL A   1      39.985  26.809  28.618  1.00  0.00     0.173 A 
ATOM     70  C   UNL A   1      41.420  28.417  27.562  1.00  0.00     0.173 A 
ATOM     71  F   UNL A   1      39.252  26.396  29.664  1.00  0.00    -0.203 F 
ATOM     72  C   UNL A   1      40.090  25.985  27.501  1.00  0.00     0.198 A 
ATOM     73  C   UNL A   1      41.498  27.607  26.432  1.00  0.00     0.198 A 
ATOM     74  F   UNL A   1      42.074  29.588  27.563  1.00  0.00    -0.203 F 
ATOM     75  F   UNL A   1      39.472  24.796  27.488  1.00  0.00    -0.200 F 
ATOM     76  C   UNL A   1      40.837  26.389  26.404  1.00  0.00     0.200 A 
ATOM     77  F   UNL A   1      42.206  28.012  25.369  1.00  0.00    -0.200 F 
ATOM     78  F   UNL A   1      40.925  25.603  25.323  1.00  0.00    -0.200 F 
ENDBRANCH  44  68
BRANCH  56  79
ATOM     79  C   UNL A   1      44.066  28.608  34.735  1.00  0.00     0.064 A 
ATOM     80  C   UNL A   1      43.911  27.409  35.447  1.00  0.00     0.173 A 
ATOM     81  C   UNL A   1      45.369  29.077  34.512  1.00  0.00     0.173 A 
ATOM     82  F   UNL A   1      42.685  26.926  35.697  1.00  0.00    -0.203 F 
ATOM     83  C   UNL A   1      45.018  26.715  35.926  1.00  0.00     0.198 A 
ATOM     84  C   UNL A   1      46.474  28.364  34.965  1.00  0.00     0.198 A 
ATOM     85  F   UNL A   1      45.571  30.216  33.831  1.00  0.00    -0.203 F 
ATOM     86  F   UNL A   1      44.846  25.590  36.634  1.00  0.00    -0.200 F 
ATOM     87  C   UNL A   1      46.298  27.186  35.675  1.00  0.00     0.200 A 
ATOM     88  F   UNL A   1      47.711  28.812  34.706  1.00  0.00    -0.200 F 
ATOM     89  F   UNL A   1      47.363  26.505  36.121  1.00  0.00    -0.200 F 
ENDBRANCH  56  79
ENDBRANCH  30  31
ENDBRANCH  22  25
ENDBRANCH  20  21
ENDBRANCH   1  20
TORSDOF 11
ENDMDL
