MODEL 1
REMARK VINA RESULT:     -10.9      0.000      0.000
REMARK SMILES CCCCCCC(=O)N[C@@H](C)C(=O)NCCCNC(=O)c1ccc(-c2c3nc(c(-c4c(F)c(F)c(F)c(F)c4F)c4ccc([nH]4)c(-c4c(F)c(F)c(F)c(F)c4F)c4nc(c(-c5c(F)c(F)c(F)c(F)c5F)c5ccc2[nH]5)C=C4)C=C3)cc1
REMARK SMILES IDX 12 1 13 2 14 3 10 5 11 6 9 7 7 8 8 9 6 11 5 12 4 13 3 14
REMARK SMILES IDX 2 15 1 16 15 17 16 18 17 19 18 20 19 21 20 23 21 24 22 25
REMARK SMILES IDX 83 26 23 27 82 28 24 29 25 30 26 31 76 32 27 33 81 34 75 35
REMARK SMILES IDX 77 36 28 37 80 38 74 39 73 40 29 42 61 43 41 44 60 45 42 46
REMARK SMILES IDX 45 47 59 48 78 49 43 50 44 51 58 53 79 54 46 55 30 56 31 57
REMARK SMILES IDX 39 58 32 59 33 60 37 61 40 62 34 63 35 64 38 65 36 66 62 67
REMARK SMILES IDX 63 68 71 69 64 70 65 71 69 72 72 73 66 74 67 75 70 76 68 77
REMARK SMILES IDX 47 78 48 79 56 80 49 81 50 82 54 83 57 84 51 85 52 86 55 87
REMARK SMILES IDX 53 88
REMARK H PARENT 14 4 9 10 18 22 77 41 45 52
REMARK Flexibility Score: inf
ROOT
ATOM      1  C   UNL A   1      32.683  28.904  24.514  1.00  0.00     0.242 C 
ATOM      2  O   UNL A   1      33.047  28.963  23.337  1.00  0.00    -0.273 OA
ATOM      3  N   UNL A   1      32.315  30.059  25.122  1.00  0.00    -0.354 N 
ATOM      4  H   UNL A   1      32.194  30.829  24.520  1.00  0.00     0.163 HD
ENDROOT
BRANCH   1   5
ATOM      5  C   UNL A   1      32.589  27.567  25.252  1.00  0.00     0.168 C 
ATOM      6  C   UNL A   1      33.833  27.290  26.098  1.00  0.00     0.041 C 
BRANCH   5   7
ATOM      7  N   UNL A   1      32.223  26.424  24.430  1.00  0.00    -0.345 N 
ATOM      8  C   UNL A   1      30.976  25.966  24.125  1.00  0.00     0.220 C 
ATOM      9  O   UNL A   1      30.889  24.918  23.481  1.00  0.00    -0.275 OA
ATOM     10  H   UNL A   1      32.973  25.915  24.043  1.00  0.00     0.164 HD
BRANCH   8  11
ATOM     11  C   UNL A   1      29.731  26.740  24.536  1.00  0.00     0.100 C 
BRANCH  11  12
ATOM     12  C   UNL A   1      28.930  27.387  23.398  1.00  0.00     0.010 C 
BRANCH  12  13
ATOM     13  C   UNL A   1      29.591  28.508  22.584  1.00  0.00     0.001 C 
BRANCH  13  14
ATOM     14  C   UNL A   1      28.673  29.668  22.163  1.00  0.00    -0.000 C 
BRANCH  14  15
ATOM     15  C   UNL A   1      27.559  29.999  23.150  1.00  0.00    -0.003 C 
ATOM     16  C   UNL A   1      27.608  31.446  23.613  1.00  0.00     0.004 C 
ENDBRANCH  14  15
ENDBRANCH  13  14
ENDBRANCH  12  13
ENDBRANCH  11  12
ENDBRANCH   8  11
ENDBRANCH   5   7
ENDBRANCH   1   5
BRANCH   3  17
ATOM     17  C   UNL A   1      32.076  30.332  26.524  1.00  0.00     0.117 C 
BRANCH  17  18
ATOM     18  C   UNL A   1      31.750  31.799  26.732  1.00  0.00     0.042 C 
BRANCH  18  19
ATOM     19  C   UNL A   1      32.851  32.539  27.475  1.00  0.00     0.118 C 
BRANCH  19  20
ATOM     20  N   UNL A   1      32.544  33.956  27.645  1.00  0.00    -0.352 N 
ATOM     21  C   UNL A   1      33.024  34.841  28.583  1.00  0.00     0.251 C 
ATOM     22  H   UNL A   1      31.904  34.330  26.998  1.00  0.00     0.163 HD
ATOM     23  O   UNL A   1      32.493  35.922  28.757  1.00  0.00    -0.269 OA
BRANCH  21  24
ATOM     24  C   UNL A   1      34.190  34.433  29.388  1.00  0.00     0.039 A 
ATOM     25  C   UNL A   1      33.995  33.845  30.637  1.00  0.00     0.014 A 
ATOM     26  C   UNL A   1      35.474  34.582  28.858  1.00  0.00     0.014 A 
ATOM     27  C   UNL A   1      35.094  33.329  31.324  1.00  0.00     0.010 A 
ATOM     28  C   UNL A   1      36.544  33.971  29.489  1.00  0.00     0.010 A 
ATOM     29  C   UNL A   1      36.368  33.350  30.734  1.00  0.00    -0.014 A 
BRANCH  29  30
ATOM     30  C   UNL A   1      37.555  32.757  31.397  1.00  0.00     0.031 A 
ATOM     31  C   UNL A   1      38.259  31.603  30.740  1.00  0.00     0.074 A 
ATOM     32  C   UNL A   1      37.920  33.177  32.623  1.00  0.00     0.049 A 
ATOM     33  N   UNL A   1      39.201  30.828  31.214  1.00  0.00    -0.248 NA
ATOM     34  C   UNL A   1      37.811  31.241  29.384  1.00  0.00     0.031 C 
ATOM     35  C   UNL A   1      37.273  34.249  33.384  1.00  0.00     0.029 A 
ATOM     36  N   UNL A   1      38.913  32.732  33.460  1.00  0.00    -0.354 N 
ATOM     37  C   UNL A   1      39.427  29.872  30.233  1.00  0.00     0.074 A 
ATOM     38  C   UNL A   1      38.492  30.128  29.161  1.00  0.00     0.031 C 
ATOM     39  C   UNL A   1      37.892  34.385  34.568  1.00  0.00     0.029 A 
ATOM     40  C   UNL A   1      38.949  33.383  34.670  1.00  0.00     0.049 A 
ATOM     41  H   UNL A   1      39.542  32.015  33.216  1.00  0.00     0.167 HD
ATOM     42  C   UNL A   1      40.348  28.882  30.222  1.00  0.00     0.037 A 
ATOM     43  C   UNL A   1      39.733  33.178  35.744  1.00  0.00     0.037 A 
ATOM     44  C   UNL A   1      41.313  28.674  31.268  1.00  0.00     0.049 A 
ATOM     45  C   UNL A   1      40.774  32.089  35.689  1.00  0.00     0.074 A 
ATOM     46  C   UNL A   1      42.351  27.762  31.311  1.00  0.00     0.029 A 
ATOM     47  N   UNL A   1      41.357  29.395  32.451  1.00  0.00    -0.354 N 
ATOM     48  N   UNL A   1      41.033  31.241  34.723  1.00  0.00    -0.248 NA
ATOM     49  C   UNL A   1      41.634  31.933  36.870  1.00  0.00     0.031 C 
ATOM     50  C   UNL A   1      42.998  27.900  32.543  1.00  0.00     0.029 A 
ATOM     51  C   UNL A   1      42.394  28.932  33.242  1.00  0.00     0.049 A 
ATOM     52  H   UNL A   1      40.743  30.125  32.693  1.00  0.00     0.167 HD
ATOM     53  C   UNL A   1      42.103  30.475  35.165  1.00  0.00     0.074 A 
ATOM     54  C   UNL A   1      42.453  30.966  36.481  1.00  0.00     0.031 C 
ATOM     55  C   UNL A   1      42.739  29.455  34.539  1.00  0.00     0.037 A 
BRANCH  42  56
ATOM     56  C   UNL A   1      40.373  27.958  29.040  1.00  0.00     0.064 A 
ATOM     57  C   UNL A   1      39.629  26.770  29.016  1.00  0.00     0.173 A 
ATOM     58  C   UNL A   1      41.107  28.297  27.893  1.00  0.00     0.173 A 
ATOM     59  F   UNL A   1      38.921  26.394  30.092  1.00  0.00    -0.203 F 
ATOM     60  C   UNL A   1      39.636  25.943  27.896  1.00  0.00     0.198 A 
ATOM     61  C   UNL A   1      41.087  27.484  26.764  1.00  0.00     0.198 A 
ATOM     62  F   UNL A   1      41.834  29.424  27.863  1.00  0.00    -0.203 F 
ATOM     63  F   UNL A   1      38.951  24.791  27.912  1.00  0.00    -0.200 F 
ATOM     64  C   UNL A   1      40.357  26.305  26.768  1.00  0.00     0.200 A 
ATOM     65  F   UNL A   1      41.773  27.841  25.670  1.00  0.00    -0.200 F 
ATOM     66  F   UNL A   1      40.349  25.516  25.685  1.00  0.00    -0.200 F 
ENDBRANCH  42  56
BRANCH  43  67
ATOM     67  C   UNL A   1      39.577  34.020  36.960  1.00  0.00     0.064 A 
ATOM     68  C   UNL A   1      38.812  33.580  38.049  1.00  0.00     0.173 A 
ATOM     69  C   UNL A   1      40.167  35.289  37.049  1.00  0.00     0.173 A 
ATOM     70  F   UNL A   1      38.212  32.381  38.003  1.00  0.00    -0.203 F 
ATOM     71  C   UNL A   1      38.616  34.388  39.167  1.00  0.00     0.198 A 
ATOM     72  C   UNL A   1      39.997  36.084  38.182  1.00  0.00     0.198 A 
ATOM     73  F   UNL A   1      40.917  35.755  36.040  1.00  0.00    -0.203 F 
ATOM     74  F   UNL A   1      37.833  33.965  40.168  1.00  0.00    -0.200 F 
ATOM     75  C   UNL A   1      39.212  35.638  39.235  1.00  0.00     0.200 A 
ATOM     76  F   UNL A   1      40.587  37.286  38.249  1.00  0.00    -0.200 F 
ATOM     77  F   UNL A   1      39.021  36.416  40.308  1.00  0.00    -0.200 F 
ENDBRANCH  43  67
BRANCH  55  78
ATOM     78  C   UNL A   1      43.908  28.832  35.243  1.00  0.00     0.064 A 
ATOM     79  C   UNL A   1      43.749  27.750  36.119  1.00  0.00     0.173 A 
ATOM     80  C   UNL A   1      45.209  29.286  34.983  1.00  0.00     0.173 A 
ATOM     81  F   UNL A   1      42.522  27.289  36.408  1.00  0.00    -0.203 F 
ATOM     82  C   UNL A   1      44.851  27.153  36.724  1.00  0.00     0.198 A 
ATOM     83  C   UNL A   1      46.312  28.668  35.566  1.00  0.00     0.198 A 
ATOM     84  F   UNL A   1      45.414  30.313  34.145  1.00  0.00    -0.203 F 
ATOM     85  F   UNL A   1      44.674  26.145  37.588  1.00  0.00    -0.200 F 
ATOM     86  C   UNL A   1      46.131  27.607  36.439  1.00  0.00     0.200 A 
ATOM     87  F   UNL A   1      47.549  29.095  35.277  1.00  0.00    -0.200 F 
ATOM     88  F   UNL A   1      47.193  27.021  37.011  1.00  0.00    -0.200 F 
ENDBRANCH  55  78
ENDBRANCH  29  30
ENDBRANCH  21  24
ENDBRANCH  19  20
ENDBRANCH  18  19
ENDBRANCH  17  18
ENDBRANCH   3  17
TORSDOF 16
ENDMDL
MODEL 2
REMARK VINA RESULT:     -10.8      1.260      2.727
REMARK SMILES CCCCCCC(=O)N[C@@H](C)C(=O)NCCCNC(=O)c1ccc(-c2c3nc(c(-c4c(F)c(F)c(F)c(F)c4F)c4ccc([nH]4)c(-c4c(F)c(F)c(F)c(F)c4F)c4nc(c(-c5c(F)c(F)c(F)c(F)c5F)c5ccc2[nH]5)C=C4)C=C3)cc1
REMARK SMILES IDX 12 1 13 2 14 3 10 5 11 6 9 7 7 8 8 9 6 11 5 12 4 13 3 14
REMARK SMILES IDX 2 15 1 16 15 17 16 18 17 19 18 20 19 21 20 23 21 24 22 25
REMARK SMILES IDX 83 26 23 27 82 28 24 29 25 30 26 31 76 32 27 33 81 34 75 35
REMARK SMILES IDX 77 36 28 37 80 38 74 39 73 40 29 42 61 43 41 44 60 45 42 46
REMARK SMILES IDX 45 47 59 48 78 49 43 50 44 51 58 53 79 54 46 55 30 56 31 57
REMARK SMILES IDX 39 58 32 59 33 60 37 61 40 62 34 63 35 64 38 65 36 66 62 67
REMARK SMILES IDX 63 68 71 69 64 70 65 71 69 72 72 73 66 74 67 75 70 76 68 77
REMARK SMILES IDX 47 78 48 79 56 80 49 81 50 82 54 83 57 84 51 85 52 86 55 87
REMARK SMILES IDX 53 88
REMARK H PARENT 14 4 9 10 18 22 77 41 45 52
REMARK Flexibility Score: inf
ROOT
ATOM      1  C   UNL A   1      30.673  29.605  24.016  1.00  0.00     0.242 C 
ATOM      2  O   UNL A   1      29.855  29.826  23.120  1.00  0.00    -0.273 OA
ATOM      3  N   UNL A   1      30.893  30.584  24.929  1.00  0.00    -0.354 N 
ATOM      4  H   UNL A   1      30.247  31.326  24.911  1.00  0.00     0.163 HD
ENDROOT
BRANCH   1   5
ATOM      5  C   UNL A   1      31.378  28.252  24.134  1.00  0.00     0.168 C 
ATOM      6  C   UNL A   1      31.320  27.459  22.828  1.00  0.00     0.041 C 
BRANCH   5   7
ATOM      7  N   UNL A   1      30.990  27.444  25.280  1.00  0.00    -0.345 N 
ATOM      8  C   UNL A   1      31.795  26.804  26.176  1.00  0.00     0.220 C 
ATOM      9  O   UNL A   1      31.257  26.092  27.027  1.00  0.00    -0.275 OA
ATOM     10  H   UNL A   1      30.021  27.346  25.429  1.00  0.00     0.164 HD
BRANCH   8  11
ATOM     11  C   UNL A   1      33.306  26.990  26.148  1.00  0.00     0.100 C 
BRANCH  11  12
ATOM     12  C   UNL A   1      34.095  25.995  25.287  1.00  0.00     0.010 C 
BRANCH  12  13
ATOM     13  C   UNL A   1      34.067  24.510  25.675  1.00  0.00     0.001 C 
BRANCH  13  14
ATOM     14  C   UNL A   1      35.255  23.663  25.188  1.00  0.00    -0.000 C 
BRANCH  14  15
ATOM     15  C   UNL A   1      35.275  23.382  23.690  1.00  0.00    -0.003 C 
ATOM     16  C   UNL A   1      36.642  22.927  23.206  1.00  0.00     0.004 C 
ENDBRANCH  14  15
ENDBRANCH  13  14
ENDBRANCH  12  13
ENDBRANCH  11  12
ENDBRANCH   8  11
ENDBRANCH   5   7
ENDBRANCH   1   5
BRANCH   3  17
ATOM     17  C   UNL A   1      31.937  30.702  25.927  1.00  0.00     0.117 C 
BRANCH  17  18
ATOM     18  C   UNL A   1      31.596  31.792  26.925  1.00  0.00     0.042 C 
BRANCH  18  19
ATOM     19  C   UNL A   1      32.815  32.601  27.340  1.00  0.00     0.118 C 
BRANCH  19  20
ATOM     20  N   UNL A   1      32.494  34.010  27.550  1.00  0.00    -0.352 N 
ATOM     21  C   UNL A   1      32.968  34.873  28.510  1.00  0.00     0.251 C 
ATOM     22  H   UNL A   1      31.849  34.395  26.915  1.00  0.00     0.163 HD
ATOM     23  O   UNL A   1      32.428  35.944  28.715  1.00  0.00    -0.269 OA
BRANCH  21  24
ATOM     24  C   UNL A   1      34.141  34.455  29.300  1.00  0.00     0.039 A 
ATOM     25  C   UNL A   1      33.956  33.853  30.545  1.00  0.00     0.014 A 
ATOM     26  C   UNL A   1      35.421  34.608  28.761  1.00  0.00     0.014 A 
ATOM     27  C   UNL A   1      35.060  33.328  31.216  1.00  0.00     0.010 A 
ATOM     28  C   UNL A   1      36.496  33.989  29.377  1.00  0.00     0.010 A 
ATOM     29  C   UNL A   1      36.329  33.354  30.616  1.00  0.00    -0.014 A 
BRANCH  29  30
ATOM     30  C   UNL A   1      37.520  32.752  31.262  1.00  0.00     0.031 A 
ATOM     31  C   UNL A   1      38.220  31.609  30.583  1.00  0.00     0.074 A 
ATOM     32  C   UNL A   1      37.894  33.155  32.491  1.00  0.00     0.049 A 
ATOM     33  N   UNL A   1      39.166  30.827  31.039  1.00  0.00    -0.248 NA
ATOM     34  C   UNL A   1      37.764  31.266  29.225  1.00  0.00     0.031 C 
ATOM     35  C   UNL A   1      37.252  34.215  33.272  1.00  0.00     0.029 A 
ATOM     36  N   UNL A   1      38.893  32.698  33.314  1.00  0.00    -0.354 N 
ATOM     37  C   UNL A   1      39.386  29.885  30.044  1.00  0.00     0.074 A 
ATOM     38  C   UNL A   1      38.443  30.156  28.981  1.00  0.00     0.031 C 
ATOM     39  C   UNL A   1      37.879  34.334  34.453  1.00  0.00     0.029 A 
ATOM     40  C   UNL A   1      38.937  33.332  34.533  1.00  0.00     0.049 A 
ATOM     41  H   UNL A   1      39.521  31.986  33.056  1.00  0.00     0.167 HD
ATOM     42  C   UNL A   1      40.307  28.896  30.011  1.00  0.00     0.037 A 
ATOM     43  C   UNL A   1      39.729  33.111  35.600  1.00  0.00     0.037 A 
ATOM     44  C   UNL A   1      41.279  28.673  31.047  1.00  0.00     0.049 A 
ATOM     45  C   UNL A   1      40.770  32.024  35.521  1.00  0.00     0.074 A 
ATOM     46  C   UNL A   1      42.319  27.762  31.070  1.00  0.00     0.029 A 
ATOM     47  N   UNL A   1      41.331  29.377  32.241  1.00  0.00    -0.354 N 
ATOM     48  N   UNL A   1      41.022  31.191  34.542  1.00  0.00    -0.248 NA
ATOM     49  C   UNL A   1      41.639  31.852  36.694  1.00  0.00     0.031 C 
ATOM     50  C   UNL A   1      42.974  27.882  32.299  1.00  0.00     0.029 A 
ATOM     51  C   UNL A   1      42.374  28.904  33.018  1.00  0.00     0.049 A 
ATOM     52  H   UNL A   1      40.719  30.103  32.497  1.00  0.00     0.167 HD
ATOM     53  C   UNL A   1      42.096  30.419  34.965  1.00  0.00     0.074 A 
ATOM     54  C   UNL A   1      42.455  30.891  36.285  1.00  0.00     0.031 C 
ATOM     55  C   UNL A   1      42.728  29.408  34.320  1.00  0.00     0.037 A 
BRANCH  42  56
ATOM     56  C   UNL A   1      40.324  27.990  28.816  1.00  0.00     0.064 A 
ATOM     57  C   UNL A   1      41.065  28.299  27.667  1.00  0.00     0.173 A 
ATOM     58  C   UNL A   1      39.634  26.768  28.844  1.00  0.00     0.173 A 
ATOM     59  F   UNL A   1      41.731  29.460  27.583  1.00  0.00    -0.203 F 
ATOM     60  C   UNL A   1      41.098  27.428  26.580  1.00  0.00     0.198 A 
ATOM     61  C   UNL A   1      39.694  25.887  27.769  1.00  0.00     0.198 A 
ATOM     62  F   UNL A   1      38.912  26.424  29.921  1.00  0.00    -0.203 F 
ATOM     63  F   UNL A   1      41.778  27.764  25.476  1.00  0.00    -0.200 F 
ATOM     64  C   UNL A   1      40.421  26.219  26.636  1.00  0.00     0.200 A 
ATOM     65  F   UNL A   1      39.051  24.713  27.830  1.00  0.00    -0.200 F 
ATOM     66  F   UNL A   1      40.467  25.375  25.597  1.00  0.00    -0.200 F 
ENDBRANCH  42  56
BRANCH  43  67
ATOM     67  C   UNL A   1      39.581  33.936  36.828  1.00  0.00     0.064 A 
ATOM     68  C   UNL A   1      38.783  33.502  37.896  1.00  0.00     0.173 A 
ATOM     69  C   UNL A   1      40.212  35.182  36.951  1.00  0.00     0.173 A 
ATOM     70  F   UNL A   1      38.144  32.325  37.818  1.00  0.00    -0.203 F 
ATOM     71  C   UNL A   1      38.596  34.296  39.026  1.00  0.00     0.198 A 
ATOM     72  C   UNL A   1      40.050  35.961  38.096  1.00  0.00     0.198 A 
ATOM     73  F   UNL A   1      40.994  35.641  35.963  1.00  0.00    -0.203 F 
ATOM     74  F   UNL A   1      37.782  33.881  40.006  1.00  0.00    -0.200 F 
ATOM     75  C   UNL A   1      39.233  35.523  39.127  1.00  0.00     0.200 A 
ATOM     76  F   UNL A   1      40.679  37.141  38.195  1.00  0.00    -0.200 F 
ATOM     77  F   UNL A   1      39.051  36.288  40.212  1.00  0.00    -0.200 F 
ENDBRANCH  43  67
BRANCH  55  78
ATOM     78  C   UNL A   1      43.902  28.776  35.006  1.00  0.00     0.064 A 
ATOM     79  C   UNL A   1      43.756  27.648  35.825  1.00  0.00     0.173 A 
ATOM     80  C   UNL A   1      45.196  29.269  34.786  1.00  0.00     0.173 A 
ATOM     81  F   UNL A   1      42.537  27.148  36.076  1.00  0.00    -0.203 F 
ATOM     82  C   UNL A   1      44.865  27.045  36.414  1.00  0.00     0.198 A 
ATOM     83  C   UNL A   1      46.305  28.646  35.351  1.00  0.00     0.198 A 
ATOM     84  F   UNL A   1      45.388  30.341  34.003  1.00  0.00    -0.203 F 
ATOM     85  F   UNL A   1      44.700  25.991  37.225  1.00  0.00    -0.200 F 
ATOM     86  C   UNL A   1      46.138  27.539  36.168  1.00  0.00     0.200 A 
ATOM     87  F   UNL A   1      47.536  29.114  35.099  1.00  0.00    -0.200 F 
ATOM     88  F   UNL A   1      47.205  26.948  36.723  1.00  0.00    -0.200 F 
ENDBRANCH  55  78
ENDBRANCH  29  30
ENDBRANCH  21  24
ENDBRANCH  19  20
ENDBRANCH  18  19
ENDBRANCH  17  18
ENDBRANCH   3  17
TORSDOF 16
ENDMDL
MODEL 3
REMARK VINA RESULT:     -10.8      0.719      1.893
REMARK SMILES CCCCCCC(=O)N[C@@H](C)C(=O)NCCCNC(=O)c1ccc(-c2c3nc(c(-c4c(F)c(F)c(F)c(F)c4F)c4ccc([nH]4)c(-c4c(F)c(F)c(F)c(F)c4F)c4nc(c(-c5c(F)c(F)c(F)c(F)c5F)c5ccc2[nH]5)C=C4)C=C3)cc1
REMARK SMILES IDX 12 1 13 2 14 3 10 5 11 6 9 7 7 8 8 9 6 11 5 12 4 13 3 14
REMARK SMILES IDX 2 15 1 16 15 17 16 18 17 19 18 20 19 21 20 23 21 24 22 25
REMARK SMILES IDX 83 26 23 27 82 28 24 29 25 30 26 31 76 32 27 33 81 34 75 35
REMARK SMILES IDX 77 36 28 37 80 38 74 39 73 40 29 42 61 43 41 44 60 45 42 46
REMARK SMILES IDX 45 47 59 48 78 49 43 50 44 51 58 53 79 54 46 55 30 56 31 57
REMARK SMILES IDX 39 58 32 59 33 60 37 61 40 62 34 63 35 64 38 65 36 66 62 67
REMARK SMILES IDX 63 68 71 69 64 70 65 71 69 72 72 73 66 74 67 75 70 76 68 77
REMARK SMILES IDX 47 78 48 79 56 80 49 81 50 82 54 83 57 84 51 85 52 86 55 87
REMARK SMILES IDX 53 88
REMARK H PARENT 14 4 9 10 18 22 77 41 45 52
REMARK Flexibility Score: inf
ROOT
ATOM      1  C   UNL A   1      32.776  28.630  25.702  1.00  0.00     0.242 C 
ATOM      2  O   UNL A   1      33.842  28.057  25.939  1.00  0.00    -0.273 OA
ATOM      3  N   UNL A   1      32.744  29.981  25.814  1.00  0.00    -0.354 N 
ATOM      4  H   UNL A   1      33.624  30.415  25.900  1.00  0.00     0.163 HD
ENDROOT
BRANCH   1   5
ATOM      5  C   UNL A   1      31.542  27.855  25.237  1.00  0.00     0.168 C 
ATOM      6  C   UNL A   1      31.095  26.816  26.267  1.00  0.00     0.041 C 
BRANCH   5   7
ATOM      7  N   UNL A   1      31.624  27.293  23.897  1.00  0.00    -0.345 N 
ATOM      8  C   UNL A   1      30.956  27.683  22.774  1.00  0.00     0.220 C 
ATOM      9  O   UNL A   1      31.105  27.009  21.753  1.00  0.00    -0.275 OA
ATOM     10  H   UNL A   1      32.242  26.535  23.787  1.00  0.00     0.164 HD
BRANCH   8  11
ATOM     11  C   UNL A   1      30.083  28.930  22.771  1.00  0.00     0.100 C 
BRANCH  11  12
ATOM     12  C   UNL A   1      28.576  28.702  22.946  1.00  0.00     0.010 C 
BRANCH  12  13
ATOM     13  C   UNL A   1      27.656  29.928  23.034  1.00  0.00     0.001 C 
BRANCH  13  14
ATOM     14  C   UNL A   1      28.308  31.224  23.544  1.00  0.00    -0.000 C 
BRANCH  14  15
ATOM     15  C   UNL A   1      28.007  32.468  22.715  1.00  0.00    -0.003 C 
ATOM     16  C   UNL A   1      28.213  32.235  21.227  1.00  0.00     0.004 C 
ENDBRANCH  14  15
ENDBRANCH  13  14
ENDBRANCH  12  13
ENDBRANCH  11  12
ENDBRANCH   8  11
ENDBRANCH   5   7
ENDBRANCH   1   5
BRANCH   3  17
ATOM     17  C   UNL A   1      31.611  30.883  25.830  1.00  0.00     0.117 C 
BRANCH  17  18
ATOM     18  C   UNL A   1      31.601  31.703  27.106  1.00  0.00     0.042 C 
BRANCH  18  19
ATOM     19  C   UNL A   1      32.835  32.581  27.242  1.00  0.00     0.118 C 
BRANCH  19  20
ATOM     20  N   UNL A   1      32.492  33.979  27.481  1.00  0.00    -0.352 N 
ATOM     21  C   UNL A   1      32.945  34.827  28.465  1.00  0.00     0.251 C 
ATOM     22  H   UNL A   1      31.846  34.370  26.850  1.00  0.00     0.163 HD
ATOM     23  O   UNL A   1      32.387  35.885  28.689  1.00  0.00    -0.269 OA
BRANCH  21  24
ATOM     24  C   UNL A   1      34.118  34.408  29.255  1.00  0.00     0.039 A 
ATOM     25  C   UNL A   1      33.931  33.762  30.477  1.00  0.00     0.014 A 
ATOM     26  C   UNL A   1      35.400  34.607  28.737  1.00  0.00     0.014 A 
ATOM     27  C   UNL A   1      35.039  33.239  31.145  1.00  0.00     0.010 A 
ATOM     28  C   UNL A   1      36.480  33.991  29.345  1.00  0.00     0.010 A 
ATOM     29  C   UNL A   1      36.313  33.312  30.561  1.00  0.00    -0.014 A 
BRANCH  29  30
ATOM     30  C   UNL A   1      37.510  32.715  31.202  1.00  0.00     0.031 A 
ATOM     31  C   UNL A   1      38.206  31.567  30.525  1.00  0.00     0.074 A 
ATOM     32  C   UNL A   1      37.893  33.126  32.426  1.00  0.00     0.049 A 
ATOM     33  N   UNL A   1      39.155  30.790  30.979  1.00  0.00    -0.248 NA
ATOM     34  C   UNL A   1      37.739  31.216  29.172  1.00  0.00     0.031 C 
ATOM     35  C   UNL A   1      37.256  34.190  33.205  1.00  0.00     0.029 A 
ATOM     36  N   UNL A   1      38.898  32.675  33.244  1.00  0.00    -0.354 N 
ATOM     37  C   UNL A   1      39.367  29.841  29.987  1.00  0.00     0.074 A 
ATOM     38  C   UNL A   1      38.417  30.105  28.930  1.00  0.00     0.031 C 
ATOM     39  C   UNL A   1      37.892  34.317  34.380  1.00  0.00     0.029 A 
ATOM     40  C   UNL A   1      38.951  33.316  34.459  1.00  0.00     0.049 A 
ATOM     41  H   UNL A   1      39.524  31.961  32.985  1.00  0.00     0.167 HD
ATOM     42  C   UNL A   1      40.290  28.852  29.954  1.00  0.00     0.037 A 
ATOM     43  C   UNL A   1      39.751  33.102  35.520  1.00  0.00     0.037 A 
ATOM     44  C   UNL A   1      41.270  28.637  30.984  1.00  0.00     0.049 A 
ATOM     45  C   UNL A   1      40.792  32.015  35.441  1.00  0.00     0.074 A 
ATOM     46  C   UNL A   1      42.309  27.726  31.005  1.00  0.00     0.029 A 
ATOM     47  N   UNL A   1      41.330  29.348  32.173  1.00  0.00    -0.354 N 
ATOM     48  N   UNL A   1      41.037  31.176  34.465  1.00  0.00    -0.248 NA
ATOM     49  C   UNL A   1      41.670  31.851  36.608  1.00  0.00     0.031 C 
ATOM     50  C   UNL A   1      42.974  27.854  32.228  1.00  0.00     0.029 A 
ATOM     51  C   UNL A   1      42.379  28.880  32.945  1.00  0.00     0.049 A 
ATOM     52  H   UNL A   1      40.719  30.076  32.429  1.00  0.00     0.167 HD
ATOM     53  C   UNL A   1      42.114  30.407  34.884  1.00  0.00     0.074 A 
ATOM     54  C   UNL A   1      42.484  30.888  36.199  1.00  0.00     0.031 C 
ATOM     55  C   UNL A   1      42.742  29.392  34.241  1.00  0.00     0.037 A 
BRANCH  42  56
ATOM     56  C   UNL A   1      40.298  27.939  28.764  1.00  0.00     0.064 A 
ATOM     57  C   UNL A   1      41.025  28.244  27.605  1.00  0.00     0.173 A 
ATOM     58  C   UNL A   1      39.614  26.714  28.807  1.00  0.00     0.173 A 
ATOM     59  F   UNL A   1      41.685  29.408  27.507  1.00  0.00    -0.203 F 
ATOM     60  C   UNL A   1      41.051  27.367  26.524  1.00  0.00     0.198 A 
ATOM     61  C   UNL A   1      39.667  25.827  27.738  1.00  0.00     0.198 A 
ATOM     62  F   UNL A   1      38.905  26.373  29.894  1.00  0.00    -0.203 F 
ATOM     63  F   UNL A   1      41.718  27.699  25.410  1.00  0.00    -0.200 F 
ATOM     64  C   UNL A   1      40.380  26.155  26.595  1.00  0.00     0.200 A 
ATOM     65  F   UNL A   1      39.029  24.650  27.813  1.00  0.00    -0.200 F 
ATOM     66  F   UNL A   1      40.419  25.305  25.560  1.00  0.00    -0.200 F 
ENDBRANCH  42  56
BRANCH  43  67
ATOM     67  C   UNL A   1      39.612  33.934  36.744  1.00  0.00     0.064 A 
ATOM     68  C   UNL A   1      38.819  33.509  37.819  1.00  0.00     0.173 A 
ATOM     69  C   UNL A   1      40.247  35.180  36.857  1.00  0.00     0.173 A 
ATOM     70  F   UNL A   1      38.176  32.334  37.751  1.00  0.00    -0.203 F 
ATOM     71  C   UNL A   1      38.640  34.310  38.946  1.00  0.00     0.198 A 
ATOM     72  C   UNL A   1      40.093  35.966  37.998  1.00  0.00     0.198 A 
ATOM     73  F   UNL A   1      41.025  35.631  35.862  1.00  0.00    -0.203 F 
ATOM     74  F   UNL A   1      37.830  33.903  39.932  1.00  0.00    -0.200 F 
ATOM     75  C   UNL A   1      39.280  35.536  39.036  1.00  0.00     0.200 A 
ATOM     76  F   UNL A   1      40.726  37.145  38.087  1.00  0.00    -0.200 F 
ATOM     77  F   UNL A   1      39.106  36.308  40.117  1.00  0.00    -0.200 F 
ENDBRANCH  43  67
BRANCH  55  78
ATOM     78  C   UNL A   1      43.922  28.765  34.922  1.00  0.00     0.064 A 
ATOM     79  C   UNL A   1      45.218  29.276  34.768  1.00  0.00     0.173 A 
ATOM     80  C   UNL A   1      43.739  27.680  35.792  1.00  0.00     0.173 A 
ATOM     81  F   UNL A   1      45.445  30.305  33.937  1.00  0.00    -0.203 F 
ATOM     82  C   UNL A   1      46.293  28.711  35.448  1.00  0.00     0.198 A 
ATOM     83  C   UNL A   1      44.811  27.137  36.493  1.00  0.00     0.198 A 
ATOM     84  F   UNL A   1      42.516  27.162  35.979  1.00  0.00    -0.203 F 
ATOM     85  F   UNL A   1      47.530  29.190  35.257  1.00  0.00    -0.200 F 
ATOM     86  C   UNL A   1      46.087  27.649  36.317  1.00  0.00     0.200 A 
ATOM     87  F   UNL A   1      44.607  26.122  37.345  1.00  0.00    -0.200 F 
ATOM     88  F   UNL A   1      47.121  27.116  36.983  1.00  0.00    -0.200 F 
ENDBRANCH  55  78
ENDBRANCH  29  30
ENDBRANCH  21  24
ENDBRANCH  19  20
ENDBRANCH  18  19
ENDBRANCH  17  18
ENDBRANCH   3  17
TORSDOF 16
ENDMDL
