MODEL 1
REMARK VINA RESULT:     -11.8      0.000      0.000
REMARK SMILES Cc1cc(C[N@@H+]2CC[C@@H](C(=O)NCCCNC(=O)c3ccc(-c4c5nc(c(-c6c(F)c(F)c(F)c(F)c6F)c6ccc([nH]6)c(-c6c(F)c(F)c(F)c(F)c6F)c6nc(c(-c7c(F)c(F)c(F)c(F)c7F)c7ccc4[nH]7)C=C6)C=C5)cc3)C2)ccc1Br
REMARK SMILES IDX 14 1 13 2 12 3 10 4 11 5 9 7 6 8 7 9 82 10 8 12 5 13 4 14
REMARK SMILES IDX 1 15 2 16 3 17 85 18 84 19 86 20 83 21 15 22 16 23 17 24
REMARK SMILES IDX 18 26 19 27 20 28 81 29 21 30 80 31 22 32 23 33 24 34 74 35
REMARK SMILES IDX 25 36 79 37 73 38 75 39 26 40 78 41 72 42 71 43 27 45 59 46
REMARK SMILES IDX 39 47 58 48 40 49 43 50 57 51 76 52 41 53 42 54 56 56 77 57
REMARK SMILES IDX 44 58 28 59 29 60 37 61 30 62 31 63 35 64 38 65 32 66 33 67
REMARK SMILES IDX 36 68 34 69 60 70 61 71 69 72 62 73 63 74 67 75 70 76 64 77
REMARK SMILES IDX 65 78 68 79 66 80 45 81 46 82 54 83 47 84 48 85 52 86 55 87
REMARK SMILES IDX 49 88 50 89 53 90 51 91
REMARK H PARENT 12 6 6 11 16 25 75 44 43 55
REMARK Flexibility Score: inf
ROOT
ATOM      1  C   UNL A   1      34.661  33.557  28.197  1.00  0.00     0.042 C 
ENDROOT
BRANCH   1   2
ATOM      2  C   UNL A   1      33.257  34.141  28.145  1.00  0.00     0.117 C 
BRANCH   2   3
ATOM      3  N   UNL A   1      33.238  35.571  28.367  1.00  0.00    -0.356 N 
ATOM      4  C   UNL A   1      33.238  36.352  29.474  1.00  0.00     0.229 C 
ATOM      5  O   UNL A   1      33.239  37.572  29.266  1.00  0.00    -0.275 OA
ATOM      6  H   UNL A   1      33.220  36.090  27.530  1.00  0.00     0.163 HD
BRANCH   4   7
ATOM      7  C   UNL A   1      33.160  35.847  30.908  1.00  0.00     0.139 C 
ATOM      8  N   UNL A   1      34.805  35.802  32.680  1.00  0.00    -0.330 N 
ATOM      9  C   UNL A   1      34.049  37.047  32.779  1.00  0.00     0.263 C 
ATOM     10  C   UNL A   1      34.487  35.233  31.362  1.00  0.00     0.276 C 
ATOM     11  H   UNL A   1      35.807  35.990  32.742  1.00  0.00     0.348 HD
ATOM     12  C   UNL A   1      32.756  36.800  32.012  1.00  0.00     0.081 C 
BRANCH   8  13
ATOM     13  C   UNL A   1      34.677  34.887  33.828  1.00  0.00     0.299 C 
BRANCH  13  14
ATOM     14  C   UNL A   1      35.576  33.666  33.860  1.00  0.00     0.007 A 
ATOM     15  C   UNL A   1      38.541  32.355  35.861  1.00  0.00     0.045 C 
ATOM     16  C   UNL A   1      37.502  32.470  34.783  1.00  0.00    -0.036 A 
ATOM     17  C   UNL A   1      36.604  33.553  34.807  1.00  0.00     0.014 A 
ATOM     18  C   UNL A   1      37.405  31.538  33.739  1.00  0.00     0.020 A 
ATOM     19  C   UNL A   1      36.353  31.607  32.828  1.00  0.00     0.016 A 
ATOM     20  Br  UNL A   1      38.689  30.163  33.487  1.00  0.00    -0.051 Br
ATOM     21  C   UNL A   1      35.413  32.632  32.926  1.00  0.00     0.011 A 
ENDBRANCH  13  14
ENDBRANCH   8  13
ENDBRANCH   4   7
ENDBRANCH   2   3
ENDBRANCH   1   2
BRANCH   1  22
ATOM     22  C   UNL A   1      34.742  32.372  29.145  1.00  0.00     0.118 C 
BRANCH  22  23
ATOM     23  N   UNL A   1      34.170  31.165  28.554  1.00  0.00    -0.352 N 
ATOM     24  C   UNL A   1      34.776  30.019  28.119  1.00  0.00     0.251 C 
ATOM     25  H   UNL A   1      33.191  31.177  28.452  1.00  0.00     0.163 HD
ATOM     26  O   UNL A   1      34.124  29.192  27.479  1.00  0.00    -0.269 OA
BRANCH  24  27
ATOM     27  C   UNL A   1      36.203  29.780  28.394  1.00  0.00     0.039 A 
ATOM     28  C   UNL A   1      36.572  29.286  29.648  1.00  0.00     0.014 A 
ATOM     29  C   UNL A   1      37.177  30.052  27.431  1.00  0.00     0.014 A 
ATOM     30  C   UNL A   1      37.912  29.019  29.914  1.00  0.00     0.010 A 
ATOM     31  C   UNL A   1      38.495  29.684  27.657  1.00  0.00     0.010 A 
ATOM     32  C   UNL A   1      38.878  29.183  28.908  1.00  0.00    -0.014 A 
BRANCH  32  33
ATOM     33  C   UNL A   1      40.300  28.854  29.156  1.00  0.00     0.031 A 
ATOM     34  C   UNL A   1      41.183  29.836  29.874  1.00  0.00     0.074 A 
ATOM     35  C   UNL A   1      40.798  27.697  28.682  1.00  0.00     0.049 A 
ATOM     36  N   UNL A   1      42.458  29.749  30.154  1.00  0.00    -0.248 NA
ATOM     37  C   UNL A   1      40.561  31.099  30.306  1.00  0.00     0.031 C 
ATOM     38  C   UNL A   1      40.045  26.706  27.910  1.00  0.00     0.029 A 
ATOM     39  N   UNL A   1      42.056  27.160  28.776  1.00  0.00    -0.354 N 
ATOM     40  C   UNL A   1      42.790  30.947  30.774  1.00  0.00     0.074 A 
ATOM     41  C   UNL A   1      41.602  31.770  30.775  1.00  0.00     0.031 C 
ATOM     42  C   UNL A   1      40.847  25.667  27.628  1.00  0.00     0.029 A 
ATOM     43  C   UNL A   1      42.176  25.935  28.167  1.00  0.00     0.049 A 
ATOM     44  H   UNL A   1      42.800  27.609  29.236  1.00  0.00     0.167 HD
ATOM     45  C   UNL A   1      43.973  31.312  31.318  1.00  0.00     0.037 A 
ATOM     46  C   UNL A   1      43.243  25.124  28.056  1.00  0.00     0.037 A 
ATOM     47  C   UNL A   1      45.137  30.467  31.342  1.00  0.00     0.049 A 
ATOM     48  C   UNL A   1      44.538  25.544  28.696  1.00  0.00     0.074 A 
ATOM     49  C   UNL A   1      46.365  30.705  31.933  1.00  0.00     0.029 A 
ATOM     50  N   UNL A   1      45.216  29.217  30.744  1.00  0.00    -0.354 N 
ATOM     51  N   UNL A   1      44.818  26.641  29.357  1.00  0.00    -0.248 NA
ATOM     52  C   UNL A   1      45.663  24.606  28.586  1.00  0.00     0.031 C 
ATOM     53  C   UNL A   1      47.202  29.622  31.650  1.00  0.00     0.029 A 
ATOM     54  C   UNL A   1      46.479  28.682  30.932  1.00  0.00     0.049 A 
ATOM     55  H   UNL A   1      44.482  28.777  30.258  1.00  0.00     0.167 HD
ATOM     56  C   UNL A   1      46.139  26.516  29.762  1.00  0.00     0.074 A 
ATOM     57  C   UNL A   1      46.597  25.226  29.293  1.00  0.00     0.031 C 
ATOM     58  C   UNL A   1      46.909  27.392  30.455  1.00  0.00     0.037 A 
BRANCH  45  59
ATOM     59  C   UNL A   1      44.066  32.677  31.939  1.00  0.00     0.064 A 
ATOM     60  C   UNL A   1      44.474  33.798  31.200  1.00  0.00     0.173 A 
ATOM     61  C   UNL A   1      43.703  32.873  33.280  1.00  0.00     0.173 A 
ATOM     62  F   UNL A   1      44.847  33.664  29.919  1.00  0.00    -0.203 F 
ATOM     63  C   UNL A   1      44.539  35.059  31.787  1.00  0.00     0.198 A 
ATOM     64  C   UNL A   1      43.739  34.141  33.854  1.00  0.00     0.198 A 
ATOM     65  F   UNL A   1      43.305  31.836  34.032  1.00  0.00    -0.203 F 
ATOM     66  F   UNL A   1      44.978  36.106  31.074  1.00  0.00    -0.200 F 
ATOM     67  C   UNL A   1      44.163  35.231  33.111  1.00  0.00     0.200 A 
ATOM     68  F   UNL A   1      43.363  34.307  35.130  1.00  0.00    -0.200 F 
ATOM     69  F   UNL A   1      44.214  36.447  33.671  1.00  0.00    -0.200 F 
ENDBRANCH  45  59
BRANCH  46  70
ATOM     70  C   UNL A   1      43.124  23.828  27.338  1.00  0.00     0.064 A 
ATOM     71  C   UNL A   1      43.509  23.709  25.995  1.00  0.00     0.173 A 
ATOM     72  C   UNL A   1      42.621  22.684  27.976  1.00  0.00     0.173 A 
ATOM     73  F   UNL A   1      43.983  24.777  25.337  1.00  0.00    -0.203 F 
ATOM     74  C   UNL A   1      43.366  22.504  25.309  1.00  0.00     0.198 A 
ATOM     75  C   UNL A   1      42.509  21.472  27.298  1.00  0.00     0.198 A 
ATOM     76  F   UNL A   1      42.250  22.741  29.262  1.00  0.00    -0.203 F 
ATOM     77  F   UNL A   1      43.691  22.433  24.011  1.00  0.00    -0.200 F 
ATOM     78  C   UNL A   1      42.871  21.386  25.962  1.00  0.00     0.200 A 
ATOM     79  F   UNL A   1      42.047  20.390  27.938  1.00  0.00    -0.200 F 
ATOM     80  F   UNL A   1      42.735  20.227  25.302  1.00  0.00    -0.200 F 
ENDBRANCH  46  70
BRANCH  58  81
ATOM     81  C   UNL A   1      48.313  26.965  30.768  1.00  0.00     0.064 A 
ATOM     82  C   UNL A   1      48.612  26.191  31.898  1.00  0.00     0.173 A 
ATOM     83  C   UNL A   1      49.368  27.315  29.911  1.00  0.00     0.173 A 
ATOM     84  F   UNL A   1      47.640  25.842  32.755  1.00  0.00    -0.203 F 
ATOM     85  C   UNL A   1      49.922  25.812  32.179  1.00  0.00     0.198 A 
ATOM     86  C   UNL A   1      50.671  26.906  30.177  1.00  0.00     0.198 A 
ATOM     87  F   UNL A   1      49.133  28.047  28.812  1.00  0.00    -0.203 F 
ATOM     88  F   UNL A   1      50.193  25.123  33.296  1.00  0.00    -0.200 F 
ATOM     89  C   UNL A   1      50.948  26.163  31.315  1.00  0.00     0.200 A 
ATOM     90  F   UNL A   1      51.659  27.232  29.333  1.00  0.00    -0.200 F 
ATOM     91  F   UNL A   1      52.208  25.795  31.585  1.00  0.00    -0.200 F 
ENDBRANCH  58  81
ENDBRANCH  32  33
ENDBRANCH  24  27
ENDBRANCH  22  23
ENDBRANCH   1  22
TORSDOF 12
ENDMDL
MODEL 2
REMARK VINA RESULT:     -11.7      3.898     11.777
REMARK SMILES Cc1cc(C[N@@H+]2CC[C@@H](C(=O)NCCCNC(=O)c3ccc(-c4c5nc(c(-c6c(F)c(F)c(F)c(F)c6F)c6ccc([nH]6)c(-c6c(F)c(F)c(F)c(F)c6F)c6nc(c(-c7c(F)c(F)c(F)c(F)c7F)c7ccc4[nH]7)C=C6)C=C5)cc3)C2)ccc1Br
REMARK SMILES IDX 14 1 13 2 12 3 10 4 11 5 9 7 6 8 7 9 82 10 8 12 5 13 4 14
REMARK SMILES IDX 1 15 2 16 3 17 85 18 84 19 86 20 83 21 15 22 16 23 17 24
REMARK SMILES IDX 18 26 19 27 20 28 81 29 21 30 80 31 22 32 23 33 24 34 74 35
REMARK SMILES IDX 25 36 79 37 73 38 75 39 26 40 78 41 72 42 71 43 27 45 59 46
REMARK SMILES IDX 39 47 58 48 40 49 43 50 57 51 76 52 41 53 42 54 56 56 77 57
REMARK SMILES IDX 44 58 28 59 29 60 37 61 30 62 31 63 35 64 38 65 32 66 33 67
REMARK SMILES IDX 36 68 34 69 60 70 61 71 69 72 62 73 63 74 67 75 70 76 64 77
REMARK SMILES IDX 65 78 68 79 66 80 45 81 46 82 54 83 47 84 48 85 52 86 55 87
REMARK SMILES IDX 49 88 50 89 53 90 51 91
REMARK H PARENT 12 6 6 11 16 25 75 44 43 55
REMARK Flexibility Score: inf
ROOT
ATOM      1  C   UNL A   1      40.820  20.806  27.231  1.00  0.00     0.042 C 
ENDROOT
BRANCH   1   2
ATOM      2  C   UNL A   1      40.821  19.636  26.258  1.00  0.00     0.117 C 
BRANCH   2   3
ATOM      3  N   UNL A   1      41.867  18.677  26.540  1.00  0.00    -0.356 N 
ATOM      4  C   UNL A   1      43.154  18.542  26.139  1.00  0.00     0.229 C 
ATOM      5  O   UNL A   1      43.765  17.579  26.619  1.00  0.00    -0.275 OA
ATOM      6  H   UNL A   1      41.581  17.965  27.157  1.00  0.00     0.163 HD
BRANCH   4   7
ATOM      7  C   UNL A   1      43.853  19.421  25.111  1.00  0.00     0.139 C 
ATOM      8  N   UNL A   1      45.535  21.143  25.356  1.00  0.00    -0.330 N 
ATOM      9  C   UNL A   1      46.206  19.864  25.136  1.00  0.00     0.263 C 
ATOM     10  C   UNL A   1      44.134  20.821  25.664  1.00  0.00     0.276 C 
ATOM     11  H   UNL A   1      45.958  21.633  26.145  1.00  0.00     0.348 HD
ATOM     12  C   UNL A   1      45.159  18.959  24.501  1.00  0.00     0.081 C 
BRANCH   8  13
ATOM     13  C   UNL A   1      45.752  22.162  24.315  1.00  0.00     0.299 C 
BRANCH  13  14
ATOM     14  C   UNL A   1      45.537  23.614  24.696  1.00  0.00     0.007 A 
ATOM     15  C   UNL A   1      47.620  26.636  25.719  1.00  0.00     0.045 C 
ATOM     16  C   UNL A   1      46.426  25.764  25.460  1.00  0.00    -0.036 A 
ATOM     17  C   UNL A   1      46.622  24.444  25.013  1.00  0.00     0.014 A 
ATOM     18  C   UNL A   1      45.114  26.217  25.663  1.00  0.00     0.020 A 
ATOM     19  C   UNL A   1      44.029  25.424  25.295  1.00  0.00     0.016 A 
ATOM     20  Br  UNL A   1      44.736  27.898  26.461  1.00  0.00    -0.051 Br
ATOM     21  C   UNL A   1      44.244  24.154  24.762  1.00  0.00     0.011 A 
ENDBRANCH  13  14
ENDBRANCH   8  13
ENDBRANCH   4   7
ENDBRANCH   2   3
ENDBRANCH   1   2
BRANCH   1  22
ATOM     22  C   UNL A   1      40.957  22.136  26.510  1.00  0.00     0.118 C 
BRANCH  22  23
ATOM     23  N   UNL A   1      39.709  22.534  25.862  1.00  0.00    -0.352 N 
ATOM     24  C   UNL A   1      38.922  23.635  26.053  1.00  0.00     0.251 C 
ATOM     25  H   UNL A   1      39.382  21.908  25.175  1.00  0.00     0.163 HD
ATOM     26  O   UNL A   1      37.808  23.685  25.529  1.00  0.00    -0.269 OA
BRANCH  24  27
ATOM     27  C   UNL A   1      39.391  24.748  26.898  1.00  0.00     0.039 A 
ATOM     28  C   UNL A   1      40.196  25.733  26.322  1.00  0.00     0.014 A 
ATOM     29  C   UNL A   1      39.052  24.816  28.251  1.00  0.00     0.014 A 
ATOM     30  C   UNL A   1      40.618  26.812  27.095  1.00  0.00     0.010 A 
ATOM     31  C   UNL A   1      39.381  25.942  28.989  1.00  0.00     0.010 A 
ATOM     32  C   UNL A   1      40.184  26.941  28.424  1.00  0.00    -0.014 A 
BRANCH  32  33
ATOM     33  C   UNL A   1      40.579  28.109  29.245  1.00  0.00     0.031 A 
ATOM     34  C   UNL A   1      41.950  28.165  29.857  1.00  0.00     0.074 A 
ATOM     35  C   UNL A   1      39.678  29.082  29.478  1.00  0.00     0.049 A 
ATOM     36  N   UNL A   1      42.471  29.080  30.634  1.00  0.00    -0.248 NA
ATOM     37  C   UNL A   1      42.846  27.028  29.591  1.00  0.00     0.031 C 
ATOM     38  C   UNL A   1      38.298  29.091  28.991  1.00  0.00     0.029 A 
ATOM     39  N   UNL A   1      39.788  30.250  30.187  1.00  0.00    -0.354 N 
ATOM     40  C   UNL A   1      43.740  28.619  30.961  1.00  0.00     0.074 A 
ATOM     41  C   UNL A   1      43.890  27.317  30.352  1.00  0.00     0.031 C 
ATOM     42  C   UNL A   1      37.698  30.224  29.389  1.00  0.00     0.029 A 
ATOM     43  C   UNL A   1      38.639  31.002  30.186  1.00  0.00     0.049 A 
ATOM     44  H   UNL A   1      40.611  30.523  30.651  1.00  0.00     0.167 HD
ATOM     45  C   UNL A   1      44.701  29.242  31.680  1.00  0.00     0.037 A 
ATOM     46  C   UNL A   1      38.379  32.186  30.769  1.00  0.00     0.037 A 
ATOM     47  C   UNL A   1      44.550  30.555  32.250  1.00  0.00     0.049 A 
ATOM     48  C   UNL A   1      39.476  32.868  31.539  1.00  0.00     0.074 A 
ATOM     49  C   UNL A   1      45.484  31.314  32.931  1.00  0.00     0.029 A 
ATOM     50  N   UNL A   1      43.382  31.304  32.202  1.00  0.00    -0.354 N 
ATOM     51  N   UNL A   1      40.702  32.464  31.769  1.00  0.00    -0.248 NA
ATOM     52  C   UNL A   1      39.158  34.179  32.121  1.00  0.00     0.031 C 
ATOM     53  C   UNL A   1      44.867  32.500  33.341  1.00  0.00     0.029 A 
ATOM     54  C   UNL A   1      43.566  32.507  32.864  1.00  0.00     0.049 A 
ATOM     55  H   UNL A   1      42.548  31.022  31.763  1.00  0.00     0.167 HD
ATOM     56  C   UNL A   1      41.308  33.477  32.497  1.00  0.00     0.074 A 
ATOM     57  C   UNL A   1      40.321  34.525  32.650  1.00  0.00     0.031 C 
ATOM     58  C   UNL A   1      42.566  33.535  33.001  1.00  0.00     0.037 A 
BRANCH  45  59
ATOM     59  C   UNL A   1      46.001  28.519  31.884  1.00  0.00     0.064 A 
ATOM     60  C   UNL A   1      47.081  28.680  31.003  1.00  0.00     0.173 A 
ATOM     61  C   UNL A   1      46.184  27.688  33.000  1.00  0.00     0.173 A 
ATOM     62  F   UNL A   1      46.956  29.451  29.914  1.00  0.00    -0.203 F 
ATOM     63  C   UNL A   1      48.287  28.015  31.217  1.00  0.00     0.198 A 
ATOM     64  C   UNL A   1      47.401  27.050  33.227  1.00  0.00     0.198 A 
ATOM     65  F   UNL A   1      45.185  27.499  33.875  1.00  0.00    -0.203 F 
ATOM     66  F   UNL A   1      49.288  28.146  30.335  1.00  0.00    -0.200 F 
ATOM     67  C   UNL A   1      48.448  27.208  32.333  1.00  0.00     0.200 A 
ATOM     68  F   UNL A   1      47.559  26.280  34.313  1.00  0.00    -0.200 F 
ATOM     69  F   UNL A   1      49.612  26.579  32.543  1.00  0.00    -0.200 F 
ENDBRANCH  45  59
BRANCH  46  70
ATOM     70  C   UNL A   1      37.038  32.811  30.623  1.00  0.00     0.064 A 
ATOM     71  C   UNL A   1      36.067  32.679  31.627  1.00  0.00     0.173 A 
ATOM     72  C   UNL A   1      36.696  33.547  29.479  1.00  0.00     0.173 A 
ATOM     73  F   UNL A   1      36.340  31.973  32.734  1.00  0.00    -0.203 F 
ATOM     74  C   UNL A   1      34.797  33.233  31.478  1.00  0.00     0.198 A 
ATOM     75  C   UNL A   1      35.437  34.128  29.346  1.00  0.00     0.198 A 
ATOM     76  F   UNL A   1      37.591  33.712  28.495  1.00  0.00    -0.203 F 
ATOM     77  F   UNL A   1      33.872  33.047  32.429  1.00  0.00    -0.200 F 
ATOM     78  C   UNL A   1      34.485  33.962  30.340  1.00  0.00     0.200 A 
ATOM     79  F   UNL A   1      35.146  34.846  28.252  1.00  0.00    -0.200 F 
ATOM     80  F   UNL A   1      33.264  34.496  30.198  1.00  0.00    -0.200 F 
ENDBRANCH  46  70
BRANCH  58  81
ATOM     81  C   UNL A   1      42.948  34.786  33.738  1.00  0.00     0.064 A 
ATOM     82  C   UNL A   1      42.835  34.881  35.132  1.00  0.00     0.173 A 
ATOM     83  C   UNL A   1      43.456  35.892  33.040  1.00  0.00     0.173 A 
ATOM     84  F   UNL A   1      42.342  33.855  35.842  1.00  0.00    -0.203 F 
ATOM     85  C   UNL A   1      43.184  36.053  35.798  1.00  0.00     0.198 A 
ATOM     86  C   UNL A   1      43.836  37.049  33.713  1.00  0.00     0.198 A 
ATOM     87  F   UNL A   1      43.592  35.848  31.706  1.00  0.00    -0.203 F 
ATOM     88  F   UNL A   1      43.012  36.143  37.124  1.00  0.00    -0.200 F 
ATOM     89  C   UNL A   1      43.691  37.132  35.090  1.00  0.00     0.200 A 
ATOM     90  F   UNL A   1      44.341  38.085  33.029  1.00  0.00    -0.200 F 
ATOM     91  F   UNL A   1      44.029  38.257  35.734  1.00  0.00    -0.200 F 
ENDBRANCH  58  81
ENDBRANCH  32  33
ENDBRANCH  24  27
ENDBRANCH  22  23
ENDBRANCH   1  22
TORSDOF 12
ENDMDL
MODEL 3
REMARK VINA RESULT:     -11.7      5.045      9.582
REMARK SMILES Cc1cc(C[N@@H+]2CC[C@@H](C(=O)NCCCNC(=O)c3ccc(-c4c5nc(c(-c6c(F)c(F)c(F)c(F)c6F)c6ccc([nH]6)c(-c6c(F)c(F)c(F)c(F)c6F)c6nc(c(-c7c(F)c(F)c(F)c(F)c7F)c7ccc4[nH]7)C=C6)C=C5)cc3)C2)ccc1Br
REMARK SMILES IDX 14 1 13 2 12 3 10 4 11 5 9 7 6 8 7 9 82 10 8 12 5 13 4 14
REMARK SMILES IDX 1 15 2 16 3 17 85 18 84 19 86 20 83 21 15 22 16 23 17 24
REMARK SMILES IDX 18 26 19 27 20 28 81 29 21 30 80 31 22 32 23 33 24 34 74 35
REMARK SMILES IDX 25 36 79 37 73 38 75 39 26 40 78 41 72 42 71 43 27 45 59 46
REMARK SMILES IDX 39 47 58 48 40 49 43 50 57 51 76 52 41 53 42 54 56 56 77 57
REMARK SMILES IDX 44 58 28 59 29 60 37 61 30 62 31 63 35 64 38 65 32 66 33 67
REMARK SMILES IDX 36 68 34 69 60 70 61 71 69 72 62 73 63 74 67 75 70 76 64 77
REMARK SMILES IDX 65 78 68 79 66 80 45 81 46 82 54 83 47 84 48 85 52 86 55 87
REMARK SMILES IDX 49 88 50 89 53 90 51 91
REMARK H PARENT 12 6 6 11 16 25 75 44 43 55
REMARK Flexibility Score: inf
ROOT
ATOM      1  C   UNL A   1      38.285  19.669  25.009  1.00  0.00     0.042 C 
ENDROOT
BRANCH   1   2
ATOM      2  C   UNL A   1      37.507  20.920  24.627  1.00  0.00     0.117 C 
BRANCH   2   3
ATOM      3  N   UNL A   1      38.049  22.119  25.230  1.00  0.00    -0.356 N 
ATOM      4  C   UNL A   1      37.501  23.261  25.710  1.00  0.00     0.229 C 
ATOM      5  O   UNL A   1      38.301  24.079  26.183  1.00  0.00    -0.275 OA
ATOM      6  H   UNL A   1      39.030  22.102  25.307  1.00  0.00     0.163 HD
BRANCH   4   7
ATOM      7  C   UNL A   1      36.026  23.628  25.639  1.00  0.00     0.139 C 
ATOM      8  N   UNL A   1      34.271  22.922  24.131  1.00  0.00    -0.330 N 
ATOM      9  C   UNL A   1      34.283  22.025  25.284  1.00  0.00     0.263 C 
ATOM     10  C   UNL A   1      35.527  23.684  24.193  1.00  0.00     0.276 C 
ATOM     11  H   UNL A   1      34.236  22.384  23.265  1.00  0.00     0.348 HD
ATOM     12  C   UNL A   1      35.012  22.786  26.384  1.00  0.00     0.081 C 
BRANCH   8  13
ATOM     13  C   UNL A   1      33.041  23.713  23.954  1.00  0.00     0.299 C 
BRANCH  13  14
ATOM     14  C   UNL A   1      33.050  25.147  24.447  1.00  0.00     0.007 A 
ATOM     15  C   UNL A   1      34.008  28.603  23.160  1.00  0.00     0.045 C 
ATOM     16  C   UNL A   1      33.596  27.508  24.102  1.00  0.00    -0.036 A 
ATOM     17  C   UNL A   1      33.494  26.190  23.622  1.00  0.00     0.014 A 
ATOM     18  C   UNL A   1      33.322  27.754  25.456  1.00  0.00     0.020 A 
ATOM     19  C   UNL A   1      32.823  26.740  26.270  1.00  0.00     0.016 A 
ATOM     20  Br  UNL A   1      33.630  29.447  26.259  1.00  0.00    -0.051 Br
ATOM     21  C   UNL A   1      32.635  25.460  25.750  1.00  0.00     0.011 A 
ENDBRANCH  13  14
ENDBRANCH   8  13
ENDBRANCH   4   7
ENDBRANCH   2   3
ENDBRANCH   1   2
BRANCH   1  22
ATOM     22  C   UNL A   1      39.290  19.947  26.113  1.00  0.00     0.118 C 
BRANCH  22  23
ATOM     23  N   UNL A   1      40.401  18.998  26.088  1.00  0.00    -0.352 N 
ATOM     24  C   UNL A   1      41.751  19.213  26.103  1.00  0.00     0.251 C 
ATOM     25  H   UNL A   1      40.135  18.050  26.054  1.00  0.00     0.163 HD
ATOM     26  O   UNL A   1      42.519  18.274  25.887  1.00  0.00    -0.269 OA
BRANCH  24  27
ATOM     27  C   UNL A   1      42.288  20.562  26.355  1.00  0.00     0.039 A 
ATOM     28  C   UNL A   1      42.607  21.372  25.263  1.00  0.00     0.014 A 
ATOM     29  C   UNL A   1      42.489  21.023  27.658  1.00  0.00     0.014 A 
ATOM     30  C   UNL A   1      43.080  22.663  25.481  1.00  0.00     0.010 A 
ATOM     31  C   UNL A   1      42.857  22.343  27.874  1.00  0.00     0.010 A 
ATOM     32  C   UNL A   1      43.175  23.169  26.788  1.00  0.00    -0.014 A 
BRANCH  32  33
ATOM     33  C   UNL A   1      43.626  24.557  27.037  1.00  0.00     0.031 A 
ATOM     34  C   UNL A   1      42.651  25.583  27.540  1.00  0.00     0.074 A 
ATOM     35  C   UNL A   1      44.898  24.895  26.754  1.00  0.00     0.049 A 
ATOM     36  N   UNL A   1      42.841  26.854  27.785  1.00  0.00    -0.248 NA
ATOM     37  C   UNL A   1      41.267  25.133  27.768  1.00  0.00     0.031 C 
ATOM     38  C   UNL A   1      45.908  23.993  26.195  1.00  0.00     0.029 A 
ATOM     39  N   UNL A   1      45.558  26.087  26.895  1.00  0.00    -0.354 N 
ATOM     40  C   UNL A   1      41.604  27.353  28.174  1.00  0.00     0.074 A 
ATOM     41  C   UNL A   1      40.656  26.266  28.074  1.00  0.00     0.031 C 
ATOM     42  C   UNL A   1      47.068  24.657  26.069  1.00  0.00     0.029 A 
ATOM     43  C   UNL A   1      46.874  26.035  26.505  1.00  0.00     0.049 A 
ATOM     44  H   UNL A   1      45.131  26.903  27.242  1.00  0.00     0.167 HD
ATOM     45  C   UNL A   1      41.297  28.598  28.603  1.00  0.00     0.037 A 
ATOM     46  C   UNL A   1      47.815  26.997  26.499  1.00  0.00     0.037 A 
ATOM     47  C   UNL A   1      42.260  29.660  28.732  1.00  0.00     0.049 A 
ATOM     48  C   UNL A   1      47.451  28.365  27.008  1.00  0.00     0.074 A 
ATOM     49  C   UNL A   1      42.075  30.938  29.228  1.00  0.00     0.029 A 
ATOM     50  N   UNL A   1      43.593  29.564  28.358  1.00  0.00    -0.354 N 
ATOM     51  N   UNL A   1      46.300  28.803  27.457  1.00  0.00    -0.248 NA
ATOM     52  C   UNL A   1      48.522  29.370  27.023  1.00  0.00     0.031 C 
ATOM     53  C   UNL A   1      43.283  31.631  29.108  1.00  0.00     0.029 A 
ATOM     54  C   UNL A   1      44.237  30.768  28.591  1.00  0.00     0.049 A 
ATOM     55  H   UNL A   1      44.018  28.759  27.984  1.00  0.00     0.167 HD
ATOM     56  C   UNL A   1      46.512  30.122  27.830  1.00  0.00     0.074 A 
ATOM     57  C   UNL A   1      47.909  30.405  27.577  1.00  0.00     0.031 C 
ATOM     58  C   UNL A   1      45.631  31.023  28.331  1.00  0.00     0.037 A 
BRANCH  45  59
ATOM     59  C   UNL A   1      39.869  28.879  28.972  1.00  0.00     0.064 A 
ATOM     60  C   UNL A   1      38.938  29.335  28.028  1.00  0.00     0.173 A 
ATOM     61  C   UNL A   1      39.415  28.648  30.280  1.00  0.00     0.173 A 
ATOM     62  F   UNL A   1      39.321  29.586  26.767  1.00  0.00    -0.203 F 
ATOM     63  C   UNL A   1      37.612  29.574  28.383  1.00  0.00     0.198 A 
ATOM     64  C   UNL A   1      38.083  28.858  30.624  1.00  0.00     0.198 A 
ATOM     65  F   UNL A   1      40.263  28.210  31.223  1.00  0.00    -0.203 F 
ATOM     66  F   UNL A   1      36.753  30.056  27.475  1.00  0.00    -0.200 F 
ATOM     67  C   UNL A   1      37.185  29.327  29.679  1.00  0.00     0.200 A 
ATOM     68  F   UNL A   1      37.668  28.606  31.874  1.00  0.00    -0.200 F 
ATOM     69  F   UNL A   1      35.906  29.546  30.017  1.00  0.00    -0.200 F 
ENDBRANCH  45  59
BRANCH  46  70
ATOM     70  C   UNL A   1      49.190  26.694  26.023  1.00  0.00     0.064 A 
ATOM     71  C   UNL A   1      49.577  26.981  24.706  1.00  0.00     0.173 A 
ATOM     72  C   UNL A   1      50.142  26.107  26.869  1.00  0.00     0.173 A 
ATOM     73  F   UNL A   1      48.699  27.529  23.853  1.00  0.00    -0.203 F 
ATOM     74  C   UNL A   1      50.854  26.665  24.247  1.00  0.00     0.198 A 
ATOM     75  C   UNL A   1      51.429  25.821  26.418  1.00  0.00     0.198 A 
ATOM     76  F   UNL A   1      49.826  25.822  28.140  1.00  0.00    -0.203 F 
ATOM     77  F   UNL A   1      51.181  26.902  22.968  1.00  0.00    -0.200 F 
ATOM     78  C   UNL A   1      51.781  26.091  25.103  1.00  0.00     0.200 A 
ATOM     79  F   UNL A   1      52.326  25.283  27.255  1.00  0.00    -0.200 F 
ATOM     80  F   UNL A   1      53.009  25.789  24.661  1.00  0.00    -0.200 F 
ENDBRANCH  46  70
BRANCH  58  81
ATOM     81  C   UNL A   1      46.164  32.386  28.663  1.00  0.00     0.064 A 
ATOM     82  C   UNL A   1      46.681  32.685  29.932  1.00  0.00     0.173 A 
ATOM     83  C   UNL A   1      46.180  33.397  27.690  1.00  0.00     0.173 A 
ATOM     84  F   UNL A   1      46.676  31.756  30.900  1.00  0.00    -0.203 F 
ATOM     85  C   UNL A   1      47.163  33.958  30.225  1.00  0.00     0.198 A 
ATOM     86  C   UNL A   1      46.694  34.658  27.976  1.00  0.00     0.198 A 
ATOM     87  F   UNL A   1      45.705  33.159  26.458  1.00  0.00    -0.203 F 
ATOM     88  F   UNL A   1      47.597  34.238  31.461  1.00  0.00    -0.200 F 
ATOM     89  C   UNL A   1      47.175  34.940  29.246  1.00  0.00     0.200 A 
ATOM     90  F   UNL A   1      46.720  35.601  27.025  1.00  0.00    -0.200 F 
ATOM     91  F   UNL A   1      47.642  36.164  29.530  1.00  0.00    -0.200 F 
ENDBRANCH  58  81
ENDBRANCH  32  33
ENDBRANCH  24  27
ENDBRANCH  22  23
ENDBRANCH   1  22
TORSDOF 12
ENDMDL
