MODEL 1
REMARK VINA RESULT:     -14.0      0.000      0.000
REMARK SMILES Cc1cccc(NS(=O)(=O)c2ccc(Br)c(C(=O)NCCCNC(=O)c3ccc(-c4c5nc(c(-c6c(F)c(F)c(F)c(F)c6F)c6ccc([nH]6)c(-c6c(F)c(F)c(F)c(F)c6F)c6nc(c(-c7c(F)c(F)c(F)c(F)c7F)c7ccc4[nH]7)C=C6)C=C5)cc3)c2)c1
REMARK SMILES IDX 20 1 19 2 17 3 18 4 16 6 11 7 12 8 89 9 13 10 14 11 15 12
REMARK SMILES IDX 8 13 9 14 10 15 7 16 6 18 1 19 2 20 3 21 90 22 4 23 5 24
REMARK SMILES IDX 21 25 22 26 23 27 24 28 25 30 26 31 27 32 88 33 28 34 87 35
REMARK SMILES IDX 29 36 30 37 31 38 81 39 32 40 86 41 80 42 82 43 33 44 85 45
REMARK SMILES IDX 79 46 78 47 34 49 66 50 46 51 65 52 47 53 50 54 64 55 83 56
REMARK SMILES IDX 48 57 49 58 63 60 84 61 51 62 35 63 36 64 44 65 37 66 38 67
REMARK SMILES IDX 42 68 45 69 39 70 40 71 43 72 41 73 67 74 68 75 76 76 69 77
REMARK SMILES IDX 70 78 74 79 77 80 71 81 72 82 75 83 73 84 52 85 53 86 61 87
REMARK SMILES IDX 54 88 55 89 59 90 62 91 56 92 57 93 60 94 58 95
REMARK H PARENT 19 5 7 17 23 29 82 48 50 59
REMARK Flexibility Score: inf
ROOT
ATOM      1  C   UNL A   1      36.720  21.089  25.255  1.00  0.00     0.118 C 
ENDROOT
BRANCH   1   2
ATOM      2  N   UNL A   1      35.955  21.618  26.371  1.00  0.00    -0.352 N 
ATOM      3  C   UNL A   1      34.764  22.308  26.449  1.00  0.00     0.252 C 
ATOM      4  O   UNL A   1      34.309  22.534  27.570  1.00  0.00    -0.269 OA
ATOM      5  H   UNL A   1      36.370  21.452  27.248  1.00  0.00     0.163 HD
BRANCH   3   6
ATOM      6  C   UNL A   1      34.095  22.916  25.264  1.00  0.00     0.055 A 
ATOM      7  C   UNL A   1      33.458  24.945  24.111  1.00  0.00     0.088 A 
ATOM      8  C   UNL A   1      33.656  24.315  22.886  1.00  0.00     0.023 A 
ATOM      9  C   UNL A   1      33.814  24.288  25.296  1.00  0.00     0.037 A 
ATOM     10  C   UNL A   1      33.738  22.927  22.878  1.00  0.00     0.018 A 
ATOM     11  C   UNL A   1      33.774  22.239  24.092  1.00  0.00     0.030 A 
ATOM     12  Br  UNL A   1      32.759  20.608  24.160  1.00  0.00    -0.050 Br
BRANCH   7  13
ATOM     13  S   UNL A   1      32.638  26.516  24.178  1.00  0.00     0.261 S 
ATOM     14  O   UNL A   1      31.316  26.319  23.625  1.00  0.00    -0.201 OA
ATOM     15  O   UNL A   1      33.534  27.500  23.605  1.00  0.00    -0.201 OA
BRANCH  13  16
ATOM     16  N   UNL A   1      32.404  27.013  25.800  1.00  0.00    -0.280 N 
ATOM     17  H   UNL A   1      32.011  26.365  26.429  1.00  0.00     0.180 HD
BRANCH  16  18
ATOM     18  C   UNL A   1      32.745  28.316  26.303  1.00  0.00     0.049 A 
ATOM     19  C   UNL A   1      31.206  31.815  26.403  1.00  0.00     0.044 C 
ATOM     20  C   UNL A   1      32.149  30.666  26.613  1.00  0.00    -0.049 A 
ATOM     21  C   UNL A   1      33.371  30.882  27.257  1.00  0.00     0.003 A 
ATOM     22  C   UNL A   1      31.828  29.369  26.171  1.00  0.00     0.030 A 
ATOM     23  C   UNL A   1      34.309  29.856  27.332  1.00  0.00     0.002 A 
ATOM     24  C   UNL A   1      34.018  28.597  26.798  1.00  0.00     0.027 A 
ENDBRANCH  16  18
ENDBRANCH  13  16
ENDBRANCH   7  13
ENDBRANCH   3   6
ENDBRANCH   1   2
BRANCH   1  25
ATOM     25  C   UNL A   1      38.223  21.179  25.407  1.00  0.00     0.042 C 
BRANCH  25  26
ATOM     26  C   UNL A   1      38.659  22.553  25.879  1.00  0.00     0.118 C 
BRANCH  26  27
ATOM     27  N   UNL A   1      40.036  22.606  26.393  1.00  0.00    -0.352 N 
ATOM     28  C   UNL A   1      40.765  23.690  26.874  1.00  0.00     0.251 C 
ATOM     29  H   UNL A   1      40.513  21.745  26.398  1.00  0.00     0.163 HD
ATOM     30  O   UNL A   1      41.865  23.531  27.370  1.00  0.00    -0.269 OA
BRANCH  28  31
ATOM     31  C   UNL A   1      40.115  25.023  26.902  1.00  0.00     0.039 A 
ATOM     32  C   UNL A   1      40.693  26.057  26.159  1.00  0.00     0.014 A 
ATOM     33  C   UNL A   1      39.219  25.301  27.919  1.00  0.00     0.014 A 
ATOM     34  C   UNL A   1      40.629  27.353  26.659  1.00  0.00     0.010 A 
ATOM     35  C   UNL A   1      39.325  26.533  28.520  1.00  0.00     0.010 A 
ATOM     36  C   UNL A   1      40.085  27.549  27.924  1.00  0.00    -0.014 A 
BRANCH  36  37
ATOM     37  C   UNL A   1      40.329  28.721  28.760  1.00  0.00     0.031 A 
ATOM     38  C   UNL A   1      39.284  29.764  28.869  1.00  0.00     0.074 A 
ATOM     39  C   UNL A   1      41.401  28.747  29.587  1.00  0.00     0.049 A 
ATOM     40  N   UNL A   1      39.421  30.878  29.500  1.00  0.00    -0.248 NA
ATOM     41  C   UNL A   1      37.983  29.633  28.229  1.00  0.00     0.031 C 
ATOM     42  C   UNL A   1      41.589  29.588  30.769  1.00  0.00     0.029 A 
ATOM     43  N   UNL A   1      42.656  28.139  29.399  1.00  0.00    -0.354 N 
ATOM     44  C   UNL A   1      38.187  31.482  29.583  1.00  0.00     0.074 A 
ATOM     45  C   UNL A   1      37.333  30.681  28.740  1.00  0.00     0.031 C 
ATOM     46  C   UNL A   1      42.903  29.706  31.014  1.00  0.00     0.029 A 
ATOM     47  C   UNL A   1      43.595  29.078  29.906  1.00  0.00     0.049 A 
ATOM     48  H   UNL A   1      42.843  27.257  29.003  1.00  0.00     0.167 HD
ATOM     49  C   UNL A   1      38.035  32.533  30.438  1.00  0.00     0.037 A 
ATOM     50  C   UNL A   1      44.472  29.713  29.072  1.00  0.00     0.037 A 
ATOM     51  C   UNL A   1      39.335  32.991  30.934  1.00  0.00     0.049 A 
ATOM     52  C   UNL A   1      44.327  31.223  29.023  1.00  0.00     0.074 A 
ATOM     53  C   UNL A   1      40.056  32.849  32.109  1.00  0.00     0.029 A 
ATOM     54  N   UNL A   1      40.228  33.500  30.008  1.00  0.00    -0.354 N 
ATOM     55  N   UNL A   1      43.395  31.897  29.636  1.00  0.00    -0.248 NA
ATOM     56  C   UNL A   1      45.170  32.080  28.185  1.00  0.00     0.031 C 
ATOM     57  C   UNL A   1      41.397  33.273  31.861  1.00  0.00     0.029 A 
ATOM     58  C   UNL A   1      41.485  33.676  30.541  1.00  0.00     0.049 A 
ATOM     59  H   UNL A   1      39.992  33.711  29.075  1.00  0.00     0.167 HD
ATOM     60  C   UNL A   1      43.457  33.212  29.254  1.00  0.00     0.074 A 
ATOM     61  C   UNL A   1      44.586  33.279  28.346  1.00  0.00     0.031 C 
ATOM     62  C   UNL A   1      42.550  34.143  29.669  1.00  0.00     0.037 A 
BRANCH  49  63
ATOM     63  C   UNL A   1      36.712  33.052  30.967  1.00  0.00     0.064 A 
ATOM     64  C   UNL A   1      35.871  33.829  30.138  1.00  0.00     0.173 A 
ATOM     65  C   UNL A   1      36.234  32.894  32.283  1.00  0.00     0.173 A 
ATOM     66  F   UNL A   1      36.134  34.000  28.836  1.00  0.00    -0.203 F 
ATOM     67  C   UNL A   1      34.720  34.467  30.614  1.00  0.00     0.198 A 
ATOM     68  C   UNL A   1      35.112  33.569  32.772  1.00  0.00     0.198 A 
ATOM     69  F   UNL A   1      36.783  32.029  33.137  1.00  0.00    -0.203 F 
ATOM     70  F   UNL A   1      33.969  35.195  29.774  1.00  0.00    -0.200 F 
ATOM     71  C   UNL A   1      34.359  34.365  31.940  1.00  0.00     0.200 A 
ATOM     72  F   UNL A   1      34.766  33.430  34.060  1.00  0.00    -0.200 F 
ATOM     73  F   UNL A   1      33.278  35.004  32.406  1.00  0.00    -0.200 F 
ENDBRANCH  49  63
BRANCH  50  74
ATOM     74  C   UNL A   1      44.883  28.855  27.929  1.00  0.00     0.064 A 
ATOM     75  C   UNL A   1      45.810  27.820  28.173  1.00  0.00     0.173 A 
ATOM     76  C   UNL A   1      44.111  28.773  26.766  1.00  0.00     0.173 A 
ATOM     77  F   UNL A   1      46.576  27.851  29.275  1.00  0.00    -0.203 F 
ATOM     78  C   UNL A   1      45.854  26.686  27.365  1.00  0.00     0.198 A 
ATOM     79  C   UNL A   1      44.178  27.646  25.946  1.00  0.00     0.198 A 
ATOM     80  F   UNL A   1      43.195  29.713  26.491  1.00  0.00    -0.203 F 
ATOM     81  F   UNL A   1      46.646  25.657  27.700  1.00  0.00    -0.200 F 
ATOM     82  C   UNL A   1      45.015  26.587  26.269  1.00  0.00     0.200 A 
ATOM     83  F   UNL A   1      43.341  27.534  24.904  1.00  0.00    -0.200 F 
ATOM     84  F   UNL A   1      44.970  25.455  25.555  1.00  0.00    -0.200 F 
ENDBRANCH  50  74
BRANCH  62  85
ATOM     85  C   UNL A   1      42.586  35.585  29.251  1.00  0.00     0.064 A 
ATOM     86  C   UNL A   1      42.017  36.032  28.050  1.00  0.00     0.173 A 
ATOM     87  C   UNL A   1      43.307  36.546  29.993  1.00  0.00     0.173 A 
ATOM     88  F   UNL A   1      41.354  35.183  27.250  1.00  0.00    -0.203 F 
ATOM     89  C   UNL A   1      42.131  37.362  27.636  1.00  0.00     0.198 A 
ATOM     90  C   UNL A   1      43.467  37.857  29.551  1.00  0.00     0.198 A 
ATOM     91  F   UNL A   1      43.851  36.249  31.182  1.00  0.00    -0.203 F 
ATOM     92  F   UNL A   1      41.528  37.761  26.509  1.00  0.00    -0.200 F 
ATOM     93  C   UNL A   1      42.869  38.269  28.377  1.00  0.00     0.200 A 
ATOM     94  F   UNL A   1      44.199  38.718  30.274  1.00  0.00    -0.200 F 
ATOM     95  F   UNL A   1      42.997  39.537  27.967  1.00  0.00    -0.200 F 
ENDBRANCH  62  85
ENDBRANCH  36  37
ENDBRANCH  28  31
ENDBRANCH  26  27
ENDBRANCH  25  26
ENDBRANCH   1  25
TORSDOF 13
ENDMDL
MODEL 2
REMARK VINA RESULT:     -13.8      3.770     10.096
REMARK SMILES Cc1cccc(NS(=O)(=O)c2ccc(Br)c(C(=O)NCCCNC(=O)c3ccc(-c4c5nc(c(-c6c(F)c(F)c(F)c(F)c6F)c6ccc([nH]6)c(-c6c(F)c(F)c(F)c(F)c6F)c6nc(c(-c7c(F)c(F)c(F)c(F)c7F)c7ccc4[nH]7)C=C6)C=C5)cc3)c2)c1
REMARK SMILES IDX 20 1 19 2 17 3 18 4 16 6 11 7 12 8 89 9 13 10 14 11 15 12
REMARK SMILES IDX 8 13 9 14 10 15 7 16 6 18 1 19 2 20 3 21 90 22 4 23 5 24
REMARK SMILES IDX 21 25 22 26 23 27 24 28 25 30 26 31 27 32 88 33 28 34 87 35
REMARK SMILES IDX 29 36 30 37 31 38 81 39 32 40 86 41 80 42 82 43 33 44 85 45
REMARK SMILES IDX 79 46 78 47 34 49 66 50 46 51 65 52 47 53 50 54 64 55 83 56
REMARK SMILES IDX 48 57 49 58 63 60 84 61 51 62 35 63 36 64 44 65 37 66 38 67
REMARK SMILES IDX 42 68 45 69 39 70 40 71 43 72 41 73 67 74 68 75 76 76 69 77
REMARK SMILES IDX 70 78 74 79 77 80 71 81 72 82 75 83 73 84 52 85 53 86 61 87
REMARK SMILES IDX 54 88 55 89 59 90 62 91 56 92 57 93 60 94 58 95
REMARK H PARENT 19 5 7 17 23 29 82 48 50 59
REMARK Flexibility Score: inf
ROOT
ATOM      1  C   UNL A   1      32.007  30.121  25.825  1.00  0.00     0.118 C 
ENDROOT
BRANCH   1   2
ATOM      2  N   UNL A   1      33.026  29.727  24.866  1.00  0.00    -0.352 N 
ATOM      3  C   UNL A   1      33.156  28.641  24.028  1.00  0.00     0.252 C 
ATOM      4  O   UNL A   1      34.101  28.640  23.240  1.00  0.00    -0.269 OA
ATOM      5  H   UNL A   1      33.775  30.364  24.803  1.00  0.00     0.163 HD
BRANCH   3   6
ATOM      6  C   UNL A   1      32.309  27.420  24.139  1.00  0.00     0.055 A 
ATOM      7  C   UNL A   1      32.192  25.076  24.729  1.00  0.00     0.088 A 
ATOM      8  C   UNL A   1      30.892  25.255  25.191  1.00  0.00     0.023 A 
ATOM      9  C   UNL A   1      32.948  26.189  24.335  1.00  0.00     0.037 A 
ATOM     10  C   UNL A   1      30.222  26.412  24.810  1.00  0.00     0.018 A 
ATOM     11  C   UNL A   1      30.919  27.407  24.122  1.00  0.00     0.030 A 
ATOM     12  Br  UNL A   1      29.957  28.266  22.695  1.00  0.00    -0.050 Br
BRANCH   7  13
ATOM     13  S   UNL A   1      32.842  23.440  24.515  1.00  0.00     0.261 S 
ATOM     14  O   UNL A   1      31.966  22.763  23.585  1.00  0.00    -0.201 OA
ATOM     15  O   UNL A   1      33.079  22.890  25.834  1.00  0.00    -0.201 OA
BRANCH  13  16
ATOM     16  N   UNL A   1      34.382  23.489  23.767  1.00  0.00    -0.280 N 
ATOM     17  H   UNL A   1      34.431  23.792  22.831  1.00  0.00     0.180 HD
BRANCH  16  18
ATOM     18  C   UNL A   1      35.609  23.114  24.417  1.00  0.00     0.049 A 
ATOM     19  C   UNL A   1      37.758  19.980  24.841  1.00  0.00     0.044 C 
ATOM     20  C   UNL A   1      37.271  21.398  24.929  1.00  0.00    -0.049 A 
ATOM     21  C   UNL A   1      37.992  22.332  25.678  1.00  0.00     0.003 A 
ATOM     22  C   UNL A   1      36.098  21.808  24.269  1.00  0.00     0.030 A 
ATOM     23  C   UNL A   1      37.477  23.609  25.880  1.00  0.00     0.002 A 
ATOM     24  C   UNL A   1      36.257  23.975  25.302  1.00  0.00     0.027 A 
ENDBRANCH  16  18
ENDBRANCH  13  16
ENDBRANCH   7  13
ENDBRANCH   3   6
ENDBRANCH   1   2
BRANCH   1  25
ATOM     25  C   UNL A   1      32.479  31.058  26.914  1.00  0.00     0.042 C 
BRANCH  25  26
ATOM     26  C   UNL A   1      33.641  30.474  27.694  1.00  0.00     0.118 C 
BRANCH  26  27
ATOM     27  N   UNL A   1      34.483  31.476  28.365  1.00  0.00    -0.352 N 
ATOM     28  C   UNL A   1      35.758  31.347  28.909  1.00  0.00     0.251 C 
ATOM     29  H   UNL A   1      34.085  32.373  28.441  1.00  0.00     0.163 HD
ATOM     30  O   UNL A   1      36.358  32.319  29.329  1.00  0.00    -0.269 OA
BRANCH  28  31
ATOM     31  C   UNL A   1      36.429  30.027  28.833  1.00  0.00     0.039 A 
ATOM     32  C   UNL A   1      36.636  29.320  30.022  1.00  0.00     0.014 A 
ATOM     33  C   UNL A   1      37.149  29.713  27.693  1.00  0.00     0.014 A 
ATOM     34  C   UNL A   1      37.784  28.546  30.146  1.00  0.00     0.010 A 
ATOM     35  C   UNL A   1      38.376  29.123  27.876  1.00  0.00     0.010 A 
ATOM     36  C   UNL A   1      38.727  28.591  29.125  1.00  0.00    -0.014 A 
BRANCH  36  37
ATOM     37  C   UNL A   1      40.130  28.214  29.273  1.00  0.00     0.031 A 
ATOM     38  C   UNL A   1      40.586  26.901  28.764  1.00  0.00     0.074 A 
ATOM     39  C   UNL A   1      41.036  29.137  29.673  1.00  0.00     0.049 A 
ATOM     40  N   UNL A   1      41.772  26.424  28.918  1.00  0.00    -0.248 NA
ATOM     41  C   UNL A   1      39.700  25.991  28.050  1.00  0.00     0.031 C 
ATOM     42  C   UNL A   1      42.486  29.099  29.481  1.00  0.00     0.029 A 
ATOM     43  N   UNL A   1      40.837  30.230  30.536  1.00  0.00    -0.354 N 
ATOM     44  C   UNL A   1      41.894  25.306  28.125  1.00  0.00     0.074 A 
ATOM     45  C   UNL A   1      40.560  25.060  27.636  1.00  0.00     0.031 C 
ATOM     46  C   UNL A   1      43.069  29.872  30.409  1.00  0.00     0.029 A 
ATOM     47  C   UNL A   1      42.023  30.299  31.318  1.00  0.00     0.049 A 
ATOM     48  H   UNL A   1      40.049  30.818  30.588  1.00  0.00     0.167 HD
ATOM     49  C   UNL A   1      43.140  24.793  27.915  1.00  0.00     0.037 A 
ATOM     50  C   UNL A   1      41.995  30.032  32.658  1.00  0.00     0.037 A 
ATOM     51  C   UNL A   1      44.116  25.412  28.816  1.00  0.00     0.049 A 
ATOM     52  C   UNL A   1      42.839  28.847  33.091  1.00  0.00     0.074 A 
ATOM     53  C   UNL A   1      45.095  26.385  28.703  1.00  0.00     0.029 A 
ATOM     54  N   UNL A   1      43.946  25.210  30.174  1.00  0.00    -0.354 N 
ATOM     55  N   UNL A   1      43.480  28.058  32.275  1.00  0.00    -0.248 NA
ATOM     56  C   UNL A   1      42.935  28.401  34.483  1.00  0.00     0.031 C 
ATOM     57  C   UNL A   1      45.499  26.766  30.019  1.00  0.00     0.029 A 
ATOM     58  C   UNL A   1      44.768  26.020  30.926  1.00  0.00     0.049 A 
ATOM     59  H   UNL A   1      43.312  24.563  30.559  1.00  0.00     0.167 HD
ATOM     60  C   UNL A   1      44.004  27.004  32.977  1.00  0.00     0.074 A 
ATOM     61  C   UNL A   1      43.640  27.263  34.357  1.00  0.00     0.031 C 
ATOM     62  C   UNL A   1      44.657  25.969  32.374  1.00  0.00     0.037 A 
BRANCH  49  63
ATOM     63  C   UNL A   1      43.527  23.856  26.787  1.00  0.00     0.064 A 
ATOM     64  C   UNL A   1      43.093  22.510  26.803  1.00  0.00     0.173 A 
ATOM     65  C   UNL A   1      44.368  24.176  25.704  1.00  0.00     0.173 A 
ATOM     66  F   UNL A   1      42.218  22.066  27.713  1.00  0.00    -0.203 F 
ATOM     67  C   UNL A   1      43.545  21.560  25.881  1.00  0.00     0.198 A 
ATOM     68  C   UNL A   1      44.859  23.218  24.811  1.00  0.00     0.198 A 
ATOM     69  F   UNL A   1      44.701  25.434  25.413  1.00  0.00    -0.203 F 
ATOM     70  F   UNL A   1      43.099  20.297  25.955  1.00  0.00    -0.200 F 
ATOM     71  C   UNL A   1      44.455  21.905  24.905  1.00  0.00     0.200 A 
ATOM     72  F   UNL A   1      45.721  23.587  23.853  1.00  0.00    -0.200 F 
ATOM     73  F   UNL A   1      44.917  20.990  24.044  1.00  0.00    -0.200 F 
ENDBRANCH  49  63
BRANCH  50  74
ATOM     74  C   UNL A   1      40.714  30.447  33.288  1.00  0.00     0.064 A 
ATOM     75  C   UNL A   1      40.486  31.824  33.490  1.00  0.00     0.173 A 
ATOM     76  C   UNL A   1      39.604  29.596  33.307  1.00  0.00     0.173 A 
ATOM     77  F   UNL A   1      41.518  32.683  33.483  1.00  0.00    -0.203 F 
ATOM     78  C   UNL A   1      39.194  32.339  33.562  1.00  0.00     0.198 A 
ATOM     79  C   UNL A   1      38.312  30.115  33.404  1.00  0.00     0.198 A 
ATOM     80  F   UNL A   1      39.753  28.281  33.095  1.00  0.00    -0.203 F 
ATOM     81  F   UNL A   1      39.004  33.665  33.614  1.00  0.00    -0.200 F 
ATOM     82  C   UNL A   1      38.107  31.485  33.487  1.00  0.00     0.200 A 
ATOM     83  F   UNL A   1      37.258  29.293  33.297  1.00  0.00    -0.200 F 
ATOM     84  F   UNL A   1      36.863  31.981  33.440  1.00  0.00    -0.200 F 
ENDBRANCH  50  74
BRANCH  62  85
ATOM     85  C   UNL A   1      45.225  24.796  33.120  1.00  0.00     0.064 A 
ATOM     86  C   UNL A   1      44.434  23.713  33.529  1.00  0.00     0.173 A 
ATOM     87  C   UNL A   1      46.569  24.784  33.555  1.00  0.00     0.173 A 
ATOM     88  F   UNL A   1      43.133  23.657  33.208  1.00  0.00    -0.203 F 
ATOM     89  C   UNL A   1      44.961  22.668  34.293  1.00  0.00     0.198 A 
ATOM     90  C   UNL A   1      47.078  23.770  34.364  1.00  0.00     0.198 A 
ATOM     91  F   UNL A   1      47.434  25.739  33.183  1.00  0.00    -0.203 F 
ATOM     92  F   UNL A   1      44.186  21.626  34.618  1.00  0.00    -0.200 F 
ATOM     93  C   UNL A   1      46.276  22.705  34.723  1.00  0.00     0.200 A 
ATOM     94  F   UNL A   1      48.349  23.831  34.785  1.00  0.00    -0.200 F 
ATOM     95  F   UNL A   1      46.773  21.715  35.476  1.00  0.00    -0.200 F 
ENDBRANCH  62  85
ENDBRANCH  36  37
ENDBRANCH  28  31
ENDBRANCH  26  27
ENDBRANCH  25  26
ENDBRANCH   1  25
TORSDOF 13
ENDMDL
MODEL 3
REMARK VINA RESULT:     -13.8      3.701     10.241
REMARK SMILES Cc1cccc(NS(=O)(=O)c2ccc(Br)c(C(=O)NCCCNC(=O)c3ccc(-c4c5nc(c(-c6c(F)c(F)c(F)c(F)c6F)c6ccc([nH]6)c(-c6c(F)c(F)c(F)c(F)c6F)c6nc(c(-c7c(F)c(F)c(F)c(F)c7F)c7ccc4[nH]7)C=C6)C=C5)cc3)c2)c1
REMARK SMILES IDX 20 1 19 2 17 3 18 4 16 6 11 7 12 8 89 9 13 10 14 11 15 12
REMARK SMILES IDX 8 13 9 14 10 15 7 16 6 18 1 19 2 20 3 21 90 22 4 23 5 24
REMARK SMILES IDX 21 25 22 26 23 27 24 28 25 30 26 31 27 32 88 33 28 34 87 35
REMARK SMILES IDX 29 36 30 37 31 38 81 39 32 40 86 41 80 42 82 43 33 44 85 45
REMARK SMILES IDX 79 46 78 47 34 49 66 50 46 51 65 52 47 53 50 54 64 55 83 56
REMARK SMILES IDX 48 57 49 58 63 60 84 61 51 62 35 63 36 64 44 65 37 66 38 67
REMARK SMILES IDX 42 68 45 69 39 70 40 71 43 72 41 73 67 74 68 75 76 76 69 77
REMARK SMILES IDX 70 78 74 79 77 80 71 81 72 82 75 83 73 84 52 85 53 86 61 87
REMARK SMILES IDX 54 88 55 89 59 90 62 91 56 92 57 93 60 94 58 95
REMARK H PARENT 19 5 7 17 23 29 82 48 50 59
REMARK Flexibility Score: inf
ROOT
ATOM      1  C   UNL A   1      33.770  28.437  25.934  1.00  0.00     0.118 C 
ENDROOT
BRANCH   1   2
ATOM      2  N   UNL A   1      33.776  28.039  24.537  1.00  0.00    -0.352 N 
ATOM      3  C   UNL A   1      33.553  26.835  23.903  1.00  0.00     0.252 C 
ATOM      4  O   UNL A   1      33.525  26.835  22.673  1.00  0.00    -0.269 OA
ATOM      5  H   UNL A   1      33.982  28.776  23.917  1.00  0.00     0.163 HD
BRANCH   3   6
ATOM      6  C   UNL A   1      33.501  25.532  24.625  1.00  0.00     0.055 A 
ATOM      7  C   UNL A   1      34.739  23.658  25.523  1.00  0.00     0.088 A 
ATOM      8  C   UNL A   1      33.831  23.557  26.573  1.00  0.00     0.023 A 
ATOM      9  C   UNL A   1      34.652  24.734  24.630  1.00  0.00     0.037 A 
ATOM     10  C   UNL A   1      32.614  24.215  26.441  1.00  0.00     0.018 A 
ATOM     11  C   UNL A   1      32.412  25.062  25.350  1.00  0.00     0.030 A 
ATOM     12  Br  UNL A   1      30.668  24.987  24.544  1.00  0.00    -0.050 Br
BRANCH   7  13
ATOM     13  S   UNL A   1      35.916  22.361  25.240  1.00  0.00     0.261 S 
ATOM     14  O   UNL A   1      37.032  22.611  26.125  1.00  0.00    -0.201 OA
ATOM     15  O   UNL A   1      36.121  22.265  23.809  1.00  0.00    -0.201 OA
BRANCH  13  16
ATOM     16  N   UNL A   1      35.273  20.842  25.703  1.00  0.00    -0.280 N 
ATOM     17  H   UNL A   1      35.568  20.460  26.561  1.00  0.00     0.180 HD
BRANCH  16  18
ATOM     18  C   UNL A   1      34.330  20.091  24.919  1.00  0.00     0.049 A 
ATOM     19  C   UNL A   1      34.028  16.577  23.439  1.00  0.00     0.044 C 
ATOM     20  C   UNL A   1      33.714  17.995  23.824  1.00  0.00    -0.049 A 
ATOM     21  C   UNL A   1      32.527  18.586  23.381  1.00  0.00     0.003 A 
ATOM     22  C   UNL A   1      34.594  18.744  24.626  1.00  0.00     0.030 A 
ATOM     23  C   UNL A   1      32.294  19.938  23.614  1.00  0.00     0.002 A 
ATOM     24  C   UNL A   1      33.225  20.700  24.326  1.00  0.00     0.027 A 
ENDBRANCH  16  18
ENDBRANCH  13  16
ENDBRANCH   7  13
ENDBRANCH   3   6
ENDBRANCH   1   2
BRANCH   1  25
ATOM     25  C   UNL A   1      33.678  29.928  26.176  1.00  0.00     0.042 C 
BRANCH  25  26
ATOM     26  C   UNL A   1      33.469  30.248  27.644  1.00  0.00     0.118 C 
BRANCH  26  27
ATOM     27  N   UNL A   1      34.339  31.315  28.160  1.00  0.00    -0.352 N 
ATOM     28  C   UNL A   1      35.638  31.244  28.657  1.00  0.00     0.251 C 
ATOM     29  H   UNL A   1      33.943  32.217  28.152  1.00  0.00     0.163 HD
ATOM     30  O   UNL A   1      36.254  32.255  28.938  1.00  0.00    -0.269 OA
BRANCH  28  31
ATOM     31  C   UNL A   1      36.307  29.921  28.699  1.00  0.00     0.039 A 
ATOM     32  C   UNL A   1      36.542  29.338  29.948  1.00  0.00     0.014 A 
ATOM     33  C   UNL A   1      36.998  29.492  27.579  1.00  0.00     0.014 A 
ATOM     34  C   UNL A   1      37.694  28.578  30.122  1.00  0.00     0.010 A 
ATOM     35  C   UNL A   1      38.229  28.920  27.791  1.00  0.00     0.010 A 
ATOM     36  C   UNL A   1      38.611  28.517  29.078  1.00  0.00    -0.014 A 
BRANCH  36  37
ATOM     37  C   UNL A   1      40.018  28.154  29.229  1.00  0.00     0.031 A 
ATOM     38  C   UNL A   1      40.478  26.826  28.763  1.00  0.00     0.074 A 
ATOM     39  C   UNL A   1      40.921  29.096  29.591  1.00  0.00     0.049 A 
ATOM     40  N   UNL A   1      41.668  26.362  28.925  1.00  0.00    -0.248 NA
ATOM     41  C   UNL A   1      39.593  25.887  28.088  1.00  0.00     0.031 C 
ATOM     42  C   UNL A   1      42.369  29.059  29.390  1.00  0.00     0.029 A 
ATOM     43  N   UNL A   1      40.721  30.217  30.417  1.00  0.00    -0.354 N 
ATOM     44  C   UNL A   1      41.792  25.218  28.172  1.00  0.00     0.074 A 
ATOM     45  C   UNL A   1      40.456  24.947  27.700  1.00  0.00     0.031 C 
ATOM     46  C   UNL A   1      42.954  29.868  30.287  1.00  0.00     0.029 A 
ATOM     47  C   UNL A   1      41.911  30.319  31.188  1.00  0.00     0.049 A 
ATOM     48  H   UNL A   1      39.930  30.802  30.454  1.00  0.00     0.167 HD
ATOM     49  C   UNL A   1      43.039  24.705  27.970  1.00  0.00     0.037 A 
ATOM     50  C   UNL A   1      41.895  30.100  32.536  1.00  0.00     0.037 A 
ATOM     51  C   UNL A   1      44.018  25.361  28.843  1.00  0.00     0.049 A 
ATOM     52  C   UNL A   1      42.748  28.936  33.004  1.00  0.00     0.074 A 
ATOM     53  C   UNL A   1      44.990  26.335  28.688  1.00  0.00     0.029 A 
ATOM     54  N   UNL A   1      43.858  25.206  30.208  1.00  0.00    -0.354 N 
ATOM     55  N   UNL A   1      43.389  28.122  32.212  1.00  0.00    -0.248 NA
ATOM     56  C   UNL A   1      42.857  28.538  34.410  1.00  0.00     0.031 C 
ATOM     57  C   UNL A   1      45.400  26.764  29.987  1.00  0.00     0.029 A 
ATOM     58  C   UNL A   1      44.680  26.046  30.925  1.00  0.00     0.049 A 
ATOM     59  H   UNL A   1      43.230  24.568  30.620  1.00  0.00     0.167 HD
ATOM     60  C   UNL A   1      43.924  27.097  32.946  1.00  0.00     0.074 A 
ATOM     61  C   UNL A   1      43.568  27.402  34.318  1.00  0.00     0.031 C 
ATOM     62  C   UNL A   1      44.579  26.045  32.375  1.00  0.00     0.037 A 
BRANCH  49  63
ATOM     63  C   UNL A   1      43.424  23.731  26.873  1.00  0.00     0.064 A 
ATOM     64  C   UNL A   1      42.990  22.387  26.934  1.00  0.00     0.173 A 
ATOM     65  C   UNL A   1      44.264  24.016  25.779  1.00  0.00     0.173 A 
ATOM     66  F   UNL A   1      42.116  21.973  27.860  1.00  0.00    -0.203 F 
ATOM     67  C   UNL A   1      43.440  21.407  26.042  1.00  0.00     0.198 A 
ATOM     68  C   UNL A   1      44.752  23.029  24.917  1.00  0.00     0.198 A 
ATOM     69  F   UNL A   1      44.596  25.264  25.446  1.00  0.00    -0.203 F 
ATOM     70  F   UNL A   1      42.994  20.148  26.159  1.00  0.00    -0.200 F 
ATOM     71  C   UNL A   1      44.349  21.721  25.054  1.00  0.00     0.200 A 
ATOM     72  F   UNL A   1      45.613  23.367  23.946  1.00  0.00    -0.200 F 
ATOM     73  F   UNL A   1      44.809  20.778  24.222  1.00  0.00    -0.200 F 
ENDBRANCH  49  63
BRANCH  50  74
ATOM     74  C   UNL A   1      40.615  30.529  33.161  1.00  0.00     0.064 A 
ATOM     75  C   UNL A   1      40.377  31.910  33.308  1.00  0.00     0.173 A 
ATOM     76  C   UNL A   1      39.514  29.670  33.224  1.00  0.00     0.173 A 
ATOM     77  F   UNL A   1      41.400  32.778  33.255  1.00  0.00    -0.203 F 
ATOM     78  C   UNL A   1      39.080  32.416  33.370  1.00  0.00     0.198 A 
ATOM     79  C   UNL A   1      38.218  30.181  33.312  1.00  0.00     0.198 A 
ATOM     80  F   UNL A   1      39.673  28.348  33.066  1.00  0.00    -0.203 F 
ATOM     81  F   UNL A   1      38.879  33.742  33.370  1.00  0.00    -0.200 F 
ATOM     82  C   UNL A   1      38.000  31.551  33.341  1.00  0.00     0.200 A 
ATOM     83  F   UNL A   1      37.171  29.345  33.249  1.00  0.00    -0.200 F 
ATOM     84  F   UNL A   1      36.752  32.033  33.285  1.00  0.00    -0.200 F 
ENDBRANCH  50  74
BRANCH  62  85
ATOM     85  C   UNL A   1      45.160  24.902  33.157  1.00  0.00     0.064 A 
ATOM     86  C   UNL A   1      46.524  24.828  33.475  1.00  0.00     0.173 A 
ATOM     87  C   UNL A   1      44.379  23.778  33.505  1.00  0.00     0.173 A 
ATOM     88  F   UNL A   1      47.359  25.824  33.142  1.00  0.00    -0.203 F 
ATOM     89  C   UNL A   1      47.064  23.719  34.132  1.00  0.00     0.198 A 
ATOM     90  C   UNL A   1      44.930  22.650  34.108  1.00  0.00     0.198 A 
ATOM     91  F   UNL A   1      43.054  23.756  33.298  1.00  0.00    -0.203 F 
ATOM     92  F   UNL A   1      48.361  23.710  34.465  1.00  0.00    -0.200 F 
ATOM     93  C   UNL A   1      46.271  22.624  34.432  1.00  0.00     0.200 A 
ATOM     94  F   UNL A   1      44.149  21.593  34.378  1.00  0.00    -0.200 F 
ATOM     95  F   UNL A   1      46.795  21.552  35.039  1.00  0.00    -0.200 F 
ENDBRANCH  62  85
ENDBRANCH  36  37
ENDBRANCH  28  31
ENDBRANCH  26  27
ENDBRANCH  25  26
ENDBRANCH   1  25
TORSDOF 13
ENDMDL
