MODEL 1
REMARK VINA RESULT:     -12.2      0.000      0.000
REMARK SMILES C[NH2+][C@]1(C(=O)NCCCNC(=O)c2ccc(-c3c4nc(c(-c5c(F)c(F)c(F)c(F)c5F)c5ccc([nH]5)c(-c5c(F)c(F)c(F)c(F)c5F)c5nc(c(-c6c(F)c(F)c(F)c(F)c6F)c6ccc3[nH]6)C=C5)C=C4)cc2)CCC[C@@H](Sc2nccs2)C1
REMARK SMILES IDX 8 1 7 2 6 3 4 4 5 5 3 7 76 8 86 9 77 10 79 11 78 12 2 13
REMARK SMILES IDX 1 14 80 17 81 18 82 19 85 20 83 21 84 22 9 23 10 24 11 25
REMARK SMILES IDX 12 27 13 28 14 29 75 30 15 31 74 32 16 33 17 34 18 35 68 36
REMARK SMILES IDX 19 37 73 38 67 39 69 40 20 41 72 42 66 43 65 44 21 46 53 47
REMARK SMILES IDX 33 48 52 49 34 50 37 51 51 52 70 53 35 54 36 55 50 57 71 58
REMARK SMILES IDX 38 59 22 60 23 61 31 62 24 63 25 64 29 65 32 66 26 67 27 68
REMARK SMILES IDX 30 69 28 70 54 71 55 72 63 73 56 74 57 75 61 76 64 77 58 78
REMARK SMILES IDX 59 79 62 80 60 81 39 82 40 83 48 84 41 85 42 86 46 87 49 88
REMARK SMILES IDX 43 89 44 90 47 91 45 92
REMARK H PARENT 6 6 2 15 2 16 10 26 69 45 37 56
REMARK Flexibility Score: inf
ROOT
ATOM      1  C   UNL A   1      31.393  32.293  26.500  1.00  0.00     0.042 C 
ENDROOT
BRANCH   1   2
ATOM      2  C   UNL A   1      31.510  30.804  26.214  1.00  0.00     0.118 C 
BRANCH   2   3
ATOM      3  N   UNL A   1      32.612  30.195  26.938  1.00  0.00    -0.351 N 
ATOM      4  C   UNL A   1      33.381  29.099  26.681  1.00  0.00     0.281 C 
ATOM      5  O   UNL A   1      34.182  28.805  27.578  1.00  0.00    -0.268 OA
ATOM      6  H   UNL A   1      32.847  30.661  27.772  1.00  0.00     0.163 HD
BRANCH   4   7
ATOM      7  C   UNL A   1      33.225  28.231  25.366  1.00  0.00     0.176 C 
ATOM      8  C   UNL A   1      33.885  26.856  25.657  1.00  0.00     0.079 C 
ATOM      9  C   UNL A   1      31.721  28.149  24.975  1.00  0.00     0.094 C 
ATOM     10  C   UNL A   1      33.472  25.729  24.721  1.00  0.00     0.008 C 
ATOM     11  C   UNL A   1      31.338  26.921  24.137  1.00  0.00     0.061 C 
ATOM     12  C   UNL A   1      31.956  25.613  24.636  1.00  0.00     0.015 C 
BRANCH   7  13
ATOM     13  N   UNL A   1      34.028  28.938  24.335  1.00  0.00    -0.336 N 
ATOM     14  C   UNL A   1      33.642  28.953  22.949  1.00  0.00     0.331 C 
ATOM     15  H   UNL A   1      34.075  29.914  24.630  1.00  0.00     0.346 HD
ATOM     16  H   UNL A   1      34.885  28.387  24.315  1.00  0.00     0.346 HD
ENDBRANCH   7  13
BRANCH  11  17
ATOM     17  S   UNL A   1      29.530  26.785  23.876  1.00  0.00    -0.092 SA
BRANCH  17  18
ATOM     18  C   UNL A   1      29.118  28.255  23.026  1.00  0.00     0.150 A 
ATOM     19  N   UNL A   1      29.969  28.873  22.237  1.00  0.00    -0.238 NA
ATOM     20  S   UNL A   1      27.553  28.953  23.126  1.00  0.00    -0.116 S 
ATOM     21  C   UNL A   1      29.339  29.942  21.626  1.00  0.00     0.124 A 
ATOM     22  C   UNL A   1      28.029  30.153  21.999  1.00  0.00     0.087 A 
ENDBRANCH  17  18
ENDBRANCH  11  17
ENDBRANCH   4   7
ENDBRANCH   2   3
ENDBRANCH   1   2
BRANCH   1  23
ATOM     23  C   UNL A   1      32.569  32.864  27.276  1.00  0.00     0.118 C 
BRANCH  23  24
ATOM     24  N   UNL A   1      32.383  34.265  27.626  1.00  0.00    -0.352 N 
ATOM     25  C   UNL A   1      32.980  35.022  28.603  1.00  0.00     0.251 C 
ATOM     26  H   UNL A   1      31.723  34.745  27.074  1.00  0.00     0.163 HD
ATOM     27  O   UNL A   1      32.528  36.128  28.880  1.00  0.00    -0.269 OA
BRANCH  25  28
ATOM     28  C   UNL A   1      34.148  34.497  29.345  1.00  0.00     0.039 A 
ATOM     29  C   UNL A   1      33.942  33.904  30.594  1.00  0.00     0.014 A 
ATOM     30  C   UNL A   1      35.439  34.593  28.824  1.00  0.00     0.014 A 
ATOM     31  C   UNL A   1      35.020  33.339  31.280  1.00  0.00     0.010 A 
ATOM     32  C   UNL A   1      36.494  33.945  29.459  1.00  0.00     0.010 A 
ATOM     33  C   UNL A   1      36.297  33.315  30.696  1.00  0.00    -0.014 A 
BRANCH  33  34
ATOM     34  C   UNL A   1      37.440  32.639  31.364  1.00  0.00     0.031 A 
ATOM     35  C   UNL A   1      38.133  31.485  30.692  1.00  0.00     0.074 A 
ATOM     36  C   UNL A   1      37.807  33.019  32.603  1.00  0.00     0.049 A 
ATOM     37  N   UNL A   1      39.095  30.720  31.143  1.00  0.00    -0.248 NA
ATOM     38  C   UNL A   1      37.665  31.124  29.344  1.00  0.00     0.031 C 
ATOM     39  C   UNL A   1      37.181  34.090  33.381  1.00  0.00     0.029 A 
ATOM     40  N   UNL A   1      38.791  32.539  33.433  1.00  0.00    -0.354 N 
ATOM     41  C   UNL A   1      39.332  29.783  30.145  1.00  0.00     0.074 A 
ATOM     42  C   UNL A   1      38.377  30.037  29.090  1.00  0.00     0.031 C 
ATOM     43  C   UNL A   1      37.811  34.203  34.561  1.00  0.00     0.029 A 
ATOM     44  C   UNL A   1      38.853  33.186  34.644  1.00  0.00     0.049 A 
ATOM     45  H   UNL A   1      39.394  31.803  33.184  1.00  0.00     0.167 HD
ATOM     46  C   UNL A   1      40.280  28.817  30.102  1.00  0.00     0.037 A 
ATOM     47  C   UNL A   1      39.655  32.975  35.706  1.00  0.00     0.037 A 
ATOM     48  C   UNL A   1      41.245  28.583  31.144  1.00  0.00     0.049 A 
ATOM     49  C   UNL A   1      40.691  31.884  35.636  1.00  0.00     0.074 A 
ATOM     50  C   UNL A   1      42.282  27.668  31.169  1.00  0.00     0.029 A 
ATOM     51  N   UNL A   1      41.288  29.271  32.349  1.00  0.00    -0.354 N 
ATOM     52  N   UNL A   1      40.953  31.052  34.657  1.00  0.00    -0.248 NA
ATOM     53  C   UNL A   1      41.545  31.707  36.818  1.00  0.00     0.031 C 
ATOM     54  C   UNL A   1      42.918  27.763  32.412  1.00  0.00     0.029 A 
ATOM     55  C   UNL A   1      42.318  28.780  33.135  1.00  0.00     0.049 A 
ATOM     56  H   UNL A   1      40.676  29.998  32.606  1.00  0.00     0.167 HD
ATOM     57  C   UNL A   1      42.023  30.279  35.088  1.00  0.00     0.074 A 
ATOM     58  C   UNL A   1      42.369  30.751  36.413  1.00  0.00     0.031 C 
ATOM     59  C   UNL A   1      42.660  29.270  34.447  1.00  0.00     0.037 A 
BRANCH  46  60
ATOM     60  C   UNL A   1      40.324  27.936  28.884  1.00  0.00     0.064 A 
ATOM     61  C   UNL A   1      41.080  28.281  27.753  1.00  0.00     0.173 A 
ATOM     62  C   UNL A   1      39.637  26.714  28.865  1.00  0.00     0.173 A 
ATOM     63  F   UNL A   1      41.747  29.444  27.715  1.00  0.00    -0.203 F 
ATOM     64  C   UNL A   1      41.122  27.447  26.638  1.00  0.00     0.198 A 
ATOM     65  C   UNL A   1      39.709  25.867  27.762  1.00  0.00     0.198 A 
ATOM     66  F   UNL A   1      38.903  26.332  29.921  1.00  0.00    -0.203 F 
ATOM     67  F   UNL A   1      41.810  27.822  25.550  1.00  0.00    -0.200 F 
ATOM     68  C   UNL A   1      40.444  26.238  26.646  1.00  0.00     0.200 A 
ATOM     69  F   UNL A   1      39.066  24.691  27.778  1.00  0.00    -0.200 F 
ATOM     70  F   UNL A   1      40.496  25.432  25.577  1.00  0.00    -0.200 F 
ENDBRANCH  46  60
BRANCH  47  71
ATOM     71  C   UNL A   1      39.525  33.824  36.920  1.00  0.00     0.064 A 
ATOM     72  C   UNL A   1      38.740  33.412  38.006  1.00  0.00     0.173 A 
ATOM     73  C   UNL A   1      40.167  35.068  37.016  1.00  0.00     0.173 A 
ATOM     74  F   UNL A   1      38.090  32.239  37.956  1.00  0.00    -0.203 F 
ATOM     75  C   UNL A   1      38.578  34.222  39.129  1.00  0.00     0.198 A 
ATOM     76  C   UNL A   1      40.031  35.862  38.152  1.00  0.00     0.198 A 
ATOM     77  F   UNL A   1      40.935  35.507  36.009  1.00  0.00    -0.203 F 
ATOM     78  F   UNL A   1      37.779  33.827  40.127  1.00  0.00    -0.200 F 
ATOM     79  C   UNL A   1      39.229  35.445  39.203  1.00  0.00     0.200 A 
ATOM     80  F   UNL A   1      40.676  37.034  38.228  1.00  0.00    -0.200 F 
ATOM     81  F   UNL A   1      39.076  36.222  40.283  1.00  0.00    -0.200 F 
ENDBRANCH  47  71
BRANCH  59  82
ATOM     82  C   UNL A   1      43.830  28.637  35.145  1.00  0.00     0.064 A 
ATOM     83  C   UNL A   1      45.133  29.138  35.009  1.00  0.00     0.173 A 
ATOM     84  C   UNL A   1      43.634  27.538  35.997  1.00  0.00     0.173 A 
ATOM     85  F   UNL A   1      45.376  30.176  34.197  1.00  0.00    -0.203 F 
ATOM     86  C   UNL A   1      46.200  28.544  35.677  1.00  0.00     0.198 A 
ATOM     87  C   UNL A   1      44.697  26.969  36.690  1.00  0.00     0.198 A 
ATOM     88  F   UNL A   1      42.405  27.026  36.168  1.00  0.00    -0.203 F 
ATOM     89  F   UNL A   1      47.445  29.005  35.492  1.00  0.00    -0.200 F 
ATOM     90  C   UNL A   1      45.981  27.466  36.523  1.00  0.00     0.200 A 
ATOM     91  F   UNL A   1      44.480  25.940  37.520  1.00  0.00    -0.200 F 
ATOM     92  F   UNL A   1      47.007  26.903  37.174  1.00  0.00    -0.200 F 
ENDBRANCH  59  82
ENDBRANCH  33  34
ENDBRANCH  25  28
ENDBRANCH  23  24
ENDBRANCH   1  23
TORSDOF 13
ENDMDL
MODEL 2
REMARK VINA RESULT:     -12.2      1.790      7.649
REMARK SMILES C[NH2+][C@]1(C(=O)NCCCNC(=O)c2ccc(-c3c4nc(c(-c5c(F)c(F)c(F)c(F)c5F)c5ccc([nH]5)c(-c5c(F)c(F)c(F)c(F)c5F)c5nc(c(-c6c(F)c(F)c(F)c(F)c6F)c6ccc3[nH]6)C=C5)C=C4)cc2)CCC[C@@H](Sc2nccs2)C1
REMARK SMILES IDX 8 1 7 2 6 3 4 4 5 5 3 7 76 8 86 9 77 10 79 11 78 12 2 13
REMARK SMILES IDX 1 14 80 17 81 18 82 19 85 20 83 21 84 22 9 23 10 24 11 25
REMARK SMILES IDX 12 27 13 28 14 29 75 30 15 31 74 32 16 33 17 34 18 35 68 36
REMARK SMILES IDX 19 37 73 38 67 39 69 40 20 41 72 42 66 43 65 44 21 46 53 47
REMARK SMILES IDX 33 48 52 49 34 50 37 51 51 52 70 53 35 54 36 55 50 57 71 58
REMARK SMILES IDX 38 59 22 60 23 61 31 62 24 63 25 64 29 65 32 66 26 67 27 68
REMARK SMILES IDX 30 69 28 70 54 71 55 72 63 73 56 74 57 75 61 76 64 77 58 78
REMARK SMILES IDX 59 79 62 80 60 81 39 82 40 83 48 84 41 85 42 86 46 87 49 88
REMARK SMILES IDX 43 89 44 90 47 91 45 92
REMARK H PARENT 6 6 2 15 2 16 10 26 69 45 37 56
REMARK Flexibility Score: inf
ROOT
ATOM      1  C   UNL A   1      31.488  31.220  26.126  1.00  0.00     0.042 C 
ENDROOT
BRANCH   1   2
ATOM      2  C   UNL A   1      31.648  29.799  25.608  1.00  0.00     0.118 C 
BRANCH   2   3
ATOM      3  N   UNL A   1      32.681  29.703  24.591  1.00  0.00    -0.351 N 
ATOM      4  C   UNL A   1      32.815  28.901  23.497  1.00  0.00     0.281 C 
ATOM      5  O   UNL A   1      33.889  29.022  22.893  1.00  0.00    -0.268 OA
ATOM      6  H   UNL A   1      33.424  30.335  24.716  1.00  0.00     0.163 HD
BRANCH   4   7
ATOM      7  C   UNL A   1      31.714  27.850  23.063  1.00  0.00     0.176 C 
ATOM      8  C   UNL A   1      31.748  26.705  24.111  1.00  0.00     0.079 C 
ATOM      9  C   UNL A   1      30.336  28.564  22.940  1.00  0.00     0.094 C 
ATOM     10  C   UNL A   1      30.506  25.827  24.152  1.00  0.00     0.008 C 
ATOM     11  C   UNL A   1      29.117  27.648  23.118  1.00  0.00     0.061 C 
ATOM     12  C   UNL A   1      29.243  26.668  24.286  1.00  0.00     0.015 C 
BRANCH   7  13
ATOM     13  N   UNL A   1      32.179  27.316  21.756  1.00  0.00    -0.336 N 
ATOM     14  C   UNL A   1      32.767  26.009  21.635  1.00  0.00     0.331 C 
ATOM     15  H   UNL A   1      31.367  27.324  21.139  1.00  0.00     0.346 HD
ATOM     16  H   UNL A   1      32.967  27.927  21.543  1.00  0.00     0.346 HD
ENDBRANCH   7  13
BRANCH  11  17
ATOM     17  S   UNL A   1      27.539  28.578  23.155  1.00  0.00    -0.092 SA
BRANCH  17  18
ATOM     18  C   UNL A   1      27.948  30.123  22.446  1.00  0.00     0.150 A 
ATOM     19  N   UNL A   1      28.043  30.297  21.146  1.00  0.00    -0.238 NA
ATOM     20  S   UNL A   1      28.194  31.525  23.405  1.00  0.00    -0.116 S 
ATOM     21  C   UNL A   1      28.277  31.633  20.875  1.00  0.00     0.124 A 
ATOM     22  C   UNL A   1      28.407  32.449  21.978  1.00  0.00     0.087 A 
ENDBRANCH  17  18
ENDBRANCH  11  17
ENDBRANCH   4   7
ENDBRANCH   2   3
ENDBRANCH   1   2
BRANCH   1  23
ATOM     23  C   UNL A   1      32.449  31.576  27.250  1.00  0.00     0.118 C 
BRANCH  23  24
ATOM     24  N   UNL A   1      32.798  32.990  27.262  1.00  0.00    -0.352 N 
ATOM     25  C   UNL A   1      33.856  33.636  27.850  1.00  0.00     0.251 C 
ATOM     26  H   UNL A   1      32.175  33.574  26.772  1.00  0.00     0.163 HD
ATOM     27  O   UNL A   1      33.856  34.860  27.930  1.00  0.00    -0.269 OA
BRANCH  25  28
ATOM     28  C   UNL A   1      34.984  32.863  28.415  1.00  0.00     0.039 A 
ATOM     29  C   UNL A   1      36.257  33.438  28.427  1.00  0.00     0.014 A 
ATOM     30  C   UNL A   1      34.796  31.576  28.923  1.00  0.00     0.014 A 
ATOM     31  C   UNL A   1      37.322  32.753  29.018  1.00  0.00     0.010 A 
ATOM     32  C   UNL A   1      35.831  30.938  29.600  1.00  0.00     0.010 A 
ATOM     33  C   UNL A   1      37.107  31.518  29.651  1.00  0.00    -0.014 A 
BRANCH  33  34
ATOM     34  C   UNL A   1      38.202  30.815  30.367  1.00  0.00     0.031 A 
ATOM     35  C   UNL A   1      38.482  31.125  31.812  1.00  0.00     0.074 A 
ATOM     36  C   UNL A   1      38.989  29.949  29.698  1.00  0.00     0.049 A 
ATOM     37  N   UNL A   1      39.438  30.676  32.587  1.00  0.00    -0.248 NA
ATOM     38  C   UNL A   1      37.585  32.091  32.468  1.00  0.00     0.031 C 
ATOM     39  C   UNL A   1      38.852  29.601  28.282  1.00  0.00     0.029 A 
ATOM     40  N   UNL A   1      40.068  29.210  30.116  1.00  0.00    -0.354 N 
ATOM     41  C   UNL A   1      39.266  31.315  33.808  1.00  0.00     0.074 A 
ATOM     42  C   UNL A   1      38.153  32.225  33.657  1.00  0.00     0.031 C 
ATOM     43  C   UNL A   1      39.792  28.699  27.957  1.00  0.00     0.029 A 
ATOM     44  C   UNL A   1      40.626  28.439  29.125  1.00  0.00     0.049 A 
ATOM     45  H   UNL A   1      40.410  29.231  31.039  1.00  0.00     0.167 HD
ATOM     46  C   UNL A   1      39.957  31.137  34.959  1.00  0.00     0.037 A 
ATOM     47  C   UNL A   1      41.696  27.621  29.154  1.00  0.00     0.037 A 
ATOM     48  C   UNL A   1      41.049  30.212  35.112  1.00  0.00     0.049 A 
ATOM     49  C   UNL A   1      42.455  27.453  30.443  1.00  0.00     0.074 A 
ATOM     50  C   UNL A   1      41.775  29.915  36.251  1.00  0.00     0.029 A 
ATOM     51  N   UNL A   1      41.574  29.435  34.088  1.00  0.00    -0.354 N 
ATOM     52  N   UNL A   1      42.238  28.008  31.611  1.00  0.00    -0.248 NA
ATOM     53  C   UNL A   1      43.605  26.540  30.419  1.00  0.00     0.031 C 
ATOM     54  C   UNL A   1      42.776  29.001  35.906  1.00  0.00     0.029 A 
ATOM     55  C   UNL A   1      42.633  28.679  34.566  1.00  0.00     0.049 A 
ATOM     56  H   UNL A   1      41.244  29.423  33.161  1.00  0.00     0.167 HD
ATOM     57  C   UNL A   1      43.198  27.486  32.467  1.00  0.00     0.074 A 
ATOM     58  C   UNL A   1      43.991  26.559  31.686  1.00  0.00     0.031 C 
ATOM     59  C   UNL A   1      43.404  27.749  33.780  1.00  0.00     0.037 A 
BRANCH  46  60
ATOM     60  C   UNL A   1      39.552  31.959  36.150  1.00  0.00     0.064 A 
ATOM     61  C   UNL A   1      40.220  33.146  36.488  1.00  0.00     0.173 A 
ATOM     62  C   UNL A   1      38.456  31.578  36.939  1.00  0.00     0.173 A 
ATOM     63  F   UNL A   1      41.281  33.552  35.773  1.00  0.00    -0.203 F 
ATOM     64  C   UNL A   1      39.824  33.905  37.587  1.00  0.00     0.198 A 
ATOM     65  C   UNL A   1      38.041  32.356  38.017  1.00  0.00     0.198 A 
ATOM     66  F   UNL A   1      37.778  30.455  36.658  1.00  0.00    -0.203 F 
ATOM     67  F   UNL A   1      40.509  35.008  37.919  1.00  0.00    -0.200 F 
ATOM     68  C   UNL A   1      38.731  33.514  38.345  1.00  0.00     0.200 A 
ATOM     69  F   UNL A   1      36.975  31.985  38.739  1.00  0.00    -0.200 F 
ATOM     70  F   UNL A   1      38.344  34.251  39.395  1.00  0.00    -0.200 F 
ENDBRANCH  46  60
BRANCH  47  71
ATOM     71  C   UNL A   1      42.105  26.885  27.928  1.00  0.00     0.064 A 
ATOM     72  C   UNL A   1      41.600  25.606  27.655  1.00  0.00     0.173 A 
ATOM     73  C   UNL A   1      43.017  27.433  27.015  1.00  0.00     0.173 A 
ATOM     74  F   UNL A   1      40.739  25.029  28.506  1.00  0.00    -0.203 F 
ATOM     75  C   UNL A   1      42.013  24.892  26.530  1.00  0.00     0.198 A 
ATOM     76  C   UNL A   1      43.404  26.733  25.874  1.00  0.00     0.198 A 
ATOM     77  F   UNL A   1      43.526  28.656  27.225  1.00  0.00    -0.203 F 
ATOM     78  F   UNL A   1      41.555  23.651  26.323  1.00  0.00    -0.200 F 
ATOM     79  C   UNL A   1      42.910  25.459  25.638  1.00  0.00     0.200 A 
ATOM     80  F   UNL A   1      44.257  27.291  25.006  1.00  0.00    -0.200 F 
ATOM     81  F   UNL A   1      43.305  24.775  24.556  1.00  0.00    -0.200 F 
ENDBRANCH  47  71
BRANCH  59  82
ATOM     82  C   UNL A   1      44.501  26.992  34.473  1.00  0.00     0.064 A 
ATOM     83  C   UNL A   1      45.787  27.531  34.631  1.00  0.00     0.173 A 
ATOM     84  C   UNL A   1      44.247  25.727  35.025  1.00  0.00     0.173 A 
ATOM     85  F   UNL A   1      46.085  28.730  34.111  1.00  0.00    -0.203 F 
ATOM     86  C   UNL A   1      46.784  26.817  35.291  1.00  0.00     0.198 A 
ATOM     87  C   UNL A   1      45.236  25.032  35.713  1.00  0.00     0.198 A 
ATOM     88  F   UNL A   1      43.031  25.170  34.909  1.00  0.00    -0.203 F 
ATOM     89  F   UNL A   1      48.020  27.327  35.384  1.00  0.00    -0.200 F 
ATOM     90  C   UNL A   1      46.506  25.574  35.838  1.00  0.00     0.200 A 
ATOM     91  F   UNL A   1      44.960  23.839  36.256  1.00  0.00    -0.200 F 
ATOM     92  F   UNL A   1      47.465  24.894  36.481  1.00  0.00    -0.200 F 
ENDBRANCH  59  82
ENDBRANCH  33  34
ENDBRANCH  25  28
ENDBRANCH  23  24
ENDBRANCH   1  23
TORSDOF 13
ENDMDL
MODEL 3
REMARK VINA RESULT:     -12.0      6.412     11.611
REMARK SMILES C[NH2+][C@]1(C(=O)NCCCNC(=O)c2ccc(-c3c4nc(c(-c5c(F)c(F)c(F)c(F)c5F)c5ccc([nH]5)c(-c5c(F)c(F)c(F)c(F)c5F)c5nc(c(-c6c(F)c(F)c(F)c(F)c6F)c6ccc3[nH]6)C=C5)C=C4)cc2)CCC[C@@H](Sc2nccs2)C1
REMARK SMILES IDX 8 1 7 2 6 3 4 4 5 5 3 7 76 8 86 9 77 10 79 11 78 12 2 13
REMARK SMILES IDX 1 14 80 17 81 18 82 19 85 20 83 21 84 22 9 23 10 24 11 25
REMARK SMILES IDX 12 27 13 28 14 29 75 30 15 31 74 32 16 33 17 34 18 35 68 36
REMARK SMILES IDX 19 37 73 38 67 39 69 40 20 41 72 42 66 43 65 44 21 46 53 47
REMARK SMILES IDX 33 48 52 49 34 50 37 51 51 52 70 53 35 54 36 55 50 57 71 58
REMARK SMILES IDX 38 59 22 60 23 61 31 62 24 63 25 64 29 65 32 66 26 67 27 68
REMARK SMILES IDX 30 69 28 70 54 71 55 72 63 73 56 74 57 75 61 76 64 77 58 78
REMARK SMILES IDX 59 79 62 80 60 81 39 82 40 83 48 84 41 85 42 86 46 87 49 88
REMARK SMILES IDX 43 89 44 90 47 91 45 92
REMARK H PARENT 6 6 2 15 2 16 10 26 69 45 37 56
REMARK Flexibility Score: inf
ROOT
ATOM      1  C   UNL A   1      38.130  19.546  24.967  1.00  0.00     0.042 C 
ENDROOT
BRANCH   1   2
ATOM      2  C   UNL A   1      36.965  20.523  24.972  1.00  0.00     0.118 C 
BRANCH   2   3
ATOM      3  N   UNL A   1      37.406  21.895  25.159  1.00  0.00    -0.351 N 
ATOM      4  C   UNL A   1      36.725  23.046  25.424  1.00  0.00     0.281 C 
ATOM      5  O   UNL A   1      37.419  24.071  25.422  1.00  0.00    -0.268 OA
ATOM      6  H   UNL A   1      38.378  22.016  25.077  1.00  0.00     0.163 HD
BRANCH   4   7
ATOM      7  C   UNL A   1      35.160  23.083  25.657  1.00  0.00     0.176 C 
ATOM      8  C   UNL A   1      34.698  24.536  25.364  1.00  0.00     0.079 C 
ATOM      9  C   UNL A   1      34.478  22.003  24.768  1.00  0.00     0.094 C 
ATOM     10  C   UNL A   1      33.209  24.699  25.092  1.00  0.00     0.008 C 
ATOM     11  C   UNL A   1      33.010  22.287  24.419  1.00  0.00     0.061 C 
ATOM     12  C   UNL A   1      32.739  23.736  24.011  1.00  0.00     0.015 C 
BRANCH   7  13
ATOM     13  N   UNL A   1      34.975  22.805  27.105  1.00  0.00    -0.336 N 
ATOM     14  C   UNL A   1      34.183  21.699  27.572  1.00  0.00     0.331 C 
ATOM     15  H   UNL A   1      35.910  22.671  27.491  1.00  0.00     0.346 HD
ATOM     16  H   UNL A   1      34.425  23.608  27.409  1.00  0.00     0.346 HD
ENDBRANCH   7  13
BRANCH  11  17
ATOM     17  S   UNL A   1      32.327  21.084  23.218  1.00  0.00    -0.092 SA
BRANCH  17  18
ATOM     18  C   UNL A   1      32.553  19.538  24.001  1.00  0.00     0.150 A 
ATOM     19  N   UNL A   1      32.447  19.386  25.303  1.00  0.00    -0.238 NA
ATOM     20  S   UNL A   1      32.871  18.106  23.109  1.00  0.00    -0.116 S 
ATOM     21  C   UNL A   1      32.575  18.047  25.625  1.00  0.00     0.124 A 
ATOM     22  C   UNL A   1      32.827  17.203  24.565  1.00  0.00     0.087 A 
ENDBRANCH  17  18
ENDBRANCH  11  17
ENDBRANCH   4   7
ENDBRANCH   2   3
ENDBRANCH   1   2
BRANCH   1  23
ATOM     23  C   UNL A   1      39.353  20.044  25.721  1.00  0.00     0.118 C 
BRANCH  23  24
ATOM     24  N   UNL A   1      40.372  19.014  25.879  1.00  0.00    -0.352 N 
ATOM     25  C   UNL A   1      41.726  19.130  26.070  1.00  0.00     0.251 C 
ATOM     26  H   UNL A   1      40.035  18.090  25.841  1.00  0.00     0.163 HD
ATOM     27  O   UNL A   1      42.444  18.142  25.961  1.00  0.00    -0.269 OA
BRANCH  25  28
ATOM     28  C   UNL A   1      42.327  20.447  26.378  1.00  0.00     0.039 A 
ATOM     29  C   UNL A   1      42.831  21.220  25.328  1.00  0.00     0.014 A 
ATOM     30  C   UNL A   1      42.406  20.918  27.690  1.00  0.00     0.014 A 
ATOM     31  C   UNL A   1      43.339  22.495  25.587  1.00  0.00     0.010 A 
ATOM     32  C   UNL A   1      42.819  22.224  27.935  1.00  0.00     0.010 A 
ATOM     33  C   UNL A   1      43.295  23.025  26.887  1.00  0.00    -0.014 A 
BRANCH  33  34
ATOM     34  C   UNL A   1      43.743  24.413  27.172  1.00  0.00     0.031 A 
ATOM     35  C   UNL A   1      42.761  25.438  27.670  1.00  0.00     0.074 A 
ATOM     36  C   UNL A   1      45.017  24.767  26.916  1.00  0.00     0.049 A 
ATOM     37  N   UNL A   1      42.940  26.713  27.903  1.00  0.00    -0.248 NA
ATOM     38  C   UNL A   1      41.385  24.973  27.914  1.00  0.00     0.031 C 
ATOM     39  C   UNL A   1      46.052  23.879  26.383  1.00  0.00     0.029 A 
ATOM     40  N   UNL A   1      45.659  25.973  27.058  1.00  0.00    -0.354 N 
ATOM     41  C   UNL A   1      41.703  27.203  28.301  1.00  0.00     0.074 A 
ATOM     42  C   UNL A   1      40.768  26.104  28.224  1.00  0.00     0.031 C 
ATOM     43  C   UNL A   1      47.203  24.562  26.269  1.00  0.00     0.029 A 
ATOM     44  C   UNL A   1      46.978  25.945  26.675  1.00  0.00     0.049 A 
ATOM     45  H   UNL A   1      45.215  26.782  27.403  1.00  0.00     0.167 HD
ATOM     46  C   UNL A   1      41.383  28.450  28.720  1.00  0.00     0.037 A 
ATOM     47  C   UNL A   1      47.899  26.927  26.646  1.00  0.00     0.037 A 
ATOM     48  C   UNL A   1      42.323  29.536  28.819  1.00  0.00     0.049 A 
ATOM     49  C   UNL A   1      47.513  28.308  27.103  1.00  0.00     0.074 A 
ATOM     50  C   UNL A   1      42.111  30.820  29.287  1.00  0.00     0.029 A 
ATOM     51  N   UNL A   1      43.656  29.463  28.438  1.00  0.00    -0.354 N 
ATOM     52  N   UNL A   1      46.357  28.741  27.547  1.00  0.00    -0.248 NA
ATOM     53  C   UNL A   1      48.561  29.337  27.062  1.00  0.00     0.031 C 
ATOM     54  C   UNL A   1      43.300  31.542  29.137  1.00  0.00     0.029 A 
ATOM     55  C   UNL A   1      44.270  30.690  28.636  1.00  0.00     0.049 A 
ATOM     56  H   UNL A   1      44.098  28.661  28.079  1.00  0.00     0.167 HD
ATOM     57  C   UNL A   1      46.548  30.077  27.870  1.00  0.00     0.074 A 
ATOM     58  C   UNL A   1      47.935  30.381  27.584  1.00  0.00     0.031 C 
ATOM     59  C   UNL A   1      45.656  30.973  28.360  1.00  0.00     0.037 A 
BRANCH  46  60
ATOM     60  C   UNL A   1      39.955  28.711  29.108  1.00  0.00     0.064 A 
ATOM     61  C   UNL A   1      39.015  29.188  28.181  1.00  0.00     0.173 A 
ATOM     62  C   UNL A   1      39.511  28.442  30.411  1.00  0.00     0.173 A 
ATOM     63  F   UNL A   1      39.389  29.472  26.925  1.00  0.00    -0.203 F 
ATOM     64  C   UNL A   1      37.691  29.411  28.553  1.00  0.00     0.198 A 
ATOM     65  C   UNL A   1      38.179  28.634  30.770  1.00  0.00     0.198 A 
ATOM     66  F   UNL A   1      40.365  27.980  31.336  1.00  0.00    -0.203 F 
ATOM     67  F   UNL A   1      36.824  29.915  27.663  1.00  0.00    -0.200 F 
ATOM     68  C   UNL A   1      37.273  29.127  29.843  1.00  0.00     0.200 A 
ATOM     69  F   UNL A   1      37.773  28.343  32.014  1.00  0.00    -0.200 F 
ATOM     70  F   UNL A   1      35.996  29.331  30.196  1.00  0.00    -0.200 F 
ENDBRANCH  46  60
BRANCH  47  71
ATOM     71  C   UNL A   1      49.283  26.638  26.182  1.00  0.00     0.064 A 
ATOM     72  C   UNL A   1      50.247  26.132  27.065  1.00  0.00     0.173 A 
ATOM     73  C   UNL A   1      49.675  26.876  24.857  1.00  0.00     0.173 A 
ATOM     74  F   UNL A   1      49.927  25.905  28.348  1.00  0.00    -0.203 F 
ATOM     75  C   UNL A   1      51.557  25.900  26.648  1.00  0.00     0.198 A 
ATOM     76  C   UNL A   1      50.976  26.613  24.432  1.00  0.00     0.198 A 
ATOM     77  F   UNL A   1      48.792  27.354  23.969  1.00  0.00    -0.203 F 
ATOM     78  F   UNL A   1      52.470  25.467  27.526  1.00  0.00    -0.200 F 
ATOM     79  C   UNL A   1      51.919  26.136  25.330  1.00  0.00     0.200 A 
ATOM     80  F   UNL A   1      51.317  26.825  23.154  1.00  0.00    -0.200 F 
ATOM     81  F   UNL A   1      53.176  25.910  24.928  1.00  0.00    -0.200 F 
ENDBRANCH  47  71
BRANCH  59  82
ATOM     82  C   UNL A   1      46.160  32.355  28.664  1.00  0.00     0.064 A 
ATOM     83  C   UNL A   1      46.109  33.387  27.715  1.00  0.00     0.173 A 
ATOM     84  C   UNL A   1      46.661  32.659  29.939  1.00  0.00     0.173 A 
ATOM     85  F   UNL A   1      45.652  33.145  26.478  1.00  0.00    -0.203 F 
ATOM     86  C   UNL A   1      46.567  34.665  28.024  1.00  0.00     0.198 A 
ATOM     87  C   UNL A   1      47.086  33.946  30.255  1.00  0.00     0.198 A 
ATOM     88  F   UNL A   1      46.723  31.710  30.886  1.00  0.00    -0.203 F 
ATOM     89  F   UNL A   1      46.559  35.622  27.086  1.00  0.00    -0.200 F 
ATOM     90  C   UNL A   1      47.047  34.945  29.295  1.00  0.00     0.200 A 
ATOM     91  F   UNL A   1      47.533  34.219  31.488  1.00  0.00    -0.200 F 
ATOM     92  F   UNL A   1      47.478  36.178  29.593  1.00  0.00    -0.200 F 
ENDBRANCH  59  82
ENDBRANCH  33  34
ENDBRANCH  25  28
ENDBRANCH  23  24
ENDBRANCH   1  23
TORSDOF 13
ENDMDL
