MODEL 1
REMARK VINA RESULT:     -12.0      0.000      0.000
REMARK SMILES Cc1cc(F)c([C@@H](C)[N@H+](CCC(=O)NCCCNC(=O)c2ccc(-c3c4nc(c(-c5c(F)c(F)c(F)c(F)c5F)c5ccc([nH]5)c(-c5c(F)c(F)c(F)c(F)c5F)c5nc(c(-c6c(F)c(F)c(F)c(F)c6F)c6ccc3[nH]6)C=C5)C=C4)cc2)C(C)(C)C)cc1F
REMARK SMILES IDX 15 1 14 2 12 3 13 4 11 6 10 7 9 8 7 10 8 11 6 12 1 13 2 14
REMARK SMILES IDX 3 15 89 16 4 17 88 18 90 19 5 20 84 21 85 22 86 23 87 24
REMARK SMILES IDX 16 25 17 26 18 27 19 28 20 30 21 31 22 32 83 33 23 34 82 35
REMARK SMILES IDX 24 36 25 37 26 38 76 39 27 40 81 41 75 42 77 43 28 44 80 45
REMARK SMILES IDX 74 46 73 47 29 49 61 50 41 51 60 52 42 53 45 54 59 55 78 56
REMARK SMILES IDX 43 57 44 58 58 60 79 61 46 62 30 63 31 64 39 65 32 66 33 67
REMARK SMILES IDX 37 68 40 69 34 70 35 71 38 72 36 73 62 74 63 75 71 76 64 77
REMARK SMILES IDX 65 78 69 79 72 80 66 81 67 82 70 83 68 84 47 85 48 86 56 87
REMARK SMILES IDX 49 88 50 89 54 90 57 91 51 92 52 93 55 94 53 95
REMARK H PARENT 14 5 9 9 18 29 77 48 45 59
REMARK Flexibility Score: inf
ROOT
ATOM      1  C   UNL A   1      33.794  30.669  27.582  1.00  0.00     0.117 C 
ENDROOT
BRANCH   1   2
ATOM      2  N   UNL A   1      34.075  29.975  26.339  1.00  0.00    -0.356 N 
ATOM      3  C   UNL A   1      33.676  28.745  25.911  1.00  0.00     0.225 C 
ATOM      4  O   UNL A   1      34.003  28.397  24.773  1.00  0.00    -0.275 OA
ATOM      5  H   UNL A   1      34.643  30.470  25.707  1.00  0.00     0.163 HD
BRANCH   3   6
ATOM      6  C   UNL A   1      32.868  27.825  26.802  1.00  0.00     0.161 C 
BRANCH   6   7
ATOM      7  C   UNL A   1      31.524  27.478  26.156  1.00  0.00     0.273 C 
BRANCH   7   8
ATOM      8  N   UNL A   1      31.682  26.747  24.871  1.00  0.00    -0.324 N 
ATOM      9  H   UNL A   1      32.606  26.950  24.490  1.00  0.00     0.349 HD
BRANCH   8  10
ATOM     10  C   UNL A   1      31.750  25.251  25.054  1.00  0.00     0.215 C 
ATOM     11  C   UNL A   1      31.559  24.711  26.497  1.00  0.00     0.081 C 
BRANCH  10  12
ATOM     12  C   UNL A   1      33.055  24.620  24.562  1.00  0.00     0.048 A 
ATOM     13  C   UNL A   1      36.739  22.679  23.352  1.00  0.00     0.047 C 
ATOM     14  C   UNL A   1      35.470  23.374  23.738  1.00  0.00    -0.012 A 
ATOM     15  C   UNL A   1      34.316  23.270  22.959  1.00  0.00     0.046 A 
ATOM     16  C   UNL A   1      35.420  24.156  24.893  1.00  0.00     0.126 A 
ATOM     17  C   UNL A   1      33.137  23.902  23.362  1.00  0.00     0.132 A 
ATOM     18  C   UNL A   1      34.241  24.784  25.297  1.00  0.00     0.052 A 
ATOM     19  F   UNL A   1      36.518  24.298  25.648  1.00  0.00    -0.207 F 
ATOM     20  F   UNL A   1      32.076  23.826  22.548  1.00  0.00    -0.206 F 
ENDBRANCH  10  12
ENDBRANCH   8  10
BRANCH   8  21
ATOM     21  C   UNL A   1      30.750  27.275  23.807  1.00  0.00     0.090 C 
ATOM     22  C   UNL A   1      30.586  28.819  23.943  1.00  0.00     0.078 C 
ATOM     23  C   UNL A   1      31.270  27.077  22.365  1.00  0.00     0.078 C 
ATOM     24  C   UNL A   1      29.340  26.647  23.882  1.00  0.00     0.078 C 
ENDBRANCH   8  21
ENDBRANCH   7   8
ENDBRANCH   6   7
ENDBRANCH   3   6
ENDBRANCH   1   2
BRANCH   1  25
ATOM     25  C   UNL A   1      33.766  32.190  27.451  1.00  0.00     0.042 C 
BRANCH  25  26
ATOM     26  C   UNL A   1      32.373  32.818  27.432  1.00  0.00     0.118 C 
BRANCH  26  27
ATOM     27  N   UNL A   1      32.453  34.255  27.652  1.00  0.00    -0.352 N 
ATOM     28  C   UNL A   1      33.033  35.017  28.631  1.00  0.00     0.251 C 
ATOM     29  H   UNL A   1      32.000  34.784  26.958  1.00  0.00     0.163 HD
ATOM     30  O   UNL A   1      32.624  36.177  28.749  1.00  0.00    -0.269 OA
BRANCH  28  31
ATOM     31  C   UNL A   1      34.134  34.562  29.528  1.00  0.00     0.039 A 
ATOM     32  C   UNL A   1      33.932  33.927  30.756  1.00  0.00     0.014 A 
ATOM     33  C   UNL A   1      35.441  34.610  29.013  1.00  0.00     0.014 A 
ATOM     34  C   UNL A   1      35.017  33.385  31.466  1.00  0.00     0.010 A 
ATOM     35  C   UNL A   1      36.515  34.015  29.690  1.00  0.00     0.010 A 
ATOM     36  C   UNL A   1      36.316  33.391  30.928  1.00  0.00    -0.014 A 
BRANCH  36  37
ATOM     37  C   UNL A   1      37.433  32.673  31.609  1.00  0.00     0.031 A 
ATOM     38  C   UNL A   1      38.132  31.509  30.959  1.00  0.00     0.074 A 
ATOM     39  C   UNL A   1      37.807  33.043  32.852  1.00  0.00     0.049 A 
ATOM     40  N   UNL A   1      39.132  30.789  31.410  1.00  0.00    -0.248 NA
ATOM     41  C   UNL A   1      37.638  31.085  29.641  1.00  0.00     0.031 C 
ATOM     42  C   UNL A   1      37.182  34.107  33.639  1.00  0.00     0.029 A 
ATOM     43  N   UNL A   1      38.801  32.565  33.674  1.00  0.00    -0.354 N 
ATOM     44  C   UNL A   1      39.382  29.830  30.439  1.00  0.00     0.074 A 
ATOM     45  C   UNL A   1      38.407  30.034  29.387  1.00  0.00     0.031 C 
ATOM     46  C   UNL A   1      37.826  34.224  34.812  1.00  0.00     0.029 A 
ATOM     47  C   UNL A   1      38.892  33.226  34.876  1.00  0.00     0.049 A 
ATOM     48  H   UNL A   1      39.393  31.819  33.425  1.00  0.00     0.167 HD
ATOM     49  C   UNL A   1      40.348  28.880  30.413  1.00  0.00     0.037 A 
ATOM     50  C   UNL A   1      39.734  33.058  35.913  1.00  0.00     0.037 A 
ATOM     51  C   UNL A   1      41.343  28.680  31.435  1.00  0.00     0.049 A 
ATOM     52  C   UNL A   1      40.801  31.999  35.856  1.00  0.00     0.074 A 
ATOM     53  C   UNL A   1      42.407  27.794  31.438  1.00  0.00     0.029 A 
ATOM     54  N   UNL A   1      41.395  29.368  32.636  1.00  0.00    -0.354 N 
ATOM     55  N   UNL A   1      41.076  31.157  34.892  1.00  0.00    -0.248 NA
ATOM     56  C   UNL A   1      41.674  31.868  37.033  1.00  0.00     0.031 C 
ATOM     57  C   UNL A   1      43.082  27.918  32.657  1.00  0.00     0.029 A 
ATOM     58  C   UNL A   1      42.459  28.906  33.398  1.00  0.00     0.049 A 
ATOM     59  H   UNL A   1      40.770  30.078  32.908  1.00  0.00     0.167 HD
ATOM     60  C   UNL A   1      42.155  30.407  35.338  1.00  0.00     0.074 A 
ATOM     61  C   UNL A   1      42.500  30.902  36.654  1.00  0.00     0.031 C 
ATOM     62  C   UNL A   1      42.797  29.395  34.709  1.00  0.00     0.037 A 
BRANCH  49  63
ATOM     63  C   UNL A   1      40.405  27.975  29.219  1.00  0.00     0.064 A 
ATOM     64  C   UNL A   1      39.629  26.809  29.156  1.00  0.00     0.173 A 
ATOM     65  C   UNL A   1      41.162  28.325  28.092  1.00  0.00     0.173 A 
ATOM     66  F   UNL A   1      38.890  26.433  30.211  1.00  0.00    -0.203 F 
ATOM     67  C   UNL A   1      39.616  26.020  28.010  1.00  0.00     0.198 A 
ATOM     68  C   UNL A   1      41.132  27.545  26.940  1.00  0.00     0.198 A 
ATOM     69  F   UNL A   1      41.911  29.439  28.100  1.00  0.00    -0.203 F 
ATOM     70  F   UNL A   1      38.880  24.901  27.976  1.00  0.00    -0.200 F 
ATOM     71  C   UNL A   1      40.360  26.393  26.900  1.00  0.00     0.200 A 
ATOM     72  F   UNL A   1      41.840  27.913  25.863  1.00  0.00    -0.200 F 
ATOM     73  F   UNL A   1      40.331  25.643  25.790  1.00  0.00    -0.200 F 
ENDBRANCH  49  63
BRANCH  50  74
ATOM     74  C   UNL A   1      39.621  33.940  37.102  1.00  0.00     0.064 A 
ATOM     75  C   UNL A   1      40.265  35.185  37.133  1.00  0.00     0.173 A 
ATOM     76  C   UNL A   1      38.871  33.561  38.224  1.00  0.00     0.173 A 
ATOM     77  F   UNL A   1      41.016  35.576  36.092  1.00  0.00    -0.203 F 
ATOM     78  C   UNL A   1      40.169  36.015  38.246  1.00  0.00     0.198 A 
ATOM     79  C   UNL A   1      38.759  34.403  39.328  1.00  0.00     0.198 A 
ATOM     80  F   UNL A   1      38.240  32.379  38.241  1.00  0.00    -0.203 F 
ATOM     81  F   UNL A   1      40.822  37.185  38.265  1.00  0.00    -0.200 F 
ATOM     82  C   UNL A   1      39.412  35.626  39.341  1.00  0.00     0.200 A 
ATOM     83  F   UNL A   1      38.020  34.028  40.382  1.00  0.00    -0.200 F 
ATOM     84  F   UNL A   1      39.316  36.428  40.410  1.00  0.00    -0.200 F 
ENDBRANCH  50  74
BRANCH  62  85
ATOM     85  C   UNL A   1      43.943  28.744  35.424  1.00  0.00     0.064 A 
ATOM     86  C   UNL A   1      45.258  29.202  35.261  1.00  0.00     0.173 A 
ATOM     87  C   UNL A   1      43.719  27.695  36.329  1.00  0.00     0.173 A 
ATOM     88  F   UNL A   1      45.524  30.191  34.395  1.00  0.00    -0.203 F 
ATOM     89  C   UNL A   1      46.309  28.629  35.971  1.00  0.00     0.198 A 
ATOM     90  C   UNL A   1      44.770  27.138  37.053  1.00  0.00     0.198 A 
ATOM     91  F   UNL A   1      42.479  27.224  36.524  1.00  0.00    -0.203 F 
ATOM     92  F   UNL A   1      47.562  29.066  35.781  1.00  0.00    -0.200 F 
ATOM     93  C   UNL A   1      46.064  27.604  36.873  1.00  0.00     0.200 A 
ATOM     94  F   UNL A   1      44.529  26.154  37.931  1.00  0.00    -0.200 F 
ATOM     95  F   UNL A   1      47.075  27.062  37.566  1.00  0.00    -0.200 F 
ENDBRANCH  62  85
ENDBRANCH  36  37
ENDBRANCH  28  31
ENDBRANCH  26  27
ENDBRANCH  25  26
ENDBRANCH   1  25
TORSDOF 15
ENDMDL
MODEL 2
REMARK VINA RESULT:     -12.0      5.693      9.989
REMARK SMILES Cc1cc(F)c([C@@H](C)[N@H+](CCC(=O)NCCCNC(=O)c2ccc(-c3c4nc(c(-c5c(F)c(F)c(F)c(F)c5F)c5ccc([nH]5)c(-c5c(F)c(F)c(F)c(F)c5F)c5nc(c(-c6c(F)c(F)c(F)c(F)c6F)c6ccc3[nH]6)C=C5)C=C4)cc2)C(C)(C)C)cc1F
REMARK SMILES IDX 15 1 14 2 12 3 13 4 11 6 10 7 9 8 7 10 8 11 6 12 1 13 2 14
REMARK SMILES IDX 3 15 89 16 4 17 88 18 90 19 5 20 84 21 85 22 86 23 87 24
REMARK SMILES IDX 16 25 17 26 18 27 19 28 20 30 21 31 22 32 83 33 23 34 82 35
REMARK SMILES IDX 24 36 25 37 26 38 76 39 27 40 81 41 75 42 77 43 28 44 80 45
REMARK SMILES IDX 74 46 73 47 29 49 61 50 41 51 60 52 42 53 45 54 59 55 78 56
REMARK SMILES IDX 43 57 44 58 58 60 79 61 46 62 30 63 31 64 39 65 32 66 33 67
REMARK SMILES IDX 37 68 40 69 34 70 35 71 38 72 36 73 62 74 63 75 71 76 64 77
REMARK SMILES IDX 65 78 69 79 72 80 66 81 67 82 70 83 68 84 47 85 48 86 56 87
REMARK SMILES IDX 49 88 50 89 54 90 57 91 51 92 52 93 55 94 53 95
REMARK H PARENT 14 5 9 9 18 29 77 48 45 59
REMARK Flexibility Score: inf
ROOT
ATOM      1  C   UNL A   1      38.537  22.379  25.753  1.00  0.00     0.117 C 
ENDROOT
BRANCH   1   2
ATOM      2  N   UNL A   1      37.261  22.629  26.398  1.00  0.00    -0.356 N 
ATOM      3  C   UNL A   1      36.118  23.177  25.900  1.00  0.00     0.225 C 
ATOM      4  O   UNL A   1      35.133  23.229  26.640  1.00  0.00    -0.275 OA
ATOM      5  H   UNL A   1      37.214  22.360  27.343  1.00  0.00     0.163 HD
BRANCH   3   6
ATOM      6  C   UNL A   1      36.056  23.717  24.487  1.00  0.00     0.161 C 
BRANCH   6   7
ATOM      7  C   UNL A   1      34.980  22.995  23.671  1.00  0.00     0.273 C 
BRANCH   7   8
ATOM      8  N   UNL A   1      33.624  23.139  24.264  1.00  0.00    -0.324 N 
ATOM      9  H   UNL A   1      33.721  23.378  25.250  1.00  0.00     0.349 HD
BRANCH   8  10
ATOM     10  C   UNL A   1      32.876  24.336  23.733  1.00  0.00     0.215 C 
ATOM     11  C   UNL A   1      33.558  25.138  22.590  1.00  0.00     0.081 C 
BRANCH  10  12
ATOM     12  C   UNL A   1      32.527  25.378  24.797  1.00  0.00     0.048 A 
ATOM     13  C   UNL A   1      31.586  28.502  27.655  1.00  0.00     0.047 C 
ATOM     14  C   UNL A   1      31.903  27.395  26.696  1.00  0.00    -0.012 A 
ATOM     15  C   UNL A   1      30.904  26.556  26.198  1.00  0.00     0.046 A 
ATOM     16  C   UNL A   1      33.218  27.174  26.285  1.00  0.00     0.126 A 
ATOM     17  C   UNL A   1      31.224  25.553  25.279  1.00  0.00     0.132 A 
ATOM     18  C   UNL A   1      33.536  26.176  25.364  1.00  0.00     0.052 A 
ATOM     19  F   UNL A   1      34.203  27.945  26.767  1.00  0.00    -0.207 F 
ATOM     20  F   UNL A   1      30.242  24.734  24.880  1.00  0.00    -0.206 F 
ENDBRANCH  10  12
ENDBRANCH   8  10
BRANCH   8  21
ATOM     21  C   UNL A   1      32.887  21.821  24.303  1.00  0.00     0.090 C 
ATOM     22  C   UNL A   1      32.219  21.527  22.926  1.00  0.00     0.078 C 
ATOM     23  C   UNL A   1      33.804  20.600  24.546  1.00  0.00     0.078 C 
ATOM     24  C   UNL A   1      31.778  21.787  25.378  1.00  0.00     0.078 C 
ENDBRANCH   8  21
ENDBRANCH   7   8
ENDBRANCH   6   7
ENDBRANCH   3   6
ENDBRANCH   1   2
BRANCH   1  25
ATOM     25  C   UNL A   1      39.289  21.173  26.312  1.00  0.00     0.042 C 
BRANCH  25  26
ATOM     26  C   UNL A   1      39.308  19.940  25.411  1.00  0.00     0.118 C 
BRANCH  26  27
ATOM     27  N   UNL A   1      40.338  19.005  25.839  1.00  0.00    -0.352 N 
ATOM     28  C   UNL A   1      41.675  19.145  26.098  1.00  0.00     0.251 C 
ATOM     29  H   UNL A   1      40.007  18.088  25.967  1.00  0.00     0.163 HD
ATOM     30  O   UNL A   1      42.357  18.115  26.085  1.00  0.00    -0.269 OA
BRANCH  28  31
ATOM     31  C   UNL A   1      42.349  20.434  26.429  1.00  0.00     0.039 A 
ATOM     32  C   UNL A   1      42.855  21.320  25.475  1.00  0.00     0.014 A 
ATOM     33  C   UNL A   1      42.301  20.857  27.769  1.00  0.00     0.014 A 
ATOM     34  C   UNL A   1      43.330  22.586  25.858  1.00  0.00     0.010 A 
ATOM     35  C   UNL A   1      42.717  22.142  28.143  1.00  0.00     0.010 A 
ATOM     36  C   UNL A   1      43.237  23.027  27.190  1.00  0.00    -0.014 A 
BRANCH  36  37
ATOM     37  C   UNL A   1      43.593  24.427  27.563  1.00  0.00     0.031 A 
ATOM     38  C   UNL A   1      45.026  24.887  27.618  1.00  0.00     0.074 A 
ATOM     39  C   UNL A   1      42.619  25.299  27.899  1.00  0.00     0.049 A 
ATOM     40  N   UNL A   1      45.503  26.075  27.905  1.00  0.00    -0.248 NA
ATOM     41  C   UNL A   1      46.060  23.884  27.326  1.00  0.00     0.031 C 
ATOM     42  C   UNL A   1      41.192  24.985  27.959  1.00  0.00     0.029 A 
ATOM     43  N   UNL A   1      42.680  26.626  28.255  1.00  0.00    -0.354 N 
ATOM     44  C   UNL A   1      46.884  25.961  27.836  1.00  0.00     0.074 A 
ATOM     45  C   UNL A   1      47.175  24.579  27.513  1.00  0.00     0.031 C 
ATOM     46  C   UNL A   1      40.510  26.093  28.295  1.00  0.00     0.029 A 
ATOM     47  C   UNL A   1      41.452  27.191  28.503  1.00  0.00     0.049 A 
ATOM     48  H   UNL A   1      43.526  27.126  28.325  1.00  0.00     0.167 HD
ATOM     49  C   UNL A   1      47.825  26.922  28.004  1.00  0.00     0.037 A 
ATOM     50  C   UNL A   1      41.113  28.446  28.855  1.00  0.00     0.037 A 
ATOM     51  C   UNL A   1      47.554  28.305  28.297  1.00  0.00     0.049 A 
ATOM     52  C   UNL A   1      42.178  29.494  29.030  1.00  0.00     0.074 A 
ATOM     53  C   UNL A   1      48.451  29.356  28.396  1.00  0.00     0.029 A 
ATOM     54  N   UNL A   1      46.297  28.833  28.546  1.00  0.00    -0.354 N 
ATOM     55  N   UNL A   1      43.473  29.388  28.876  1.00  0.00    -0.248 NA
ATOM     56  C   UNL A   1      41.729  30.839  29.427  1.00  0.00     0.031 C 
ATOM     57  C   UNL A   1      47.743  30.511  28.741  1.00  0.00     0.029 A 
ATOM     58  C   UNL A   1      46.400  30.188  28.823  1.00  0.00     0.049 A 
ATOM     59  H   UNL A   1      45.456  28.321  28.528  1.00  0.00     0.167 HD
ATOM     60  C   UNL A   1      43.994  30.647  29.145  1.00  0.00     0.074 A 
ATOM     61  C   UNL A   1      42.874  31.510  29.456  1.00  0.00     0.031 C 
ATOM     62  C   UNL A   1      45.287  31.044  29.138  1.00  0.00     0.037 A 
BRANCH  49  63
ATOM     63  C   UNL A   1      49.262  26.525  27.853  1.00  0.00     0.064 A 
ATOM     64  C   UNL A   1      49.857  26.427  26.587  1.00  0.00     0.173 A 
ATOM     65  C   UNL A   1      50.075  26.340  28.980  1.00  0.00     0.173 A 
ATOM     66  F   UNL A   1      49.119  26.594  25.479  1.00  0.00    -0.203 F 
ATOM     67  C   UNL A   1      51.215  26.148  26.455  1.00  0.00     0.198 A 
ATOM     68  C   UNL A   1      51.436  26.081  28.846  1.00  0.00     0.198 A 
ATOM     69  F   UNL A   1      49.553  26.437  30.213  1.00  0.00    -0.203 F 
ATOM     70  F   UNL A   1      51.761  26.042  25.236  1.00  0.00    -0.200 F 
ATOM     71  C   UNL A   1      52.004  25.984  27.585  1.00  0.00     0.200 A 
ATOM     72  F   UNL A   1      52.201  25.936  29.937  1.00  0.00    -0.200 F 
ATOM     73  F   UNL A   1      53.315  25.735  27.457  1.00  0.00    -0.200 F 
ENDBRANCH  49  63
BRANCH  50  74
ATOM     74  C   UNL A   1      39.683  28.795  29.043  1.00  0.00     0.064 A 
ATOM     75  C   UNL A   1      38.912  29.261  27.969  1.00  0.00     0.173 A 
ATOM     76  C   UNL A   1      39.059  28.670  30.293  1.00  0.00     0.173 A 
ATOM     77  F   UNL A   1      39.476  29.422  26.762  1.00  0.00    -0.203 F 
ATOM     78  C   UNL A   1      37.572  29.597  28.139  1.00  0.00     0.198 A 
ATOM     79  C   UNL A   1      37.712  28.987  30.456  1.00  0.00     0.198 A 
ATOM     80  F   UNL A   1      39.756  28.231  31.350  1.00  0.00    -0.203 F 
ATOM     81  F   UNL A   1      36.866  30.072  27.104  1.00  0.00    -0.200 F 
ATOM     82  C   UNL A   1      36.971  29.454  29.381  1.00  0.00     0.200 A 
ATOM     83  F   UNL A   1      37.132  28.841  31.655  1.00  0.00    -0.200 F 
ATOM     84  F   UNL A   1      35.680  29.772  29.542  1.00  0.00    -0.200 F 
ENDBRANCH  50  74
BRANCH  62  85
ATOM     85  C   UNL A   1      45.579  32.476  29.474  1.00  0.00     0.064 A 
ATOM     86  C   UNL A   1      45.900  32.866  30.782  1.00  0.00     0.173 A 
ATOM     87  C   UNL A   1      45.601  33.457  28.471  1.00  0.00     0.173 A 
ATOM     88  F   UNL A   1      45.877  31.967  31.778  1.00  0.00    -0.203 F 
ATOM     89  C   UNL A   1      46.226  34.187  31.076  1.00  0.00     0.198 A 
ATOM     90  C   UNL A   1      45.947  34.773  28.765  1.00  0.00     0.198 A 
ATOM     91  F   UNL A   1      45.306  33.134  27.203  1.00  0.00    -0.203 F 
ATOM     92  F   UNL A   1      46.505  34.543  32.338  1.00  0.00    -0.200 F 
ATOM     93  C   UNL A   1      46.257  35.138  30.066  1.00  0.00     0.200 A 
ATOM     94  F   UNL A   1      45.987  35.689  27.786  1.00  0.00    -0.200 F 
ATOM     95  F   UNL A   1      46.583  36.407  30.349  1.00  0.00    -0.200 F 
ENDBRANCH  62  85
ENDBRANCH  36  37
ENDBRANCH  28  31
ENDBRANCH  26  27
ENDBRANCH  25  26
ENDBRANCH   1  25
TORSDOF 15
ENDMDL
MODEL 3
REMARK VINA RESULT:     -11.9      5.550     10.605
REMARK SMILES Cc1cc(F)c([C@@H](C)[N@H+](CCC(=O)NCCCNC(=O)c2ccc(-c3c4nc(c(-c5c(F)c(F)c(F)c(F)c5F)c5ccc([nH]5)c(-c5c(F)c(F)c(F)c(F)c5F)c5nc(c(-c6c(F)c(F)c(F)c(F)c6F)c6ccc3[nH]6)C=C5)C=C4)cc2)C(C)(C)C)cc1F
REMARK SMILES IDX 15 1 14 2 12 3 13 4 11 6 10 7 9 8 7 10 8 11 6 12 1 13 2 14
REMARK SMILES IDX 3 15 89 16 4 17 88 18 90 19 5 20 84 21 85 22 86 23 87 24
REMARK SMILES IDX 16 25 17 26 18 27 19 28 20 30 21 31 22 32 83 33 23 34 82 35
REMARK SMILES IDX 24 36 25 37 26 38 76 39 27 40 81 41 75 42 77 43 28 44 80 45
REMARK SMILES IDX 74 46 73 47 29 49 61 50 41 51 60 52 42 53 45 54 59 55 78 56
REMARK SMILES IDX 43 57 44 58 58 60 79 61 46 62 30 63 31 64 39 65 32 66 33 67
REMARK SMILES IDX 37 68 40 69 34 70 35 71 38 72 36 73 62 74 63 75 71 76 64 77
REMARK SMILES IDX 65 78 69 79 72 80 66 81 67 82 70 83 68 84 47 85 48 86 56 87
REMARK SMILES IDX 49 88 50 89 54 90 57 91 51 92 52 93 55 94 53 95
REMARK H PARENT 14 5 9 9 18 29 77 48 45 59
REMARK Flexibility Score: inf
ROOT
ATOM      1  C   UNL A   1      36.585  20.295  24.985  1.00  0.00     0.117 C 
ENDROOT
BRANCH   1   2
ATOM      2  N   UNL A   1      36.624  21.572  25.673  1.00  0.00    -0.356 N 
ATOM      3  C   UNL A   1      36.146  22.789  25.292  1.00  0.00     0.225 C 
ATOM      4  O   UNL A   1      36.251  23.725  26.089  1.00  0.00    -0.275 OA
ATOM      5  H   UNL A   1      37.064  21.556  26.553  1.00  0.00     0.163 HD
BRANCH   3   6
ATOM      6  C   UNL A   1      35.517  22.997  23.931  1.00  0.00     0.161 C 
BRANCH   6   7
ATOM      7  C   UNL A   1      34.047  22.570  23.936  1.00  0.00     0.273 C 
BRANCH   7   8
ATOM      8  N   UNL A   1      33.258  23.258  24.991  1.00  0.00    -0.324 N 
ATOM      9  H   UNL A   1      33.893  23.807  25.570  1.00  0.00     0.349 HD
BRANCH   8  10
ATOM     10  C   UNL A   1      32.348  24.326  24.439  1.00  0.00     0.215 C 
ATOM     11  C   UNL A   1      32.598  24.772  22.973  1.00  0.00     0.081 C 
BRANCH  10  12
ATOM     12  C   UNL A   1      32.338  25.622  25.253  1.00  0.00     0.048 A 
ATOM     13  C   UNL A   1      32.383  29.410  27.365  1.00  0.00     0.047 C 
ATOM     14  C   UNL A   1      32.355  28.083  26.670  1.00  0.00    -0.012 A 
ATOM     15  C   UNL A   1      31.153  27.419  26.415  1.00  0.00     0.046 A 
ATOM     16  C   UNL A   1      33.545  27.476  26.266  1.00  0.00     0.126 A 
ATOM     17  C   UNL A   1      31.156  26.198  25.735  1.00  0.00     0.132 A 
ATOM     18  C   UNL A   1      33.547  26.259  25.583  1.00  0.00     0.052 A 
ATOM     19  F   UNL A   1      34.717  28.075  26.520  1.00  0.00    -0.207 F 
ATOM     20  F   UNL A   1      29.985  25.570  25.573  1.00  0.00    -0.206 F 
ENDBRANCH  10  12
ENDBRANCH   8  10
BRANCH   8  21
ATOM     21  C   UNL A   1      32.663  22.278  25.975  1.00  0.00     0.090 C 
ATOM     22  C   UNL A   1      31.106  22.324  25.917  1.00  0.00     0.078 C 
ATOM     23  C   UNL A   1      33.008  20.802  25.672  1.00  0.00     0.078 C 
ATOM     24  C   UNL A   1      33.085  22.563  27.433  1.00  0.00     0.078 C 
ENDBRANCH   8  21
ENDBRANCH   7   8
ENDBRANCH   6   7
ENDBRANCH   3   6
ENDBRANCH   1   2
BRANCH   1  25
ATOM     25  C   UNL A   1      37.936  19.586  24.915  1.00  0.00     0.042 C 
BRANCH  25  26
ATOM     26  C   UNL A   1      39.057  20.237  25.725  1.00  0.00     0.118 C 
BRANCH  26  27
ATOM     27  N   UNL A   1      40.130  19.285  25.975  1.00  0.00    -0.352 N 
ATOM     28  C   UNL A   1      41.488  19.420  26.089  1.00  0.00     0.251 C 
ATOM     29  H   UNL A   1      39.816  18.359  26.083  1.00  0.00     0.163 HD
ATOM     30  O   UNL A   1      42.164  18.398  25.935  1.00  0.00    -0.269 OA
BRANCH  28  31
ATOM     31  C   UNL A   1      42.194  20.691  26.420  1.00  0.00     0.039 A 
ATOM     32  C   UNL A   1      42.669  21.594  25.466  1.00  0.00     0.014 A 
ATOM     33  C   UNL A   1      42.211  21.082  27.771  1.00  0.00     0.014 A 
ATOM     34  C   UNL A   1      43.179  22.844  25.858  1.00  0.00     0.010 A 
ATOM     35  C   UNL A   1      42.662  22.352  28.157  1.00  0.00     0.010 A 
ATOM     36  C   UNL A   1      43.151  23.253  27.203  1.00  0.00    -0.014 A 
BRANCH  36  37
ATOM     37  C   UNL A   1      43.543  24.639  27.593  1.00  0.00     0.031 A 
ATOM     38  C   UNL A   1      42.511  25.686  27.917  1.00  0.00     0.074 A 
ATOM     39  C   UNL A   1      44.848  24.983  27.619  1.00  0.00     0.049 A 
ATOM     40  N   UNL A   1      42.687  26.932  28.291  1.00  0.00    -0.248 NA
ATOM     41  C   UNL A   1      41.100  25.294  27.795  1.00  0.00     0.031 C 
ATOM     42  C   UNL A   1      45.960  24.101  27.266  1.00  0.00     0.029 A 
ATOM     43  N   UNL A   1      45.461  26.167  27.957  1.00  0.00    -0.354 N 
ATOM     44  C   UNL A   1      41.417  27.470  28.441  1.00  0.00     0.074 A 
ATOM     45  C   UNL A   1      40.475  26.428  28.085  1.00  0.00     0.031 C 
ATOM     46  C   UNL A   1      47.117  24.760  27.437  1.00  0.00     0.029 A 
ATOM     47  C   UNL A   1      46.833  26.121  27.885  1.00  0.00     0.049 A 
ATOM     48  H   UNL A   1      44.964  26.974  28.226  1.00  0.00     0.167 HD
ATOM     49  C   UNL A   1      41.064  28.710  28.858  1.00  0.00     0.037 A 
ATOM     50  C   UNL A   1      47.762  27.060  28.150  1.00  0.00     0.037 A 
ATOM     51  C   UNL A   1      41.984  29.749  29.242  1.00  0.00     0.049 A 
ATOM     52  C   UNL A   1      47.342  28.427  28.616  1.00  0.00     0.074 A 
ATOM     53  C   UNL A   1      41.699  31.003  29.757  1.00  0.00     0.029 A 
ATOM     54  N   UNL A   1      43.364  29.662  29.149  1.00  0.00    -0.354 N 
ATOM     55  N   UNL A   1      46.138  28.891  28.834  1.00  0.00    -0.248 NA
ATOM     56  C   UNL A   1      48.415  29.402  28.873  1.00  0.00     0.031 C 
ATOM     57  C   UNL A   1      42.904  31.689  29.941  1.00  0.00     0.029 A 
ATOM     58  C   UNL A   1      43.941  30.849  29.573  1.00  0.00     0.049 A 
ATOM     59  H   UNL A   1      43.859  28.874  28.828  1.00  0.00     0.167 HD
ATOM     60  C   UNL A   1      46.305  30.200  29.262  1.00  0.00     0.074 A 
ATOM     61  C   UNL A   1      47.729  30.457  29.291  1.00  0.00     0.031 C 
ATOM     62  C   UNL A   1      45.357  31.107  29.596  1.00  0.00     0.037 A 
BRANCH  49  63
ATOM     63  C   UNL A   1      39.601  29.026  28.948  1.00  0.00     0.064 A 
ATOM     64  C   UNL A   1      38.870  29.401  27.813  1.00  0.00     0.173 A 
ATOM     65  C   UNL A   1      38.907  28.858  30.154  1.00  0.00     0.173 A 
ATOM     66  F   UNL A   1      39.492  29.576  26.636  1.00  0.00    -0.203 F 
ATOM     67  C   UNL A   1      37.494  29.605  27.883  1.00  0.00     0.198 A 
ATOM     68  C   UNL A   1      37.529  29.043  30.218  1.00  0.00     0.198 A 
ATOM     69  F   UNL A   1      39.562  28.487  31.266  1.00  0.00    -0.203 F 
ATOM     70  F   UNL A   1      36.817  29.979  26.790  1.00  0.00    -0.200 F 
ATOM     71  C   UNL A   1      36.825  29.418  29.084  1.00  0.00     0.200 A 
ATOM     72  F   UNL A   1      36.880  28.848  31.375  1.00  0.00    -0.200 F 
ATOM     73  F   UNL A   1      35.497  29.595  29.146  1.00  0.00    -0.200 F 
ENDBRANCH  49  63
BRANCH  50  74
ATOM     74  C   UNL A   1      49.202  26.729  28.004  1.00  0.00     0.064 A 
ATOM     75  C   UNL A   1      49.973  26.385  29.123  1.00  0.00     0.173 A 
ATOM     76  C   UNL A   1      49.833  26.750  26.753  1.00  0.00     0.173 A 
ATOM     77  F   UNL A   1      49.417  26.379  30.344  1.00  0.00    -0.203 F 
ATOM     78  C   UNL A   1      51.326  26.080  28.996  1.00  0.00     0.198 A 
ATOM     79  C   UNL A   1      51.182  26.424  26.625  1.00  0.00     0.198 A 
ATOM     80  F   UNL A   1      49.137  27.076  25.655  1.00  0.00    -0.203 F 
ATOM     81  F   UNL A   1      52.049  25.787  30.085  1.00  0.00    -0.200 F 
ATOM     82  C   UNL A   1      51.928  26.094  27.746  1.00  0.00     0.200 A 
ATOM     83  F   UNL A   1      51.759  26.432  25.416  1.00  0.00    -0.200 F 
ATOM     84  F   UNL A   1      53.228  25.796  27.625  1.00  0.00    -0.200 F 
ENDBRANCH  50  74
BRANCH  62  85
ATOM     85  C   UNL A   1      45.814  32.469  30.025  1.00  0.00     0.064 A 
ATOM     86  C   UNL A   1      46.137  32.740  31.362  1.00  0.00     0.173 A 
ATOM     87  C   UNL A   1      45.992  33.494  29.084  1.00  0.00     0.173 A 
ATOM     88  F   UNL A   1      45.969  31.796  32.301  1.00  0.00    -0.203 F 
ATOM     89  C   UNL A   1      46.615  33.990  31.744  1.00  0.00     0.198 A 
ATOM     90  C   UNL A   1      46.490  34.737  29.466  1.00  0.00     0.198 A 
ATOM     91  F   UNL A   1      45.701  33.284  27.792  1.00  0.00    -0.203 F 
ATOM     92  F   UNL A   1      46.895  34.235  33.032  1.00  0.00    -0.200 F 
ATOM     93  C   UNL A   1      46.798  34.985  30.795  1.00  0.00     0.200 A 
ATOM     94  F   UNL A   1      46.676  35.694  28.546  1.00  0.00    -0.200 F 
ATOM     95  F   UNL A   1      47.271  36.185  31.162  1.00  0.00    -0.200 F 
ENDBRANCH  62  85
ENDBRANCH  36  37
ENDBRANCH  28  31
ENDBRANCH  26  27
ENDBRANCH  25  26
ENDBRANCH   1  25
TORSDOF 15
ENDMDL
