MODEL 1
REMARK VINA RESULT:     -13.4      0.000      0.000
REMARK SMILES O=C(NCCCNC(=O)c1cc(NC(=S)NC(=O)c2ccccc2F)ccc1Cl)c1ccc(-c2c3nc(c(-c4c(F)c(F)c(F)c(F)c4F)c4ccc([nH]4)c(-c4c(F)c(F)c(F)c(F)c4F)c4nc(c(-c5c(F)c(F)c(F)c(F)c5F)c5ccc2[nH]5)C=C4)C=C3)cc1
REMARK SMILES IDX 6 1 5 2 4 3 3 4 1 5 2 6 30 8 31 9 92 10 32 11 91 12 33 13
REMARK SMILES IDX 34 14 35 15 85 16 36 17 90 18 84 19 86 20 37 21 89 22 83 23
REMARK SMILES IDX 82 24 38 26 70 27 50 28 69 29 51 30 54 31 68 32 87 33 52 34
REMARK SMILES IDX 53 35 67 37 88 38 55 39 39 40 40 41 48 42 41 43 42 44 46 45
REMARK SMILES IDX 49 46 43 47 44 48 47 49 45 50 71 51 72 52 80 53 73 54 74 55
REMARK SMILES IDX 78 56 81 57 75 58 76 59 79 60 77 61 56 62 57 63 65 64 58 65
REMARK SMILES IDX 59 66 63 67 66 68 60 69 61 70 64 71 62 72 7 73 8 74 9 76
REMARK SMILES IDX 10 77 11 78 28 79 12 80 27 81 29 82 26 83 13 84 14 86 15 87
REMARK SMILES IDX 16 88 17 89 18 91 19 92 20 93 24 94 21 95 23 96 25 97 22 98
REMARK H PARENT 3 7 86 25 54 36 7 75 13 85 16 90
REMARK Flexibility Score: inf
ROOT
ATOM      1  C   UNL A   1      31.392  31.077  26.488  1.00  0.00     0.118 C 
ENDROOT
BRANCH   1   2
ATOM      2  C   UNL A   1      31.389  32.596  26.613  1.00  0.00     0.042 C 
BRANCH   2   3
ATOM      3  C   UNL A   1      32.673  33.151  27.226  1.00  0.00     0.118 C 
BRANCH   3   4
ATOM      4  N   UNL A   1      32.489  34.482  27.796  1.00  0.00    -0.352 N 
ATOM      5  O   UNL A   1      32.643  36.092  29.370  1.00  0.00    -0.269 OA
ATOM      6  C   UNL A   1      33.089  35.057  28.888  1.00  0.00     0.251 C 
ATOM      7  H   UNL A   1      31.838  35.051  27.328  1.00  0.00     0.163 HD
BRANCH   6   8
ATOM      8  C   UNL A   1      34.264  34.405  29.489  1.00  0.00     0.039 A 
ATOM      9  C   UNL A   1      35.542  34.673  28.992  1.00  0.00     0.014 A 
ATOM     10  C   UNL A   1      34.087  33.525  30.558  1.00  0.00     0.014 A 
ATOM     11  C   UNL A   1      36.624  33.945  29.457  1.00  0.00     0.010 A 
ATOM     12  C   UNL A   1      35.194  32.871  31.097  1.00  0.00     0.010 A 
ATOM     13  C   UNL A   1      36.466  33.058  30.532  1.00  0.00    -0.014 A 
BRANCH  13  14
ATOM     14  C   UNL A   1      37.658  32.405  31.117  1.00  0.00     0.031 A 
ATOM     15  C   UNL A   1      38.392  31.329  30.377  1.00  0.00     0.074 A 
ATOM     16  C   UNL A   1      38.060  32.791  32.342  1.00  0.00     0.049 A 
ATOM     17  N   UNL A   1      39.407  30.604  30.772  1.00  0.00    -0.248 NA
ATOM     18  C   UNL A   1      37.921  31.013  29.020  1.00  0.00     0.031 C 
ATOM     19  C   UNL A   1      37.414  33.833  33.144  1.00  0.00     0.029 A 
ATOM     20  N   UNL A   1      39.097  32.362  33.127  1.00  0.00    -0.354 N 
ATOM     21  C   UNL A   1      39.677  29.730  29.730  1.00  0.00     0.074 A 
ATOM     22  C   UNL A   1      38.710  29.998  28.689  1.00  0.00     0.031 C 
ATOM     23  C   UNL A   1      38.087  33.985  34.292  1.00  0.00     0.029 A 
ATOM     24  C   UNL A   1      39.157  32.997  34.342  1.00  0.00     0.049 A 
ATOM     25  H   UNL A   1      39.737  31.668  32.847  1.00  0.00     0.167 HD
ATOM     26  C   UNL A   1      40.650  28.790  29.662  1.00  0.00     0.037 A 
ATOM     27  C   UNL A   1      39.961  32.785  35.400  1.00  0.00     0.037 A 
ATOM     28  C   UNL A   1      41.616  28.556  30.703  1.00  0.00     0.049 A 
ATOM     29  C   UNL A   1      41.003  31.713  35.315  1.00  0.00     0.074 A 
ATOM     30  C   UNL A   1      42.682  27.673  30.705  1.00  0.00     0.029 A 
ATOM     31  N   UNL A   1      41.628  29.199  31.934  1.00  0.00    -0.354 N 
ATOM     32  N   UNL A   1      41.274  30.912  34.314  1.00  0.00    -0.248 NA
ATOM     33  C   UNL A   1      41.845  31.505  36.500  1.00  0.00     0.031 C 
ATOM     34  C   UNL A   1      43.292  27.730  31.959  1.00  0.00     0.029 A 
ATOM     35  C   UNL A   1      42.655  28.700  32.719  1.00  0.00     0.049 A 
ATOM     36  H   UNL A   1      40.998  29.905  32.209  1.00  0.00     0.167 HD
ATOM     37  C   UNL A   1      42.326  30.113  34.737  1.00  0.00     0.074 A 
ATOM     38  C   UNL A   1      42.648  30.532  36.087  1.00  0.00     0.031 C 
ATOM     39  C   UNL A   1      42.963  29.128  34.063  1.00  0.00     0.037 A 
BRANCH  26  40
ATOM     40  C   UNL A   1      40.705  27.918  28.438  1.00  0.00     0.064 A 
ATOM     41  C   UNL A   1      40.061  26.671  28.433  1.00  0.00     0.173 A 
ATOM     42  C   UNL A   1      41.440  28.279  27.299  1.00  0.00     0.173 A 
ATOM     43  F   UNL A   1      39.350  26.272  29.499  1.00  0.00    -0.203 F 
ATOM     44  C   UNL A   1      40.157  25.815  27.339  1.00  0.00     0.198 A 
ATOM     45  C   UNL A   1      41.506  27.434  26.192  1.00  0.00     0.198 A 
ATOM     46  F   UNL A   1      42.068  29.463  27.246  1.00  0.00    -0.203 F 
ATOM     47  F   UNL A   1      39.556  24.617  27.372  1.00  0.00    -0.200 F 
ATOM     48  C   UNL A   1      40.873  26.200  26.217  1.00  0.00     0.200 A 
ATOM     49  F   UNL A   1      42.177  27.818  25.098  1.00  0.00    -0.200 F 
ATOM     50  F   UNL A   1      40.949  25.384  25.157  1.00  0.00    -0.200 F 
ENDBRANCH  26  40
BRANCH  27  51
ATOM     51  C   UNL A   1      39.774  33.621  36.612  1.00  0.00     0.064 A 
ATOM     52  C   UNL A   1      38.890  33.231  37.632  1.00  0.00     0.173 A 
ATOM     53  C   UNL A   1      40.377  34.879  36.716  1.00  0.00     0.173 A 
ATOM     54  F   UNL A   1      38.275  32.040  37.567  1.00  0.00    -0.203 F 
ATOM     55  C   UNL A   1      38.586  34.087  38.687  1.00  0.00     0.198 A 
ATOM     56  C   UNL A   1      40.092  35.724  37.787  1.00  0.00     0.198 A 
ATOM     57  F   UNL A   1      41.235  35.291  35.772  1.00  0.00    -0.203 F 
ATOM     58  F   UNL A   1      37.690  33.715  39.611  1.00  0.00    -0.200 F 
ATOM     59  C   UNL A   1      39.186  35.333  38.763  1.00  0.00     0.200 A 
ATOM     60  F   UNL A   1      40.684  36.924  37.866  1.00  0.00    -0.200 F 
ATOM     61  F   UNL A   1      38.885  36.163  39.771  1.00  0.00    -0.200 F 
ENDBRANCH  27  51
BRANCH  39  62
ATOM     62  C   UNL A   1      44.096  28.427  34.751  1.00  0.00     0.064 A 
ATOM     63  C   UNL A   1      43.853  27.280  35.522  1.00  0.00     0.173 A 
ATOM     64  C   UNL A   1      45.392  28.961  34.753  1.00  0.00     0.173 A 
ATOM     65  F   UNL A   1      42.627  26.737  35.556  1.00  0.00    -0.203 F 
ATOM     66  C   UNL A   1      44.859  26.713  36.298  1.00  0.00     0.198 A 
ATOM     67  C   UNL A   1      46.404  28.375  35.510  1.00  0.00     0.198 A 
ATOM     68  F   UNL A   1      45.676  30.049  34.020  1.00  0.00    -0.203 F 
ATOM     69  F   UNL A   1      44.590  25.651  37.069  1.00  0.00    -0.200 F 
ATOM     70  C   UNL A   1      46.132  27.262  36.294  1.00  0.00     0.200 A 
ATOM     71  F   UNL A   1      47.639  28.893  35.489  1.00  0.00    -0.200 F 
ATOM     72  F   UNL A   1      47.097  26.722  37.048  1.00  0.00    -0.200 F 
ENDBRANCH  39  62
ENDBRANCH  13  14
ENDBRANCH   6   8
ENDBRANCH   3   4
ENDBRANCH   2   3
ENDBRANCH   1   2
BRANCH   1  73
ATOM     73  N   UNL A   1      32.362  30.658  25.496  1.00  0.00    -0.352 N 
ATOM     74  C   UNL A   1      32.655  29.452  24.936  1.00  0.00     0.252 C 
ATOM     75  H   UNL A   1      32.922  31.395  25.160  1.00  0.00     0.163 HD
ATOM     76  O   UNL A   1      33.633  29.411  24.193  1.00  0.00    -0.269 OA
BRANCH  74  77
ATOM     77  C   UNL A   1      31.727  28.251  25.103  1.00  0.00     0.060 A 
ATOM     78  C   UNL A   1      31.671  26.572  26.221  1.00  0.00     0.041 A 
ATOM     79  C   UNL A   1      30.505  28.318  23.760  1.00  0.00     0.053 A 
ATOM     80  C   UNL A   1      30.667  25.243  25.854  1.00  0.00     0.041 A 
ATOM     81  C   UNL A   1      29.416  26.919  23.540  1.00  0.00     0.023 A 
ATOM     82  Cl  UNL A   1      30.391  29.613  22.635  1.00  0.00    -0.083 Cl
ATOM     83  C   UNL A   1      29.514  25.434  24.548  1.00  0.00     0.028 A 
BRANCH  80  84
ATOM     84  N   UNL A   1      31.282  24.055  26.290  1.00  0.00    -0.332 N 
ATOM     85  H   UNL A   1      32.222  24.156  26.564  1.00  0.00     0.169 HD
BRANCH  84  86
ATOM     86  C   UNL A   1      30.784  22.771  26.396  1.00  0.00     0.177 C 
ATOM     87  S   UNL A   1      29.370  22.608  27.295  1.00  0.00    -0.040 S 
BRANCH  86  88
ATOM     88  N   UNL A   1      31.292  21.549  25.833  1.00  0.00    -0.299 N 
ATOM     89  C   UNL A   1      32.291  20.694  25.099  1.00  0.00     0.260 C 
ATOM     90  H   UNL A   1      30.582  20.903  26.053  1.00  0.00     0.172 HD
ATOM     91  O   UNL A   1      32.121  19.478  25.058  1.00  0.00    -0.269 OA
BRANCH  89  92
ATOM     92  C   UNL A   1      33.512  21.302  24.425  1.00  0.00     0.075 A 
ATOM     93  C   UNL A   1      32.832  22.140  23.049  1.00  0.00     0.017 A 
ATOM     94  C   UNL A   1      34.605  22.092  25.621  1.00  0.00     0.135 A 
ATOM     95  C   UNL A   1      33.002  23.900  22.985  1.00  0.00     0.001 A 
ATOM     96  C   UNL A   1      34.863  23.857  25.689  1.00  0.00     0.040 A 
ATOM     97  F   UNL A   1      34.902  21.414  26.743  1.00  0.00    -0.206 F 
ATOM     98  C   UNL A   1      34.040  24.872  24.430  1.00  0.00     0.003 A 
ENDBRANCH  89  92
ENDBRANCH  86  88
ENDBRANCH  84  86
ENDBRANCH  80  84
ENDBRANCH  74  77
ENDBRANCH   1  73
TORSDOF 14
ENDMDL
MODEL 2
REMARK VINA RESULT:     -13.4      5.479     10.878
REMARK SMILES O=C(NCCCNC(=O)c1cc(NC(=S)NC(=O)c2ccccc2F)ccc1Cl)c1ccc(-c2c3nc(c(-c4c(F)c(F)c(F)c(F)c4F)c4ccc([nH]4)c(-c4c(F)c(F)c(F)c(F)c4F)c4nc(c(-c5c(F)c(F)c(F)c(F)c5F)c5ccc2[nH]5)C=C4)C=C3)cc1
REMARK SMILES IDX 6 1 5 2 4 3 3 4 1 5 2 6 30 8 31 9 92 10 32 11 91 12 33 13
REMARK SMILES IDX 34 14 35 15 85 16 36 17 90 18 84 19 86 20 37 21 89 22 83 23
REMARK SMILES IDX 82 24 38 26 70 27 50 28 69 29 51 30 54 31 68 32 87 33 52 34
REMARK SMILES IDX 53 35 67 37 88 38 55 39 39 40 40 41 48 42 41 43 42 44 46 45
REMARK SMILES IDX 49 46 43 47 44 48 47 49 45 50 71 51 72 52 80 53 73 54 74 55
REMARK SMILES IDX 78 56 81 57 75 58 76 59 79 60 77 61 56 62 57 63 65 64 58 65
REMARK SMILES IDX 59 66 63 67 66 68 60 69 61 70 64 71 62 72 7 73 8 74 9 76
REMARK SMILES IDX 10 77 11 78 28 79 12 80 27 81 29 82 26 83 13 84 14 86 15 87
REMARK SMILES IDX 16 88 17 89 18 91 19 92 20 93 24 94 21 95 23 96 25 97 22 98
REMARK H PARENT 3 7 86 25 54 36 7 75 13 85 16 90
REMARK Flexibility Score: inf
ROOT
ATOM      1  C   UNL A   1      36.880  20.269  25.062  1.00  0.00     0.118 C 
ENDROOT
BRANCH   1   2
ATOM      2  C   UNL A   1      38.304  19.790  24.804  1.00  0.00     0.042 C 
BRANCH   2   3
ATOM      3  C   UNL A   1      39.253  20.075  25.967  1.00  0.00     0.118 C 
BRANCH   3   4
ATOM      4  N   UNL A   1      40.393  19.164  25.991  1.00  0.00    -0.352 N 
ATOM      5  O   UNL A   1      42.564  18.569  25.826  1.00  0.00    -0.269 OA
ATOM      6  C   UNL A   1      41.735  19.442  26.057  1.00  0.00     0.251 C 
ATOM      7  H   UNL A   1      40.165  18.208  25.955  1.00  0.00     0.163 HD
BRANCH   6   8
ATOM      8  C   UNL A   1      42.170  20.809  26.390  1.00  0.00     0.039 A 
ATOM      9  C   UNL A   1      42.440  21.152  27.716  1.00  0.00     0.014 A 
ATOM     10  C   UNL A   1      42.313  21.748  25.368  1.00  0.00     0.014 A 
ATOM     11  C   UNL A   1      42.699  22.473  28.043  1.00  0.00     0.010 A 
ATOM     12  C   UNL A   1      42.679  23.055  25.687  1.00  0.00     0.010 A 
ATOM     13  C   UNL A   1      42.850  23.431  27.029  1.00  0.00    -0.014 A 
BRANCH  13  14
ATOM     14  C   UNL A   1      43.279  24.803  27.383  1.00  0.00     0.031 A 
ATOM     15  C   UNL A   1      42.316  25.785  27.977  1.00  0.00     0.074 A 
ATOM     16  C   UNL A   1      44.556  25.152  27.144  1.00  0.00     0.049 A 
ATOM     17  N   UNL A   1      42.507  27.044  28.277  1.00  0.00    -0.248 NA
ATOM     18  C   UNL A   1      40.957  25.299  28.261  1.00  0.00     0.031 C 
ATOM     19  C   UNL A   1      45.572  24.267  26.571  1.00  0.00     0.029 A 
ATOM     20  N   UNL A   1      45.220  26.333  27.348  1.00  0.00    -0.354 N 
ATOM     21  C   UNL A   1      41.290  27.508  28.755  1.00  0.00     0.074 A 
ATOM     22  C   UNL A   1      40.359  26.403  28.691  1.00  0.00     0.031 C 
ATOM     23  C   UNL A   1      46.737  24.923  26.499  1.00  0.00     0.029 A 
ATOM     24  C   UNL A   1      46.530  26.297  26.941  1.00  0.00     0.049 A 
ATOM     25  H   UNL A   1      44.800  27.129  27.748  1.00  0.00     0.167 HD
ATOM     26  C   UNL A   1      40.990  28.750  29.206  1.00  0.00     0.037 A 
ATOM     27  C   UNL A   1      47.458  27.270  26.892  1.00  0.00     0.037 A 
ATOM     28  C   UNL A   1      41.941  29.829  29.281  1.00  0.00     0.049 A 
ATOM     29  C   UNL A   1      47.090  28.645  27.358  1.00  0.00     0.074 A 
ATOM     30  C   UNL A   1      41.755  31.105  29.783  1.00  0.00     0.029 A 
ATOM     31  N   UNL A   1      43.254  29.763  28.832  1.00  0.00    -0.354 N 
ATOM     32  N   UNL A   1      45.948  29.068  27.840  1.00  0.00    -0.248 NA
ATOM     33  C   UNL A   1      48.128  29.679  27.269  1.00  0.00     0.031 C 
ATOM     34  C   UNL A   1      42.929  31.831  29.572  1.00  0.00     0.029 A 
ATOM     35  C   UNL A   1      43.874  30.990  29.004  1.00  0.00     0.049 A 
ATOM     36  H   UNL A   1      43.680  28.963  28.447  1.00  0.00     0.167 HD
ATOM     37  C   UNL A   1      46.127  30.413  28.127  1.00  0.00     0.074 A 
ATOM     38  C   UNL A   1      47.496  30.734  27.770  1.00  0.00     0.031 C 
ATOM     39  C   UNL A   1      45.238  31.294  28.642  1.00  0.00     0.037 A 
BRANCH  26  40
ATOM     40  C   UNL A   1      39.573  29.027  29.623  1.00  0.00     0.064 A 
ATOM     41  C   UNL A   1      39.164  28.765  30.941  1.00  0.00     0.173 A 
ATOM     42  C   UNL A   1      38.606  29.488  28.718  1.00  0.00     0.173 A 
ATOM     43  F   UNL A   1      40.045  28.316  31.847  1.00  0.00    -0.203 F 
ATOM     44  C   UNL A   1      37.841  28.947  31.333  1.00  0.00     0.198 A 
ATOM     45  C   UNL A   1      37.289  29.700  29.123  1.00  0.00     0.198 A 
ATOM     46  F   UNL A   1      38.944  29.762  27.449  1.00  0.00    -0.203 F 
ATOM     47  F   UNL A   1      37.470  28.662  32.589  1.00  0.00    -0.200 F 
ATOM     48  C   UNL A   1      36.906  29.421  30.426  1.00  0.00     0.200 A 
ATOM     49  F   UNL A   1      36.392  30.183  28.252  1.00  0.00    -0.200 F 
ATOM     50  F   UNL A   1      35.637  29.614  30.810  1.00  0.00    -0.200 F 
ENDBRANCH  26  40
BRANCH  27  51
ATOM     51  C   UNL A   1      48.807  26.939  26.369  1.00  0.00     0.064 A 
ATOM     52  C   UNL A   1      49.120  27.116  25.011  1.00  0.00     0.173 A 
ATOM     53  C   UNL A   1      49.762  26.326  27.186  1.00  0.00     0.173 A 
ATOM     54  F   UNL A   1      48.229  27.684  24.185  1.00  0.00    -0.203 F 
ATOM     55  C   UNL A   1      50.323  26.654  24.485  1.00  0.00     0.198 A 
ATOM     56  C   UNL A   1      50.977  25.888  26.663  1.00  0.00     0.198 A 
ATOM     57  F   UNL A   1      49.511  26.145  28.491  1.00  0.00    -0.203 F 
ATOM     58  F   UNL A   1      50.570  26.777  23.174  1.00  0.00    -0.200 F 
ATOM     59  C   UNL A   1      51.250  26.039  25.311  1.00  0.00     0.200 A 
ATOM     60  F   UNL A   1      51.878  25.306  27.466  1.00  0.00    -0.200 F 
ATOM     61  F   UNL A   1      52.403  25.582  24.803  1.00  0.00    -0.200 F 
ENDBRANCH  27  51
BRANCH  39  62
ATOM     62  C   UNL A   1      45.702  32.700  28.878  1.00  0.00     0.064 A 
ATOM     63  C   UNL A   1      45.580  33.663  27.865  1.00  0.00     0.173 A 
ATOM     64  C   UNL A   1      46.379  33.060  30.052  1.00  0.00     0.173 A 
ATOM     65  F   UNL A   1      44.946  33.363  26.721  1.00  0.00    -0.203 F 
ATOM     66  C   UNL A   1      46.151  34.924  28.004  1.00  0.00     0.198 A 
ATOM     67  C   UNL A   1      46.924  34.332  30.199  1.00  0.00     0.198 A 
ATOM     68  F   UNL A   1      46.508  32.177  31.054  1.00  0.00    -0.203 F 
ATOM     69  F   UNL A   1      46.070  35.809  27.001  1.00  0.00    -0.200 F 
ATOM     70  C   UNL A   1      46.824  35.257  29.169  1.00  0.00     0.200 A 
ATOM     71  F   UNL A   1      47.558  34.660  31.334  1.00  0.00    -0.200 F 
ATOM     72  F   UNL A   1      47.381  36.468  29.299  1.00  0.00    -0.200 F 
ENDBRANCH  39  62
ENDBRANCH  13  14
ENDBRANCH   6   8
ENDBRANCH   3   4
ENDBRANCH   2   3
ENDBRANCH   1   2
BRANCH   1  73
ATOM     73  N   UNL A   1      36.897  21.542  25.755  1.00  0.00    -0.352 N 
ATOM     74  C   UNL A   1      36.158  22.678  25.626  1.00  0.00     0.252 C 
ATOM     75  H   UNL A   1      37.581  21.595  26.461  1.00  0.00     0.163 HD
ATOM     76  O   UNL A   1      36.506  23.643  26.303  1.00  0.00    -0.269 OA
BRANCH  74  77
ATOM     77  C   UNL A   1      34.874  22.704  24.799  1.00  0.00     0.060 A 
ATOM     78  C   UNL A   1      34.255  23.518  23.059  1.00  0.00     0.041 A 
ATOM     79  C   UNL A   1      33.556  21.979  25.818  1.00  0.00     0.053 A 
ATOM     80  C   UNL A   1      32.609  23.662  22.635  1.00  0.00     0.041 A 
ATOM     81  C   UNL A   1      31.877  22.077  25.219  1.00  0.00     0.023 A 
ATOM     82  Cl  UNL A   1      33.820  21.280  27.366  1.00  0.00    -0.083 Cl
ATOM     83  C   UNL A   1      31.430  22.905  23.687  1.00  0.00     0.028 A 
BRANCH  80  84
ATOM     84  N   UNL A   1      32.432  24.796  21.822  1.00  0.00    -0.332 N 
ATOM     85  H   UNL A   1      32.519  24.628  20.856  1.00  0.00     0.169 HD
BRANCH  84  86
ATOM     86  C   UNL A   1      32.155  26.108  22.155  1.00  0.00     0.177 C 
ATOM     87  S   UNL A   1      33.434  27.190  21.988  1.00  0.00    -0.040 S 
BRANCH  86  88
ATOM     88  N   UNL A   1      30.921  26.691  22.611  1.00  0.00    -0.299 N 
ATOM     89  C   UNL A   1      30.011  27.357  23.609  1.00  0.00     0.260 C 
ATOM     90  H   UNL A   1      30.342  26.605  21.820  1.00  0.00     0.172 HD
ATOM     91  O   UNL A   1      28.910  27.755  23.240  1.00  0.00    -0.269 OA
BRANCH  89  92
ATOM     92  C   UNL A   1      30.434  27.561  25.055  1.00  0.00     0.075 A 
ATOM     93  C   UNL A   1      30.873  25.950  25.575  1.00  0.00     0.017 A 
ATOM     94  C   UNL A   1      31.524  28.986  25.232  1.00  0.00     0.135 A 
ATOM     95  C   UNL A   1      32.556  25.658  26.037  1.00  0.00     0.001 A 
ATOM     96  C   UNL A   1      33.248  28.847  25.676  1.00  0.00     0.040 A 
ATOM     97  F   UNL A   1      31.169  30.128  24.618  1.00  0.00    -0.206 F 
ATOM     98  C   UNL A   1      33.885  27.188  26.042  1.00  0.00     0.003 A 
ENDBRANCH  89  92
ENDBRANCH  86  88
ENDBRANCH  84  86
ENDBRANCH  80  84
ENDBRANCH  74  77
ENDBRANCH   1  73
TORSDOF 14
ENDMDL
MODEL 3
REMARK VINA RESULT:     -13.3      0.430      2.024
REMARK SMILES O=C(NCCCNC(=O)c1cc(NC(=S)NC(=O)c2ccccc2F)ccc1Cl)c1ccc(-c2c3nc(c(-c4c(F)c(F)c(F)c(F)c4F)c4ccc([nH]4)c(-c4c(F)c(F)c(F)c(F)c4F)c4nc(c(-c5c(F)c(F)c(F)c(F)c5F)c5ccc2[nH]5)C=C4)C=C3)cc1
REMARK SMILES IDX 6 1 5 2 4 3 3 4 1 5 2 6 30 8 31 9 92 10 32 11 91 12 33 13
REMARK SMILES IDX 34 14 35 15 85 16 36 17 90 18 84 19 86 20 37 21 89 22 83 23
REMARK SMILES IDX 82 24 38 26 70 27 50 28 69 29 51 30 54 31 68 32 87 33 52 34
REMARK SMILES IDX 53 35 67 37 88 38 55 39 39 40 40 41 48 42 41 43 42 44 46 45
REMARK SMILES IDX 49 46 43 47 44 48 47 49 45 50 71 51 72 52 80 53 73 54 74 55
REMARK SMILES IDX 78 56 81 57 75 58 76 59 79 60 77 61 56 62 57 63 65 64 58 65
REMARK SMILES IDX 59 66 63 67 66 68 60 69 61 70 64 71 62 72 7 73 8 74 9 76
REMARK SMILES IDX 10 77 11 78 28 79 12 80 27 81 29 82 26 83 13 84 14 86 15 87
REMARK SMILES IDX 16 88 17 89 18 91 19 92 20 93 24 94 21 95 23 96 25 97 22 98
REMARK H PARENT 3 7 86 25 54 36 7 75 13 85 16 90
REMARK Flexibility Score: inf
ROOT
ATOM      1  C   UNL A   1      31.466  30.967  26.505  1.00  0.00     0.118 C 
ENDROOT
BRANCH   1   2
ATOM      2  C   UNL A   1      31.396  32.481  26.660  1.00  0.00     0.042 C 
BRANCH   2   3
ATOM      3  C   UNL A   1      32.693  33.092  27.186  1.00  0.00     0.118 C 
BRANCH   3   4
ATOM      4  N   UNL A   1      32.492  34.417  27.764  1.00  0.00    -0.352 N 
ATOM      5  O   UNL A   1      32.614  36.017  29.350  1.00  0.00    -0.269 OA
ATOM      6  C   UNL A   1      33.074  34.990  28.866  1.00  0.00     0.251 C 
ATOM      7  H   UNL A   1      31.841  34.984  27.292  1.00  0.00     0.163 HD
BRANCH   6   8
ATOM      8  C   UNL A   1      34.248  34.344  29.476  1.00  0.00     0.039 A 
ATOM      9  C   UNL A   1      34.080  33.442  30.529  1.00  0.00     0.014 A 
ATOM     10  C   UNL A   1      35.522  34.638  28.987  1.00  0.00     0.014 A 
ATOM     11  C   UNL A   1      35.191  32.957  31.199  1.00  0.00     0.010 A 
ATOM     12  C   UNL A   1      36.637  34.063  29.594  1.00  0.00     0.010 A 
ATOM     13  C   UNL A   1      36.479  33.238  30.721  1.00  0.00    -0.014 A 
BRANCH  13  14
ATOM     14  C   UNL A   1      37.648  32.587  31.352  1.00  0.00     0.031 A 
ATOM     15  C   UNL A   1      38.359  31.452  30.680  1.00  0.00     0.074 A 
ATOM     16  C   UNL A   1      38.050  33.030  32.558  1.00  0.00     0.049 A 
ATOM     17  N   UNL A   1      39.351  30.725  31.124  1.00  0.00    -0.248 NA
ATOM     18  C   UNL A   1      37.890  31.074  29.338  1.00  0.00     0.031 C 
ATOM     19  C   UNL A   1      37.426  34.131  33.295  1.00  0.00     0.029 A 
ATOM     20  N   UNL A   1      39.069  32.618  33.375  1.00  0.00    -0.354 N 
ATOM     21  C   UNL A   1      39.606  29.787  30.135  1.00  0.00     0.074 A 
ATOM     22  C   UNL A   1      38.654  30.023  29.071  1.00  0.00     0.031 C 
ATOM     23  C   UNL A   1      38.093  34.329  34.439  1.00  0.00     0.029 A 
ATOM     24  C   UNL A   1      39.136  33.317  34.554  1.00  0.00     0.049 A 
ATOM     25  H   UNL A   1      39.692  31.893  33.140  1.00  0.00     0.167 HD
ATOM     26  C   UNL A   1      40.553  28.819  30.127  1.00  0.00     0.037 A 
ATOM     27  C   UNL A   1      39.925  33.143  35.630  1.00  0.00     0.037 A 
ATOM     28  C   UNL A   1      41.505  28.618  31.189  1.00  0.00     0.049 A 
ATOM     29  C   UNL A   1      40.939  32.040  35.614  1.00  0.00     0.074 A 
ATOM     30  C   UNL A   1      42.546  27.709  31.250  1.00  0.00     0.029 A 
ATOM     31  N   UNL A   1      41.523  29.328  32.383  1.00  0.00    -0.354 N 
ATOM     32  N   UNL A   1      41.197  31.179  34.662  1.00  0.00    -0.248 NA
ATOM     33  C   UNL A   1      41.765  31.876  36.817  1.00  0.00     0.031 C 
ATOM     34  C   UNL A   1      43.148  27.819  32.505  1.00  0.00     0.029 A 
ATOM     35  C   UNL A   1      42.530  28.846  33.204  1.00  0.00     0.049 A 
ATOM     36  H   UNL A   1      40.911  30.064  32.613  1.00  0.00     0.167 HD
ATOM     37  C   UNL A   1      42.223  30.377  35.138  1.00  0.00     0.074 A 
ATOM     38  C   UNL A   1      42.545  30.861  36.466  1.00  0.00     0.031 C 
ATOM     39  C   UNL A   1      42.839  29.339  34.525  1.00  0.00     0.037 A 
BRANCH  26  40
ATOM     40  C   UNL A   1      40.596  27.880  28.954  1.00  0.00     0.064 A 
ATOM     41  C   UNL A   1      41.389  28.186  27.837  1.00  0.00     0.173 A 
ATOM     42  C   UNL A   1      39.814  26.717  28.902  1.00  0.00     0.173 A 
ATOM     43  F   UNL A   1      42.152  29.290  27.829  1.00  0.00    -0.203 F 
ATOM     44  C   UNL A   1      41.391  27.369  26.710  1.00  0.00     0.198 A 
ATOM     45  C   UNL A   1      39.843  25.884  27.785  1.00  0.00     0.198 A 
ATOM     46  F   UNL A   1      39.044  26.373  29.945  1.00  0.00    -0.203 F 
ATOM     47  F   UNL A   1      42.135  27.699  25.645  1.00  0.00    -0.200 F 
ATOM     48  C   UNL A   1      40.624  26.215  26.687  1.00  0.00     0.200 A 
ATOM     49  F   UNL A   1      39.121  24.755  27.775  1.00  0.00    -0.200 F 
ATOM     50  F   UNL A   1      40.641  25.418  25.610  1.00  0.00    -0.200 F 
ENDBRANCH  26  40
BRANCH  27  51
ATOM     51  C   UNL A   1      39.751  34.050  36.792  1.00  0.00     0.064 A 
ATOM     52  C   UNL A   1      40.463  35.257  36.882  1.00  0.00     0.173 A 
ATOM     53  C   UNL A   1      38.967  33.670  37.887  1.00  0.00     0.173 A 
ATOM     54  F   UNL A   1      41.241  35.654  35.863  1.00  0.00    -0.203 F 
ATOM     55  C   UNL A   1      40.431  36.027  38.041  1.00  0.00     0.198 A 
ATOM     56  C   UNL A   1      38.914  34.456  39.037  1.00  0.00     0.198 A 
ATOM     57  F   UNL A   1      38.261  32.531  37.843  1.00  0.00    -0.203 F 
ATOM     58  F   UNL A   1      41.172  37.140  38.124  1.00  0.00    -0.200 F 
ATOM     59  C   UNL A   1      39.657  35.625  39.118  1.00  0.00     0.200 A 
ATOM     60  F   UNL A   1      38.155  34.073  40.072  1.00  0.00    -0.200 F 
ATOM     61  F   UNL A   1      39.635  36.359  40.239  1.00  0.00    -0.200 F 
ENDBRANCH  27  51
BRANCH  39  62
ATOM     62  C   UNL A   1      43.947  28.648  35.262  1.00  0.00     0.064 A 
ATOM     63  C   UNL A   1      45.283  29.007  35.026  1.00  0.00     0.173 A 
ATOM     64  C   UNL A   1      43.696  27.554  36.101  1.00  0.00     0.173 A 
ATOM     65  F   UNL A   1      45.572  30.044  34.226  1.00  0.00    -0.203 F 
ATOM     66  C   UNL A   1      46.329  28.271  35.575  1.00  0.00     0.198 A 
ATOM     67  C   UNL A   1      44.745  26.837  36.670  1.00  0.00     0.198 A 
ATOM     68  F   UNL A   1      42.435  27.182  36.368  1.00  0.00    -0.203 F 
ATOM     69  F   UNL A   1      47.597  28.598  35.290  1.00  0.00    -0.200 F 
ATOM     70  C   UNL A   1      46.059  27.186  36.393  1.00  0.00     0.200 A 
ATOM     71  F   UNL A   1      44.484  25.800  37.478  1.00  0.00    -0.200 F 
ATOM     72  F   UNL A   1      47.066  26.472  36.914  1.00  0.00    -0.200 F 
ENDBRANCH  39  62
ENDBRANCH  13  14
ENDBRANCH   6   8
ENDBRANCH   3   4
ENDBRANCH   2   3
ENDBRANCH   1   2
BRANCH   1  73
ATOM     73  N   UNL A   1      32.367  30.615  25.425  1.00  0.00    -0.352 N 
ATOM     74  C   UNL A   1      32.631  29.445  24.781  1.00  0.00     0.252 C 
ATOM     75  H   UNL A   1      32.895  31.376  25.091  1.00  0.00     0.163 HD
ATOM     76  O   UNL A   1      33.554  29.456  23.970  1.00  0.00    -0.269 OA
BRANCH  74  77
ATOM     77  C   UNL A   1      31.729  28.223  24.947  1.00  0.00     0.060 A 
ATOM     78  C   UNL A   1      31.728  26.524  26.035  1.00  0.00     0.041 A 
ATOM     79  C   UNL A   1      30.474  28.293  23.635  1.00  0.00     0.053 A 
ATOM     80  C   UNL A   1      30.740  25.184  25.666  1.00  0.00     0.041 A 
ATOM     81  C   UNL A   1      29.405  26.879  23.414  1.00  0.00     0.023 A 
ATOM     82  Cl  UNL A   1      30.310  29.606  22.536  1.00  0.00    -0.083 Cl
ATOM     83  C   UNL A   1      29.553  25.378  24.392  1.00  0.00     0.028 A 
BRANCH  80  84
ATOM     84  N   UNL A   1      31.386  24.000  26.065  1.00  0.00    -0.332 N 
ATOM     85  H   UNL A   1      32.356  24.088  26.206  1.00  0.00     0.169 HD
BRANCH  84  86
ATOM     86  C   UNL A   1      30.883  22.733  26.293  1.00  0.00     0.177 C 
ATOM     87  S   UNL A   1      29.472  22.661  27.209  1.00  0.00    -0.040 S 
BRANCH  86  88
ATOM     88  N   UNL A   1      31.383  21.461  25.844  1.00  0.00    -0.299 N 
ATOM     89  C   UNL A   1      32.327  20.546  25.110  1.00  0.00     0.260 C 
ATOM     90  H   UNL A   1      30.745  20.829  26.247  1.00  0.00     0.172 HD
ATOM     91  O   UNL A   1      32.222  19.332  25.263  1.00  0.00    -0.269 OA
BRANCH  89  92
ATOM     92  C   UNL A   1      33.415  21.094  24.199  1.00  0.00     0.075 A 
ATOM     93  C   UNL A   1      32.511  21.859  22.912  1.00  0.00     0.017 A 
ATOM     94  C   UNL A   1      34.703  21.937  25.137  1.00  0.00     0.135 A 
ATOM     95  C   UNL A   1      32.676  23.610  22.712  1.00  0.00     0.001 A 
ATOM     96  C   UNL A   1      34.977  23.699  25.051  1.00  0.00     0.040 A 
ATOM     97  F   UNL A   1      35.186  21.323  26.231  1.00  0.00    -0.206 F 
ATOM     98  C   UNL A   1      33.953  24.649  23.893  1.00  0.00     0.003 A 
ENDBRANCH  89  92
ENDBRANCH  86  88
ENDBRANCH  84  86
ENDBRANCH  80  84
ENDBRANCH  74  77
ENDBRANCH   1  73
TORSDOF 14
ENDMDL
