MODEL 1
REMARK VINA RESULT:     -12.8      0.000      0.000
REMARK SMILES O=C(NCCCNC(=O)c1cccc(Nc2ccnc3ccc(F)cc23)c1)c1ccc(-c2c3nc(c(-c4c(F)c(F)c(F)c(F)c4F)c4ccc([nH]4)c(-c4c(F)c(F)c(F)c(F)c4F)c4nc(c(-c5c(F)c(F)c(F)c(F)c5F)c5ccc2[nH]5)C=C4)C=C3)cc1
REMARK SMILES IDX 5 1 4 2 3 3 1 4 2 5 28 7 29 8 90 9 30 10 89 11 31 12 32 13
REMARK SMILES IDX 33 14 83 15 34 16 88 17 82 18 84 19 35 20 87 21 81 22 80 23
REMARK SMILES IDX 36 25 68 26 48 27 67 28 49 29 52 30 66 31 85 32 50 33 51 34
REMARK SMILES IDX 65 36 86 37 53 38 37 39 38 40 46 41 39 42 40 43 44 44 47 45
REMARK SMILES IDX 41 46 42 47 45 48 43 49 69 50 70 51 78 52 71 53 72 54 76 55
REMARK SMILES IDX 79 56 73 57 74 58 77 59 75 60 54 61 55 62 63 63 56 64 57 65
REMARK SMILES IDX 61 66 64 67 58 68 59 69 62 70 60 71 6 72 7 73 8 74 9 76
REMARK SMILES IDX 10 77 11 78 27 79 12 80 14 81 13 82 15 83 16 85 17 86 26 87
REMARK SMILES IDX 18 88 20 89 25 90 19 91 21 92 23 93 22 94 24 95
REMARK H PARENT 3 6 84 24 52 35 7 75 15 84
REMARK Flexibility Score: inf
ROOT
ATOM      1  C   UNL A   1      33.629  29.155  24.047  1.00  0.00     0.042 C 
ENDROOT
BRANCH   1   2
ATOM      2  C   UNL A   1      32.985  29.145  25.434  1.00  0.00     0.118 C 
BRANCH   2   3
ATOM      3  N   UNL A   1      32.600  30.464  25.913  1.00  0.00    -0.352 N 
ATOM      4  O   UNL A   1      32.540  32.323  27.163  1.00  0.00    -0.269 OA
ATOM      5  C   UNL A   1      33.132  31.282  26.881  1.00  0.00     0.251 C 
ATOM      6  H   UNL A   1      31.812  30.841  25.459  1.00  0.00     0.163 HD
BRANCH   5   7
ATOM      7  C   UNL A   1      34.377  30.944  27.612  1.00  0.00     0.039 A 
ATOM      8  C   UNL A   1      35.414  31.861  27.788  1.00  0.00     0.014 A 
ATOM      9  C   UNL A   1      34.472  29.682  28.217  1.00  0.00     0.014 A 
ATOM     10  C   UNL A   1      36.583  31.481  28.450  1.00  0.00     0.010 A 
ATOM     11  C   UNL A   1      35.615  29.325  28.942  1.00  0.00     0.010 A 
ATOM     12  C   UNL A   1      36.696  30.212  29.041  1.00  0.00    -0.014 A 
BRANCH  12  13
ATOM     13  C   UNL A   1      37.923  29.851  29.803  1.00  0.00     0.031 A 
ATOM     14  C   UNL A   1      38.162  30.382  31.190  1.00  0.00     0.074 A 
ATOM     15  C   UNL A   1      38.828  29.028  29.238  1.00  0.00     0.049 A 
ATOM     16  N   UNL A   1      39.167  30.158  32.000  1.00  0.00    -0.248 NA
ATOM     17  C   UNL A   1      37.142  31.287  31.740  1.00  0.00     0.031 C 
ATOM     18  C   UNL A   1      38.725  28.462  27.893  1.00  0.00     0.029 A 
ATOM     19  N   UNL A   1      40.006  28.517  29.725  1.00  0.00    -0.354 N 
ATOM     20  C   UNL A   1      38.909  30.899  33.145  1.00  0.00     0.074 A 
ATOM     21  C   UNL A   1      37.666  31.605  32.916  1.00  0.00     0.031 C 
ATOM     22  C   UNL A   1      39.777  27.659  27.672  1.00  0.00     0.029 A 
ATOM     23  C   UNL A   1      40.653  27.691  28.839  1.00  0.00     0.049 A 
ATOM     24  H   UNL A   1      40.354  28.724  30.623  1.00  0.00     0.167 HD
ATOM     25  C   UNL A   1      39.635  30.973  34.287  1.00  0.00     0.037 A 
ATOM     26  C   UNL A   1      41.828  27.041  28.944  1.00  0.00     0.037 A 
ATOM     27  C   UNL A   1      40.867  30.261  34.520  1.00  0.00     0.049 A 
ATOM     28  C   UNL A   1      42.628  27.166  30.211  1.00  0.00     0.074 A 
ATOM     29  C   UNL A   1      41.648  30.237  35.664  1.00  0.00     0.029 A 
ATOM     30  N   UNL A   1      41.503  29.455  33.588  1.00  0.00    -0.354 N 
ATOM     31  N   UNL A   1      42.344  27.828  31.306  1.00  0.00    -0.248 NA
ATOM     32  C   UNL A   1      43.913  26.455  30.255  1.00  0.00     0.031 C 
ATOM     33  C   UNL A   1      42.778  29.456  35.408  1.00  0.00     0.029 A 
ATOM     34  C   UNL A   1      42.680  28.952  34.122  1.00  0.00     0.049 A 
ATOM     35  H   UNL A   1      41.168  29.267  32.682  1.00  0.00     0.167 HD
ATOM     36  C   UNL A   1      43.403  27.602  32.174  1.00  0.00     0.074 A 
ATOM     37  C   UNL A   1      44.327  26.723  31.485  1.00  0.00     0.031 C 
ATOM     38  C   UNL A   1      43.592  28.080  33.427  1.00  0.00     0.037 A 
BRANCH  25  39
ATOM     39  C   UNL A   1      39.127  31.867  35.383  1.00  0.00     0.064 A 
ATOM     40  C   UNL A   1      38.346  31.368  36.437  1.00  0.00     0.173 A 
ATOM     41  C   UNL A   1      39.476  33.226  35.412  1.00  0.00     0.173 A 
ATOM     42  F   UNL A   1      37.978  30.078  36.452  1.00  0.00    -0.203 F 
ATOM     43  C   UNL A   1      37.915  32.202  37.466  1.00  0.00     0.198 A 
ATOM     44  C   UNL A   1      39.065  34.050  36.456  1.00  0.00     0.198 A 
ATOM     45  F   UNL A   1      40.229  33.752  34.435  1.00  0.00    -0.203 F 
ATOM     46  F   UNL A   1      37.137  31.711  38.441  1.00  0.00    -0.200 F 
ATOM     47  C   UNL A   1      38.281  33.539  37.479  1.00  0.00     0.200 A 
ATOM     48  F   UNL A   1      39.430  35.340  36.475  1.00  0.00    -0.200 F 
ATOM     49  F   UNL A   1      37.873  34.337  38.476  1.00  0.00    -0.200 F 
ENDBRANCH  25  39
BRANCH  26  50
ATOM     50  C   UNL A   1      42.317  26.215  27.811  1.00  0.00     0.064 A 
ATOM     51  C   UNL A   1      41.809  24.929  27.583  1.00  0.00     0.173 A 
ATOM     52  C   UNL A   1      43.293  26.699  26.927  1.00  0.00     0.173 A 
ATOM     53  F   UNL A   1      40.890  24.414  28.414  1.00  0.00    -0.203 F 
ATOM     54  C   UNL A   1      42.267  24.153  26.521  1.00  0.00     0.198 A 
ATOM     55  C   UNL A   1      43.729  25.934  25.849  1.00  0.00     0.198 A 
ATOM     56  F   UNL A   1      43.808  27.924  27.102  1.00  0.00    -0.203 F 
ATOM     57  F   UNL A   1      41.794  22.912  26.347  1.00  0.00    -0.200 F 
ATOM     58  C   UNL A   1      43.221  24.659  25.650  1.00  0.00     0.200 A 
ATOM     59  F   UNL A   1      44.639  26.433  25.001  1.00  0.00    -0.200 F 
ATOM     60  F   UNL A   1      43.655  23.916  24.623  1.00  0.00    -0.200 F 
ENDBRANCH  26  50
BRANCH  38  61
ATOM     61  C   UNL A   1      44.838  27.649  34.145  1.00  0.00     0.064 A 
ATOM     62  C   UNL A   1      46.019  28.404  34.081  1.00  0.00     0.173 A 
ATOM     63  C   UNL A   1      44.840  26.487  34.930  1.00  0.00     0.173 A 
ATOM     64  F   UNL A   1      46.072  29.513  33.330  1.00  0.00    -0.203 F 
ATOM     65  C   UNL A   1      47.164  27.997  34.762  1.00  0.00     0.198 A 
ATOM     66  C   UNL A   1      45.979  26.098  35.631  1.00  0.00     0.198 A 
ATOM     67  F   UNL A   1      43.735  25.734  35.027  1.00  0.00    -0.203 F 
ATOM     68  F   UNL A   1      48.295  28.708  34.652  1.00  0.00    -0.200 F 
ATOM     69  C   UNL A   1      47.141  26.849  35.540  1.00  0.00     0.200 A 
ATOM     70  F   UNL A   1      45.952  24.995  36.392  1.00  0.00    -0.200 F 
ATOM     71  F   UNL A   1      48.243  26.462  36.198  1.00  0.00    -0.200 F 
ENDBRANCH  38  61
ENDBRANCH  12  13
ENDBRANCH   5   7
ENDBRANCH   2   3
ENDBRANCH   1   2
BRANCH   1  72
ATOM     72  C   UNL A   1      32.699  28.862  22.873  1.00  0.00     0.118 C 
BRANCH  72  73
ATOM     73  N   UNL A   1      33.210  27.886  21.925  1.00  0.00    -0.352 N 
ATOM     74  C   UNL A   1      32.981  26.532  21.885  1.00  0.00     0.251 C 
ATOM     75  H   UNL A   1      33.796  28.242  21.219  1.00  0.00     0.163 HD
ATOM     76  O   UNL A   1      33.278  25.870  20.895  1.00  0.00    -0.269 OA
BRANCH  74  77
ATOM     77  C   UNL A   1      32.455  25.853  23.080  1.00  0.00     0.041 A 
ATOM     78  C   UNL A   1      31.066  25.849  23.245  1.00  0.00     0.014 A 
ATOM     79  C   UNL A   1      33.306  25.252  24.023  1.00  0.00     0.039 A 
ATOM     80  C   UNL A   1      30.510  25.221  24.350  1.00  0.00     0.003 A 
ATOM     81  C   UNL A   1      32.747  24.588  25.120  1.00  0.00     0.039 A 
ATOM     82  C   UNL A   1      31.346  24.592  25.268  1.00  0.00     0.026 A 
BRANCH  81  83
ATOM     83  N   UNL A   1      33.525  23.787  25.986  1.00  0.00    -0.355 N 
ATOM     84  H   UNL A   1      33.517  24.010  26.945  1.00  0.00     0.167 HD
BRANCH  83  85
ATOM     85  C   UNL A   1      34.320  22.686  25.575  1.00  0.00     0.050 A 
ATOM     86  C   UNL A   1      33.661  21.509  25.191  1.00  0.00     0.047 A 
ATOM     87  C   UNL A   1      35.736  22.673  25.658  1.00  0.00     0.027 A 
ATOM     88  C   UNL A   1      34.396  20.375  24.930  1.00  0.00     0.114 A 
ATOM     89  C   UNL A   1      36.387  21.448  25.351  1.00  0.00     0.072 A 
ATOM     90  C   UNL A   1      36.533  23.772  26.058  1.00  0.00     0.051 A 
ATOM     91  N   UNL A   1      35.736  20.330  25.001  1.00  0.00    -0.256 NA
ATOM     92  C   UNL A   1      37.769  21.367  25.427  1.00  0.00     0.032 A 
ATOM     93  C   UNL A   1      37.919  23.652  26.122  1.00  0.00     0.124 A 
ATOM     94  C   UNL A   1      38.546  22.459  25.805  1.00  0.00     0.041 A 
ATOM     95  F   UNL A   1      38.659  24.701  26.501  1.00  0.00    -0.207 F 
ENDBRANCH  83  85
ENDBRANCH  81  83
ENDBRANCH  74  77
ENDBRANCH  72  73
ENDBRANCH   1  72
TORSDOF 12
ENDMDL
MODEL 2
REMARK VINA RESULT:     -12.7      0.245      2.018
REMARK SMILES O=C(NCCCNC(=O)c1cccc(Nc2ccnc3ccc(F)cc23)c1)c1ccc(-c2c3nc(c(-c4c(F)c(F)c(F)c(F)c4F)c4ccc([nH]4)c(-c4c(F)c(F)c(F)c(F)c4F)c4nc(c(-c5c(F)c(F)c(F)c(F)c5F)c5ccc2[nH]5)C=C4)C=C3)cc1
REMARK SMILES IDX 5 1 4 2 3 3 1 4 2 5 28 7 29 8 90 9 30 10 89 11 31 12 32 13
REMARK SMILES IDX 33 14 83 15 34 16 88 17 82 18 84 19 35 20 87 21 81 22 80 23
REMARK SMILES IDX 36 25 68 26 48 27 67 28 49 29 52 30 66 31 85 32 50 33 51 34
REMARK SMILES IDX 65 36 86 37 53 38 37 39 38 40 46 41 39 42 40 43 44 44 47 45
REMARK SMILES IDX 41 46 42 47 45 48 43 49 69 50 70 51 78 52 71 53 72 54 76 55
REMARK SMILES IDX 79 56 73 57 74 58 77 59 75 60 54 61 55 62 63 63 56 64 57 65
REMARK SMILES IDX 61 66 64 67 58 68 59 69 62 70 60 71 6 72 7 73 8 74 9 76
REMARK SMILES IDX 10 77 11 78 27 79 12 80 14 81 13 82 15 83 16 85 17 86 26 87
REMARK SMILES IDX 18 88 20 89 25 90 19 91 21 92 23 93 22 94 24 95
REMARK H PARENT 3 6 84 24 52 35 7 75 15 84
REMARK Flexibility Score: inf
ROOT
ATOM      1  C   UNL A   1      33.576  28.965  24.125  1.00  0.00     0.042 C 
ENDROOT
BRANCH   1   2
ATOM      2  C   UNL A   1      32.991  29.078  25.532  1.00  0.00     0.118 C 
BRANCH   2   3
ATOM      3  N   UNL A   1      32.697  30.443  25.940  1.00  0.00    -0.352 N 
ATOM      4  O   UNL A   1      32.758  32.362  27.096  1.00  0.00    -0.269 OA
ATOM      5  C   UNL A   1      33.275  31.268  26.875  1.00  0.00     0.251 C 
ATOM      6  H   UNL A   1      31.945  30.854  25.455  1.00  0.00     0.163 HD
BRANCH   5   7
ATOM      7  C   UNL A   1      34.483  30.877  27.642  1.00  0.00     0.039 A 
ATOM      8  C   UNL A   1      34.734  29.558  28.022  1.00  0.00     0.014 A 
ATOM      9  C   UNL A   1      35.443  31.862  27.918  1.00  0.00     0.014 A 
ATOM     10  C   UNL A   1      35.867  29.248  28.778  1.00  0.00     0.010 A 
ATOM     11  C   UNL A   1      36.613  31.538  28.615  1.00  0.00     0.010 A 
ATOM     12  C   UNL A   1      36.823  30.232  29.077  1.00  0.00    -0.014 A 
BRANCH  12  13
ATOM     13  C   UNL A   1      38.058  29.867  29.824  1.00  0.00     0.031 A 
ATOM     14  C   UNL A   1      38.315  30.396  31.209  1.00  0.00     0.074 A 
ATOM     15  C   UNL A   1      38.954  29.042  29.248  1.00  0.00     0.049 A 
ATOM     16  N   UNL A   1      39.330  30.168  32.007  1.00  0.00    -0.248 NA
ATOM     17  C   UNL A   1      37.304  31.303  31.772  1.00  0.00     0.031 C 
ATOM     18  C   UNL A   1      38.834  28.478  27.903  1.00  0.00     0.029 A 
ATOM     19  N   UNL A   1      40.137  28.527  29.721  1.00  0.00    -0.354 N 
ATOM     20  C   UNL A   1      39.087  30.909  33.156  1.00  0.00     0.074 A 
ATOM     21  C   UNL A   1      37.844  31.619  32.942  1.00  0.00     0.031 C 
ATOM     22  C   UNL A   1      39.881  27.672  27.669  1.00  0.00     0.029 A 
ATOM     23  C   UNL A   1      40.771  27.700  28.826  1.00  0.00     0.049 A 
ATOM     24  H   UNL A   1      40.496  28.732  30.614  1.00  0.00     0.167 HD
ATOM     25  C   UNL A   1      39.827  30.980  34.289  1.00  0.00     0.037 A 
ATOM     26  C   UNL A   1      41.945  27.047  28.917  1.00  0.00     0.037 A 
ATOM     27  C   UNL A   1      41.060  30.264  34.507  1.00  0.00     0.049 A 
ATOM     28  C   UNL A   1      42.761  27.169  30.174  1.00  0.00     0.074 A 
ATOM     29  C   UNL A   1      41.854  30.237  35.641  1.00  0.00     0.029 A 
ATOM     30  N   UNL A   1      41.682  29.457  33.566  1.00  0.00    -0.354 N 
ATOM     31  N   UNL A   1      42.492  27.830  31.273  1.00  0.00    -0.248 NA
ATOM     32  C   UNL A   1      44.044  26.454  30.202  1.00  0.00     0.031 C 
ATOM     33  C   UNL A   1      42.979  29.453  35.371  1.00  0.00     0.029 A 
ATOM     34  C   UNL A   1      42.864  28.950  34.085  1.00  0.00     0.049 A 
ATOM     35  H   UNL A   1      41.336  29.271  32.664  1.00  0.00     0.167 HD
ATOM     36  C   UNL A   1      43.560  27.600  32.127  1.00  0.00     0.074 A 
ATOM     37  C   UNL A   1      44.474  26.720  31.427  1.00  0.00     0.031 C 
ATOM     38  C   UNL A   1      43.766  28.077  33.379  1.00  0.00     0.037 A 
BRANCH  25  39
ATOM     39  C   UNL A   1      39.335  31.874  35.391  1.00  0.00     0.064 A 
ATOM     40  C   UNL A   1      39.658  33.239  35.431  1.00  0.00     0.173 A 
ATOM     41  C   UNL A   1      38.480  31.374  36.385  1.00  0.00     0.173 A 
ATOM     42  F   UNL A   1      40.478  33.766  34.509  1.00  0.00    -0.203 F 
ATOM     43  C   UNL A   1      39.162  34.064  36.438  1.00  0.00     0.198 A 
ATOM     44  C   UNL A   1      37.965  32.207  37.375  1.00  0.00     0.198 A 
ATOM     45  F   UNL A   1      38.132  30.078  36.388  1.00  0.00    -0.203 F 
ATOM     46  F   UNL A   1      39.515  35.356  36.478  1.00  0.00    -0.200 F 
ATOM     47  C   UNL A   1      38.310  33.550  37.404  1.00  0.00     0.200 A 
ATOM     48  F   UNL A   1      37.132  31.711  38.301  1.00  0.00    -0.200 F 
ATOM     49  F   UNL A   1      37.826  34.347  38.366  1.00  0.00    -0.200 F 
ENDBRANCH  25  39
BRANCH  26  50
ATOM     50  C   UNL A   1      42.418  26.221  27.777  1.00  0.00     0.064 A 
ATOM     51  C   UNL A   1      43.341  26.727  26.851  1.00  0.00     0.173 A 
ATOM     52  C   UNL A   1      41.965  24.905  27.595  1.00  0.00     0.173 A 
ATOM     53  F   UNL A   1      43.786  27.988  26.969  1.00  0.00    -0.203 F 
ATOM     54  C   UNL A   1      43.783  25.953  25.781  1.00  0.00     0.198 A 
ATOM     55  C   UNL A   1      42.431  24.123  26.542  1.00  0.00     0.198 A 
ATOM     56  F   UNL A   1      41.084  24.375  28.455  1.00  0.00    -0.203 F 
ATOM     57  F   UNL A   1      44.636  26.474  24.888  1.00  0.00    -0.200 F 
ATOM     58  C   UNL A   1      43.335  24.649  25.632  1.00  0.00     0.200 A 
ATOM     59  F   UNL A   1      42.006  22.859  26.411  1.00  0.00    -0.200 F 
ATOM     60  F   UNL A   1      43.768  23.902  24.608  1.00  0.00    -0.200 F 
ENDBRANCH  26  50
BRANCH  38  61
ATOM     61  C   UNL A   1      45.019  27.642  34.081  1.00  0.00     0.064 A 
ATOM     62  C   UNL A   1      45.059  26.469  34.850  1.00  0.00     0.173 A 
ATOM     63  C   UNL A   1      46.199  28.390  33.959  1.00  0.00     0.173 A 
ATOM     64  F   UNL A   1      43.952  25.730  35.012  1.00  0.00    -0.203 F 
ATOM     65  C   UNL A   1      46.232  26.072  35.487  1.00  0.00     0.198 A 
ATOM     66  C   UNL A   1      47.377  27.976  34.575  1.00  0.00     0.198 A 
ATOM     67  F   UNL A   1      46.214  29.517  33.232  1.00  0.00    -0.203 F 
ATOM     68  F   UNL A   1      46.237  24.972  36.253  1.00  0.00    -0.200 F 
ATOM     69  C   UNL A   1      47.390  26.822  35.344  1.00  0.00     0.200 A 
ATOM     70  F   UNL A   1      48.498  28.694  34.427  1.00  0.00    -0.200 F 
ATOM     71  F   UNL A   1      48.519  26.435  35.955  1.00  0.00    -0.200 F 
ENDBRANCH  38  61
ENDBRANCH  12  13
ENDBRANCH   5   7
ENDBRANCH   2   3
ENDBRANCH   1   2
BRANCH   1  72
ATOM     72  C   UNL A   1      32.589  28.623  23.012  1.00  0.00     0.118 C 
BRANCH  72  73
ATOM     73  N   UNL A   1      33.129  27.772  21.965  1.00  0.00    -0.352 N 
ATOM     74  C   UNL A   1      32.970  26.417  21.798  1.00  0.00     0.251 C 
ATOM     75  H   UNL A   1      33.679  28.224  21.286  1.00  0.00     0.163 HD
ATOM     76  O   UNL A   1      33.278  25.870  20.744  1.00  0.00    -0.269 OA
BRANCH  74  77
ATOM     77  C   UNL A   1      32.508  25.599  22.931  1.00  0.00     0.041 A 
ATOM     78  C   UNL A   1      31.137  25.330  22.999  1.00  0.00     0.014 A 
ATOM     79  C   UNL A   1      33.397  25.126  23.912  1.00  0.00     0.039 A 
ATOM     80  C   UNL A   1      30.642  24.561  24.042  1.00  0.00     0.003 A 
ATOM     81  C   UNL A   1      32.906  24.321  24.945  1.00  0.00     0.039 A 
ATOM     82  C   UNL A   1      31.523  24.058  24.995  1.00  0.00     0.026 A 
BRANCH  81  83
ATOM     83  N   UNL A   1      33.765  23.641  25.837  1.00  0.00    -0.355 N 
ATOM     84  H   UNL A   1      33.773  23.935  26.776  1.00  0.00     0.167 HD
BRANCH  83  85
ATOM     85  C   UNL A   1      34.620  22.566  25.478  1.00  0.00     0.050 A 
ATOM     86  C   UNL A   1      34.025  21.354  25.098  1.00  0.00     0.047 A 
ATOM     87  C   UNL A   1      36.031  22.616  25.607  1.00  0.00     0.027 A 
ATOM     88  C   UNL A   1      34.815  20.248  24.887  1.00  0.00     0.114 A 
ATOM     89  C   UNL A   1      36.743  21.414  25.350  1.00  0.00     0.072 A 
ATOM     90  C   UNL A   1      36.766  23.757  26.009  1.00  0.00     0.051 A 
ATOM     91  N   UNL A   1      36.152  20.262  25.004  1.00  0.00    -0.256 NA
ATOM     92  C   UNL A   1      38.124  21.394  25.474  1.00  0.00     0.032 A 
ATOM     93  C   UNL A   1      38.153  23.698  26.122  1.00  0.00     0.124 A 
ATOM     94  C   UNL A   1      38.841  22.526  25.853  1.00  0.00     0.041 A 
ATOM     95  F   UNL A   1      38.835  24.786  26.502  1.00  0.00    -0.207 F 
ENDBRANCH  83  85
ENDBRANCH  81  83
ENDBRANCH  74  77
ENDBRANCH  72  73
ENDBRANCH   1  72
TORSDOF 12
ENDMDL
MODEL 3
REMARK VINA RESULT:     -12.4      1.855      3.104
REMARK SMILES O=C(NCCCNC(=O)c1cccc(Nc2ccnc3ccc(F)cc23)c1)c1ccc(-c2c3nc(c(-c4c(F)c(F)c(F)c(F)c4F)c4ccc([nH]4)c(-c4c(F)c(F)c(F)c(F)c4F)c4nc(c(-c5c(F)c(F)c(F)c(F)c5F)c5ccc2[nH]5)C=C4)C=C3)cc1
REMARK SMILES IDX 5 1 4 2 3 3 1 4 2 5 28 7 29 8 90 9 30 10 89 11 31 12 32 13
REMARK SMILES IDX 33 14 83 15 34 16 88 17 82 18 84 19 35 20 87 21 81 22 80 23
REMARK SMILES IDX 36 25 68 26 48 27 67 28 49 29 52 30 66 31 85 32 50 33 51 34
REMARK SMILES IDX 65 36 86 37 53 38 37 39 38 40 46 41 39 42 40 43 44 44 47 45
REMARK SMILES IDX 41 46 42 47 45 48 43 49 69 50 70 51 78 52 71 53 72 54 76 55
REMARK SMILES IDX 79 56 73 57 74 58 77 59 75 60 54 61 55 62 63 63 56 64 57 65
REMARK SMILES IDX 61 66 64 67 58 68 59 69 62 70 60 71 6 72 7 73 8 74 9 76
REMARK SMILES IDX 10 77 11 78 27 79 12 80 14 81 13 82 15 83 16 85 17 86 26 87
REMARK SMILES IDX 18 88 20 89 25 90 19 91 21 92 23 93 22 94 24 95
REMARK H PARENT 3 6 84 24 52 35 7 75 15 84
REMARK Flexibility Score: inf
ROOT
ATOM      1  C   UNL A   1      31.420  31.619  26.910  1.00  0.00     0.042 C 
ENDROOT
BRANCH   1   2
ATOM      2  C   UNL A   1      32.597  32.573  26.705  1.00  0.00     0.118 C 
BRANCH   2   3
ATOM      3  N   UNL A   1      32.428  33.863  27.357  1.00  0.00    -0.352 N 
ATOM      4  O   UNL A   1      32.664  35.527  28.839  1.00  0.00    -0.269 OA
ATOM      5  C   UNL A   1      33.079  34.450  28.416  1.00  0.00     0.251 C 
ATOM      6  H   UNL A   1      31.716  34.420  26.968  1.00  0.00     0.163 HD
BRANCH   5   7
ATOM      7  C   UNL A   1      34.248  33.821  29.079  1.00  0.00     0.039 A 
ATOM      8  C   UNL A   1      34.123  32.725  29.933  1.00  0.00     0.014 A 
ATOM      9  C   UNL A   1      35.528  34.300  28.764  1.00  0.00     0.014 A 
ATOM     10  C   UNL A   1      35.251  32.194  30.563  1.00  0.00     0.010 A 
ATOM     11  C   UNL A   1      36.665  33.722  29.341  1.00  0.00     0.010 A 
ATOM     12  C   UNL A   1      36.536  32.681  30.270  1.00  0.00    -0.014 A 
BRANCH  12  13
ATOM     13  C   UNL A   1      37.730  32.056  30.900  1.00  0.00     0.031 A 
ATOM     14  C   UNL A   1      38.184  32.456  32.277  1.00  0.00     0.074 A 
ATOM     15  C   UNL A   1      38.410  31.109  30.223  1.00  0.00     0.049 A 
ATOM     16  N   UNL A   1      39.193  32.004  32.981  1.00  0.00    -0.248 NA
ATOM     17  C   UNL A   1      37.407  33.506  32.954  1.00  0.00     0.031 C 
ATOM     18  C   UNL A   1      38.087  30.646  28.873  1.00  0.00     0.029 A 
ATOM     19  N   UNL A   1      39.505  30.360  30.579  1.00  0.00    -0.354 N 
ATOM     20  C   UNL A   1      39.180  32.717  34.172  1.00  0.00     0.074 A 
ATOM     21  C   UNL A   1      38.081  33.655  34.086  1.00  0.00     0.031 C 
ATOM     22  C   UNL A   1      38.942  29.673  28.525  1.00  0.00     0.029 A 
ATOM     23  C   UNL A   1      39.904  29.476  29.606  1.00  0.00     0.049 A 
ATOM     24  H   UNL A   1      39.961  30.449  31.446  1.00  0.00     0.167 HD
ATOM     25  C   UNL A   1      40.001  32.591  35.243  1.00  0.00     0.037 A 
ATOM     26  C   UNL A   1      40.937  28.613  29.576  1.00  0.00     0.037 A 
ATOM     27  C   UNL A   1      41.089  31.649  35.333  1.00  0.00     0.049 A 
ATOM     28  C   UNL A   1      41.851  28.517  30.766  1.00  0.00     0.074 A 
ATOM     29  C   UNL A   1      41.944  31.417  36.397  1.00  0.00     0.029 A 
ATOM     30  N   UNL A   1      41.476  30.790  34.316  1.00  0.00    -0.354 N 
ATOM     31  N   UNL A   1      41.793  29.160  31.907  1.00  0.00    -0.248 NA
ATOM     32  C   UNL A   1      42.974  27.576  30.663  1.00  0.00     0.031 C 
ATOM     33  C   UNL A   1      42.878  30.453  36.007  1.00  0.00     0.029 A 
ATOM     34  C   UNL A   1      42.576  30.046  34.718  1.00  0.00     0.049 A 
ATOM     35  H   UNL A   1      41.036  30.717  33.439  1.00  0.00     0.167 HD
ATOM     36  C   UNL A   1      42.859  28.692  32.662  1.00  0.00     0.074 A 
ATOM     37  C   UNL A   1      43.535  27.694  31.858  1.00  0.00     0.031 C 
ATOM     38  C   UNL A   1      43.242  29.058  33.909  1.00  0.00     0.037 A 
BRANCH  25  39
ATOM     39  C   UNL A   1      39.769  33.504  36.413  1.00  0.00     0.064 A 
ATOM     40  C   UNL A   1      40.342  34.784  36.473  1.00  0.00     0.173 A 
ATOM     41  C   UNL A   1      38.915  33.118  37.458  1.00  0.00     0.173 A 
ATOM     42  F   UNL A   1      41.171  35.198  35.504  1.00  0.00    -0.203 F 
ATOM     43  C   UNL A   1      40.085  35.634  37.547  1.00  0.00     0.198 A 
ATOM     44  C   UNL A   1      38.641  33.981  38.517  1.00  0.00     0.198 A 
ATOM     45  F   UNL A   1      38.335  31.909  37.445  1.00  0.00    -0.203 F 
ATOM     46  F   UNL A   1      40.674  36.837  37.602  1.00  0.00    -0.200 F 
ATOM     47  C   UNL A   1      39.230  35.235  38.563  1.00  0.00     0.200 A 
ATOM     48  F   UNL A   1      37.804  33.599  39.492  1.00  0.00    -0.200 F 
ATOM     49  F   UNL A   1      38.977  36.059  39.589  1.00  0.00    -0.200 F 
ENDBRANCH  25  39
BRANCH  26  50
ATOM     50  C   UNL A   1      41.160  27.773  28.372  1.00  0.00     0.064 A 
ATOM     51  C   UNL A   1      40.513  26.538  28.223  1.00  0.00     0.173 A 
ATOM     52  C   UNL A   1      42.016  28.191  27.342  1.00  0.00     0.173 A 
ATOM     53  F   UNL A   1      39.703  26.085  29.192  1.00  0.00    -0.203 F 
ATOM     54  C   UNL A   1      40.723  25.749  27.094  1.00  0.00     0.198 A 
ATOM     55  C   UNL A   1      42.201  27.415  26.201  1.00  0.00     0.198 A 
ATOM     56  F   UNL A   1      42.655  29.365  27.437  1.00  0.00    -0.203 F 
ATOM     57  F   UNL A   1      40.122  24.555  26.994  1.00  0.00    -0.200 F 
ATOM     58  C   UNL A   1      41.560  26.191  26.081  1.00  0.00     0.200 A 
ATOM     59  F   UNL A   1      42.999  27.853  25.218  1.00  0.00    -0.200 F 
ATOM     60  F   UNL A   1      41.754  25.436  24.992  1.00  0.00    -0.200 F 
ENDBRANCH  26  50
BRANCH  38  61
ATOM     61  C   UNL A   1      44.438  28.363  34.491  1.00  0.00     0.064 A 
ATOM     62  C   UNL A   1      44.313  27.158  35.199  1.00  0.00     0.173 A 
ATOM     63  C   UNL A   1      45.725  28.890  34.311  1.00  0.00     0.173 A 
ATOM     64  F   UNL A   1      43.102  26.623  35.413  1.00  0.00    -0.203 F 
ATOM     65  C   UNL A   1      45.434  26.519  35.724  1.00  0.00     0.198 A 
ATOM     66  C   UNL A   1      46.846  28.234  34.813  1.00  0.00     0.198 A 
ATOM     67  F   UNL A   1      45.898  30.037  33.637  1.00  0.00    -0.203 F 
ATOM     68  F   UNL A   1      45.288  25.392  36.435  1.00  0.00    -0.200 F 
ATOM     69  C   UNL A   1      46.698  27.053  35.525  1.00  0.00     0.200 A 
ATOM     70  F   UNL A   1      48.068  28.745  34.610  1.00  0.00    -0.200 F 
ATOM     71  F   UNL A   1      47.775  26.433  36.027  1.00  0.00    -0.200 F 
ENDBRANCH  38  61
ENDBRANCH  12  13
ENDBRANCH   5   7
ENDBRANCH   2   3
ENDBRANCH   1   2
BRANCH   1  72
ATOM     72  C   UNL A   1      31.735  30.130  26.794  1.00  0.00     0.118 C 
BRANCH  72  73
ATOM     73  N   UNL A   1      32.983  29.725  27.420  1.00  0.00    -0.352 N 
ATOM     74  C   UNL A   1      33.980  28.933  26.903  1.00  0.00     0.251 C 
ATOM     75  H   UNL A   1      33.135  30.062  28.332  1.00  0.00     0.163 HD
ATOM     76  O   UNL A   1      35.081  28.870  27.443  1.00  0.00    -0.269 OA
BRANCH  74  77
ATOM     77  C   UNL A   1      33.695  28.081  25.737  1.00  0.00     0.041 A 
ATOM     78  C   UNL A   1      34.070  28.577  24.485  1.00  0.00     0.014 A 
ATOM     79  C   UNL A   1      33.058  26.835  25.871  1.00  0.00     0.039 A 
ATOM     80  C   UNL A   1      33.832  27.818  23.349  1.00  0.00     0.003 A 
ATOM     81  C   UNL A   1      32.847  26.052  24.732  1.00  0.00     0.039 A 
ATOM     82  C   UNL A   1      33.235  26.566  23.479  1.00  0.00     0.026 A 
BRANCH  81  83
ATOM     83  N   UNL A   1      32.410  24.711  24.816  1.00  0.00    -0.355 N 
ATOM     84  H   UNL A   1      31.604  24.461  24.308  1.00  0.00     0.167 HD
BRANCH  83  85
ATOM     85  C   UNL A   1      33.044  23.698  25.581  1.00  0.00     0.050 A 
ATOM     86  C   UNL A   1      32.498  23.385  26.835  1.00  0.00     0.047 A 
ATOM     87  C   UNL A   1      34.265  23.085  25.202  1.00  0.00     0.027 A 
ATOM     88  C   UNL A   1      33.168  22.518  27.667  1.00  0.00     0.114 A 
ATOM     89  C   UNL A   1      34.856  22.196  26.139  1.00  0.00     0.072 A 
ATOM     90  C   UNL A   1      34.947  23.326  23.985  1.00  0.00     0.051 A 
ATOM     91  N   UNL A   1      34.326  21.924  27.339  1.00  0.00    -0.256 NA
ATOM     92  C   UNL A   1      36.059  21.576  25.833  1.00  0.00     0.032 A 
ATOM     93  C   UNL A   1      36.153  22.684  23.714  1.00  0.00     0.124 A 
ATOM     94  C   UNL A   1      36.714  21.806  24.626  1.00  0.00     0.041 A 
ATOM     95  F   UNL A   1      36.785  22.921  22.558  1.00  0.00    -0.207 F 
ENDBRANCH  83  85
ENDBRANCH  81  83
ENDBRANCH  74  77
ENDBRANCH  72  73
ENDBRANCH   1  72
TORSDOF 12
ENDMDL
