MODEL 1
REMARK VINA RESULT:     -12.0      0.000      0.000
REMARK SMILES C=CCOc1ccc(C(=O)N2CCC[C@H]2C(=O)NCCCNC(=O)c2ccc(-c3c4nc(c(-c5c(F)c(F)c(F)c(F)c5F)c5ccc([nH]5)c(-c5c(F)c(F)c(F)c(F)c5F)c5nc(c(-c6c(F)c(F)c(F)c(F)c6F)c6ccc3[nH]6)C=C5)C=C4)cc2)cc1
REMARK SMILES IDX 16 1 17 2 18 3 15 5 11 6 12 7 13 8 14 9 9 10 10 11 8 12 5 13
REMARK SMILES IDX 6 14 89 15 7 16 88 17 4 18 3 19 2 20 1 21 19 22 20 23 21 24
REMARK SMILES IDX 22 25 23 26 24 28 25 29 26 30 87 31 27 32 86 33 28 34 29 35
REMARK SMILES IDX 30 36 80 37 31 38 85 39 79 40 81 41 32 42 84 43 78 44 77 45
REMARK SMILES IDX 33 47 65 48 45 49 64 50 46 51 49 52 63 53 82 54 47 55 48 56
REMARK SMILES IDX 62 58 83 59 50 60 34 61 35 62 43 63 36 64 37 65 41 66 44 67
REMARK SMILES IDX 38 68 39 69 42 70 40 71 66 72 67 73 75 74 68 75 69 76 73 77
REMARK SMILES IDX 76 78 70 79 71 80 74 81 72 82 51 83 52 84 60 85 53 86 54 87
REMARK SMILES IDX 58 88 61 89 55 90 56 91 59 92 57 93
REMARK H PARENT 18 4 22 27 81 46 49 57
REMARK Flexibility Score: inf
ROOT
ATOM      1  C   UNL A   1      32.168  26.075  21.682  1.00  0.00     0.242 C 
ATOM      2  O   UNL A   1      31.730  25.956  20.528  1.00  0.00    -0.273 OA
ATOM      3  N   UNL A   1      32.838  27.230  21.940  1.00  0.00    -0.354 N 
ATOM      4  H   UNL A   1      32.842  27.866  21.189  1.00  0.00     0.163 HD
ENDROOT
BRANCH   1   5
ATOM      5  C   UNL A   1      31.737  25.062  22.764  1.00  0.00     0.174 C 
ATOM      6  N   UNL A   1      32.671  24.614  23.797  1.00  0.00    -0.327 N 
ATOM      7  C   UNL A   1      32.280  25.159  25.093  1.00  0.00     0.121 C 
ATOM      8  C   UNL A   1      30.769  25.180  24.994  1.00  0.00     0.024 C 
ATOM      9  C   UNL A   1      30.548  25.643  23.555  1.00  0.00     0.037 C 
BRANCH   6  10
ATOM     10  C   UNL A   1      33.577  23.620  23.454  1.00  0.00     0.254 C 
ATOM     11  O   UNL A   1      34.561  23.877  22.759  1.00  0.00    -0.269 OA
BRANCH  10  12
ATOM     12  C   UNL A   1      33.359  22.198  23.833  1.00  0.00     0.040 A 
ATOM     13  C   UNL A   1      32.601  19.628  24.641  1.00  0.00     0.119 A 
ATOM     14  C   UNL A   1      32.199  20.099  23.394  1.00  0.00     0.047 A 
ATOM     15  C   UNL A   1      33.432  20.397  25.448  1.00  0.00     0.047 A 
ATOM     16  C   UNL A   1      32.584  21.383  22.989  1.00  0.00     0.017 A 
ATOM     17  C   UNL A   1      33.743  21.700  25.079  1.00  0.00     0.017 A 
BRANCH  13  18
ATOM     18  O   UNL A   1      32.153  18.414  25.086  1.00  0.00    -0.490 OA
BRANCH  18  19
ATOM     19  C   UNL A   1      33.245  17.480  25.213  1.00  0.00     0.257 C 
BRANCH  19  20
ATOM     20  C   UNL A   1      33.329  16.576  24.011  1.00  0.00     0.006 C 
ATOM     21  C   UNL A   1      34.215  16.724  23.015  1.00  0.00     0.007 C 
ENDBRANCH  19  20
ENDBRANCH  18  19
ENDBRANCH  13  18
ENDBRANCH  10  12
ENDBRANCH   6  10
ENDBRANCH   1   5
BRANCH   3  22
ATOM     22  C   UNL A   1      33.548  27.699  23.111  1.00  0.00     0.117 C 
BRANCH  22  23
ATOM     23  C   UNL A   1      32.720  28.669  23.940  1.00  0.00     0.042 C 
BRANCH  23  24
ATOM     24  C   UNL A   1      33.466  29.203  25.155  1.00  0.00     0.118 C 
BRANCH  24  25
ATOM     25  N   UNL A   1      32.896  30.453  25.644  1.00  0.00    -0.352 N 
ATOM     26  C   UNL A   1      33.184  31.185  26.768  1.00  0.00     0.251 C 
ATOM     27  H   UNL A   1      32.190  30.835  25.074  1.00  0.00     0.163 HD
ATOM     28  O   UNL A   1      32.424  32.083  27.116  1.00  0.00    -0.269 OA
BRANCH  26  29
ATOM     29  C   UNL A   1      34.398  30.902  27.565  1.00  0.00     0.039 A 
ATOM     30  C   UNL A   1      35.326  31.928  27.770  1.00  0.00     0.014 A 
ATOM     31  C   UNL A   1      34.656  29.621  28.059  1.00  0.00     0.014 A 
ATOM     32  C   UNL A   1      36.485  31.679  28.507  1.00  0.00     0.010 A 
ATOM     33  C   UNL A   1      35.763  29.397  28.868  1.00  0.00     0.010 A 
ATOM     34  C   UNL A   1      36.701  30.418  29.081  1.00  0.00    -0.014 A 
BRANCH  34  35
ATOM     35  C   UNL A   1      37.925  30.120  29.865  1.00  0.00     0.031 A 
ATOM     36  C   UNL A   1      38.969  29.201  29.294  1.00  0.00     0.074 A 
ATOM     37  C   UNL A   1      38.065  30.618  31.107  1.00  0.00     0.049 A 
ATOM     38  N   UNL A   1      40.060  28.735  29.849  1.00  0.00    -0.248 NA
ATOM     39  C   UNL A   1      38.741  28.713  27.924  1.00  0.00     0.031 C 
ATOM     40  C   UNL A   1      37.102  31.485  31.785  1.00  0.00     0.029 A 
ATOM     41  N   UNL A   1      39.073  30.459  32.023  1.00  0.00    -0.354 N 
ATOM     42  C   UNL A   1      40.625  27.880  28.913  1.00  0.00     0.074 A 
ATOM     43  C   UNL A   1      39.735  27.852  27.773  1.00  0.00     0.031 C 
ATOM     44  C   UNL A   1      37.579  31.807  32.998  1.00  0.00     0.029 A 
ATOM     45  C   UNL A   1      38.864  31.142  33.195  1.00  0.00     0.049 A 
ATOM     46  H   UNL A   1      39.872  29.907  31.855  1.00  0.00     0.167 HD
ATOM     47  C   UNL A   1      41.793  27.199  28.984  1.00  0.00     0.037 A 
ATOM     48  C   UNL A   1      39.626  31.222  34.300  1.00  0.00     0.037 A 
ATOM     49  C   UNL A   1      42.697  27.265  30.101  1.00  0.00     0.049 A 
ATOM     50  C   UNL A   1      40.932  30.478  34.347  1.00  0.00     0.074 A 
ATOM     51  C   UNL A   1      43.931  26.657  30.253  1.00  0.00     0.029 A 
ATOM     52  N   UNL A   1      42.465  27.995  31.257  1.00  0.00    -0.354 N 
ATOM     53  N   UNL A   1      41.479  29.707  33.438  1.00  0.00    -0.248 NA
ATOM     54  C   UNL A   1      41.729  30.620  35.572  1.00  0.00     0.031 C 
ATOM     55  C   UNL A   1      44.435  27.001  31.513  1.00  0.00     0.029 A 
ATOM     56  C   UNL A   1      43.530  27.850  32.130  1.00  0.00     0.049 A 
ATOM     57  H   UNL A   1      41.661  28.537  31.431  1.00  0.00     0.167 HD
ATOM     58  C   UNL A   1      42.693  29.296  33.966  1.00  0.00     0.074 A 
ATOM     59  C   UNL A   1      42.809  29.911  35.274  1.00  0.00     0.031 C 
ATOM     60  C   UNL A   1      43.630  28.483  33.420  1.00  0.00     0.037 A 
BRANCH  47  61
ATOM     61  C   UNL A   1      42.156  26.332  27.815  1.00  0.00     0.064 A 
ATOM     62  C   UNL A   1      41.621  25.043  27.663  1.00  0.00     0.173 A 
ATOM     63  C   UNL A   1      43.046  26.792  26.833  1.00  0.00     0.173 A 
ATOM     64  F   UNL A   1      40.778  24.550  28.583  1.00  0.00    -0.203 F 
ATOM     65  C   UNL A   1      41.992  24.234  26.593  1.00  0.00     0.198 A 
ATOM     66  C   UNL A   1      43.391  25.991  25.747  1.00  0.00     0.198 A 
ATOM     67  F   UNL A   1      43.582  28.018  26.926  1.00  0.00    -0.203 F 
ATOM     68  F   UNL A   1      41.513  22.986  26.502  1.00  0.00    -0.200 F 
ATOM     69  C   UNL A   1      42.872  24.710  25.634  1.00  0.00     0.200 A 
ATOM     70  F   UNL A   1      44.235  26.455  24.816  1.00  0.00    -0.200 F 
ATOM     71  F   UNL A   1      43.230  23.930  24.604  1.00  0.00    -0.200 F 
ENDBRANCH  47  61
BRANCH  48  72
ATOM     72  C   UNL A   1      39.198  32.083  35.430  1.00  0.00     0.064 A 
ATOM     73  C   UNL A   1      38.424  31.555  36.474  1.00  0.00     0.173 A 
ATOM     74  C   UNL A   1      39.557  33.436  35.501  1.00  0.00     0.173 A 
ATOM     75  F   UNL A   1      38.041  30.270  36.437  1.00  0.00    -0.203 F 
ATOM     76  C   UNL A   1      38.016  32.351  37.541  1.00  0.00     0.198 A 
ATOM     77  C   UNL A   1      39.166  34.226  36.581  1.00  0.00     0.198 A 
ATOM     78  F   UNL A   1      40.300  33.985  34.529  1.00  0.00    -0.203 F 
ATOM     79  F   UNL A   1      37.251  31.828  38.508  1.00  0.00    -0.200 F 
ATOM     80  C   UNL A   1      38.393  33.684  37.597  1.00  0.00     0.200 A 
ATOM     81  F   UNL A   1      39.541  35.511  36.638  1.00  0.00    -0.200 F 
ATOM     82  F   UNL A   1      38.005  34.448  38.627  1.00  0.00    -0.200 F 
ENDBRANCH  48  72
BRANCH  60  83
ATOM     83  C   UNL A   1      44.877  28.247  34.216  1.00  0.00     0.064 A 
ATOM     84  C   UNL A   1      44.992  27.162  35.096  1.00  0.00     0.173 A 
ATOM     85  C   UNL A   1      45.984  29.096  34.067  1.00  0.00     0.173 A 
ATOM     86  F   UNL A   1      43.954  26.332  35.283  1.00  0.00    -0.203 F 
ATOM     87  C   UNL A   1      46.163  26.949  35.817  1.00  0.00     0.198 A 
ATOM     88  C   UNL A   1      47.161  28.866  34.771  1.00  0.00     0.198 A 
ATOM     89  F   UNL A   1      45.924  30.145  33.233  1.00  0.00    -0.203 F 
ATOM     90  F   UNL A   1      46.238  25.930  36.684  1.00  0.00    -0.200 F 
ATOM     91  C   UNL A   1      47.248  27.797  35.650  1.00  0.00     0.200 A 
ATOM     92  F   UNL A   1      48.212  29.681  34.602  1.00  0.00    -0.200 F 
ATOM     93  F   UNL A   1      48.377  27.587  36.342  1.00  0.00    -0.200 F 
ENDBRANCH  60  83
ENDBRANCH  34  35
ENDBRANCH  26  29
ENDBRANCH  24  25
ENDBRANCH  23  24
ENDBRANCH  22  23
ENDBRANCH   3  22
TORSDOF 15
ENDMDL
MODEL 2
REMARK VINA RESULT:     -12.0      3.899      7.363
REMARK SMILES C=CCOc1ccc(C(=O)N2CCC[C@H]2C(=O)NCCCNC(=O)c2ccc(-c3c4nc(c(-c5c(F)c(F)c(F)c(F)c5F)c5ccc([nH]5)c(-c5c(F)c(F)c(F)c(F)c5F)c5nc(c(-c6c(F)c(F)c(F)c(F)c6F)c6ccc3[nH]6)C=C5)C=C4)cc2)cc1
REMARK SMILES IDX 16 1 17 2 18 3 15 5 11 6 12 7 13 8 14 9 9 10 10 11 8 12 5 13
REMARK SMILES IDX 6 14 89 15 7 16 88 17 4 18 3 19 2 20 1 21 19 22 20 23 21 24
REMARK SMILES IDX 22 25 23 26 24 28 25 29 26 30 87 31 27 32 86 33 28 34 29 35
REMARK SMILES IDX 30 36 80 37 31 38 85 39 79 40 81 41 32 42 84 43 78 44 77 45
REMARK SMILES IDX 33 47 65 48 45 49 64 50 46 51 49 52 63 53 82 54 47 55 48 56
REMARK SMILES IDX 62 58 83 59 50 60 34 61 35 62 43 63 36 64 37 65 41 66 44 67
REMARK SMILES IDX 38 68 39 69 42 70 40 71 66 72 67 73 75 74 68 75 69 76 73 77
REMARK SMILES IDX 76 78 70 79 71 80 74 81 72 82 51 83 52 84 60 85 53 86 54 87
REMARK SMILES IDX 58 88 61 89 55 90 56 91 59 92 57 93
REMARK H PARENT 18 4 22 27 81 46 49 57
REMARK Flexibility Score: inf
ROOT
ATOM      1  C   UNL A   1      32.728  22.618  26.844  1.00  0.00     0.242 C 
ATOM      2  O   UNL A   1      32.043  22.798  27.861  1.00  0.00    -0.273 OA
ATOM      3  N   UNL A   1      34.070  22.531  27.047  1.00  0.00    -0.354 N 
ATOM      4  H   UNL A   1      34.334  22.560  27.995  1.00  0.00     0.163 HD
ENDROOT
BRANCH   1   5
ATOM      5  C   UNL A   1      32.029  22.281  25.510  1.00  0.00     0.174 C 
ATOM      6  N   UNL A   1      32.229  23.109  24.320  1.00  0.00    -0.327 N 
ATOM      7  C   UNL A   1      33.013  22.377  23.330  1.00  0.00     0.121 C 
ATOM      8  C   UNL A   1      32.553  20.950  23.539  1.00  0.00     0.024 C 
ATOM      9  C   UNL A   1      32.450  20.867  25.062  1.00  0.00     0.037 C 
BRANCH   6  10
ATOM     10  C   UNL A   1      31.494  24.282  24.225  1.00  0.00     0.254 C 
ATOM     11  O   UNL A   1      30.559  24.378  23.429  1.00  0.00    -0.269 OA
BRANCH  10  12
ATOM     12  C   UNL A   1      31.853  25.495  25.009  1.00  0.00     0.040 A 
ATOM     13  C   UNL A   1      32.669  27.538  26.738  1.00  0.00     0.119 A 
ATOM     14  C   UNL A   1      33.608  26.924  25.914  1.00  0.00     0.047 A 
ATOM     15  C   UNL A   1      31.326  27.192  26.652  1.00  0.00     0.047 A 
ATOM     16  C   UNL A   1      33.197  25.905  25.045  1.00  0.00     0.017 A 
ATOM     17  C   UNL A   1      30.935  26.126  25.851  1.00  0.00     0.017 A 
BRANCH  13  18
ATOM     18  O   UNL A   1      33.076  28.468  27.657  1.00  0.00    -0.490 OA
BRANCH  18  19
ATOM     19  C   UNL A   1      34.350  29.032  27.285  1.00  0.00     0.257 C 
BRANCH  19  20
ATOM     20  C   UNL A   1      34.289  30.537  27.252  1.00  0.00     0.006 C 
ATOM     21  C   UNL A   1      33.153  31.249  27.305  1.00  0.00     0.007 C 
ENDBRANCH  19  20
ENDBRANCH  18  19
ENDBRANCH  13  18
ENDBRANCH  10  12
ENDBRANCH   6  10
ENDBRANCH   1   5
BRANCH   3  22
ATOM     22  C   UNL A   1      35.185  22.404  26.131  1.00  0.00     0.117 C 
BRANCH  22  23
ATOM     23  C   UNL A   1      35.640  23.749  25.584  1.00  0.00     0.042 C 
BRANCH  23  24
ATOM     24  C   UNL A   1      37.029  23.700  24.964  1.00  0.00     0.118 C 
BRANCH  24  25
ATOM     25  N   UNL A   1      37.869  22.678  25.577  1.00  0.00    -0.352 N 
ATOM     26  C   UNL A   1      39.007  22.795  26.334  1.00  0.00     0.251 C 
ATOM     27  H   UNL A   1      37.571  21.752  25.423  1.00  0.00     0.163 HD
ATOM     28  O   UNL A   1      39.692  21.800  26.553  1.00  0.00    -0.269 OA
BRANCH  26  29
ATOM     29  C   UNL A   1      39.418  24.103  26.887  1.00  0.00     0.039 A 
ATOM     30  C   UNL A   1      40.050  25.024  26.045  1.00  0.00     0.014 A 
ATOM     31  C   UNL A   1      39.239  24.405  28.239  1.00  0.00     0.014 A 
ATOM     32  C   UNL A   1      40.459  26.260  26.549  1.00  0.00     0.010 A 
ATOM     33  C   UNL A   1      39.563  25.669  28.718  1.00  0.00     0.010 A 
ATOM     34  C   UNL A   1      40.198  26.600  27.885  1.00  0.00    -0.014 A 
BRANCH  34  35
ATOM     35  C   UNL A   1      40.624  27.903  28.452  1.00  0.00     0.031 A 
ATOM     36  C   UNL A   1      42.071  28.130  28.791  1.00  0.00     0.074 A 
ATOM     37  C   UNL A   1      39.707  28.850  28.723  1.00  0.00     0.049 A 
ATOM     38  N   UNL A   1      42.636  29.152  29.383  1.00  0.00    -0.248 NA
ATOM     39  C   UNL A   1      43.006  27.045  28.450  1.00  0.00     0.031 C 
ATOM     40  C   UNL A   1      38.270  28.731  28.478  1.00  0.00     0.029 A 
ATOM     41  N   UNL A   1      39.850  30.100  29.270  1.00  0.00    -0.354 N 
ATOM     42  C   UNL A   1      43.978  28.820  29.510  1.00  0.00     0.074 A 
ATOM     43  C   UNL A   1      44.137  27.484  28.981  1.00  0.00     0.031 C 
ATOM     44  C   UNL A   1      37.666  29.873  28.845  1.00  0.00     0.029 A 
ATOM     45  C   UNL A   1      38.669  30.790  29.381  1.00  0.00     0.049 A 
ATOM     46  H   UNL A   1      40.719  30.467  29.555  1.00  0.00     0.167 HD
ATOM     47  C   UNL A   1      44.993  29.571  30.001  1.00  0.00     0.037 A 
ATOM     48  C   UNL A   1      38.428  32.023  29.861  1.00  0.00     0.037 A 
ATOM     49  C   UNL A   1      44.839  30.917  30.484  1.00  0.00     0.049 A 
ATOM     50  C   UNL A   1      39.574  32.848  30.376  1.00  0.00     0.074 A 
ATOM     51  C   UNL A   1      45.809  31.784  30.953  1.00  0.00     0.029 A 
ATOM     52  N   UNL A   1      43.630  31.594  30.551  1.00  0.00    -0.354 N 
ATOM     53  N   UNL A   1      40.846  32.542  30.451  1.00  0.00    -0.248 NA
ATOM     54  C   UNL A   1      39.249  34.194  30.868  1.00  0.00     0.031 C 
ATOM     55  C   UNL A   1      45.184  32.979  31.327  1.00  0.00     0.029 A 
ATOM     56  C   UNL A   1      43.828  32.867  31.057  1.00  0.00     0.049 A 
ATOM     57  H   UNL A   1      42.759  31.224  30.277  1.00  0.00     0.167 HD
ATOM     58  C   UNL A   1      41.478  33.662  30.971  1.00  0.00     0.074 A 
ATOM     59  C   UNL A   1      40.450  34.661  31.184  1.00  0.00     0.031 C 
ATOM     60  C   UNL A   1      42.792  33.849  31.247  1.00  0.00     0.037 A 
BRANCH  47  61
ATOM     61  C   UNL A   1      46.357  28.948  30.028  1.00  0.00     0.064 A 
ATOM     62  C   UNL A   1      47.228  29.041  28.931  1.00  0.00     0.173 A 
ATOM     63  C   UNL A   1      46.802  28.252  31.161  1.00  0.00     0.173 A 
ATOM     64  F   UNL A   1      46.844  29.682  27.817  1.00  0.00    -0.203 F 
ATOM     65  C   UNL A   1      48.479  28.428  28.954  1.00  0.00     0.198 A 
ATOM     66  C   UNL A   1      48.065  27.666  31.193  1.00  0.00     0.198 A 
ATOM     67  F   UNL A   1      46.012  28.137  32.239  1.00  0.00    -0.203 F 
ATOM     68  F   UNL A   1      49.268  28.481  27.873  1.00  0.00    -0.200 F 
ATOM     69  C   UNL A   1      48.897  27.746  30.086  1.00  0.00     0.200 A 
ATOM     70  F   UNL A   1      48.473  27.014  32.290  1.00  0.00    -0.200 F 
ATOM     71  F   UNL A   1      50.101  27.155  30.107  1.00  0.00    -0.200 F 
ENDBRANCH  47  61
BRANCH  48  72
ATOM     72  C   UNL A   1      37.049  32.570  29.823  1.00  0.00     0.064 A 
ATOM     73  C   UNL A   1      36.182  32.391  30.911  1.00  0.00     0.173 A 
ATOM     74  C   UNL A   1      36.573  33.290  28.718  1.00  0.00     0.173 A 
ATOM     75  F   UNL A   1      36.588  31.692  31.981  1.00  0.00    -0.203 F 
ATOM     76  C   UNL A   1      34.886  32.901  30.889  1.00  0.00     0.198 A 
ATOM     77  C   UNL A   1      35.283  33.819  28.707  1.00  0.00     0.198 A 
ATOM     78  F   UNL A   1      37.367  33.492  27.656  1.00  0.00    -0.203 F 
ATOM     79  F   UNL A   1      34.068  32.687  31.928  1.00  0.00    -0.200 F 
ATOM     80  C   UNL A   1      34.441  33.620  29.791  1.00  0.00     0.200 A 
ATOM     81  F   UNL A   1      34.860  34.522  27.649  1.00  0.00    -0.200 F 
ATOM     82  F   UNL A   1      33.196  34.115  29.773  1.00  0.00    -0.200 F 
ENDBRANCH  48  72
BRANCH  60  83
ATOM     83  C   UNL A   1      43.195  35.195  31.768  1.00  0.00     0.064 A 
ATOM     84  C   UNL A   1      43.127  35.503  33.134  1.00  0.00     0.173 A 
ATOM     85  C   UNL A   1      43.690  36.174  30.893  1.00  0.00     0.173 A 
ATOM     86  F   UNL A   1      42.646  34.604  34.005  1.00  0.00    -0.203 F 
ATOM     87  C   UNL A   1      43.520  36.753  33.603  1.00  0.00     0.198 A 
ATOM     88  C   UNL A   1      44.104  37.414  31.370  1.00  0.00     0.198 A 
ATOM     89  F   UNL A   1      43.778  35.923  29.579  1.00  0.00    -0.203 F 
ATOM     90  F   UNL A   1      43.408  37.043  34.906  1.00  0.00    -0.200 F 
ATOM     91  C   UNL A   1      44.013  37.705  32.722  1.00  0.00     0.200 A 
ATOM     92  F   UNL A   1      44.589  38.329  30.518  1.00  0.00    -0.200 F 
ATOM     93  F   UNL A   1      44.395  38.907  33.177  1.00  0.00    -0.200 F 
ENDBRANCH  60  83
ENDBRANCH  34  35
ENDBRANCH  26  29
ENDBRANCH  24  25
ENDBRANCH  23  24
ENDBRANCH  22  23
ENDBRANCH   3  22
TORSDOF 15
ENDMDL
MODEL 3
REMARK VINA RESULT:     -11.9      1.729      4.265
REMARK SMILES C=CCOc1ccc(C(=O)N2CCC[C@H]2C(=O)NCCCNC(=O)c2ccc(-c3c4nc(c(-c5c(F)c(F)c(F)c(F)c5F)c5ccc([nH]5)c(-c5c(F)c(F)c(F)c(F)c5F)c5nc(c(-c6c(F)c(F)c(F)c(F)c6F)c6ccc3[nH]6)C=C5)C=C4)cc2)cc1
REMARK SMILES IDX 16 1 17 2 18 3 15 5 11 6 12 7 13 8 14 9 9 10 10 11 8 12 5 13
REMARK SMILES IDX 6 14 89 15 7 16 88 17 4 18 3 19 2 20 1 21 19 22 20 23 21 24
REMARK SMILES IDX 22 25 23 26 24 28 25 29 26 30 87 31 27 32 86 33 28 34 29 35
REMARK SMILES IDX 30 36 80 37 31 38 85 39 79 40 81 41 32 42 84 43 78 44 77 45
REMARK SMILES IDX 33 47 65 48 45 49 64 50 46 51 49 52 63 53 82 54 47 55 48 56
REMARK SMILES IDX 62 58 83 59 50 60 34 61 35 62 43 63 36 64 37 65 41 66 44 67
REMARK SMILES IDX 38 68 39 69 42 70 40 71 66 72 67 73 75 74 68 75 69 76 73 77
REMARK SMILES IDX 76 78 70 79 71 80 74 81 72 82 51 83 52 84 60 85 53 86 54 87
REMARK SMILES IDX 58 88 61 89 55 90 56 91 59 92 57 93
REMARK H PARENT 18 4 22 27 81 46 49 57
REMARK Flexibility Score: inf
ROOT
ATOM      1  C   UNL A   1      33.113  26.003  21.947  1.00  0.00     0.242 C 
ATOM      2  O   UNL A   1      32.817  25.688  20.786  1.00  0.00    -0.273 OA
ATOM      3  N   UNL A   1      33.696  27.223  22.096  1.00  0.00    -0.354 N 
ATOM      4  H   UNL A   1      33.758  27.740  21.261  1.00  0.00     0.163 HD
ENDROOT
BRANCH   1   5
ATOM      5  C   UNL A   1      32.605  25.136  23.119  1.00  0.00     0.174 C 
ATOM      6  N   UNL A   1      31.181  25.058  23.442  1.00  0.00    -0.327 N 
ATOM      7  C   UNL A   1      30.666  23.734  23.109  1.00  0.00     0.121 C 
ATOM      8  C   UNL A   1      31.851  22.840  23.407  1.00  0.00     0.024 C 
ATOM      9  C   UNL A   1      33.020  23.671  22.880  1.00  0.00     0.037 C 
BRANCH   6  10
ATOM     10  C   UNL A   1      30.634  26.096  24.182  1.00  0.00     0.254 C 
ATOM     11  O   UNL A   1      30.838  26.184  25.394  1.00  0.00    -0.269 OA
BRANCH  10  12
ATOM     12  C   UNL A   1      29.713  27.093  23.571  1.00  0.00     0.040 A 
ATOM     13  C   UNL A   1      28.085  29.195  22.699  1.00  0.00     0.119 A 
ATOM     14  C   UNL A   1      29.448  29.226  22.421  1.00  0.00     0.047 A 
ATOM     15  C   UNL A   1      27.523  28.097  23.340  1.00  0.00     0.047 A 
ATOM     16  C   UNL A   1      30.261  28.170  22.853  1.00  0.00     0.017 A 
ATOM     17  C   UNL A   1      28.343  27.093  23.840  1.00  0.00     0.017 A 
BRANCH  13  18
ATOM     18  O   UNL A   1      27.298  30.265  22.365  1.00  0.00    -0.490 OA
BRANCH  18  19
ATOM     19  C   UNL A   1      27.825  31.483  22.928  1.00  0.00     0.257 C 
BRANCH  19  20
ATOM     20  C   UNL A   1      28.081  32.511  21.857  1.00  0.00     0.006 C 
ATOM     21  C   UNL A   1      28.027  32.259  20.540  1.00  0.00     0.007 C 
ENDBRANCH  19  20
ENDBRANCH  18  19
ENDBRANCH  13  18
ENDBRANCH  10  12
ENDBRANCH   6  10
ENDBRANCH   1   5
BRANCH   3  22
ATOM     22  C   UNL A   1      34.244  27.902  23.251  1.00  0.00     0.117 C 
BRANCH  22  23
ATOM     23  C   UNL A   1      33.326  29.001  23.765  1.00  0.00     0.042 C 
BRANCH  23  24
ATOM     24  C   UNL A   1      33.371  29.154  25.279  1.00  0.00     0.118 C 
BRANCH  24  25
ATOM     25  N   UNL A   1      32.853  30.445  25.717  1.00  0.00    -0.352 N 
ATOM     26  C   UNL A   1      33.181  31.217  26.802  1.00  0.00     0.251 C 
ATOM     27  H   UNL A   1      32.153  30.826  25.137  1.00  0.00     0.163 HD
ATOM     28  O   UNL A   1      32.457  32.157  27.117  1.00  0.00    -0.269 OA
BRANCH  26  29
ATOM     29  C   UNL A   1      34.393  30.927  27.598  1.00  0.00     0.039 A 
ATOM     30  C   UNL A   1      35.351  31.932  27.761  1.00  0.00     0.014 A 
ATOM     31  C   UNL A   1      34.620  29.656  28.133  1.00  0.00     0.014 A 
ATOM     32  C   UNL A   1      36.510  31.676  28.496  1.00  0.00     0.010 A 
ATOM     33  C   UNL A   1      35.728  29.429  28.940  1.00  0.00     0.010 A 
ATOM     34  C   UNL A   1      36.696  30.428  29.110  1.00  0.00    -0.014 A 
BRANCH  34  35
ATOM     35  C   UNL A   1      37.918  30.123  29.894  1.00  0.00     0.031 A 
ATOM     36  C   UNL A   1      38.963  29.209  29.316  1.00  0.00     0.074 A 
ATOM     37  C   UNL A   1      38.056  30.608  31.141  1.00  0.00     0.049 A 
ATOM     38  N   UNL A   1      40.052  28.737  29.869  1.00  0.00    -0.248 NA
ATOM     39  C   UNL A   1      38.737  28.734  27.941  1.00  0.00     0.031 C 
ATOM     40  C   UNL A   1      37.092  31.469  31.825  1.00  0.00     0.029 A 
ATOM     41  N   UNL A   1      39.063  30.441  32.057  1.00  0.00    -0.354 N 
ATOM     42  C   UNL A   1      40.619  27.891  28.926  1.00  0.00     0.074 A 
ATOM     43  C   UNL A   1      39.731  27.874  27.784  1.00  0.00     0.031 C 
ATOM     44  C   UNL A   1      37.566  31.780  33.042  1.00  0.00     0.029 A 
ATOM     45  C   UNL A   1      38.851  31.113  33.235  1.00  0.00     0.049 A 
ATOM     46  H   UNL A   1      39.861  29.890  31.886  1.00  0.00     0.167 HD
ATOM     47  C   UNL A   1      41.787  27.209  28.993  1.00  0.00     0.037 A 
ATOM     48  C   UNL A   1      39.611  31.182  34.342  1.00  0.00     0.037 A 
ATOM     49  C   UNL A   1      42.689  27.264  30.112  1.00  0.00     0.049 A 
ATOM     50  C   UNL A   1      40.917  30.437  34.385  1.00  0.00     0.074 A 
ATOM     51  C   UNL A   1      43.922  26.654  30.260  1.00  0.00     0.029 A 
ATOM     52  N   UNL A   1      42.454  27.983  31.275  1.00  0.00    -0.354 N 
ATOM     53  N   UNL A   1      41.465  29.675  33.470  1.00  0.00    -0.248 NA
ATOM     54  C   UNL A   1      41.712  30.567  35.613  1.00  0.00     0.031 C 
ATOM     55  C   UNL A   1      44.423  26.985  31.524  1.00  0.00     0.029 A 
ATOM     56  C   UNL A   1      43.517  27.829  32.148  1.00  0.00     0.049 A 
ATOM     57  H   UNL A   1      41.651  28.524  31.452  1.00  0.00     0.167 HD
ATOM     58  C   UNL A   1      42.678  29.258  33.997  1.00  0.00     0.074 A 
ATOM     59  C   UNL A   1      42.792  29.860  35.310  1.00  0.00     0.031 C 
ATOM     60  C   UNL A   1      43.615  28.449  33.444  1.00  0.00     0.037 A 
BRANCH  47  61
ATOM     61  C   UNL A   1      42.151  26.353  27.816  1.00  0.00     0.064 A 
ATOM     62  C   UNL A   1      41.630  25.059  27.661  1.00  0.00     0.173 A 
ATOM     63  C   UNL A   1      43.029  26.829  26.831  1.00  0.00     0.173 A 
ATOM     64  F   UNL A   1      40.800  24.551  28.584  1.00  0.00    -0.203 F 
ATOM     65  C   UNL A   1      42.003  24.260  26.583  1.00  0.00     0.198 A 
ATOM     66  C   UNL A   1      43.376  26.038  25.738  1.00  0.00     0.198 A 
ATOM     67  F   UNL A   1      43.551  28.060  26.928  1.00  0.00    -0.203 F 
ATOM     68  F   UNL A   1      41.538  23.007  26.488  1.00  0.00    -0.200 F 
ATOM     69  C   UNL A   1      42.871  24.752  25.621  1.00  0.00     0.200 A 
ATOM     70  F   UNL A   1      44.207  26.518  24.803  1.00  0.00    -0.200 F 
ATOM     71  F   UNL A   1      43.231  23.981  24.584  1.00  0.00    -0.200 F 
ENDBRANCH  47  61
BRANCH  48  72
ATOM     72  C   UNL A   1      39.181  32.032  35.480  1.00  0.00     0.064 A 
ATOM     73  C   UNL A   1      38.401  31.495  36.515  1.00  0.00     0.173 A 
ATOM     74  C   UNL A   1      39.545  33.383  35.567  1.00  0.00     0.173 A 
ATOM     75  F   UNL A   1      38.013  30.212  36.462  1.00  0.00    -0.203 F 
ATOM     76  C   UNL A   1      37.992  32.282  37.588  1.00  0.00     0.198 A 
ATOM     77  C   UNL A   1      39.152  34.163  36.654  1.00  0.00     0.198 A 
ATOM     78  F   UNL A   1      40.294  33.940  34.605  1.00  0.00    -0.203 F 
ATOM     79  F   UNL A   1      37.220  31.752  38.547  1.00  0.00    -0.200 F 
ATOM     80  C   UNL A   1      38.373  33.612  37.660  1.00  0.00     0.200 A 
ATOM     81  F   UNL A   1      39.532  35.445  36.726  1.00  0.00    -0.200 F 
ATOM     82  F   UNL A   1      37.983  34.367  38.697  1.00  0.00    -0.200 F 
ENDBRANCH  48  72
BRANCH  60  83
ATOM     83  C   UNL A   1      44.861  28.205  34.241  1.00  0.00     0.064 A 
ATOM     84  C   UNL A   1      45.969  29.059  34.150  1.00  0.00     0.173 A 
ATOM     85  C   UNL A   1      44.931  27.124  35.132  1.00  0.00     0.173 A 
ATOM     86  F   UNL A   1      45.953  30.097  33.301  1.00  0.00    -0.203 F 
ATOM     87  C   UNL A   1      47.112  28.826  34.909  1.00  0.00     0.198 A 
ATOM     88  C   UNL A   1      46.067  26.908  35.906  1.00  0.00     0.198 A 
ATOM     89  F   UNL A   1      43.894  26.282  35.256  1.00  0.00    -0.203 F 
ATOM     90  F   UNL A   1      48.177  29.630  34.777  1.00  0.00    -0.200 F 
ATOM     91  C   UNL A   1      47.159  27.755  35.789  1.00  0.00     0.200 A 
ATOM     92  F   UNL A   1      46.107  25.878  36.762  1.00  0.00    -0.200 F 
ATOM     93  F   UNL A   1      48.260  27.535  36.521  1.00  0.00    -0.200 F 
ENDBRANCH  60  83
ENDBRANCH  34  35
ENDBRANCH  26  29
ENDBRANCH  24  25
ENDBRANCH  23  24
ENDBRANCH  22  23
ENDBRANCH   3  22
TORSDOF 15
ENDMDL
