MODEL 1
REMARK VINA RESULT:     -14.5      0.000      0.000
REMARK SMILES CN1N[C@H](C(=O)N[C@@H](CC2=c3ccccc3=NC2)C(=O)NCCCNC(=O)c2ccc(-c3c4nc(c(-c5c(F)c(F)c(F)c(F)c5F)c5ccc([nH]5)c(-c5c(F)c(F)c(F)c(F)c5F)c5nc(c(-c6c(F)c(F)c(F)c(F)c6F)c6ccc3[nH]6)C=C5)C=C4)cc2)c2ccccc2C1=O
REMARK SMILES IDX 23 1 22 2 21 3 19 4 20 5 8 7 7 8 5 9 6 10 4 12 1 13 2 14
REMARK SMILES IDX 3 15 97 16 96 18 98 19 91 20 95 21 92 22 94 23 93 24 9 25
REMARK SMILES IDX 10 26 11 27 18 28 12 29 16 30 17 31 13 32 15 33 14 34 24 35
REMARK SMILES IDX 25 36 26 37 27 39 28 40 29 41 90 42 30 43 89 44 31 45 32 46
REMARK SMILES IDX 33 47 83 48 34 49 88 50 82 51 84 52 35 53 87 54 81 55 80 56
REMARK SMILES IDX 36 58 68 59 48 60 67 61 49 62 52 63 66 64 85 65 50 66 51 67
REMARK SMILES IDX 65 69 86 70 53 71 37 72 38 73 46 74 39 75 40 76 44 77 47 78
REMARK SMILES IDX 41 79 42 80 45 81 43 82 69 83 70 84 78 85 71 86 72 87 76 88
REMARK SMILES IDX 79 89 73 90 74 91 77 92 75 93 54 94 55 95 63 96 56 97 57 98
REMARK SMILES IDX 61 99 64 100 58 101 59 102 62 103 60 104
REMARK H PARENT 21 6 7 11 3 17 25 38 84 57 52 68
REMARK Flexibility Score: inf
ROOT
ATOM      1  C   UNL A   1      31.781  29.104  27.550  1.00  0.00     0.042 C 
ENDROOT
BRANCH   1   2
ATOM      2  C   UNL A   1      31.910  27.650  27.151  1.00  0.00     0.117 C 
BRANCH   2   3
ATOM      3  N   UNL A   1      30.703  27.018  26.695  1.00  0.00    -0.354 N 
ATOM      4  C   UNL A   1      30.562  25.700  26.354  1.00  0.00     0.242 C 
ATOM      5  O   UNL A   1      29.420  25.236  26.406  1.00  0.00    -0.273 OA
ATOM      6  H   UNL A   1      29.902  27.587  26.621  1.00  0.00     0.163 HD
BRANCH   4   7
ATOM      7  C   UNL A   1      31.792  24.782  26.091  1.00  0.00     0.175 C 
BRANCH   7   8
ATOM      8  N   UNL A   1      31.985  23.726  27.105  1.00  0.00    -0.342 N 
ATOM      9  C   UNL A   1      32.946  22.760  27.220  1.00  0.00     0.244 C 
ATOM     10  O   UNL A   1      32.927  22.074  28.250  1.00  0.00    -0.273 OA
ATOM     11  H   UNL A   1      31.307  23.716  27.818  1.00  0.00     0.164 HD
BRANCH   9  12
ATOM     12  C   UNL A   1      33.998  22.483  26.118  1.00  0.00     0.195 C 
ATOM     13  C   UNL A   1      37.634  23.020  25.927  1.00  0.00     0.169 C 
ATOM     14  N   UNL A   1      36.389  22.273  25.890  1.00  0.00    -0.276 N 
ATOM     15  N   UNL A   1      35.328  22.696  26.727  1.00  0.00    -0.215 NA
ATOM     16  C   UNL A   1      36.350  21.014  25.281  1.00  0.00     0.268 C 
ATOM     17  H   UNL A   1      35.442  23.691  26.920  1.00  0.00     0.149 HD
ATOM     18  C   UNL A   1      35.002  20.398  25.133  1.00  0.00     0.046 A 
ATOM     19  O   UNL A   1      37.339  20.452  24.819  1.00  0.00    -0.268 OA
ATOM     20  C   UNL A   1      33.852  21.132  25.463  1.00  0.00    -0.007 A 
ATOM     21  C   UNL A   1      34.889  19.125  24.560  1.00  0.00     0.014 A 
ATOM     22  C   UNL A   1      32.595  20.619  25.103  1.00  0.00     0.007 A 
ATOM     23  C   UNL A   1      33.630  18.602  24.266  1.00  0.00     0.001 A 
ATOM     24  C   UNL A   1      32.487  19.358  24.514  1.00  0.00     0.000 A 
ENDBRANCH   9  12
ENDBRANCH   7   8
BRANCH   7  25
ATOM     25  C   UNL A   1      31.776  24.290  24.598  1.00  0.00     0.068 C 
BRANCH  25  26
ATOM     26  C   UNL A   1      32.744  24.898  23.609  1.00  0.00    -0.037 C 
ATOM     27  C   UNL A   1      33.460  26.024  23.579  1.00  0.00     0.001 A 
ATOM     28  C   UNL A   1      33.000  24.172  22.312  1.00  0.00     0.174 C 
ATOM     29  C   UNL A   1      33.938  27.040  24.459  1.00  0.00     0.010 A 
ATOM     30  C   UNL A   1      33.492  26.254  22.116  1.00  0.00     0.065 A 
ATOM     31  N   UNL A   1      33.278  25.240  21.336  1.00  0.00    -0.280 NA
ATOM     32  C   UNL A   1      34.165  28.275  23.986  1.00  0.00     0.001 A 
ATOM     33  C   UNL A   1      33.596  27.667  21.688  1.00  0.00     0.028 A 
ATOM     34  C   UNL A   1      33.857  28.609  22.610  1.00  0.00     0.002 A 
ENDBRANCH  25  26
ENDBRANCH   7  25
ENDBRANCH   4   7
ENDBRANCH   2   3
ENDBRANCH   1   2
BRANCH   1  35
ATOM     35  C   UNL A   1      32.410  30.045  26.539  1.00  0.00     0.118 C 
BRANCH  35  36
ATOM     36  N   UNL A   1      32.386  31.449  26.953  1.00  0.00    -0.352 N 
ATOM     37  C   UNL A   1      33.310  32.274  27.571  1.00  0.00     0.251 C 
ATOM     38  H   UNL A   1      31.536  31.900  26.748  1.00  0.00     0.163 HD
ATOM     39  O   UNL A   1      32.964  33.387  27.923  1.00  0.00    -0.269 OA
BRANCH  37  40
ATOM     40  C   UNL A   1      34.686  31.804  27.872  1.00  0.00     0.039 A 
ATOM     41  C   UNL A   1      34.962  30.464  28.085  1.00  0.00     0.014 A 
ATOM     42  C   UNL A   1      35.733  32.731  27.958  1.00  0.00     0.014 A 
ATOM     43  C   UNL A   1      36.151  30.096  28.697  1.00  0.00     0.010 A 
ATOM     44  C   UNL A   1      37.000  32.325  28.406  1.00  0.00     0.010 A 
ATOM     45  C   UNL A   1      37.195  31.019  28.876  1.00  0.00    -0.014 A 
BRANCH  45  46
ATOM     46  C   UNL A   1      38.425  30.578  29.601  1.00  0.00     0.031 A 
ATOM     47  C   UNL A   1      38.651  30.956  31.047  1.00  0.00     0.074 A 
ATOM     48  C   UNL A   1      39.273  29.714  29.002  1.00  0.00     0.049 A 
ATOM     49  N   UNL A   1      39.625  30.596  31.850  1.00  0.00    -0.248 NA
ATOM     50  C   UNL A   1      37.674  31.859  31.678  1.00  0.00     0.031 C 
ATOM     51  C   UNL A   1      39.170  29.259  27.614  1.00  0.00     0.029 A 
ATOM     52  N   UNL A   1      40.340  29.004  29.499  1.00  0.00    -0.354 N 
ATOM     53  C   UNL A   1      39.397  31.259  33.051  1.00  0.00     0.074 A 
ATOM     54  C   UNL A   1      38.209  32.059  32.874  1.00  0.00     0.031 C 
ATOM     55  C   UNL A   1      40.037  28.257  27.411  1.00  0.00     0.029 A 
ATOM     56  C   UNL A   1      40.832  28.068  28.618  1.00  0.00     0.049 A 
ATOM     57  H   UNL A   1      40.716  29.150  30.397  1.00  0.00     0.167 HD
ATOM     58  C   UNL A   1      40.105  31.191  34.204  1.00  0.00     0.037 A 
ATOM     59  C   UNL A   1      41.817  27.161  28.758  1.00  0.00     0.037 A 
ATOM     60  C   UNL A   1      41.246  30.341  34.410  1.00  0.00     0.049 A 
ATOM     61  C   UNL A   1      42.595  27.122  30.041  1.00  0.00     0.074 A 
ATOM     62  C   UNL A   1      42.008  30.186  35.555  1.00  0.00     0.029 A 
ATOM     63  N   UNL A   1      41.774  29.485  33.457  1.00  0.00    -0.354 N 
ATOM     64  N   UNL A   1      42.385  27.782  31.152  1.00  0.00    -0.248 NA
ATOM     65  C   UNL A   1      43.773  26.243  30.075  1.00  0.00     0.031 C 
ATOM     66  C   UNL A   1      43.017  29.257  35.285  1.00  0.00     0.029 A 
ATOM     67  C   UNL A   1      42.864  28.812  33.982  1.00  0.00     0.049 A 
ATOM     68  H   UNL A   1      41.426  29.372  32.543  1.00  0.00     0.167 HD
ATOM     69  C   UNL A   1      43.406  27.410  32.013  1.00  0.00     0.074 A 
ATOM     70  C   UNL A   1      44.217  26.438  31.309  1.00  0.00     0.031 C 
ATOM     71  C   UNL A   1      43.661  27.853  33.266  1.00  0.00     0.037 A 
BRANCH  58  72
ATOM     72  C   UNL A   1      39.673  32.059  35.350  1.00  0.00     0.064 A 
ATOM     73  C   UNL A   1      40.146  33.370  35.497  1.00  0.00     0.173 A 
ATOM     74  C   UNL A   1      38.704  31.602  36.257  1.00  0.00     0.173 A 
ATOM     75  F   UNL A   1      41.082  33.847  34.663  1.00  0.00    -0.203 F 
ATOM     76  C   UNL A   1      39.669  34.191  36.516  1.00  0.00     0.198 A 
ATOM     77  C   UNL A   1      38.213  32.433  37.260  1.00  0.00     0.198 A 
ATOM     78  F   UNL A   1      38.216  30.357  36.153  1.00  0.00    -0.203 F 
ATOM     79  F   UNL A   1      40.152  35.434  36.653  1.00  0.00    -0.200 F 
ATOM     80  C   UNL A   1      38.697  33.726  37.389  1.00  0.00     0.200 A 
ATOM     81  F   UNL A   1      37.266  31.985  38.095  1.00  0.00    -0.200 F 
ATOM     82  F   UNL A   1      38.226  34.525  38.357  1.00  0.00    -0.200 F 
ENDBRANCH  58  72
BRANCH  59  83
ATOM     83  C   UNL A   1      42.135  26.229  27.643  1.00  0.00     0.064 A 
ATOM     84  C   UNL A   1      43.153  26.526  26.727  1.00  0.00     0.173 A 
ATOM     85  C   UNL A   1      41.444  25.019  27.481  1.00  0.00     0.173 A 
ATOM     86  F   UNL A   1      43.826  27.681  26.825  1.00  0.00    -0.203 F 
ATOM     87  C   UNL A   1      43.466  25.648  25.690  1.00  0.00     0.198 A 
ATOM     88  C   UNL A   1      41.778  24.128  26.464  1.00  0.00     0.198 A 
ATOM     89  F   UNL A   1      40.460  24.688  28.330  1.00  0.00    -0.203 F 
ATOM     90  F   UNL A   1      44.423  25.969  24.809  1.00  0.00    -0.200 F 
ATOM     91  C   UNL A   1      42.786  24.445  25.566  1.00  0.00     0.200 A 
ATOM     92  F   UNL A   1      41.130  22.961  26.360  1.00  0.00    -0.200 F 
ATOM     93  F   UNL A   1      43.098  23.595  24.580  1.00  0.00    -0.200 F 
ENDBRANCH  59  83
BRANCH  71  94
ATOM     94  C   UNL A   1      44.872  27.309  33.957  1.00  0.00     0.064 A 
ATOM     95  C   UNL A   1      44.809  26.110  34.680  1.00  0.00     0.173 A 
ATOM     96  C   UNL A   1      46.116  27.941  33.828  1.00  0.00     0.173 A 
ATOM     97  F   UNL A   1      43.636  25.479  34.840  1.00  0.00    -0.203 F 
ATOM     98  C   UNL A   1      45.952  25.563  35.255  1.00  0.00     0.198 A 
ATOM     99  C   UNL A   1      47.261  27.381  34.387  1.00  0.00     0.198 A 
ATOM    100  F   UNL A   1      46.225  29.087  33.139  1.00  0.00    -0.203 F 
ATOM    101  F   UNL A   1      45.867  24.427  35.960  1.00  0.00    -0.200 F 
ATOM    102  C   UNL A   1      47.178  26.194  35.100  1.00  0.00     0.200 A 
ATOM    103  F   UNL A   1      48.447  27.985  34.227  1.00  0.00    -0.200 F 
ATOM    104  F   UNL A   1      48.281  25.657  35.639  1.00  0.00    -0.200 F 
ENDBRANCH  71  94
ENDBRANCH  45  46
ENDBRANCH  37  40
ENDBRANCH  35  36
ENDBRANCH   1  35
TORSDOF 14
ENDMDL
MODEL 2
REMARK VINA RESULT:     -14.1      2.657      8.159
REMARK SMILES CN1N[C@H](C(=O)N[C@@H](CC2=c3ccccc3=NC2)C(=O)NCCCNC(=O)c2ccc(-c3c4nc(c(-c5c(F)c(F)c(F)c(F)c5F)c5ccc([nH]5)c(-c5c(F)c(F)c(F)c(F)c5F)c5nc(c(-c6c(F)c(F)c(F)c(F)c6F)c6ccc3[nH]6)C=C5)C=C4)cc2)c2ccccc2C1=O
REMARK SMILES IDX 23 1 22 2 21 3 19 4 20 5 8 7 7 8 5 9 6 10 4 12 1 13 2 14
REMARK SMILES IDX 3 15 97 16 96 18 98 19 91 20 95 21 92 22 94 23 93 24 9 25
REMARK SMILES IDX 10 26 11 27 18 28 12 29 16 30 17 31 13 32 15 33 14 34 24 35
REMARK SMILES IDX 25 36 26 37 27 39 28 40 29 41 90 42 30 43 89 44 31 45 32 46
REMARK SMILES IDX 33 47 83 48 34 49 88 50 82 51 84 52 35 53 87 54 81 55 80 56
REMARK SMILES IDX 36 58 68 59 48 60 67 61 49 62 52 63 66 64 85 65 50 66 51 67
REMARK SMILES IDX 65 69 86 70 53 71 37 72 38 73 46 74 39 75 40 76 44 77 47 78
REMARK SMILES IDX 41 79 42 80 45 81 43 82 69 83 70 84 78 85 71 86 72 87 76 88
REMARK SMILES IDX 79 89 73 90 74 91 77 92 75 93 54 94 55 95 63 96 56 97 57 98
REMARK SMILES IDX 61 99 64 100 58 101 59 102 62 103 60 104
REMARK H PARENT 21 6 7 11 3 17 25 38 84 57 52 68
REMARK Flexibility Score: inf
ROOT
ATOM      1  C   UNL A   1      38.998  22.818  26.269  1.00  0.00     0.042 C 
ENDROOT
BRANCH   1   2
ATOM      2  C   UNL A   1      38.079  22.372  25.153  1.00  0.00     0.117 C 
BRANCH   2   3
ATOM      3  N   UNL A   1      37.722  20.980  25.156  1.00  0.00    -0.354 N 
ATOM      4  C   UNL A   1      36.453  20.473  25.084  1.00  0.00     0.242 C 
ATOM      5  O   UNL A   1      36.344  19.316  24.669  1.00  0.00    -0.273 OA
ATOM      6  H   UNL A   1      38.460  20.331  25.215  1.00  0.00     0.163 HD
BRANCH   4   7
ATOM      7  C   UNL A   1      35.197  21.359  25.334  1.00  0.00     0.175 C 
BRANCH   7   8
ATOM      8  N   UNL A   1      35.130  21.944  26.688  1.00  0.00    -0.342 N 
ATOM      9  C   UNL A   1      34.137  22.647  27.312  1.00  0.00     0.244 C 
ATOM     10  O   UNL A   1      34.310  22.917  28.506  1.00  0.00    -0.273 OA
ATOM     11  H   UNL A   1      35.937  21.804  27.234  1.00  0.00     0.164 HD
BRANCH   9  12
ATOM     12  C   UNL A   1      32.861  23.132  26.579  1.00  0.00     0.195 C 
ATOM     13  C   UNL A   1      29.277  22.445  27.057  1.00  0.00     0.169 C 
ATOM     14  N   UNL A   1      30.481  23.250  26.945  1.00  0.00    -0.276 N 
ATOM     15  N   UNL A   1      31.705  22.691  27.387  1.00  0.00    -0.215 NA
ATOM     16  C   UNL A   1      30.380  24.623  26.695  1.00  0.00     0.268 C 
ATOM     17  H   UNL A   1      31.638  21.675  27.333  1.00  0.00     0.149 HD
ATOM     18  C   UNL A   1      31.659  25.336  26.421  1.00  0.00     0.046 A 
ATOM     19  O   UNL A   1      29.311  25.224  26.625  1.00  0.00    -0.268 OA
ATOM     20  C   UNL A   1      32.854  24.612  26.287  1.00  0.00    -0.007 A 
ATOM     21  C   UNL A   1      31.638  26.717  26.193  1.00  0.00     0.014 A 
ATOM     22  C   UNL A   1      33.996  25.275  25.807  1.00  0.00     0.007 A 
ATOM     23  C   UNL A   1      32.797  27.373  25.777  1.00  0.00     0.001 A 
ATOM     24  C   UNL A   1      33.967  26.648  25.560  1.00  0.00     0.000 A 
ENDBRANCH   9  12
ENDBRANCH   7   8
BRANCH   7  25
ATOM     25  C   UNL A   1      35.024  22.379  24.149  1.00  0.00     0.068 C 
BRANCH  25  26
ATOM     26  C   UNL A   1      33.689  22.478  23.449  1.00  0.00    -0.037 C 
ATOM     27  C   UNL A   1      33.035  23.461  22.826  1.00  0.00     0.001 A 
ATOM     28  C   UNL A   1      32.794  21.265  23.428  1.00  0.00     0.174 C 
ATOM     29  C   UNL A   1      33.281  24.736  22.236  1.00  0.00     0.010 A 
ATOM     30  C   UNL A   1      31.642  23.051  23.116  1.00  0.00     0.065 A 
ATOM     31  N   UNL A   1      31.425  21.810  23.426  1.00  0.00    -0.280 NA
ATOM     32  C   UNL A   1      32.297  25.648  22.190  1.00  0.00     0.001 A 
ATOM     33  C   UNL A   1      30.649  24.146  23.190  1.00  0.00     0.028 A 
ATOM     34  C   UNL A   1      31.010  25.380  22.799  1.00  0.00     0.002 A 
ENDBRANCH  25  26
ENDBRANCH   7  25
ENDBRANCH   4   7
ENDBRANCH   2   3
ENDBRANCH   1   2
BRANCH   1  35
ATOM     35  C   UNL A   1      40.127  21.834  26.524  1.00  0.00     0.118 C 
BRANCH  35  36
ATOM     36  N   UNL A   1      41.267  22.007  25.622  1.00  0.00    -0.352 N 
ATOM     37  C   UNL A   1      42.278  22.948  25.538  1.00  0.00     0.251 C 
ATOM     38  H   UNL A   1      41.327  21.308  24.932  1.00  0.00     0.163 HD
ATOM     39  O   UNL A   1      43.033  22.919  24.583  1.00  0.00    -0.269 OA
BRANCH  37  40
ATOM     40  C   UNL A   1      42.416  24.028  26.548  1.00  0.00     0.039 A 
ATOM     41  C   UNL A   1      42.463  23.748  27.903  1.00  0.00     0.014 A 
ATOM     42  C   UNL A   1      42.485  25.364  26.132  1.00  0.00     0.014 A 
ATOM     43  C   UNL A   1      42.241  24.762  28.824  1.00  0.00     0.010 A 
ATOM     44  C   UNL A   1      42.446  26.400  27.078  1.00  0.00     0.010 A 
ATOM     45  C   UNL A   1      42.221  26.110  28.431  1.00  0.00    -0.014 A 
BRANCH  45  46
ATOM     46  C   UNL A   1      41.911  27.151  29.457  1.00  0.00     0.031 A 
ATOM     47  C   UNL A   1      40.668  28.003  29.347  1.00  0.00     0.074 A 
ATOM     48  C   UNL A   1      42.673  27.233  30.570  1.00  0.00     0.049 A 
ATOM     49  N   UNL A   1      40.207  28.900  30.188  1.00  0.00    -0.248 NA
ATOM     50  C   UNL A   1      39.837  27.846  28.143  1.00  0.00     0.031 C 
ATOM     51  C   UNL A   1      43.896  26.464  30.811  1.00  0.00     0.029 A 
ATOM     52  N   UNL A   1      42.497  27.936  31.738  1.00  0.00    -0.354 N 
ATOM     53  C   UNL A   1      39.069  29.433  29.594  1.00  0.00     0.074 A 
ATOM     54  C   UNL A   1      38.914  28.782  28.315  1.00  0.00     0.031 C 
ATOM     55  C   UNL A   1      44.280  26.629  32.083  1.00  0.00     0.029 A 
ATOM     56  C   UNL A   1      43.397  27.598  32.721  1.00  0.00     0.049 A 
ATOM     57  H   UNL A   1      41.795  28.615  31.858  1.00  0.00     0.167 HD
ATOM     58  C   UNL A   1      38.218  30.369  30.079  1.00  0.00     0.037 A 
ATOM     59  C   UNL A   1      43.509  28.021  33.995  1.00  0.00     0.037 A 
ATOM     60  C   UNL A   1      38.325  30.968  31.382  1.00  0.00     0.049 A 
ATOM     61  C   UNL A   1      42.563  29.072  34.499  1.00  0.00     0.074 A 
ATOM     62  C   UNL A   1      37.493  31.906  31.969  1.00  0.00     0.029 A 
ATOM     63  N   UNL A   1      39.313  30.673  32.308  1.00  0.00    -0.354 N 
ATOM     64  N   UNL A   1      41.514  29.588  33.908  1.00  0.00    -0.248 NA
ATOM     65  C   UNL A   1      42.840  29.630  35.830  1.00  0.00     0.031 C 
ATOM     66  C   UNL A   1      37.993  32.199  33.241  1.00  0.00     0.029 A 
ATOM     67  C   UNL A   1      39.121  31.423  33.455  1.00  0.00     0.049 A 
ATOM     68  H   UNL A   1      40.043  30.027  32.170  1.00  0.00     0.167 HD
ATOM     69  C   UNL A   1      41.013  30.537  34.786  1.00  0.00     0.074 A 
ATOM     70  C   UNL A   1      41.851  30.502  35.967  1.00  0.00     0.031 C 
ATOM     71  C   UNL A   1      39.967  31.378  34.617  1.00  0.00     0.037 A 
BRANCH  58  72
ATOM     72  C   UNL A   1      37.083  30.814  29.204  1.00  0.00     0.064 A 
ATOM     73  C   UNL A   1      35.974  29.990  28.964  1.00  0.00     0.173 A 
ATOM     74  C   UNL A   1      37.063  32.115  28.678  1.00  0.00     0.173 A 
ATOM     75  F   UNL A   1      35.953  28.734  29.435  1.00  0.00    -0.203 F 
ATOM     76  C   UNL A   1      34.890  30.450  28.223  1.00  0.00     0.198 A 
ATOM     77  C   UNL A   1      35.967  32.580  27.957  1.00  0.00     0.198 A 
ATOM     78  F   UNL A   1      38.097  32.944  28.886  1.00  0.00    -0.203 F 
ATOM     79  F   UNL A   1      33.850  29.639  27.985  1.00  0.00    -0.200 F 
ATOM     80  C   UNL A   1      34.882  31.746  27.728  1.00  0.00     0.200 A 
ATOM     81  F   UNL A   1      35.957  33.836  27.490  1.00  0.00    -0.200 F 
ATOM     82  F   UNL A   1      33.828  32.193  27.031  1.00  0.00    -0.200 F 
ENDBRANCH  58  72
BRANCH  59  83
ATOM     83  C   UNL A   1      44.570  27.464  34.875  1.00  0.00     0.064 A 
ATOM     84  C   UNL A   1      44.334  26.318  35.648  1.00  0.00     0.173 A 
ATOM     85  C   UNL A   1      45.842  28.051  34.950  1.00  0.00     0.173 A 
ATOM     86  F   UNL A   1      43.127  25.735  35.630  1.00  0.00    -0.203 F 
ATOM     87  C   UNL A   1      45.331  25.783  36.462  1.00  0.00     0.198 A 
ATOM     88  C   UNL A   1      46.846  27.497  35.739  1.00  0.00     0.198 A 
ATOM     89  F   UNL A   1      46.118  29.149  34.232  1.00  0.00    -0.203 F 
ATOM     90  F   UNL A   1      45.072  24.704  37.213  1.00  0.00    -0.200 F 
ATOM     91  C   UNL A   1      46.589  26.365  36.498  1.00  0.00     0.200 A 
ATOM     92  F   UNL A   1      48.065  28.054  35.757  1.00  0.00    -0.200 F 
ATOM     93  F   UNL A   1      47.551  25.841  37.268  1.00  0.00    -0.200 F 
ENDBRANCH  59  83
BRANCH  71  94
ATOM     94  C   UNL A   1      39.672  32.343  35.723  1.00  0.00     0.064 A 
ATOM     95  C   UNL A   1      40.312  33.589  35.780  1.00  0.00     0.173 A 
ATOM     96  C   UNL A   1      38.687  32.059  36.679  1.00  0.00     0.173 A 
ATOM     97  F   UNL A   1      41.270  33.896  34.893  1.00  0.00    -0.203 F 
ATOM     98  C   UNL A   1      39.979  34.516  36.762  1.00  0.00     0.198 A 
ATOM     99  C   UNL A   1      38.342  32.997  37.647  1.00  0.00     0.198 A 
ATOM    100  F   UNL A   1      38.044  30.882  36.658  1.00  0.00    -0.203 F 
ATOM    101  F   UNL A   1      40.618  35.694  36.813  1.00  0.00    -0.200 F 
ATOM    102  C   UNL A   1      38.989  34.224  37.688  1.00  0.00     0.200 A 
ATOM    103  F   UNL A   1      37.377  32.719  38.534  1.00  0.00    -0.200 F 
ATOM    104  F   UNL A   1      38.657  35.126  38.622  1.00  0.00    -0.200 F 
ENDBRANCH  71  94
ENDBRANCH  45  46
ENDBRANCH  37  40
ENDBRANCH  35  36
ENDBRANCH   1  35
TORSDOF 14
ENDMDL
MODEL 3
REMARK VINA RESULT:     -13.9      1.911      2.870
REMARK SMILES CN1N[C@H](C(=O)N[C@@H](CC2=c3ccccc3=NC2)C(=O)NCCCNC(=O)c2ccc(-c3c4nc(c(-c5c(F)c(F)c(F)c(F)c5F)c5ccc([nH]5)c(-c5c(F)c(F)c(F)c(F)c5F)c5nc(c(-c6c(F)c(F)c(F)c(F)c6F)c6ccc3[nH]6)C=C5)C=C4)cc2)c2ccccc2C1=O
REMARK SMILES IDX 23 1 22 2 21 3 19 4 20 5 8 7 7 8 5 9 6 10 4 12 1 13 2 14
REMARK SMILES IDX 3 15 97 16 96 18 98 19 91 20 95 21 92 22 94 23 93 24 9 25
REMARK SMILES IDX 10 26 11 27 18 28 12 29 16 30 17 31 13 32 15 33 14 34 24 35
REMARK SMILES IDX 25 36 26 37 27 39 28 40 29 41 90 42 30 43 89 44 31 45 32 46
REMARK SMILES IDX 33 47 83 48 34 49 88 50 82 51 84 52 35 53 87 54 81 55 80 56
REMARK SMILES IDX 36 58 68 59 48 60 67 61 49 62 52 63 66 64 85 65 50 66 51 67
REMARK SMILES IDX 65 69 86 70 53 71 37 72 38 73 46 74 39 75 40 76 44 77 47 78
REMARK SMILES IDX 41 79 42 80 45 81 43 82 69 83 70 84 78 85 71 86 72 87 76 88
REMARK SMILES IDX 79 89 73 90 74 91 77 92 75 93 54 94 55 95 63 96 56 97 57 98
REMARK SMILES IDX 61 99 64 100 58 101 59 102 62 103 60 104
REMARK H PARENT 21 6 7 11 3 17 25 38 84 57 52 68
REMARK Flexibility Score: inf
ROOT
ATOM      1  C   UNL A   1      31.690  30.112  25.429  1.00  0.00     0.042 C 
ENDROOT
BRANCH   1   2
ATOM      2  C   UNL A   1      32.934  29.704  24.670  1.00  0.00     0.117 C 
BRANCH   2   3
ATOM      3  N   UNL A   1      33.577  28.503  25.126  1.00  0.00    -0.354 N 
ATOM      4  C   UNL A   1      33.507  27.275  24.527  1.00  0.00     0.242 C 
ATOM      5  O   UNL A   1      34.425  26.488  24.773  1.00  0.00    -0.273 OA
ATOM      6  H   UNL A   1      34.119  28.571  25.945  1.00  0.00     0.163 HD
BRANCH   4   7
ATOM      7  C   UNL A   1      32.431  26.944  23.450  1.00  0.00     0.175 C 
BRANCH   7   8
ATOM      8  N   UNL A   1      32.864  25.947  22.451  1.00  0.00    -0.342 N 
ATOM      9  C   UNL A   1      33.155  24.617  22.580  1.00  0.00     0.244 C 
ATOM     10  O   UNL A   1      33.382  23.992  21.537  1.00  0.00    -0.273 OA
ATOM     11  H   UNL A   1      32.959  26.300  21.537  1.00  0.00     0.164 HD
BRANCH   9  12
ATOM     12  C   UNL A   1      33.244  23.904  23.952  1.00  0.00     0.195 C 
ATOM     13  C   UNL A   1      30.775  22.120  26.018  1.00  0.00     0.169 C 
ATOM     14  N   UNL A   1      32.001  22.306  25.261  1.00  0.00    -0.276 N 
ATOM     15  N   UNL A   1      31.973  23.174  24.142  1.00  0.00    -0.215 NA
ATOM     16  C   UNL A   1      33.076  21.431  25.450  1.00  0.00     0.268 C 
ATOM     17  H   UNL A   1      31.224  23.854  24.275  1.00  0.00     0.149 HD
ATOM     18  C   UNL A   1      34.348  21.797  24.767  1.00  0.00     0.046 A 
ATOM     19  O   UNL A   1      33.031  20.448  26.186  1.00  0.00    -0.268 OA
ATOM     20  C   UNL A   1      34.463  23.029  24.104  1.00  0.00    -0.007 A 
ATOM     21  C   UNL A   1      35.458  20.951  24.885  1.00  0.00     0.014 A 
ATOM     22  C   UNL A   1      35.731  23.447  23.668  1.00  0.00     0.007 A 
ATOM     23  C   UNL A   1      36.698  21.354  24.392  1.00  0.00     0.001 A 
ATOM     24  C   UNL A   1      36.840  22.611  23.807  1.00  0.00     0.000 A 
ENDBRANCH   9  12
ENDBRANCH   7   8
BRANCH   7  25
ATOM     25  C   UNL A   1      31.055  26.645  24.151  1.00  0.00     0.068 C 
BRANCH  25  26
ATOM     26  C   UNL A   1      29.781  27.162  23.525  1.00  0.00    -0.037 C 
ATOM     27  C   UNL A   1      29.465  28.247  22.815  1.00  0.00     0.001 A 
ATOM     28  C   UNL A   1      28.510  26.374  23.722  1.00  0.00     0.174 C 
ATOM     29  C   UNL A   1      30.093  29.270  22.044  1.00  0.00     0.010 A 
ATOM     30  C   UNL A   1      28.057  28.418  23.240  1.00  0.00     0.065 A 
ATOM     31  N   UNL A   1      27.440  27.387  23.728  1.00  0.00    -0.280 NA
ATOM     32  C   UNL A   1      29.507  30.473  21.933  1.00  0.00     0.001 A 
ATOM     33  C   UNL A   1      27.542  29.806  23.225  1.00  0.00     0.028 A 
ATOM     34  C   UNL A   1      28.282  30.768  22.650  1.00  0.00     0.002 A 
ENDBRANCH  25  26
ENDBRANCH   7  25
ENDBRANCH   4   7
ENDBRANCH   2   3
ENDBRANCH   1   2
BRANCH   1  35
ATOM     35  C   UNL A   1      31.979  30.468  26.877  1.00  0.00     0.118 C 
BRANCH  35  36
ATOM     36  N   UNL A   1      32.051  31.910  27.121  1.00  0.00    -0.352 N 
ATOM     37  C   UNL A   1      33.040  32.742  27.616  1.00  0.00     0.251 C 
ATOM     38  H   UNL A   1      31.224  32.387  26.882  1.00  0.00     0.163 HD
ATOM     39  O   UNL A   1      32.772  33.908  27.840  1.00  0.00    -0.269 OA
BRANCH  37  40
ATOM     40  C   UNL A   1      34.394  32.225  27.942  1.00  0.00     0.039 A 
ATOM     41  C   UNL A   1      34.608  30.887  28.227  1.00  0.00     0.014 A 
ATOM     42  C   UNL A   1      35.483  33.105  27.978  1.00  0.00     0.014 A 
ATOM     43  C   UNL A   1      35.780  30.497  28.858  1.00  0.00     0.010 A 
ATOM     44  C   UNL A   1      36.731  32.664  28.447  1.00  0.00     0.010 A 
ATOM     45  C   UNL A   1      36.866  31.378  28.987  1.00  0.00    -0.014 A 
BRANCH  45  46
ATOM     46  C   UNL A   1      38.076  30.920  29.734  1.00  0.00     0.031 A 
ATOM     47  C   UNL A   1      38.254  31.248  31.199  1.00  0.00     0.074 A 
ATOM     48  C   UNL A   1      38.949  30.082  29.133  1.00  0.00     0.049 A 
ATOM     49  N   UNL A   1      39.205  30.866  32.019  1.00  0.00    -0.248 NA
ATOM     50  C   UNL A   1      37.251  32.122  31.829  1.00  0.00     0.031 C 
ATOM     51  C   UNL A   1      38.892  29.675  27.727  1.00  0.00     0.029 A 
ATOM     52  N   UNL A   1      40.004  29.361  29.637  1.00  0.00    -0.354 N 
ATOM     53  C   UNL A   1      38.936  31.485  33.234  1.00  0.00     0.074 A 
ATOM     54  C   UNL A   1      37.748  32.284  33.048  1.00  0.00     0.031 C 
ATOM     55  C   UNL A   1      39.771  28.687  27.516  1.00  0.00     0.029 A 
ATOM     56  C   UNL A   1      40.530  28.460  28.740  1.00  0.00     0.049 A 
ATOM     57  H   UNL A   1      40.351  29.478  30.551  1.00  0.00     0.167 HD
ATOM     58  C   UNL A   1      39.607  31.381  34.405  1.00  0.00     0.037 A 
ATOM     59  C   UNL A   1      41.517  27.554  28.879  1.00  0.00     0.037 A 
ATOM     60  C   UNL A   1      40.747  30.531  34.618  1.00  0.00     0.049 A 
ATOM     61  C   UNL A   1      42.255  27.475  30.184  1.00  0.00     0.074 A 
ATOM     62  C   UNL A   1      41.475  30.341  35.780  1.00  0.00     0.029 A 
ATOM     63  N   UNL A   1      41.311  29.712  33.652  1.00  0.00    -0.354 N 
ATOM     64  N   UNL A   1      42.006  28.095  31.310  1.00  0.00    -0.248 NA
ATOM     65  C   UNL A   1      43.437  26.603  30.225  1.00  0.00     0.031 C 
ATOM     66  C   UNL A   1      42.499  29.428  35.510  1.00  0.00     0.029 A 
ATOM     67  C   UNL A   1      42.389  29.028  34.188  1.00  0.00     0.049 A 
ATOM     68  H   UNL A   1      40.993  29.629  32.725  1.00  0.00     0.167 HD
ATOM     69  C   UNL A   1      43.002  27.699  32.189  1.00  0.00     0.074 A 
ATOM     70  C   UNL A   1      43.841  26.757  31.477  1.00  0.00     0.031 C 
ATOM     71  C   UNL A   1      43.215  28.100  33.464  1.00  0.00     0.037 A 
BRANCH  58  72
ATOM     72  C   UNL A   1      39.134  32.205  35.567  1.00  0.00     0.064 A 
ATOM     73  C   UNL A   1      38.341  31.654  36.583  1.00  0.00     0.173 A 
ATOM     74  C   UNL A   1      39.557  33.536  35.710  1.00  0.00     0.173 A 
ATOM     75  F   UNL A   1      37.900  30.391  36.485  1.00  0.00    -0.203 F 
ATOM     76  C   UNL A   1      37.983  32.408  37.698  1.00  0.00     0.198 A 
ATOM     77  C   UNL A   1      39.217  34.279  36.837  1.00  0.00     0.198 A 
ATOM     78  F   UNL A   1      40.323  34.105  34.767  1.00  0.00    -0.203 F 
ATOM     79  F   UNL A   1      37.205  31.870  38.647  1.00  0.00    -0.200 F 
ATOM     80  C   UNL A   1      38.429  33.715  37.829  1.00  0.00     0.200 A 
ATOM     81  F   UNL A   1      39.658  35.538  36.966  1.00  0.00    -0.200 F 
ATOM     82  F   UNL A   1      38.099  34.432  38.912  1.00  0.00    -0.200 F 
ENDBRANCH  58  72
BRANCH  59  83
ATOM     83  C   UNL A   1      41.876  26.664  27.743  1.00  0.00     0.064 A 
ATOM     84  C   UNL A   1      42.887  27.022  26.841  1.00  0.00     0.173 A 
ATOM     85  C   UNL A   1      41.232  25.433  27.545  1.00  0.00     0.173 A 
ATOM     86  F   UNL A   1      43.516  28.199  26.973  1.00  0.00    -0.203 F 
ATOM     87  C   UNL A   1      43.239  26.184  25.785  1.00  0.00     0.198 A 
ATOM     88  C   UNL A   1      41.605  24.582  26.509  1.00  0.00     0.198 A 
ATOM     89  F   UNL A   1      40.256  25.045  28.380  1.00  0.00    -0.203 F 
ATOM     90  F   UNL A   1      44.188  26.562  24.919  1.00  0.00    -0.200 F 
ATOM     91  C   UNL A   1      42.605  24.960  25.626  1.00  0.00     0.200 A 
ATOM     92  F   UNL A   1      41.001  23.394  26.370  1.00  0.00    -0.200 F 
ATOM     93  F   UNL A   1      42.954  24.147  24.620  1.00  0.00    -0.200 F 
ENDBRANCH  59  83
BRANCH  71  94
ATOM     94  C   UNL A   1      44.408  27.538  34.174  1.00  0.00     0.064 A 
ATOM     95  C   UNL A   1      44.335  26.307  34.838  1.00  0.00     0.173 A 
ATOM     96  C   UNL A   1      45.647  28.191  34.119  1.00  0.00     0.173 A 
ATOM     97  F   UNL A   1      43.166  25.655  34.926  1.00  0.00    -0.203 F 
ATOM     98  C   UNL A   1      45.464  25.748  35.429  1.00  0.00     0.198 A 
ATOM     99  C   UNL A   1      46.779  27.620  34.693  1.00  0.00     0.198 A 
ATOM    100  F   UNL A   1      45.764  29.369  33.487  1.00  0.00    -0.203 F 
ATOM    101  F   UNL A   1      45.370  24.579  36.078  1.00  0.00    -0.200 F 
ATOM    102  C   UNL A   1      46.686  26.400  35.347  1.00  0.00     0.200 A 
ATOM    103  F   UNL A   1      47.961  28.244  34.604  1.00  0.00    -0.200 F 
ATOM    104  F   UNL A   1      47.776  25.852  35.902  1.00  0.00    -0.200 F 
ENDBRANCH  71  94
ENDBRANCH  45  46
ENDBRANCH  37  40
ENDBRANCH  35  36
ENDBRANCH   1  35
TORSDOF 14
ENDMDL
