MODEL 1
REMARK VINA RESULT:      -9.5      0.000      0.000
REMARK SMILES C=CCN1C(=O)/C(=C/c2ccc(OCC(=O)NCCCNC(=O)c3ccc(-c4c5nc(c(-c6c(F)c(F)c(F)c(F)c6F)c6ccc([nH]6)c(-c6c(F)c(F)c(F)c(F)c6F)c6nc(c(-c7c(F)c(F)c(F)c(F)c7F)c7ccc4[nH]7)C=C6)C=C5)cc3)c(OC)c2)C(=O)[NH+]=C1S
REMARK SMILES IDX 15 1 16 2 17 3 14 5 13 6 12 7 9 8 10 9 90 10 11 11 87 12
REMARK SMILES IDX 8 13 4 14 5 15 94 16 6 17 7 18 93 19 91 20 92 22 3 23 2 24
REMARK SMILES IDX 1 25 95 26 88 28 89 29 18 30 19 31 20 32 21 33 22 34 23 36
REMARK SMILES IDX 24 37 25 38 86 39 26 40 85 41 27 42 28 43 29 44 79 45 30 46
REMARK SMILES IDX 84 47 78 48 80 49 31 50 83 51 77 52 76 53 32 55 64 56 44 57
REMARK SMILES IDX 63 58 45 59 48 60 62 61 81 62 46 63 47 64 61 66 82 67 49 68
REMARK SMILES IDX 33 69 34 70 42 71 35 72 36 73 40 74 43 75 37 76 38 77 41 78
REMARK SMILES IDX 39 79 65 80 66 81 74 82 67 83 68 84 72 85 75 86 69 87 70 88
REMARK SMILES IDX 73 89 71 90 50 91 51 92 59 93 52 94 53 95 57 96 60 97 54 98
REMARK SMILES IDX 55 99 58 100 56 101
REMARK H PARENT 17 4 93 21 95 27 21 35 80 54 48 65
REMARK Flexibility Score: inf
ROOT
ATOM      1  C   UNL A   1      45.673  23.567  26.265  1.00  0.00     0.257 C 
ATOM      2  O   UNL A   1      46.766  23.327  26.782  1.00  0.00    -0.271 OA
ATOM      3  N   UNL A   1      44.553  23.317  27.007  1.00  0.00    -0.353 N 
ATOM      4  H   UNL A   1      44.701  22.842  27.857  1.00  0.00     0.163 HD
ENDROOT
BRANCH   1   5
ATOM      5  C   UNL A   1      45.536  24.210  24.874  1.00  0.00     0.329 C 
BRANCH   5   6
ATOM      6  O   UNL A   1      46.098  25.495  24.661  1.00  0.00    -0.480 OA
BRANCH   6   7
ATOM      7  C   UNL A   1      45.734  26.532  25.481  1.00  0.00     0.161 A 
ATOM      8  C   UNL A   1      44.671  28.728  26.878  1.00  0.00    -0.021 A 
ATOM      9  C   UNL A   1      43.863  28.014  25.997  1.00  0.00     0.012 A 
ATOM     10  C   UNL A   1      45.980  28.294  27.119  1.00  0.00     0.058 A 
ATOM     11  C   UNL A   1      44.396  26.920  25.309  1.00  0.00     0.051 A 
ATOM     12  C   UNL A   1      46.525  27.207  26.422  1.00  0.00     0.161 A 
BRANCH   8  13
ATOM     13  C   UNL A   1      44.183  29.934  27.554  1.00  0.00     0.032 C 
ATOM     14  N   UNL A   1      44.529  33.538  27.974  1.00  0.00    -0.183 N 
ATOM     15  C   UNL A   1      44.064  32.258  28.208  1.00  0.00     0.349 C 
ATOM     16  C   UNL A   1      45.370  33.778  26.914  1.00  0.00     0.318 C 
ATOM     17  O   UNL A   1      43.274  31.981  29.110  1.00  0.00    -0.240 OA
ATOM     18  C   UNL A   1      44.588  31.200  27.306  1.00  0.00     0.154 C 
ATOM     19  N   UNL A   1      45.834  32.895  26.108  1.00  0.00    -0.200 N 
ATOM     20  C   UNL A   1      45.522  31.576  26.216  1.00  0.00     0.347 C 
ATOM     21  H   UNL A   1      46.435  33.182  25.384  1.00  0.00     0.316 HD
ATOM     22  O   UNL A   1      45.982  30.763  25.423  1.00  0.00    -0.241 OA
BRANCH  14  23
ATOM     23  C   UNL A   1      44.062  34.587  28.887  1.00  0.00     0.275 C 
BRANCH  23  24
ATOM     24  C   UNL A   1      42.739  35.120  28.404  1.00  0.00     0.011 C 
ATOM     25  C   UNL A   1      41.635  35.202  29.160  1.00  0.00     0.008 C 
ENDBRANCH  23  24
ENDBRANCH  14  23
BRANCH  16  26
ATOM     26  S   UNL A   1      45.893  35.409  26.565  1.00  0.00    -0.055 SA
ATOM     27  H   UNL A   1      45.091  36.293  27.219  1.00  0.00     0.116 HD
ENDBRANCH  16  26
ENDBRANCH   8  13
BRANCH  12  28
ATOM     28  O   UNL A   1      47.781  26.739  26.696  1.00  0.00    -0.493 OA
ATOM     29  C   UNL A   1      48.006  26.281  28.028  1.00  0.00     0.278 C 
ENDBRANCH  12  28
ENDBRANCH   6   7
ENDBRANCH   5   6
ENDBRANCH   1   5
BRANCH   3  30
ATOM     30  C   UNL A   1      43.176  23.655  26.709  1.00  0.00     0.117 C 
BRANCH  30  31
ATOM     31  C   UNL A   1      42.416  22.511  26.052  1.00  0.00     0.042 C 
BRANCH  31  32
ATOM     32  C   UNL A   1      41.182  22.041  26.817  1.00  0.00     0.118 C 
BRANCH  32  33
ATOM     33  N   UNL A   1      39.935  22.307  26.111  1.00  0.00    -0.352 N 
ATOM     34  C   UNL A   1      39.085  23.383  26.165  1.00  0.00     0.251 C 
ATOM     35  H   UNL A   1      39.654  21.594  25.492  1.00  0.00     0.163 HD
ATOM     36  O   UNL A   1      37.999  23.323  25.592  1.00  0.00    -0.269 OA
BRANCH  34  37
ATOM     37  C   UNL A   1      39.443  24.605  26.918  1.00  0.00     0.039 A 
ATOM     38  C   UNL A   1      38.997  24.731  28.238  1.00  0.00     0.014 A 
ATOM     39  C   UNL A   1      40.172  25.644  26.332  1.00  0.00     0.014 A 
ATOM     40  C   UNL A   1      39.327  25.867  28.982  1.00  0.00     0.010 A 
ATOM     41  C   UNL A   1      40.577  26.732  27.102  1.00  0.00     0.010 A 
ATOM     42  C   UNL A   1      40.149  26.864  28.431  1.00  0.00    -0.014 A 
BRANCH  42  43
ATOM     43  C   UNL A   1      40.556  28.048  29.233  1.00  0.00     0.031 A 
ATOM     44  C   UNL A   1      41.933  28.124  29.833  1.00  0.00     0.074 A 
ATOM     45  C   UNL A   1      39.669  29.036  29.460  1.00  0.00     0.049 A 
ATOM     46  N   UNL A   1      42.460  29.062  30.582  1.00  0.00    -0.248 NA
ATOM     47  C   UNL A   1      42.829  26.986  29.583  1.00  0.00     0.031 C 
ATOM     48  C   UNL A   1      38.286  29.054  28.981  1.00  0.00     0.029 A 
ATOM     49  N   UNL A   1      39.795  30.212  30.158  1.00  0.00    -0.354 N 
ATOM     50  C   UNL A   1      43.737  28.618  30.902  1.00  0.00     0.074 A 
ATOM     51  C   UNL A   1      43.885  27.303  30.318  1.00  0.00     0.031 C 
ATOM     52  C   UNL A   1      37.700  30.196  29.374  1.00  0.00     0.029 A 
ATOM     53  C   UNL A   1      38.650  30.969  30.168  1.00  0.00     0.049 A 
ATOM     54  H   UNL A   1      40.626  30.485  30.608  1.00  0.00     0.167 HD
ATOM     55  C   UNL A   1      44.706  29.259  31.599  1.00  0.00     0.037 A 
ATOM     56  C   UNL A   1      38.390  32.152  30.758  1.00  0.00     0.037 A 
ATOM     57  C   UNL A   1      44.560  30.576  32.165  1.00  0.00     0.049 A 
ATOM     58  C   UNL A   1      39.482  32.844  31.529  1.00  0.00     0.074 A 
ATOM     59  C   UNL A   1      45.504  31.339  32.827  1.00  0.00     0.029 A 
ATOM     60  N   UNL A   1      43.389  31.320  32.142  1.00  0.00    -0.354 N 
ATOM     61  N   UNL A   1      40.712  32.453  31.755  1.00  0.00    -0.248 NA
ATOM     62  C   UNL A   1      39.151  34.148  32.118  1.00  0.00     0.031 C 
ATOM     63  C   UNL A   1      44.886  32.515  33.268  1.00  0.00     0.029 A 
ATOM     64  C   UNL A   1      43.577  32.519  32.812  1.00  0.00     0.049 A 
ATOM     65  H   UNL A   1      42.548  31.038  31.714  1.00  0.00     0.167 HD
ATOM     66  C   UNL A   1      41.311  33.472  32.484  1.00  0.00     0.074 A 
ATOM     67  C   UNL A   1      40.312  34.507  32.647  1.00  0.00     0.031 C 
ATOM     68  C   UNL A   1      42.575  33.543  32.972  1.00  0.00     0.037 A 
BRANCH  55  69
ATOM     69  C   UNL A   1      46.009  28.536  31.805  1.00  0.00     0.064 A 
ATOM     70  C   UNL A   1      47.120  28.758  30.974  1.00  0.00     0.173 A 
ATOM     71  C   UNL A   1      46.159  27.629  32.864  1.00  0.00     0.173 A 
ATOM     72  F   UNL A   1      47.032  29.608  29.940  1.00  0.00    -0.203 F 
ATOM     73  C   UNL A   1      48.314  28.068  31.172  1.00  0.00     0.198 A 
ATOM     74  C   UNL A   1      47.367  26.970  33.082  1.00  0.00     0.198 A 
ATOM     75  F   UNL A   1      45.135  27.383  33.696  1.00  0.00    -0.203 F 
ATOM     76  F   UNL A   1      49.339  28.250  30.327  1.00  0.00    -0.200 F 
ATOM     77  C   UNL A   1      48.439  27.181  32.230  1.00  0.00     0.200 A 
ATOM     78  F   UNL A   1      47.491  26.126  34.116  1.00  0.00    -0.200 F 
ATOM     79  F   UNL A   1      49.590  26.524  32.423  1.00  0.00    -0.200 F 
ENDBRANCH  55  69
BRANCH  56  80
ATOM     80  C   UNL A   1      37.041  32.764  30.625  1.00  0.00     0.064 A 
ATOM     81  C   UNL A   1      36.709  33.552  29.514  1.00  0.00     0.173 A 
ATOM     82  C   UNL A   1      36.054  32.568  31.602  1.00  0.00     0.173 A 
ATOM     83  F   UNL A   1      37.623  33.787  28.561  1.00  0.00    -0.203 F 
ATOM     84  C   UNL A   1      35.449  34.137  29.396  1.00  0.00     0.198 A 
ATOM     85  C   UNL A   1      34.785  33.126  31.467  1.00  0.00     0.198 A 
ATOM     86  F   UNL A   1      36.317  31.817  32.682  1.00  0.00    -0.203 F 
ATOM     87  F   UNL A   1      35.175  34.927  28.349  1.00  0.00    -0.200 F 
ATOM     88  C   UNL A   1      34.485  33.918  30.369  1.00  0.00     0.200 A 
ATOM     89  F   UNL A   1      33.851  32.895  32.401  1.00  0.00    -0.200 F 
ATOM     90  F   UNL A   1      33.273  34.474  30.252  1.00  0.00    -0.200 F 
ENDBRANCH  56  80
BRANCH  68  91
ATOM     91  C   UNL A   1      42.963  34.800  33.699  1.00  0.00     0.064 A 
ATOM     92  C   UNL A   1      43.469  35.922  33.026  1.00  0.00     0.173 A 
ATOM     93  C   UNL A   1      42.796  34.893  35.091  1.00  0.00     0.173 A 
ATOM     94  F   UNL A   1      43.661  35.883  31.698  1.00  0.00    -0.203 F 
ATOM     95  C   UNL A   1      43.829  37.074  33.721  1.00  0.00     0.198 A 
ATOM     96  C   UNL A   1      43.120  36.060  35.777  1.00  0.00     0.198 A 
ATOM     97  F   UNL A   1      42.308  33.855  35.784  1.00  0.00    -0.203 F 
ATOM     98  F   UNL A   1      44.367  38.110  33.063  1.00  0.00    -0.200 F 
ATOM     99  C   UNL A   1      43.647  37.145  35.094  1.00  0.00     0.200 A 
ATOM    100  F   UNL A   1      42.926  36.132  37.101  1.00  0.00    -0.200 F 
ATOM    101  F   UNL A   1      43.986  38.257  35.760  1.00  0.00    -0.200 F 
ENDBRANCH  68  91
ENDBRANCH  42  43
ENDBRANCH  34  37
ENDBRANCH  32  33
ENDBRANCH  31  32
ENDBRANCH  30  31
ENDBRANCH   3  30
TORSDOF 17
ENDMDL
MODEL 2
REMARK VINA RESULT:      -9.5      0.245      1.116
REMARK SMILES C=CCN1C(=O)/C(=C/c2ccc(OCC(=O)NCCCNC(=O)c3ccc(-c4c5nc(c(-c6c(F)c(F)c(F)c(F)c6F)c6ccc([nH]6)c(-c6c(F)c(F)c(F)c(F)c6F)c6nc(c(-c7c(F)c(F)c(F)c(F)c7F)c7ccc4[nH]7)C=C6)C=C5)cc3)c(OC)c2)C(=O)[NH+]=C1S
REMARK SMILES IDX 15 1 16 2 17 3 14 5 13 6 12 7 9 8 10 9 90 10 11 11 87 12
REMARK SMILES IDX 8 13 4 14 5 15 94 16 6 17 7 18 93 19 91 20 92 22 3 23 2 24
REMARK SMILES IDX 1 25 95 26 88 28 89 29 18 30 19 31 20 32 21 33 22 34 23 36
REMARK SMILES IDX 24 37 25 38 86 39 26 40 85 41 27 42 28 43 29 44 79 45 30 46
REMARK SMILES IDX 84 47 78 48 80 49 31 50 83 51 77 52 76 53 32 55 64 56 44 57
REMARK SMILES IDX 63 58 45 59 48 60 62 61 81 62 46 63 47 64 61 66 82 67 49 68
REMARK SMILES IDX 33 69 34 70 42 71 35 72 36 73 40 74 43 75 37 76 38 77 41 78
REMARK SMILES IDX 39 79 65 80 66 81 74 82 67 83 68 84 72 85 75 86 69 87 70 88
REMARK SMILES IDX 73 89 71 90 50 91 51 92 59 93 52 94 53 95 57 96 60 97 54 98
REMARK SMILES IDX 55 99 58 100 56 101
REMARK H PARENT 17 4 93 21 95 27 21 35 80 54 48 65
REMARK Flexibility Score: inf
ROOT
ATOM      1  C   UNL A   1      45.622  23.532  26.326  1.00  0.00     0.257 C 
ATOM      2  O   UNL A   1      46.688  23.350  26.919  1.00  0.00    -0.271 OA
ATOM      3  N   UNL A   1      44.466  23.300  27.017  1.00  0.00    -0.353 N 
ATOM      4  H   UNL A   1      44.574  22.882  27.903  1.00  0.00     0.163 HD
ENDROOT
BRANCH   1   5
ATOM      5  C   UNL A   1      45.553  24.086  24.893  1.00  0.00     0.329 C 
BRANCH   5   6
ATOM      6  O   UNL A   1      46.061  25.387  24.641  1.00  0.00    -0.480 OA
BRANCH   6   7
ATOM      7  C   UNL A   1      45.696  26.421  25.464  1.00  0.00     0.161 A 
ATOM      8  C   UNL A   1      44.647  28.628  26.854  1.00  0.00    -0.021 A 
ATOM      9  C   UNL A   1      43.857  27.960  25.922  1.00  0.00     0.012 A 
ATOM     10  C   UNL A   1      45.927  28.142  27.147  1.00  0.00     0.058 A 
ATOM     11  C   UNL A   1      44.382  26.860  25.238  1.00  0.00     0.051 A 
ATOM     12  C   UNL A   1      46.465  27.048  26.454  1.00  0.00     0.161 A 
BRANCH   8  13
ATOM     13  C   UNL A   1      44.171  29.838  27.531  1.00  0.00     0.032 C 
ATOM     14  N   UNL A   1      44.570  33.435  27.972  1.00  0.00    -0.183 N 
ATOM     15  C   UNL A   1      44.083  32.160  28.195  1.00  0.00     0.349 C 
ATOM     16  C   UNL A   1      45.426  33.666  26.921  1.00  0.00     0.318 C 
ATOM     17  O   UNL A   1      43.279  31.892  29.088  1.00  0.00    -0.240 OA
ATOM     18  C   UNL A   1      44.599  31.099  27.293  1.00  0.00     0.154 C 
ATOM     19  N   UNL A   1      45.883  32.779  26.116  1.00  0.00    -0.200 N 
ATOM     20  C   UNL A   1      45.550  31.465  26.215  1.00  0.00     0.347 C 
ATOM     21  H   UNL A   1      46.497  33.060  25.399  1.00  0.00     0.316 HD
ATOM     22  O   UNL A   1      46.005  30.649  25.422  1.00  0.00    -0.241 OA
BRANCH  14  23
ATOM     23  C   UNL A   1      44.110  34.487  28.885  1.00  0.00     0.275 C 
BRANCH  23  24
ATOM     24  C   UNL A   1      42.819  35.067  28.372  1.00  0.00     0.011 C 
ATOM     25  C   UNL A   1      41.662  35.055  29.050  1.00  0.00     0.008 C 
ENDBRANCH  23  24
ENDBRANCH  14  23
BRANCH  16  26
ATOM     26  S   UNL A   1      45.978  35.290  26.586  1.00  0.00    -0.055 SA
ATOM     27  H   UNL A   1      46.268  35.922  27.755  1.00  0.00     0.116 HD
ENDBRANCH  16  26
ENDBRANCH   8  13
BRANCH  12  28
ATOM     28  O   UNL A   1      47.689  26.529  26.777  1.00  0.00    -0.493 OA
ATOM     29  C   UNL A   1      48.823  27.282  26.353  1.00  0.00     0.278 C 
ENDBRANCH  12  28
ENDBRANCH   6   7
ENDBRANCH   5   6
ENDBRANCH   1   5
BRANCH   3  30
ATOM     30  C   UNL A   1      43.102  23.586  26.621  1.00  0.00     0.117 C 
BRANCH  30  31
ATOM     31  C   UNL A   1      42.378  22.362  26.075  1.00  0.00     0.042 C 
BRANCH  31  32
ATOM     32  C   UNL A   1      41.120  21.969  26.844  1.00  0.00     0.118 C 
BRANCH  32  33
ATOM     33  N   UNL A   1      39.890  22.248  26.112  1.00  0.00    -0.352 N 
ATOM     34  C   UNL A   1      39.056  23.337  26.140  1.00  0.00     0.251 C 
ATOM     35  H   UNL A   1      39.612  21.534  25.493  1.00  0.00     0.163 HD
ATOM     36  O   UNL A   1      37.981  23.288  25.546  1.00  0.00    -0.269 OA
BRANCH  34  37
ATOM     37  C   UNL A   1      39.418  24.560  26.890  1.00  0.00     0.039 A 
ATOM     38  C   UNL A   1      39.001  24.676  28.220  1.00  0.00     0.014 A 
ATOM     39  C   UNL A   1      40.121  25.609  26.292  1.00  0.00     0.014 A 
ATOM     40  C   UNL A   1      39.335  25.812  28.961  1.00  0.00     0.010 A 
ATOM     41  C   UNL A   1      40.532  26.699  27.056  1.00  0.00     0.010 A 
ATOM     42  C   UNL A   1      40.133  26.820  28.396  1.00  0.00    -0.014 A 
BRANCH  42  43
ATOM     43  C   UNL A   1      40.545  28.005  29.193  1.00  0.00     0.031 A 
ATOM     44  C   UNL A   1      41.922  28.077  29.795  1.00  0.00     0.074 A 
ATOM     45  C   UNL A   1      39.664  28.999  29.414  1.00  0.00     0.049 A 
ATOM     46  N   UNL A   1      42.453  29.016  30.541  1.00  0.00    -0.248 NA
ATOM     47  C   UNL A   1      42.812  26.933  29.552  1.00  0.00     0.031 C 
ATOM     48  C   UNL A   1      38.281  29.023  28.934  1.00  0.00     0.029 A 
ATOM     49  N   UNL A   1      39.794  30.178  30.108  1.00  0.00    -0.354 N 
ATOM     50  C   UNL A   1      43.726  28.566  30.865  1.00  0.00     0.074 A 
ATOM     51  C   UNL A   1      43.868  27.248  30.287  1.00  0.00     0.031 C 
ATOM     52  C   UNL A   1      37.701  30.170  29.321  1.00  0.00     0.029 A 
ATOM     53  C   UNL A   1      38.653  30.941  30.113  1.00  0.00     0.049 A 
ATOM     54  H   UNL A   1      40.626  30.448  30.558  1.00  0.00     0.167 HD
ATOM     55  C   UNL A   1      44.698  29.204  31.561  1.00  0.00     0.037 A 
ATOM     56  C   UNL A   1      38.398  32.128  30.697  1.00  0.00     0.037 A 
ATOM     57  C   UNL A   1      44.558  30.524  32.121  1.00  0.00     0.049 A 
ATOM     58  C   UNL A   1      39.493  32.817  31.467  1.00  0.00     0.074 A 
ATOM     59  C   UNL A   1      45.505  31.286  32.781  1.00  0.00     0.029 A 
ATOM     60  N   UNL A   1      43.391  31.275  32.093  1.00  0.00    -0.354 N 
ATOM     61  N   UNL A   1      40.721  32.420  31.696  1.00  0.00    -0.248 NA
ATOM     62  C   UNL A   1      39.168  34.126  32.050  1.00  0.00     0.031 C 
ATOM     63  C   UNL A   1      44.893  32.467  33.216  1.00  0.00     0.029 A 
ATOM     64  C   UNL A   1      43.585  32.476  32.758  1.00  0.00     0.049 A 
ATOM     65  H   UNL A   1      42.549  30.996  31.665  1.00  0.00     0.167 HD
ATOM     66  C   UNL A   1      41.324  33.439  32.422  1.00  0.00     0.074 A 
ATOM     67  C   UNL A   1      40.330  34.481  32.580  1.00  0.00     0.031 C 
ATOM     68  C   UNL A   1      42.587  33.506  32.911  1.00  0.00     0.037 A 
BRANCH  55  69
ATOM     69  C   UNL A   1      45.997  28.476  31.772  1.00  0.00     0.064 A 
ATOM     70  C   UNL A   1      46.193  27.606  32.857  1.00  0.00     0.173 A 
ATOM     71  C   UNL A   1      47.053  28.628  30.859  1.00  0.00     0.173 A 
ATOM     72  F   UNL A   1      45.222  27.428  33.765  1.00  0.00    -0.203 F 
ATOM     73  C   UNL A   1      47.409  26.952  33.043  1.00  0.00     0.198 A 
ATOM     74  C   UNL A   1      48.253  27.942  31.028  1.00  0.00     0.198 A 
ATOM     75  F   UNL A   1      46.920  29.439  29.799  1.00  0.00    -0.203 F 
ATOM     76  F   UNL A   1      47.593  26.177  34.121  1.00  0.00    -0.200 F 
ATOM     77  C   UNL A   1      48.435  27.114  32.124  1.00  0.00     0.200 A 
ATOM     78  F   UNL A   1      49.236  28.086  30.129  1.00  0.00    -0.200 F 
ATOM     79  F   UNL A   1      49.601  26.478  32.299  1.00  0.00    -0.200 F 
ENDBRANCH  55  69
BRANCH  56  80
ATOM     80  C   UNL A   1      37.053  32.746  30.559  1.00  0.00     0.064 A 
ATOM     81  C   UNL A   1      36.714  33.497  29.425  1.00  0.00     0.173 A 
ATOM     82  C   UNL A   1      36.078  32.594  31.555  1.00  0.00     0.173 A 
ATOM     83  F   UNL A   1      37.617  33.690  28.453  1.00  0.00    -0.203 F 
ATOM     84  C   UNL A   1      35.457  34.089  29.303  1.00  0.00     0.198 A 
ATOM     85  C   UNL A   1      34.811  33.158  31.417  1.00  0.00     0.198 A 
ATOM     86  F   UNL A   1      36.348  31.880  32.658  1.00  0.00    -0.203 F 
ATOM     87  F   UNL A   1      35.176  34.843  28.231  1.00  0.00    -0.200 F 
ATOM     88  C   UNL A   1      34.504  33.913  30.294  1.00  0.00     0.200 A 
ATOM     89  F   UNL A   1      33.888  32.968  32.370  1.00  0.00    -0.200 F 
ATOM     90  F   UNL A   1      33.295  34.475  30.173  1.00  0.00    -0.200 F 
ENDBRANCH  56  80
BRANCH  68  91
ATOM     91  C   UNL A   1      42.981  34.764  33.634  1.00  0.00     0.064 A 
ATOM     92  C   UNL A   1      43.412  35.910  32.950  1.00  0.00     0.173 A 
ATOM     93  C   UNL A   1      42.897  34.832  35.035  1.00  0.00     0.173 A 
ATOM     94  F   UNL A   1      43.524  35.896  31.612  1.00  0.00    -0.203 F 
ATOM     95  C   UNL A   1      43.779  37.063  33.640  1.00  0.00     0.198 A 
ATOM     96  C   UNL A   1      43.226  35.999  35.719  1.00  0.00     0.198 A 
ATOM     97  F   UNL A   1      42.482  33.769  35.740  1.00  0.00    -0.203 F 
ATOM     98  F   UNL A   1      44.245  38.124  32.968  1.00  0.00    -0.200 F 
ATOM     99  C   UNL A   1      43.678  37.109  35.023  1.00  0.00     0.200 A 
ATOM    100  F   UNL A   1      43.110  36.046  37.053  1.00  0.00    -0.200 F 
ATOM    101  F   UNL A   1      44.023  38.221  35.684  1.00  0.00    -0.200 F 
ENDBRANCH  68  91
ENDBRANCH  42  43
ENDBRANCH  34  37
ENDBRANCH  32  33
ENDBRANCH  31  32
ENDBRANCH  30  31
ENDBRANCH   3  30
TORSDOF 17
ENDMDL
MODEL 3
REMARK VINA RESULT:      -8.8      5.516     11.343
REMARK SMILES C=CCN1C(=O)/C(=C/c2ccc(OCC(=O)NCCCNC(=O)c3ccc(-c4c5nc(c(-c6c(F)c(F)c(F)c(F)c6F)c6ccc([nH]6)c(-c6c(F)c(F)c(F)c(F)c6F)c6nc(c(-c7c(F)c(F)c(F)c(F)c7F)c7ccc4[nH]7)C=C6)C=C5)cc3)c(OC)c2)C(=O)[NH+]=C1S
REMARK SMILES IDX 15 1 16 2 17 3 14 5 13 6 12 7 9 8 10 9 90 10 11 11 87 12
REMARK SMILES IDX 8 13 4 14 5 15 94 16 6 17 7 18 93 19 91 20 92 22 3 23 2 24
REMARK SMILES IDX 1 25 95 26 88 28 89 29 18 30 19 31 20 32 21 33 22 34 23 36
REMARK SMILES IDX 24 37 25 38 86 39 26 40 85 41 27 42 28 43 29 44 79 45 30 46
REMARK SMILES IDX 84 47 78 48 80 49 31 50 83 51 77 52 76 53 32 55 64 56 44 57
REMARK SMILES IDX 63 58 45 59 48 60 62 61 81 62 46 63 47 64 61 66 82 67 49 68
REMARK SMILES IDX 33 69 34 70 42 71 35 72 36 73 40 74 43 75 37 76 38 77 41 78
REMARK SMILES IDX 39 79 65 80 66 81 74 82 67 83 68 84 72 85 75 86 69 87 70 88
REMARK SMILES IDX 73 89 71 90 50 91 51 92 59 93 52 94 53 95 57 96 60 97 54 98
REMARK SMILES IDX 55 99 58 100 56 101
REMARK H PARENT 17 4 93 21 95 27 21 35 80 54 48 65
REMARK Flexibility Score: inf
ROOT
ATOM      1  C   UNL A   1      35.344  33.710  28.292  1.00  0.00     0.257 C 
ATOM      2  O   UNL A   1      36.347  33.094  28.662  1.00  0.00    -0.271 OA
ATOM      3  N   UNL A   1      35.363  35.073  28.396  1.00  0.00    -0.353 N 
ATOM      4  H   UNL A   1      36.133  35.453  28.879  1.00  0.00     0.163 HD
ENDROOT
BRANCH   1   5
ATOM      5  C   UNL A   1      34.133  33.013  27.648  1.00  0.00     0.329 C 
BRANCH   5   6
ATOM      6  O   UNL A   1      33.685  31.783  28.196  1.00  0.00    -0.480 OA
BRANCH   6   7
ATOM      7  C   UNL A   1      33.727  30.650  27.426  1.00  0.00     0.161 A 
ATOM      8  C   UNL A   1      33.396  28.404  25.767  1.00  0.00    -0.021 A 
ATOM      9  C   UNL A   1      32.526  29.485  25.649  1.00  0.00     0.012 A 
ATOM     10  C   UNL A   1      34.476  28.484  26.655  1.00  0.00     0.058 A 
ATOM     11  C   UNL A   1      32.698  30.601  26.471  1.00  0.00     0.051 A 
ATOM     12  C   UNL A   1      34.646  29.594  27.494  1.00  0.00     0.161 A 
BRANCH   8  13
ATOM     13  C   UNL A   1      33.202  27.178  24.988  1.00  0.00     0.032 C 
ATOM     14  N   UNL A   1      31.796  23.816  24.905  1.00  0.00    -0.183 N 
ATOM     15  C   UNL A   1      32.517  24.916  24.481  1.00  0.00     0.349 C 
ATOM     16  C   UNL A   1      31.033  23.895  26.046  1.00  0.00     0.318 C 
ATOM     17  O   UNL A   1      33.184  24.928  23.446  1.00  0.00    -0.240 OA
ATOM     18  C   UNL A   1      32.461  26.110  25.362  1.00  0.00     0.154 C 
ATOM     19  N   UNL A   1      30.951  24.911  26.825  1.00  0.00    -0.200 N 
ATOM     20  C   UNL A   1      31.629  26.065  26.590  1.00  0.00     0.347 C 
ATOM     21  H   UNL A   1      30.374  24.853  27.620  1.00  0.00     0.316 HD
ATOM     22  O   UNL A   1      31.519  27.015  27.356  1.00  0.00    -0.241 OA
BRANCH  14  23
ATOM     23  C   UNL A   1      31.881  22.610  24.073  1.00  0.00     0.275 C 
BRANCH  23  24
ATOM     24  C   UNL A   1      33.094  21.812  24.472  1.00  0.00     0.011 C 
ATOM     25  C   UNL A   1      33.266  20.510  24.199  1.00  0.00     0.008 C 
ENDBRANCH  23  24
ENDBRANCH  14  23
BRANCH  16  26
ATOM     26  S   UNL A   1      30.056  22.533  26.540  1.00  0.00    -0.055 SA
ATOM     27  H   UNL A   1      30.338  21.461  25.751  1.00  0.00     0.116 HD
ENDBRANCH  16  26
ENDBRANCH   8  13
BRANCH  12  28
ATOM     28  O   UNL A   1      35.732  29.706  28.319  1.00  0.00    -0.493 OA
ATOM     29  C   UNL A   1      37.001  29.818  27.678  1.00  0.00     0.278 C 
ENDBRANCH  12  28
ENDBRANCH   6   7
ENDBRANCH   5   6
ENDBRANCH   1   5
BRANCH   3  30
ATOM     30  C   UNL A   1      34.402  36.032  27.893  1.00  0.00     0.117 C 
BRANCH  30  31
ATOM     31  C   UNL A   1      33.416  36.494  28.958  1.00  0.00     0.042 C 
BRANCH  31  32
ATOM     32  C   UNL A   1      32.885  35.384  29.861  1.00  0.00     0.118 C 
BRANCH  32  33
ATOM     33  N   UNL A   1      32.279  35.885  31.089  1.00  0.00    -0.352 N 
ATOM     34  C   UNL A   1      32.631  35.704  32.403  1.00  0.00     0.251 C 
ATOM     35  H   UNL A   1      31.483  36.449  30.952  1.00  0.00     0.163 HD
ATOM     36  O   UNL A   1      31.877  36.098  33.289  1.00  0.00    -0.269 OA
BRANCH  34  37
ATOM     37  C   UNL A   1      33.893  35.023  32.770  1.00  0.00     0.039 A 
ATOM     38  C   UNL A   1      33.824  33.733  33.306  1.00  0.00     0.014 A 
ATOM     39  C   UNL A   1      35.134  35.652  32.639  1.00  0.00     0.014 A 
ATOM     40  C   UNL A   1      34.996  33.057  33.653  1.00  0.00     0.010 A 
ATOM     41  C   UNL A   1      36.305  34.944  32.899  1.00  0.00     0.010 A 
ATOM     42  C   UNL A   1      36.251  33.644  33.422  1.00  0.00    -0.014 A 
BRANCH  42  43
ATOM     43  C   UNL A   1      37.506  32.911  33.732  1.00  0.00     0.031 A 
ATOM     44  C   UNL A   1      38.273  33.210  34.991  1.00  0.00     0.074 A 
ATOM     45  C   UNL A   1      37.983  32.006  32.855  1.00  0.00     0.049 A 
ATOM     46  N   UNL A   1      39.400  32.693  35.418  1.00  0.00    -0.248 NA
ATOM     47  C   UNL A   1      37.718  34.245  35.875  1.00  0.00     0.031 C 
ATOM     48  C   UNL A   1      37.363  31.666  31.573  1.00  0.00     0.029 A 
ATOM     49  N   UNL A   1      39.102  31.211  32.904  1.00  0.00    -0.354 N 
ATOM     50  C   UNL A   1      39.691  33.351  36.606  1.00  0.00     0.074 A 
ATOM     51  C   UNL A   1      38.657  34.344  36.803  1.00  0.00     0.031 C 
ATOM     52  C   UNL A   1      38.094  30.714  30.971  1.00  0.00     0.029 A 
ATOM     53  C   UNL A   1      39.254  30.408  31.801  1.00  0.00     0.049 A 
ATOM     54  H   UNL A   1      39.735  31.218  33.657  1.00  0.00     0.167 HD
ATOM     55  C   UNL A   1      40.714  33.131  37.467  1.00  0.00     0.037 A 
ATOM     56  C   UNL A   1      40.224  29.527  31.488  1.00  0.00     0.037 A 
ATOM     57  C   UNL A   1      41.731  32.130  37.276  1.00  0.00     0.049 A 
ATOM     58  C   UNL A   1      41.351  29.301  32.460  1.00  0.00     0.074 A 
ATOM     59  C   UNL A   1      42.768  31.781  38.122  1.00  0.00     0.029 A 
ATOM     60  N   UNL A   1      41.845  31.323  36.152  1.00  0.00    -0.354 N 
ATOM     61  N   UNL A   1      41.572  29.869  33.620  1.00  0.00    -0.248 NA
ATOM     62  C   UNL A   1      42.360  28.302  32.082  1.00  0.00     0.031 C 
ATOM     63  C   UNL A   1      43.550  30.813  37.481  1.00  0.00     0.029 A 
ATOM     64  C   UNL A   1      42.956  30.503  36.268  1.00  0.00     0.049 A 
ATOM     65  H   UNL A   1      41.227  31.332  35.385  1.00  0.00     0.167 HD
ATOM     66  C   UNL A   1      42.722  29.278  34.124  1.00  0.00     0.074 A 
ATOM     67  C   UNL A   1      43.145  28.294  33.150  1.00  0.00     0.031 C 
ATOM     68  C   UNL A   1      43.369  29.528  35.290  1.00  0.00     0.037 A 
BRANCH  55  69
ATOM     69  C   UNL A   1      40.793  34.002  38.691  1.00  0.00     0.064 A 
ATOM     70  C   UNL A   1      41.514  35.207  38.699  1.00  0.00     0.173 A 
ATOM     71  C   UNL A   1      40.116  33.640  39.866  1.00  0.00     0.173 A 
ATOM     72  F   UNL A   1      42.188  35.600  37.607  1.00  0.00    -0.203 F 
ATOM     73  C   UNL A   1      41.588  35.993  39.847  1.00  0.00     0.198 A 
ATOM     74  C   UNL A   1      40.160  34.448  40.999  1.00  0.00     0.198 A 
ATOM     75  F   UNL A   1      39.404  32.504  39.915  1.00  0.00    -0.203 F 
ATOM     76  F   UNL A   1      42.334  37.106  39.849  1.00  0.00    -0.200 F 
ATOM     77  C   UNL A   1      40.905  35.617  40.994  1.00  0.00     0.200 A 
ATOM     78  F   UNL A   1      39.485  34.091  42.101  1.00  0.00    -0.200 F 
ATOM     79  F   UNL A   1      40.970  36.377  42.095  1.00  0.00    -0.200 F 
ENDBRANCH  55  69
BRANCH  56  80
ATOM     80  C   UNL A   1      40.160  28.781  30.203  1.00  0.00     0.064 A 
ATOM     81  C   UNL A   1      39.517  27.538  30.119  1.00  0.00     0.173 A 
ATOM     82  C   UNL A   1      40.733  29.299  29.033  1.00  0.00     0.173 A 
ATOM     83  F   UNL A   1      38.970  26.991  31.213  1.00  0.00    -0.203 F 
ATOM     84  C   UNL A   1      39.469  26.833  28.917  1.00  0.00     0.198 A 
ATOM     85  C   UNL A   1      40.656  28.608  27.825  1.00  0.00     0.198 A 
ATOM     86  F   UNL A   1      41.355  30.487  29.057  1.00  0.00    -0.203 F 
ATOM     87  F   UNL A   1      38.891  25.624  28.876  1.00  0.00    -0.200 F 
ATOM     88  C   UNL A   1      40.031  27.371  27.770  1.00  0.00     0.200 A 
ATOM     89  F   UNL A   1      41.185  29.142  26.716  1.00  0.00    -0.200 F 
ATOM     90  F   UNL A   1      39.978  26.696  26.615  1.00  0.00    -0.200 F 
ENDBRANCH  56  80
BRANCH  68  91
ATOM     91  C   UNL A   1      44.585  28.696  35.596  1.00  0.00     0.064 A 
ATOM     92  C   UNL A   1      45.875  29.102  35.225  1.00  0.00     0.173 A 
ATOM     93  C   UNL A   1      44.457  27.487  36.300  1.00  0.00     0.173 A 
ATOM     94  F   UNL A   1      46.054  30.242  34.540  1.00  0.00    -0.203 F 
ATOM     95  C   UNL A   1      46.987  28.313  35.513  1.00  0.00     0.198 A 
ATOM     96  C   UNL A   1      45.574  26.720  36.620  1.00  0.00     0.198 A 
ATOM     97  F   UNL A   1      43.248  27.055  36.688  1.00  0.00    -0.203 F 
ATOM     98  F   UNL A   1      48.201  28.693  35.094  1.00  0.00    -0.200 F 
ATOM     99  C   UNL A   1      46.836  27.128  36.216  1.00  0.00     0.200 A 
ATOM    100  F   UNL A   1      45.427  25.585  37.316  1.00  0.00    -0.200 F 
ATOM    101  F   UNL A   1      47.906  26.374  36.499  1.00  0.00    -0.200 F 
ENDBRANCH  68  91
ENDBRANCH  42  43
ENDBRANCH  34  37
ENDBRANCH  32  33
ENDBRANCH  31  32
ENDBRANCH  30  31
ENDBRANCH   3  30
TORSDOF 17
ENDMDL
