MODEL 1
REMARK VINA RESULT:     -12.2      0.000      0.000
REMARK SMILES COc1ccc([C@@H]2C(C#N)=C(N)N3C(=O)[C@H](CC(=O)NCCCNC(=O)c4ccc(-c5c6nc(c(-c7c(F)c(F)c(F)c(F)c7F)c7ccc([nH]7)c(-c7c(F)c(F)c(F)c(F)c7F)c7nc(c(-c8c(F)c(F)c(F)c(F)c8F)c8ccc5[nH]8)C=C7)C=C6)cc4)SC3=C2C#N)cc1
REMARK SMILES IDX 21 1 20 2 18 3 19 4 17 6 16 7 7 8 8 9 92 10 11 11 91 12
REMARK SMILES IDX 13 13 90 14 14 15 15 16 6 17 3 18 4 19 96 20 5 21 95 22 2 23
REMARK SMILES IDX 1 24 9 25 10 26 93 27 94 28 12 29 22 32 23 33 24 34 25 35
REMARK SMILES IDX 26 37 27 38 28 39 89 40 29 41 88 42 30 43 31 44 32 45 82 46
REMARK SMILES IDX 33 47 87 48 81 49 83 50 34 51 86 52 80 53 79 54 35 56 67 57
REMARK SMILES IDX 47 58 66 59 48 60 51 61 65 62 84 63 49 64 50 65 64 67 85 68
REMARK SMILES IDX 52 69 36 70 37 71 45 72 38 73 39 74 43 75 46 76 40 77 41 78
REMARK SMILES IDX 44 79 42 80 68 81 69 82 77 83 70 84 71 85 75 86 78 87 72 88
REMARK SMILES IDX 73 89 76 90 74 91 53 92 54 93 62 94 55 95 56 96 60 97 63 98
REMARK SMILES IDX 57 99 58 100 61 101 59 102
REMARK H PARENT 20 5 12 30 12 31 24 36 83 55 51 66
REMARK Flexibility Score: inf
ROOT
ATOM      1  C   UNL A   1      38.070  21.625  25.735  1.00  0.00     0.117 C 
ENDROOT
BRANCH   1   2
ATOM      2  N   UNL A   1      37.106  20.739  25.105  1.00  0.00    -0.356 N 
ATOM      3  C   UNL A   1      35.748  20.726  25.162  1.00  0.00     0.221 C 
ATOM      4  O   UNL A   1      35.138  19.805  24.618  1.00  0.00    -0.275 OA
ATOM      5  H   UNL A   1      37.501  20.033  24.544  1.00  0.00     0.163 HD
BRANCH   3   6
ATOM      6  C   UNL A   1      35.010  21.823  25.880  1.00  0.00     0.125 C 
BRANCH   6   7
ATOM      7  C   UNL A   1      35.435  23.176  25.341  1.00  0.00     0.152 C 
ATOM      8  C   UNL A   1      32.927  26.616  22.905  1.00  0.00     0.107 C 
ATOM      9  C   UNL A   1      32.864  25.426  21.974  1.00  0.00     0.083 C 
ATOM     10  C   UNL A   1      33.276  26.159  24.290  1.00  0.00     0.073 C 
ATOM     11  C   UNL A   1      33.429  24.234  22.315  1.00  0.00     0.126 C 
ATOM     12  C   UNL A   1      33.788  24.964  24.549  1.00  0.00     0.099 C 
ATOM     13  N   UNL A   1      34.084  24.094  23.548  1.00  0.00    -0.258 N 
ATOM     14  S   UNL A   1      34.370  24.446  26.089  1.00  0.00    -0.093 SA
ATOM     15  C   UNL A   1      35.221  23.340  23.837  1.00  0.00     0.247 C 
ATOM     16  O   UNL A   1      36.059  22.985  23.019  1.00  0.00    -0.273 OA
BRANCH   8  17
ATOM     17  C   UNL A   1      31.681  27.504  22.903  1.00  0.00    -0.034 A 
ATOM     18  C   UNL A   1      29.316  29.039  22.757  1.00  0.00     0.118 A 
ATOM     19  C   UNL A   1      29.278  27.725  23.220  1.00  0.00     0.047 A 
ATOM     20  C   UNL A   1      30.539  29.597  22.390  1.00  0.00     0.047 A 
ATOM     21  C   UNL A   1      30.444  26.958  23.284  1.00  0.00     0.008 A 
ATOM     22  C   UNL A   1      31.715  28.839  22.465  1.00  0.00     0.008 A 
BRANCH  18  23
ATOM     23  O   UNL A   1      28.113  29.686  22.753  1.00  0.00    -0.497 OA
ATOM     24  C   UNL A   1      27.918  30.635  21.709  1.00  0.00     0.278 C 
ENDBRANCH  18  23
ENDBRANCH   8  17
BRANCH   9  25
ATOM     25  C   UNL A   1      32.227  25.602  20.705  1.00  0.00     0.100 C 
ATOM     26  N   UNL A   1      31.710  25.704  19.674  1.00  0.00    -0.193 NA
ENDBRANCH   9  25
BRANCH  10  27
ATOM     27  C   UNL A   1      33.092  27.107  25.464  1.00  0.00     0.098 C 
ATOM     28  N   UNL A   1      32.939  27.893  26.439  1.00  0.00    -0.193 NA
ENDBRANCH  10  27
BRANCH  11  29
ATOM     29  N   UNL A   1      33.272  23.132  21.514  1.00  0.00    -0.384 N 
ATOM     30  H   UNL A   1      33.942  22.410  21.531  1.00  0.00     0.158 HD
ATOM     31  H   UNL A   1      32.489  23.062  20.921  1.00  0.00     0.158 HD
ENDBRANCH  11  29
ENDBRANCH   6   7
ENDBRANCH   3   6
ENDBRANCH   1   2
BRANCH   1  32
ATOM     32  C   UNL A   1      39.323  20.884  26.182  1.00  0.00     0.042 C 
BRANCH  32  33
ATOM     33  C   UNL A   1      39.712  19.715  25.311  1.00  0.00     0.118 C 
BRANCH  33  34
ATOM     34  N   UNL A   1      40.646  18.864  26.019  1.00  0.00    -0.352 N 
ATOM     35  C   UNL A   1      41.923  19.135  26.446  1.00  0.00     0.251 C 
ATOM     36  H   UNL A   1      40.318  17.960  26.224  1.00  0.00     0.163 HD
ATOM     37  O   UNL A   1      42.681  18.192  26.660  1.00  0.00    -0.269 OA
BRANCH  35  38
ATOM     38  C   UNL A   1      42.410  20.528  26.633  1.00  0.00     0.039 A 
ATOM     39  C   UNL A   1      42.368  21.084  27.915  1.00  0.00     0.014 A 
ATOM     40  C   UNL A   1      42.831  21.322  25.566  1.00  0.00     0.014 A 
ATOM     41  C   UNL A   1      42.767  22.409  28.121  1.00  0.00     0.010 A 
ATOM     42  C   UNL A   1      43.357  22.592  25.790  1.00  0.00     0.010 A 
ATOM     43  C   UNL A   1      43.291  23.169  27.064  1.00  0.00    -0.014 A 
BRANCH  43  44
ATOM     44  C   UNL A   1      43.723  24.578  27.258  1.00  0.00     0.031 A 
ATOM     45  C   UNL A   1      42.751  25.610  27.769  1.00  0.00     0.074 A 
ATOM     46  C   UNL A   1      44.980  24.943  26.940  1.00  0.00     0.049 A 
ATOM     47  N   UNL A   1      42.930  26.892  27.980  1.00  0.00    -0.248 NA
ATOM     48  C   UNL A   1      41.382  25.148  28.050  1.00  0.00     0.031 C 
ATOM     49  C   UNL A   1      46.007  24.051  26.401  1.00  0.00     0.029 A 
ATOM     50  N   UNL A   1      45.610  26.159  27.032  1.00  0.00    -0.354 N 
ATOM     51  C   UNL A   1      41.701  27.382  28.404  1.00  0.00     0.074 A 
ATOM     52  C   UNL A   1      40.765  26.282  28.341  1.00  0.00     0.031 C 
ATOM     53  C   UNL A   1      47.152  24.735  26.259  1.00  0.00     0.029 A 
ATOM     54  C   UNL A   1      46.927  26.124  26.648  1.00  0.00     0.049 A 
ATOM     55  H   UNL A   1      45.160  26.976  27.343  1.00  0.00     0.167 HD
ATOM     56  C   UNL A   1      41.383  28.625  28.840  1.00  0.00     0.037 A 
ATOM     57  C   UNL A   1      47.851  27.103  26.615  1.00  0.00     0.037 A 
ATOM     58  C   UNL A   1      42.320  29.717  28.906  1.00  0.00     0.049 A 
ATOM     59  C   UNL A   1      47.466  28.489  27.055  1.00  0.00     0.074 A 
ATOM     60  C   UNL A   1      42.118  31.005  29.367  1.00  0.00     0.029 A 
ATOM     61  N   UNL A   1      43.640  29.649  28.481  1.00  0.00    -0.354 N 
ATOM     62  N   UNL A   1      46.320  28.926  27.519  1.00  0.00    -0.248 NA
ATOM     63  C   UNL A   1      48.510  29.519  26.969  1.00  0.00     0.031 C 
ATOM     64  C   UNL A   1      43.293  31.734  29.161  1.00  0.00     0.029 A 
ATOM     65  C   UNL A   1      44.254  30.883  28.639  1.00  0.00     0.049 A 
ATOM     66  H   UNL A   1      44.077  28.844  28.121  1.00  0.00     0.167 HD
ATOM     67  C   UNL A   1      46.513  30.270  27.813  1.00  0.00     0.074 A 
ATOM     68  C   UNL A   1      47.892  30.571  27.487  1.00  0.00     0.031 C 
ATOM     69  C   UNL A   1      45.629  31.170  28.311  1.00  0.00     0.037 A 
BRANCH  56  70
ATOM     70  C   UNL A   1      39.959  28.864  29.266  1.00  0.00     0.064 A 
ATOM     71  C   UNL A   1      39.537  28.661  30.591  1.00  0.00     0.173 A 
ATOM     72  C   UNL A   1      38.996  29.287  28.336  1.00  0.00     0.173 A 
ATOM     73  F   UNL A   1      40.411  28.249  31.523  1.00  0.00    -0.203 F 
ATOM     74  C   UNL A   1      38.201  28.813  30.953  1.00  0.00     0.198 A 
ATOM     75  C   UNL A   1      37.668  29.481  28.713  1.00  0.00     0.198 A 
ATOM     76  F   UNL A   1      39.339  29.509  27.059  1.00  0.00    -0.203 F 
ATOM     77  F   UNL A   1      37.812  28.529  32.204  1.00  0.00    -0.200 F 
ATOM     78  C   UNL A   1      37.268  29.226  30.015  1.00  0.00     0.200 A 
ATOM     79  F   UNL A   1      36.772  29.898  27.808  1.00  0.00    -0.200 F 
ATOM     80  F   UNL A   1      35.983  29.367  30.363  1.00  0.00    -0.200 F 
ENDBRANCH  56  70
BRANCH  57  81
ATOM     81  C   UNL A   1      49.242  26.791  26.195  1.00  0.00     0.064 A 
ATOM     82  C   UNL A   1      49.651  26.998  24.869  1.00  0.00     0.173 A 
ATOM     83  C   UNL A   1      50.193  26.297  27.099  1.00  0.00     0.173 A 
ATOM     84  F   UNL A   1      48.772  27.449  23.961  1.00  0.00    -0.203 F 
ATOM     85  C   UNL A   1      50.950  26.707  24.462  1.00  0.00     0.198 A 
ATOM     86  C   UNL A   1      51.500  26.035  26.698  1.00  0.00     0.198 A 
ATOM     87  F   UNL A   1      49.854  26.084  28.380  1.00  0.00    -0.203 F 
ATOM     88  F   UNL A   1      51.299  26.871  23.179  1.00  0.00    -0.200 F 
ATOM     89  C   UNL A   1      51.876  26.233  25.378  1.00  0.00     0.200 A 
ATOM     90  F   UNL A   1      52.396  25.589  27.591  1.00  0.00    -0.200 F 
ATOM     91  F   UNL A   1      53.128  25.958  24.987  1.00  0.00    -0.200 F 
ENDBRANCH  57  81
BRANCH  69  92
ATOM     92  C   UNL A   1      46.138  32.561  28.575  1.00  0.00     0.064 A 
ATOM     93  C   UNL A   1      46.042  33.581  27.616  1.00  0.00     0.173 A 
ATOM     94  C   UNL A   1      46.702  32.883  29.819  1.00  0.00     0.173 A 
ATOM     95  F   UNL A   1      45.522  33.325  26.406  1.00  0.00    -0.203 F 
ATOM     96  C   UNL A   1      46.525  34.860  27.881  1.00  0.00     0.198 A 
ATOM     97  C   UNL A   1      47.149  34.173  30.093  1.00  0.00     0.198 A 
ATOM     98  F   UNL A   1      46.812  31.950  30.776  1.00  0.00    -0.203 F 
ATOM     99  F   UNL A   1      46.479  35.802  26.927  1.00  0.00    -0.200 F 
ATOM    100  C   UNL A   1      47.070  35.157  29.121  1.00  0.00     0.200 A 
ATOM    101  F   UNL A   1      47.658  34.462  31.299  1.00  0.00    -0.200 F 
ATOM    102  F   UNL A   1      47.527  36.391  29.376  1.00  0.00    -0.200 F 
ENDBRANCH  69  92
ENDBRANCH  43  44
ENDBRANCH  35  38
ENDBRANCH  33  34
ENDBRANCH  32  33
ENDBRANCH   1  32
TORSDOF 16
ENDMDL
MODEL 2
REMARK VINA RESULT:     -12.1      5.194     10.896
REMARK SMILES COc1ccc([C@@H]2C(C#N)=C(N)N3C(=O)[C@H](CC(=O)NCCCNC(=O)c4ccc(-c5c6nc(c(-c7c(F)c(F)c(F)c(F)c7F)c7ccc([nH]7)c(-c7c(F)c(F)c(F)c(F)c7F)c7nc(c(-c8c(F)c(F)c(F)c(F)c8F)c8ccc5[nH]8)C=C7)C=C6)cc4)SC3=C2C#N)cc1
REMARK SMILES IDX 21 1 20 2 18 3 19 4 17 6 16 7 7 8 8 9 92 10 11 11 91 12
REMARK SMILES IDX 13 13 90 14 14 15 15 16 6 17 3 18 4 19 96 20 5 21 95 22 2 23
REMARK SMILES IDX 1 24 9 25 10 26 93 27 94 28 12 29 22 32 23 33 24 34 25 35
REMARK SMILES IDX 26 37 27 38 28 39 89 40 29 41 88 42 30 43 31 44 32 45 82 46
REMARK SMILES IDX 33 47 87 48 81 49 83 50 34 51 86 52 80 53 79 54 35 56 67 57
REMARK SMILES IDX 47 58 66 59 48 60 51 61 65 62 84 63 49 64 50 65 64 67 85 68
REMARK SMILES IDX 52 69 36 70 37 71 45 72 38 73 39 74 43 75 46 76 40 77 41 78
REMARK SMILES IDX 44 79 42 80 68 81 69 82 77 83 70 84 71 85 75 86 78 87 72 88
REMARK SMILES IDX 73 89 76 90 74 91 53 92 54 93 62 94 55 95 56 96 60 97 63 98
REMARK SMILES IDX 57 99 58 100 61 101 59 102
REMARK H PARENT 20 5 12 30 12 31 24 36 83 55 51 66
REMARK Flexibility Score: inf
ROOT
ATOM      1  C   UNL A   1      33.423  30.244  27.019  1.00  0.00     0.117 C 
ENDROOT
BRANCH   1   2
ATOM      2  N   UNL A   1      33.748  29.760  25.687  1.00  0.00    -0.356 N 
ATOM      3  C   UNL A   1      32.946  29.484  24.626  1.00  0.00     0.221 C 
ATOM      4  O   UNL A   1      33.444  28.982  23.618  1.00  0.00    -0.275 OA
ATOM      5  H   UNL A   1      34.708  29.608  25.528  1.00  0.00     0.163 HD
BRANCH   3   6
ATOM      6  C   UNL A   1      31.475  29.791  24.690  1.00  0.00     0.125 C 
BRANCH   6   7
ATOM      7  C   UNL A   1      30.670  28.511  24.570  1.00  0.00     0.152 C 
ATOM      8  C   UNL A   1      32.056  23.893  23.668  1.00  0.00     0.107 C 
ATOM      9  C   UNL A   1      32.485  24.627  22.418  1.00  0.00     0.083 C 
ATOM     10  C   UNL A   1      31.844  24.872  24.785  1.00  0.00     0.073 C 
ATOM     11  C   UNL A   1      32.301  25.971  22.292  1.00  0.00     0.126 C 
ATOM     12  C   UNL A   1      31.712  26.176  24.586  1.00  0.00     0.099 C 
ATOM     13  N   UNL A   1      31.703  26.699  23.332  1.00  0.00    -0.258 N 
ATOM     14  S   UNL A   1      31.294  27.328  25.801  1.00  0.00    -0.093 SA
ATOM     15  C   UNL A   1      30.843  27.792  23.233  1.00  0.00     0.247 C 
ATOM     16  O   UNL A   1      30.159  28.066  22.255  1.00  0.00    -0.273 OA
BRANCH   8  17
ATOM     17  C   UNL A   1      32.977  22.747  24.093  1.00  0.00    -0.034 A 
ATOM     18  C   UNL A   1      34.768  20.656  24.714  1.00  0.00     0.118 A 
ATOM     19  C   UNL A   1      35.207  21.979  24.693  1.00  0.00     0.047 A 
ATOM     20  C   UNL A   1      33.429  20.377  24.448  1.00  0.00     0.047 A 
ATOM     21  C   UNL A   1      34.326  23.016  24.376  1.00  0.00     0.008 A 
ATOM     22  C   UNL A   1      32.537  21.414  24.144  1.00  0.00     0.008 A 
BRANCH  18  23
ATOM     23  O   UNL A   1      35.722  19.735  25.048  1.00  0.00    -0.497 OA
ATOM     24  C   UNL A   1      37.073  20.136  24.854  1.00  0.00     0.278 C 
ENDBRANCH  18  23
ENDBRANCH   8  17
BRANCH   9  25
ATOM     25  C   UNL A   1      33.055  23.860  21.354  1.00  0.00     0.100 C 
ATOM     26  N   UNL A   1      33.480  23.233  20.477  1.00  0.00    -0.193 NA
ENDBRANCH   9  25
BRANCH  10  27
ATOM     27  C   UNL A   1      31.720  24.369  26.213  1.00  0.00     0.098 C 
ATOM     28  N   UNL A   1      31.618  23.953  27.399  1.00  0.00    -0.193 NA
ENDBRANCH  10  27
BRANCH  11  29
ATOM     29  N   UNL A   1      32.792  26.645  21.202  1.00  0.00    -0.384 N 
ATOM     30  H   UNL A   1      33.632  27.153  21.275  1.00  0.00     0.158 HD
ATOM     31  H   UNL A   1      32.305  26.619  20.348  1.00  0.00     0.158 HD
ENDBRANCH  11  29
ENDBRANCH   6   7
ENDBRANCH   3   6
ENDBRANCH   1   2
BRANCH   1  32
ATOM     32  C   UNL A   1      33.465  31.763  27.103  1.00  0.00     0.042 C 
BRANCH  32  33
ATOM     33  C   UNL A   1      32.144  32.416  27.427  1.00  0.00     0.118 C 
BRANCH  33  34
ATOM     34  N   UNL A   1      32.315  33.850  27.525  1.00  0.00    -0.352 N 
ATOM     35  C   UNL A   1      33.075  34.581  28.405  1.00  0.00     0.251 C 
ATOM     36  H   UNL A   1      31.813  34.379  26.865  1.00  0.00     0.163 HD
ATOM     37  O   UNL A   1      32.787  35.762  28.587  1.00  0.00    -0.269 OA
BRANCH  35  38
ATOM     38  C   UNL A   1      34.214  33.978  29.148  1.00  0.00     0.039 A 
ATOM     39  C   UNL A   1      35.516  34.299  28.751  1.00  0.00     0.014 A 
ATOM     40  C   UNL A   1      34.029  33.047  30.171  1.00  0.00     0.014 A 
ATOM     41  C   UNL A   1      36.612  33.709  29.391  1.00  0.00     0.010 A 
ATOM     42  C   UNL A   1      35.115  32.567  30.898  1.00  0.00     0.010 A 
ATOM     43  C   UNL A   1      36.422  32.857  30.490  1.00  0.00    -0.014 A 
BRANCH  43  44
ATOM     44  C   UNL A   1      37.570  32.220  31.188  1.00  0.00     0.031 A 
ATOM     45  C   UNL A   1      38.368  31.136  30.509  1.00  0.00     0.074 A 
ATOM     46  C   UNL A   1      37.876  32.587  32.447  1.00  0.00     0.049 A 
ATOM     47  N   UNL A   1      39.386  30.444  30.961  1.00  0.00    -0.248 NA
ATOM     48  C   UNL A   1      37.947  30.755  29.152  1.00  0.00     0.031 C 
ATOM     49  C   UNL A   1      37.160  33.595  33.230  1.00  0.00     0.029 A 
ATOM     50  N   UNL A   1      38.874  32.160  33.287  1.00  0.00    -0.354 N 
ATOM     51  C   UNL A   1      39.712  29.546  29.951  1.00  0.00     0.074 A 
ATOM     52  C   UNL A   1      38.736  29.723  28.900  1.00  0.00     0.031 C 
ATOM     53  C   UNL A   1      37.771  33.746  34.414  1.00  0.00     0.029 A 
ATOM     54  C   UNL A   1      38.890  32.811  34.495  1.00  0.00     0.049 A 
ATOM     55  H   UNL A   1      39.515  31.454  33.046  1.00  0.00     0.167 HD
ATOM     56  C   UNL A   1      40.750  28.676  29.887  1.00  0.00     0.037 A 
ATOM     57  C   UNL A   1      39.716  32.672  35.549  1.00  0.00     0.037 A 
ATOM     58  C   UNL A   1      41.723  28.507  30.935  1.00  0.00     0.049 A 
ATOM     59  C   UNL A   1      40.831  31.665  35.478  1.00  0.00     0.074 A 
ATOM     60  C   UNL A   1      42.835  27.685  30.959  1.00  0.00     0.029 A 
ATOM     61  N   UNL A   1      41.689  29.167  32.156  1.00  0.00    -0.354 N 
ATOM     62  N   UNL A   1      41.172  30.870  34.492  1.00  0.00    -0.248 NA
ATOM     63  C   UNL A   1      41.680  31.540  36.670  1.00  0.00     0.031 C 
ATOM     64  C   UNL A   1      43.435  27.798  32.217  1.00  0.00     0.029 A 
ATOM     65  C   UNL A   1      42.742  28.745  32.953  1.00  0.00     0.049 A 
ATOM     66  H   UNL A   1      41.016  29.836  32.418  1.00  0.00     0.167 HD
ATOM     67  C   UNL A   1      42.293  30.177  34.930  1.00  0.00     0.074 A 
ATOM     68  C   UNL A   1      42.582  30.658  36.266  1.00  0.00     0.031 C 
ATOM     69  C   UNL A   1      43.019  29.231  34.283  1.00  0.00     0.037 A 
BRANCH  56  70
ATOM     70  C   UNL A   1      40.868  27.836  28.643  1.00  0.00     0.064 A 
ATOM     71  C   UNL A   1      41.666  28.232  27.554  1.00  0.00     0.173 A 
ATOM     72  C   UNL A   1      40.166  26.627  28.526  1.00  0.00     0.173 A 
ATOM     73  F   UNL A   1      42.355  29.382  27.605  1.00  0.00    -0.203 F 
ATOM     74  C   UNL A   1      41.707  27.483  26.382  1.00  0.00     0.198 A 
ATOM     75  C   UNL A   1      40.244  25.858  27.367  1.00  0.00     0.198 A 
ATOM     76  F   UNL A   1      39.397  26.191  29.535  1.00  0.00    -0.203 F 
ATOM     77  F   UNL A   1      42.407  27.927  25.329  1.00  0.00    -0.200 F 
ATOM     78  C   UNL A   1      40.999  26.294  26.290  1.00  0.00     0.200 A 
ATOM     79  F   UNL A   1      39.573  24.700  27.287  1.00  0.00    -0.200 F 
ATOM     80  F   UNL A   1      41.034  25.577  25.159  1.00  0.00    -0.200 F 
ENDBRANCH  56  70
BRANCH  57  81
ATOM     81  C   UNL A   1      39.546  33.545  36.740  1.00  0.00     0.064 A 
ATOM     82  C   UNL A   1      38.710  33.156  37.797  1.00  0.00     0.173 A 
ATOM     83  C   UNL A   1      40.218  34.770  36.858  1.00  0.00     0.173 A 
ATOM     84  F   UNL A   1      38.030  32.002  37.721  1.00  0.00    -0.203 F 
ATOM     85  C   UNL A   1      38.540  33.965  38.916  1.00  0.00     0.198 A 
ATOM     86  C   UNL A   1      40.070  35.565  37.992  1.00  0.00     0.198 A 
ATOM     87  F   UNL A   1      41.031  35.188  35.877  1.00  0.00    -0.203 F 
ATOM     88  F   UNL A   1      37.700  33.590  39.890  1.00  0.00    -0.200 F 
ATOM     89  C   UNL A   1      39.226  35.166  39.017  1.00  0.00     0.200 A 
ATOM     90  F   UNL A   1      40.746  36.719  38.091  1.00  0.00    -0.200 F 
ATOM     91  F   UNL A   1      39.066  35.943  40.098  1.00  0.00    -0.200 F 
ENDBRANCH  57  81
BRANCH  69  92
ATOM     92  C   UNL A   1      44.225  28.682  34.994  1.00  0.00     0.064 A 
ATOM     93  C   UNL A   1      45.490  29.279  34.881  1.00  0.00     0.173 A 
ATOM     94  C   UNL A   1      44.105  27.557  35.825  1.00  0.00     0.173 A 
ATOM     95  F   UNL A   1      45.665  30.349  34.090  1.00  0.00    -0.203 F 
ATOM     96  C   UNL A   1      46.594  28.749  35.545  1.00  0.00     0.198 A 
ATOM     97  C   UNL A   1      45.203  27.054  36.517  1.00  0.00     0.198 A 
ATOM     98  F   UNL A   1      42.918  26.951  35.977  1.00  0.00    -0.203 F 
ATOM     99  F   UNL A   1      47.805  29.300  35.372  1.00  0.00    -0.200 F 
ATOM    100  C   UNL A   1      46.448  27.643  36.368  1.00  0.00     0.200 A 
ATOM    101  F   UNL A   1      45.054  25.996  37.327  1.00  0.00    -0.200 F 
ATOM    102  F   UNL A   1      47.510  27.140  37.012  1.00  0.00    -0.200 F 
ENDBRANCH  69  92
ENDBRANCH  43  44
ENDBRANCH  35  38
ENDBRANCH  33  34
ENDBRANCH  32  33
ENDBRANCH   1  32
TORSDOF 16
ENDMDL
MODEL 3
REMARK VINA RESULT:     -12.1      0.968      7.190
REMARK SMILES COc1ccc([C@@H]2C(C#N)=C(N)N3C(=O)[C@H](CC(=O)NCCCNC(=O)c4ccc(-c5c6nc(c(-c7c(F)c(F)c(F)c(F)c7F)c7ccc([nH]7)c(-c7c(F)c(F)c(F)c(F)c7F)c7nc(c(-c8c(F)c(F)c(F)c(F)c8F)c8ccc5[nH]8)C=C7)C=C6)cc4)SC3=C2C#N)cc1
REMARK SMILES IDX 21 1 20 2 18 3 19 4 17 6 16 7 7 8 8 9 92 10 11 11 91 12
REMARK SMILES IDX 13 13 90 14 14 15 15 16 6 17 3 18 4 19 96 20 5 21 95 22 2 23
REMARK SMILES IDX 1 24 9 25 10 26 93 27 94 28 12 29 22 32 23 33 24 34 25 35
REMARK SMILES IDX 26 37 27 38 28 39 89 40 29 41 88 42 30 43 31 44 32 45 82 46
REMARK SMILES IDX 33 47 87 48 81 49 83 50 34 51 86 52 80 53 79 54 35 56 67 57
REMARK SMILES IDX 47 58 66 59 48 60 51 61 65 62 84 63 49 64 50 65 64 67 85 68
REMARK SMILES IDX 52 69 36 70 37 71 45 72 38 73 39 74 43 75 46 76 40 77 41 78
REMARK SMILES IDX 44 79 42 80 68 81 69 82 77 83 70 84 71 85 75 86 78 87 72 88
REMARK SMILES IDX 73 89 76 90 74 91 53 92 54 93 62 94 55 95 56 96 60 97 63 98
REMARK SMILES IDX 57 99 58 100 61 101 59 102
REMARK H PARENT 20 5 12 30 12 31 24 36 83 55 51 66
REMARK Flexibility Score: inf
ROOT
ATOM      1  C   UNL A   1      36.680  20.266  25.468  1.00  0.00     0.117 C 
ENDROOT
BRANCH   1   2
ATOM      2  N   UNL A   1      35.492  19.926  24.703  1.00  0.00    -0.356 N 
ATOM      3  C   UNL A   1      34.181  20.203  24.935  1.00  0.00     0.221 C 
ATOM      4  O   UNL A   1      33.330  19.718  24.190  1.00  0.00    -0.275 OA
ATOM      5  H   UNL A   1      35.664  19.410  23.882  1.00  0.00     0.163 HD
BRANCH   3   6
ATOM      6  C   UNL A   1      33.788  21.089  26.085  1.00  0.00     0.125 C 
BRANCH   6   7
ATOM      7  C   UNL A   1      34.304  22.497  25.858  1.00  0.00     0.152 C 
ATOM      8  C   UNL A   1      32.324  26.330  23.525  1.00  0.00     0.107 C 
ATOM      9  C   UNL A   1      32.460  25.298  22.429  1.00  0.00     0.083 C 
ATOM     10  C   UNL A   1      32.385  25.659  24.865  1.00  0.00     0.073 C 
ATOM     11  C   UNL A   1      32.952  24.054  22.689  1.00  0.00     0.126 C 
ATOM     12  C   UNL A   1      32.842  24.426  25.035  1.00  0.00     0.099 C 
ATOM     13  N   UNL A   1      33.342  23.712  23.993  1.00  0.00    -0.258 N 
ATOM     14  S   UNL A   1      33.101  23.664  26.562  1.00  0.00    -0.093 SA
ATOM     15  C   UNL A   1      34.400  22.894  24.386  1.00  0.00     0.247 C 
ATOM     16  O   UNL A   1      35.391  22.647  23.711  1.00  0.00    -0.273 OA
BRANCH   8  17
ATOM     17  C   UNL A   1      31.099  27.239  23.408  1.00  0.00    -0.034 A 
ATOM     18  C   UNL A   1      28.791  28.821  23.036  1.00  0.00     0.118 A 
ATOM     19  C   UNL A   1      28.677  27.484  23.411  1.00  0.00     0.047 A 
ATOM     20  C   UNL A   1      30.058  29.378  22.870  1.00  0.00     0.047 A 
ATOM     21  C   UNL A   1      29.816  26.695  23.586  1.00  0.00     0.008 A 
ATOM     22  C   UNL A   1      31.205  28.595  23.058  1.00  0.00     0.008 A 
BRANCH  18  23
ATOM     23  O   UNL A   1      27.605  29.490  22.907  1.00  0.00    -0.497 OA
ATOM     24  C   UNL A   1      27.676  30.909  22.994  1.00  0.00     0.278 C 
ENDBRANCH  18  23
ENDBRANCH   8  17
BRANCH   9  25
ATOM     25  C   UNL A   1      32.094  25.681  21.100  1.00  0.00     0.100 C 
ATOM     26  N   UNL A   1      31.765  25.967  20.027  1.00  0.00    -0.193 NA
ENDBRANCH   9  25
BRANCH  10  27
ATOM     27  C   UNL A   1      31.960  26.421  26.109  1.00  0.00     0.098 C 
ATOM     28  N   UNL A   1      31.605  27.053  27.141  1.00  0.00    -0.193 NA
ENDBRANCH  10  27
BRANCH  11  29
ATOM     29  N   UNL A   1      32.968  23.091  21.712  1.00  0.00    -0.384 N 
ATOM     30  H   UNL A   1      33.187  22.159  21.943  1.00  0.00     0.158 HD
ATOM     31  H   UNL A   1      32.763  23.332  20.781  1.00  0.00     0.158 HD
ENDBRANCH  11  29
ENDBRANCH   6   7
ENDBRANCH   3   6
ENDBRANCH   1   2
BRANCH   1  32
ATOM     32  C   UNL A   1      37.871  19.394  25.094  1.00  0.00     0.042 C 
BRANCH  32  33
ATOM     33  C   UNL A   1      39.212  20.079  25.189  1.00  0.00     0.118 C 
BRANCH  33  34
ATOM     34  N   UNL A   1      40.155  19.223  25.877  1.00  0.00    -0.352 N 
ATOM     35  C   UNL A   1      41.412  19.510  26.351  1.00  0.00     0.251 C 
ATOM     36  H   UNL A   1      39.850  18.300  26.029  1.00  0.00     0.163 HD
ATOM     37  O   UNL A   1      42.193  18.581  26.538  1.00  0.00    -0.269 OA
BRANCH  35  38
ATOM     38  C   UNL A   1      41.849  20.906  26.620  1.00  0.00     0.039 A 
ATOM     39  C   UNL A   1      42.203  21.256  27.927  1.00  0.00     0.014 A 
ATOM     40  C   UNL A   1      41.843  21.894  25.634  1.00  0.00     0.014 A 
ATOM     41  C   UNL A   1      42.568  22.573  28.229  1.00  0.00     0.010 A 
ATOM     42  C   UNL A   1      42.337  23.168  25.903  1.00  0.00     0.010 A 
ATOM     43  C   UNL A   1      42.665  23.537  27.213  1.00  0.00    -0.014 A 
BRANCH  43  44
ATOM     44  C   UNL A   1      43.052  24.942  27.508  1.00  0.00     0.031 A 
ATOM     45  C   UNL A   1      44.447  25.426  27.205  1.00  0.00     0.074 A 
ATOM     46  C   UNL A   1      42.164  25.775  28.081  1.00  0.00     0.049 A 
ATOM     47  N   UNL A   1      44.983  26.605  27.411  1.00  0.00    -0.248 NA
ATOM     48  C   UNL A   1      45.377  24.447  26.622  1.00  0.00     0.031 C 
ATOM     49  C   UNL A   1      40.796  25.421  28.459  1.00  0.00     0.029 A 
ATOM     50  N   UNL A   1      42.277  27.095  28.440  1.00  0.00    -0.354 N 
ATOM     51  C   UNL A   1      46.305  26.500  26.996  1.00  0.00     0.074 A 
ATOM     52  C   UNL A   1      46.514  25.124  26.605  1.00  0.00     0.031 C 
ATOM     53  C   UNL A   1      40.180  26.507  28.948  1.00  0.00     0.029 A 
ATOM     54  C   UNL A   1      41.124  27.621  28.966  1.00  0.00     0.049 A 
ATOM     55  H   UNL A   1      43.106  27.614  28.331  1.00  0.00     0.167 HD
ATOM     56  C   UNL A   1      47.252  27.466  26.913  1.00  0.00     0.037 A 
ATOM     57  C   UNL A   1      40.856  28.863  29.410  1.00  0.00     0.037 A 
ATOM     58  C   UNL A   1      47.038  28.836  27.300  1.00  0.00     0.049 A 
ATOM     59  C   UNL A   1      41.936  29.909  29.357  1.00  0.00     0.074 A 
ATOM     60  C   UNL A   1      47.913  29.905  27.222  1.00  0.00     0.029 A 
ATOM     61  N   UNL A   1      45.862  29.324  27.854  1.00  0.00    -0.354 N 
ATOM     62  N   UNL A   1      43.161  29.816  28.899  1.00  0.00    -0.248 NA
ATOM     63  C   UNL A   1      41.591  31.236  29.883  1.00  0.00     0.031 C 
ATOM     64  C   UNL A   1      47.291  31.022  27.788  1.00  0.00     0.029 A 
ATOM     65  C   UNL A   1      46.001  30.671  28.154  1.00  0.00     0.049 A 
ATOM     66  H   UNL A   1      45.049  28.792  28.012  1.00  0.00     0.167 HD
ATOM     67  C   UNL A   1      43.722  31.079  29.047  1.00  0.00     0.074 A 
ATOM     68  C   UNL A   1      42.695  31.922  29.626  1.00  0.00     0.031 C 
ATOM     69  C   UNL A   1      44.971  31.501  28.730  1.00  0.00     0.037 A 
BRANCH  56  70
ATOM     70  C   UNL A   1      48.607  27.060  26.396  1.00  0.00     0.064 A 
ATOM     71  C   UNL A   1      48.951  27.189  25.039  1.00  0.00     0.173 A 
ATOM     72  C   UNL A   1      49.571  26.521  27.261  1.00  0.00     0.173 A 
ATOM     73  F   UNL A   1      48.067  27.690  24.162  1.00  0.00    -0.203 F 
ATOM     74  C   UNL A   1      50.179  26.740  24.561  1.00  0.00     0.198 A 
ATOM     75  C   UNL A   1      50.817  26.114  26.787  1.00  0.00     0.198 A 
ATOM     76  F   UNL A   1      49.307  26.384  28.568  1.00  0.00    -0.203 F 
ATOM     77  F   UNL A   1      50.447  26.796  23.249  1.00  0.00    -0.200 F 
ATOM     78  C   UNL A   1      51.113  26.206  25.436  1.00  0.00     0.200 A 
ATOM     79  F   UNL A   1      51.724  25.615  27.637  1.00  0.00    -0.200 F 
ATOM     80  F   UNL A   1      52.292  25.770  24.975  1.00  0.00    -0.200 F 
ENDBRANCH  56  70
BRANCH  57  81
ATOM     81  C   UNL A   1      39.491  29.196  29.897  1.00  0.00     0.064 A 
ATOM     82  C   UNL A   1      38.532  29.728  29.023  1.00  0.00     0.173 A 
ATOM     83  C   UNL A   1      39.110  28.981  31.229  1.00  0.00     0.173 A 
ATOM     84  F   UNL A   1      38.854  29.971  27.744  1.00  0.00    -0.203 F 
ATOM     85  C   UNL A   1      37.251  30.046  29.466  1.00  0.00     0.198 A 
ATOM     86  C   UNL A   1      37.820  29.271  31.664  1.00  0.00     0.198 A 
ATOM     87  F   UNL A   1      39.989  28.471  32.105  1.00  0.00    -0.203 F 
ATOM     88  F   UNL A   1      36.369  30.595  28.620  1.00  0.00    -0.200 F 
ATOM     89  C   UNL A   1      36.893  29.810  30.785  1.00  0.00     0.200 A 
ATOM     90  F   UNL A   1      37.475  29.030  32.937  1.00  0.00    -0.200 F 
ATOM     91  F   UNL A   1      35.659  30.112  31.211  1.00  0.00    -0.200 F 
ENDBRANCH  57  81
BRANCH  69  92
ATOM     92  C   UNL A   1      45.288  32.953  28.962  1.00  0.00     0.064 A 
ATOM     93  C   UNL A   1      45.898  33.400  30.144  1.00  0.00     0.173 A 
ATOM     94  C   UNL A   1      45.002  33.906  27.972  1.00  0.00     0.173 A 
ATOM     95  F   UNL A   1      46.182  32.533  31.128  1.00  0.00    -0.203 F 
ATOM     96  C   UNL A   1      46.177  34.750  30.339  1.00  0.00     0.198 A 
ATOM     97  C   UNL A   1      45.317  35.250  28.156  1.00  0.00     0.198 A 
ATOM     98  F   UNL A   1      44.427  33.534  26.819  1.00  0.00    -0.203 F 
ATOM     99  F   UNL A   1      46.703  35.162  31.502  1.00  0.00    -0.200 F 
ATOM    100  C   UNL A   1      45.894  35.672  29.343  1.00  0.00     0.200 A 
ATOM    101  F   UNL A   1      45.061  36.135  27.183  1.00  0.00    -0.200 F 
ATOM    102  F   UNL A   1      46.171  36.970  29.530  1.00  0.00    -0.200 F 
ENDBRANCH  69  92
ENDBRANCH  43  44
ENDBRANCH  35  38
ENDBRANCH  33  34
ENDBRANCH  32  33
ENDBRANCH   1  32
TORSDOF 16
ENDMDL
