MODEL 1
REMARK VINA RESULT:     -11.5      0.000      0.000
REMARK SMILES CCOc1cc(CO)cc(Br)c1OCC(C)(C)C(=O)NCCCNC(=O)c1ccc(-c2c3nc(c(-c4c(F)c(F)c(F)c(F)c4F)c4ccc([nH]4)c(-c4c(F)c(F)c(F)c(F)c4F)c4nc(c(-c5c(F)c(F)c(F)c(F)c5F)c5ccc2[nH]5)C=C4)C=C3)cc1
REMARK SMILES IDX 18 1 19 2 20 3 15 5 16 6 17 7 14 8 13 9 12 10 4 11 5 12 6 13
REMARK SMILES IDX 10 14 9 15 11 16 3 17 2 18 1 19 7 20 8 21 21 23 22 24 23 25
REMARK SMILES IDX 24 26 25 27 26 29 27 30 28 31 89 32 29 33 88 34 30 35 31 36
REMARK SMILES IDX 32 37 82 38 33 39 87 40 81 41 83 42 34 43 86 44 80 45 79 46
REMARK SMILES IDX 35 48 67 49 47 50 66 51 48 52 51 53 65 54 84 55 49 56 50 57
REMARK SMILES IDX 64 59 85 60 52 61 36 62 37 63 45 64 38 65 39 66 43 67 46 68
REMARK SMILES IDX 40 69 41 70 44 71 42 72 68 73 69 74 77 75 70 76 71 77 75 78
REMARK SMILES IDX 78 79 72 80 73 81 76 82 74 83 53 84 54 85 62 86 55 87 56 88
REMARK SMILES IDX 60 89 63 90 57 91 58 92 61 93 59 94
REMARK H PARENT 20 4 8 22 24 28 83 47 51 58
REMARK Flexibility Score: inf
ROOT
ATOM      1  C   UNL A   1      33.233  28.898  26.446  1.00  0.00     0.229 C 
ATOM      2  O   UNL A   1      34.083  28.541  27.263  1.00  0.00    -0.274 OA
ATOM      3  N   UNL A   1      32.622  30.095  26.702  1.00  0.00    -0.355 N 
ATOM      4  H   UNL A   1      32.934  30.531  27.527  1.00  0.00     0.163 HD
ENDROOT
BRANCH   1   5
ATOM      5  C   UNL A   1      32.857  28.050  25.220  1.00  0.00     0.077 C 
ATOM      6  C   UNL A   1      33.387  28.747  23.960  1.00  0.00     0.025 C 
ATOM      7  C   UNL A   1      31.314  27.910  25.192  1.00  0.00     0.025 C 
BRANCH   5   8
ATOM      8  C   UNL A   1      33.379  26.566  25.382  1.00  0.00     0.246 C 
BRANCH   8   9
ATOM      9  O   UNL A   1      34.187  25.931  24.384  1.00  0.00    -0.487 OA
BRANCH   9  10
ATOM     10  C   UNL A   1      34.027  24.624  24.019  1.00  0.00     0.175 A 
ATOM     11  C   UNL A   1      33.567  24.453  22.697  1.00  0.00     0.162 A 
ATOM     12  C   UNL A   1      33.016  23.234  22.301  1.00  0.00     0.056 A 
ATOM     13  C   UNL A   1      32.925  22.165  23.198  1.00  0.00    -0.018 A 
ATOM     14  C   UNL A   1      34.184  23.482  24.814  1.00  0.00     0.064 A 
ATOM     15  C   UNL A   1      33.582  22.274  24.425  1.00  0.00     0.026 A 
ATOM     16  Br  UNL A   1      35.243  23.405  26.393  1.00  0.00    -0.047 Br
BRANCH  11  17
ATOM     17  O   UNL A   1      33.818  25.474  21.817  1.00  0.00    -0.490 OA
BRANCH  17  18
ATOM     18  C   UNL A   1      32.739  26.003  21.049  1.00  0.00     0.226 C 
ATOM     19  C   UNL A   1      31.497  26.307  21.877  1.00  0.00     0.049 C 
ENDBRANCH  17  18
ENDBRANCH  11  17
BRANCH  13  20
ATOM     20  C   UNL A   1      32.235  20.886  22.801  1.00  0.00     0.191 C 
BRANCH  20  21
ATOM     21  O   UNL A   1      31.501  21.055  21.593  1.00  0.00    -0.392 OA
ATOM     22  H   UNL A   1      30.574  20.808  21.740  1.00  0.00     0.211 HD
ENDBRANCH  20  21
ENDBRANCH  13  20
ENDBRANCH   9  10
ENDBRANCH   8   9
ENDBRANCH   5   8
ENDBRANCH   1   5
BRANCH   3  23
ATOM     23  C   UNL A   1      31.600  30.849  25.989  1.00  0.00     0.117 C 
BRANCH  23  24
ATOM     24  C   UNL A   1      31.358  32.219  26.588  1.00  0.00     0.042 C 
BRANCH  24  25
ATOM     25  C   UNL A   1      32.583  32.796  27.268  1.00  0.00     0.118 C 
BRANCH  25  26
ATOM     26  N   UNL A   1      32.416  34.203  27.614  1.00  0.00    -0.352 N 
ATOM     27  C   UNL A   1      32.995  34.941  28.614  1.00  0.00     0.251 C 
ATOM     28  H   UNL A   1      31.790  34.700  27.039  1.00  0.00     0.163 HD
ATOM     29  O   UNL A   1      32.552  36.056  28.887  1.00  0.00    -0.269 OA
BRANCH  27  30
ATOM     30  C   UNL A   1      34.133  34.392  29.375  1.00  0.00     0.039 A 
ATOM     31  C   UNL A   1      33.894  33.731  30.580  1.00  0.00     0.014 A 
ATOM     32  C   UNL A   1      35.439  34.528  28.898  1.00  0.00     0.014 A 
ATOM     33  C   UNL A   1      34.960  33.149  31.268  1.00  0.00     0.010 A 
ATOM     34  C   UNL A   1      36.474  33.839  29.511  1.00  0.00     0.010 A 
ATOM     35  C   UNL A   1      36.252  33.164  30.717  1.00  0.00    -0.014 A 
BRANCH  35  36
ATOM     36  C   UNL A   1      37.390  32.507  31.405  1.00  0.00     0.031 A 
ATOM     37  C   UNL A   1      38.111  31.363  30.747  1.00  0.00     0.074 A 
ATOM     38  C   UNL A   1      37.737  32.908  32.644  1.00  0.00     0.049 A 
ATOM     39  N   UNL A   1      39.112  30.648  31.194  1.00  0.00    -0.248 NA
ATOM     40  C   UNL A   1      37.622  30.941  29.424  1.00  0.00     0.031 C 
ATOM     41  C   UNL A   1      37.066  33.957  33.413  1.00  0.00     0.029 A 
ATOM     42  N   UNL A   1      38.740  32.478  33.474  1.00  0.00    -0.354 N 
ATOM     43  C   UNL A   1      39.356  29.690  30.218  1.00  0.00     0.074 A 
ATOM     44  C   UNL A   1      38.354  29.865  29.191  1.00  0.00     0.031 C 
ATOM     45  C   UNL A   1      37.702  34.118  34.584  1.00  0.00     0.029 A 
ATOM     46  C   UNL A   1      38.797  33.159  34.664  1.00  0.00     0.049 A 
ATOM     47  H   UNL A   1      39.361  31.751  33.238  1.00  0.00     0.167 HD
ATOM     48  C   UNL A   1      40.349  28.770  30.165  1.00  0.00     0.037 A 
ATOM     49  C   UNL A   1      39.642  33.023  35.704  1.00  0.00     0.037 A 
ATOM     50  C   UNL A   1      41.357  28.618  31.180  1.00  0.00     0.049 A 
ATOM     51  C   UNL A   1      40.742  31.999  35.617  1.00  0.00     0.074 A 
ATOM     52  C   UNL A   1      42.445  27.764  31.197  1.00  0.00     0.029 A 
ATOM     53  N   UNL A   1      41.393  29.337  32.368  1.00  0.00    -0.354 N 
ATOM     54  N   UNL A   1      41.018  31.158  34.651  1.00  0.00    -0.248 NA
ATOM     55  C   UNL A   1      41.654  31.917  36.764  1.00  0.00     0.031 C 
ATOM     56  C   UNL A   1      43.105  27.923  32.420  1.00  0.00     0.029 A 
ATOM     57  C   UNL A   1      42.470  28.924  33.138  1.00  0.00     0.049 A 
ATOM     58  H   UNL A   1      40.749  30.036  32.625  1.00  0.00     0.167 HD
ATOM     59  C   UNL A   1      42.149  30.464  35.060  1.00  0.00     0.074 A 
ATOM     60  C   UNL A   1      42.522  31.004  36.351  1.00  0.00     0.031 C 
ATOM     61  C   UNL A   1      42.819  29.468  34.427  1.00  0.00     0.037 A 
BRANCH  48  62
ATOM     62  C   UNL A   1      40.386  27.860  28.969  1.00  0.00     0.064 A 
ATOM     63  C   UNL A   1      41.136  28.172  27.823  1.00  0.00     0.173 A 
ATOM     64  C   UNL A   1      39.674  26.652  28.972  1.00  0.00     0.173 A 
ATOM     65  F   UNL A   1      41.827  29.321  27.760  1.00  0.00    -0.203 F 
ATOM     66  C   UNL A   1      41.139  27.330  26.714  1.00  0.00     0.198 A 
ATOM     67  C   UNL A   1      39.709  25.794  27.875  1.00  0.00     0.198 A 
ATOM     68  F   UNL A   1      38.942  26.300  30.040  1.00  0.00    -0.203 F 
ATOM     69  F   UNL A   1      41.810  27.683  25.609  1.00  0.00    -0.200 F 
ATOM     70  C   UNL A   1      40.432  26.139  26.743  1.00  0.00     0.200 A 
ATOM     71  F   UNL A   1      39.035  24.636  27.911  1.00  0.00    -0.200 F 
ATOM     72  F   UNL A   1      40.438  25.327  25.677  1.00  0.00    -0.200 F 
ENDBRANCH  48  62
BRANCH  49  73
ATOM     73  C   UNL A   1      39.500  33.900  36.895  1.00  0.00     0.064 A 
ATOM     74  C   UNL A   1      40.082  35.175  36.925  1.00  0.00     0.173 A 
ATOM     75  C   UNL A   1      38.780  33.485  38.025  1.00  0.00     0.173 A 
ATOM     76  F   UNL A   1      40.795  35.612  35.876  1.00  0.00    -0.203 F 
ATOM     77  C   UNL A   1      39.969  35.993  38.049  1.00  0.00     0.198 A 
ATOM     78  C   UNL A   1      38.641  34.316  39.135  1.00  0.00     0.198 A 
ATOM     79  F   UNL A   1      38.197  32.278  38.044  1.00  0.00    -0.203 F 
ATOM     80  F   UNL A   1      40.576  37.187  38.069  1.00  0.00    -0.200 F 
ATOM     81  C   UNL A   1      39.243  35.564  39.150  1.00  0.00     0.200 A 
ATOM     82  F   UNL A   1      37.922  33.906  40.189  1.00  0.00    -0.200 F 
ATOM     83  F   UNL A   1      39.129  36.353  40.227  1.00  0.00    -0.200 F 
ENDBRANCH  49  73
BRANCH  61  84
ATOM     84  C   UNL A   1      44.038  28.921  35.115  1.00  0.00     0.064 A 
ATOM     85  C   UNL A   1      45.317  29.452  34.889  1.00  0.00     0.173 A 
ATOM     86  C   UNL A   1      43.922  27.855  36.021  1.00  0.00     0.173 A 
ATOM     87  F   UNL A   1      45.484  30.464  34.023  1.00  0.00    -0.203 F 
ATOM     88  C   UNL A   1      46.439  28.909  35.507  1.00  0.00     0.198 A 
ATOM     89  C   UNL A   1      45.041  27.340  36.668  1.00  0.00     0.198 A 
ATOM     90  F   UNL A   1      42.722  27.315  36.283  1.00  0.00    -0.203 F 
ATOM     91  F   UNL A   1      47.657  29.387  35.221  1.00  0.00    -0.200 F 
ATOM     92  C   UNL A   1      46.299  27.857  36.401  1.00  0.00     0.200 A 
ATOM     93  F   UNL A   1      44.903  26.335  37.545  1.00  0.00    -0.200 F 
ATOM     94  F   UNL A   1      47.380  27.334  36.995  1.00  0.00    -0.200 F 
ENDBRANCH  61  84
ENDBRANCH  35  36
ENDBRANCH  27  30
ENDBRANCH  25  26
ENDBRANCH  24  25
ENDBRANCH  23  24
ENDBRANCH   3  23
TORSDOF 17
ENDMDL
MODEL 2
REMARK VINA RESULT:     -11.4      1.148      2.068
REMARK SMILES CCOc1cc(CO)cc(Br)c1OCC(C)(C)C(=O)NCCCNC(=O)c1ccc(-c2c3nc(c(-c4c(F)c(F)c(F)c(F)c4F)c4ccc([nH]4)c(-c4c(F)c(F)c(F)c(F)c4F)c4nc(c(-c5c(F)c(F)c(F)c(F)c5F)c5ccc2[nH]5)C=C4)C=C3)cc1
REMARK SMILES IDX 18 1 19 2 20 3 15 5 16 6 17 7 14 8 13 9 12 10 4 11 5 12 6 13
REMARK SMILES IDX 10 14 9 15 11 16 3 17 2 18 1 19 7 20 8 21 21 23 22 24 23 25
REMARK SMILES IDX 24 26 25 27 26 29 27 30 28 31 89 32 29 33 88 34 30 35 31 36
REMARK SMILES IDX 32 37 82 38 33 39 87 40 81 41 83 42 34 43 86 44 80 45 79 46
REMARK SMILES IDX 35 48 67 49 47 50 66 51 48 52 51 53 65 54 84 55 49 56 50 57
REMARK SMILES IDX 64 59 85 60 52 61 36 62 37 63 45 64 38 65 39 66 43 67 46 68
REMARK SMILES IDX 40 69 41 70 44 71 42 72 68 73 69 74 77 75 70 76 71 77 75 78
REMARK SMILES IDX 78 79 72 80 73 81 76 82 74 83 53 84 54 85 62 86 55 87 56 88
REMARK SMILES IDX 60 89 63 90 57 91 58 92 61 93 59 94
REMARK H PARENT 20 4 8 22 24 28 83 47 51 58
REMARK Flexibility Score: inf
ROOT
ATOM      1  C   UNL A   1      32.863  29.305  25.372  1.00  0.00     0.229 C 
ATOM      2  O   UNL A   1      33.311  29.007  24.264  1.00  0.00    -0.274 OA
ATOM      3  N   UNL A   1      32.011  30.374  25.406  1.00  0.00    -0.355 N 
ATOM      4  H   UNL A   1      31.862  30.790  24.527  1.00  0.00     0.163 HD
ENDROOT
BRANCH   1   5
ATOM      5  C   UNL A   1      33.247  28.543  26.652  1.00  0.00     0.077 C 
ATOM      6  C   UNL A   1      31.981  28.326  27.491  1.00  0.00     0.025 C 
ATOM      7  C   UNL A   1      34.303  29.386  27.410  1.00  0.00     0.025 C 
BRANCH   5   8
ATOM      8  C   UNL A   1      34.003  27.199  26.300  1.00  0.00     0.246 C 
BRANCH   8   9
ATOM      9  O   UNL A   1      33.302  25.978  26.036  1.00  0.00    -0.487 OA
BRANCH   9  10
ATOM     10  C   UNL A   1      32.890  25.613  24.785  1.00  0.00     0.175 A 
ATOM     11  C   UNL A   1      33.912  25.059  23.987  1.00  0.00     0.162 A 
ATOM     12  C   UNL A   1      33.752  24.978  22.603  1.00  0.00     0.056 A 
ATOM     13  C   UNL A   1      32.578  25.428  21.991  1.00  0.00    -0.018 A 
ATOM     14  C   UNL A   1      31.631  25.801  24.204  1.00  0.00     0.064 A 
ATOM     15  C   UNL A   1      31.495  25.763  22.807  1.00  0.00     0.026 A 
ATOM     16  Br  UNL A   1      30.016  26.034  25.183  1.00  0.00    -0.047 Br
BRANCH  11  17
ATOM     17  O   UNL A   1      34.975  24.493  24.645  1.00  0.00    -0.490 OA
BRANCH  17  18
ATOM     18  C   UNL A   1      34.924  23.105  24.968  1.00  0.00     0.226 C 
ATOM     19  C   UNL A   1      34.967  22.828  26.465  1.00  0.00     0.049 C 
ENDBRANCH  17  18
ENDBRANCH  11  17
BRANCH  13  20
ATOM     20  C   UNL A   1      32.450  25.437  20.491  1.00  0.00     0.191 C 
BRANCH  20  21
ATOM     21  O   UNL A   1      33.092  24.304  19.916  1.00  0.00    -0.392 OA
ATOM     22  H   UNL A   1      32.494  23.541  19.950  1.00  0.00     0.211 HD
ENDBRANCH  20  21
ENDBRANCH  13  20
ENDBRANCH   9  10
ENDBRANCH   8   9
ENDBRANCH   5   8
ENDBRANCH   1   5
BRANCH   3  23
ATOM     23  C   UNL A   1      31.281  31.017  26.492  1.00  0.00     0.117 C 
BRANCH  23  24
ATOM     24  C   UNL A   1      31.423  32.525  26.481  1.00  0.00     0.042 C 
BRANCH  24  25
ATOM     25  C   UNL A   1      32.571  33.020  27.337  1.00  0.00     0.118 C 
BRANCH  25  26
ATOM     26  N   UNL A   1      32.427  34.426  27.699  1.00  0.00    -0.352 N 
ATOM     27  C   UNL A   1      33.011  35.141  28.713  1.00  0.00     0.251 C 
ATOM     28  H   UNL A   1      31.815  34.942  27.126  1.00  0.00     0.163 HD
ATOM     29  O   UNL A   1      32.587  36.260  28.997  1.00  0.00    -0.269 OA
BRANCH  27  30
ATOM     30  C   UNL A   1      34.134  34.561  29.476  1.00  0.00     0.039 A 
ATOM     31  C   UNL A   1      33.867  33.834  30.637  1.00  0.00     0.014 A 
ATOM     32  C   UNL A   1      35.450  34.734  29.045  1.00  0.00     0.014 A 
ATOM     33  C   UNL A   1      34.919  33.226  31.322  1.00  0.00     0.010 A 
ATOM     34  C   UNL A   1      36.475  34.021  29.649  1.00  0.00     0.010 A 
ATOM     35  C   UNL A   1      36.226  33.280  30.811  1.00  0.00    -0.014 A 
BRANCH  35  36
ATOM     36  C   UNL A   1      37.350  32.597  31.495  1.00  0.00     0.031 A 
ATOM     37  C   UNL A   1      38.049  31.443  30.830  1.00  0.00     0.074 A 
ATOM     38  C   UNL A   1      37.705  32.984  32.736  1.00  0.00     0.049 A 
ATOM     39  N   UNL A   1      39.034  30.705  31.273  1.00  0.00    -0.248 NA
ATOM     40  C   UNL A   1      37.550  31.038  29.505  1.00  0.00     0.031 C 
ATOM     41  C   UNL A   1      37.055  34.041  33.511  1.00  0.00     0.029 A 
ATOM     42  N   UNL A   1      38.699  32.529  33.563  1.00  0.00    -0.354 N 
ATOM     43  C   UNL A   1      39.260  29.748  30.291  1.00  0.00     0.074 A 
ATOM     44  C   UNL A   1      38.262  29.949  29.266  1.00  0.00     0.031 C 
ATOM     45  C   UNL A   1      37.694  34.184  34.683  1.00  0.00     0.029 A 
ATOM     46  C   UNL A   1      38.770  33.202  34.757  1.00  0.00     0.049 A 
ATOM     47  H   UNL A   1      39.306  31.791  33.323  1.00  0.00     0.167 HD
ATOM     48  C   UNL A   1      40.234  28.809  30.233  1.00  0.00     0.037 A 
ATOM     49  C   UNL A   1      39.612  33.043  35.796  1.00  0.00     0.037 A 
ATOM     50  C   UNL A   1      41.238  28.631  31.248  1.00  0.00     0.049 A 
ATOM     51  C   UNL A   1      40.691  31.999  35.704  1.00  0.00     0.074 A 
ATOM     52  C   UNL A   1      42.309  27.755  31.260  1.00  0.00     0.029 A 
ATOM     53  N   UNL A   1      41.289  29.342  32.440  1.00  0.00    -0.354 N 
ATOM     54  N   UNL A   1      40.950  31.157  34.733  1.00  0.00    -0.248 NA
ATOM     55  C   UNL A   1      41.602  31.891  36.850  1.00  0.00     0.031 C 
ATOM     56  C   UNL A   1      42.972  27.894  32.484  1.00  0.00     0.029 A 
ATOM     57  C   UNL A   1      42.357  28.904  33.207  1.00  0.00     0.049 A 
ATOM     58  H   UNL A   1      40.659  30.052  32.701  1.00  0.00     0.167 HD
ATOM     59  C   UNL A   1      42.067  30.438  35.138  1.00  0.00     0.074 A 
ATOM     60  C   UNL A   1      42.450  30.964  36.432  1.00  0.00     0.031 C 
ATOM     61  C   UNL A   1      42.717  29.433  34.499  1.00  0.00     0.037 A 
BRANCH  48  62
ATOM     62  C   UNL A   1      40.253  27.905  29.032  1.00  0.00     0.064 A 
ATOM     63  C   UNL A   1      39.545  26.692  29.007  1.00  0.00     0.173 A 
ATOM     64  C   UNL A   1      40.976  28.261  27.885  1.00  0.00     0.173 A 
ATOM     65  F   UNL A   1      38.847  26.295  30.082  1.00  0.00    -0.203 F 
ATOM     66  C   UNL A   1      39.595  25.854  27.896  1.00  0.00     0.198 A 
ATOM     67  C   UNL A   1      40.993  27.437  26.761  1.00  0.00     0.198 A 
ATOM     68  F   UNL A   1      41.670  29.409  27.851  1.00  0.00    -0.203 F 
ATOM     69  F   UNL A   1      38.964  24.671  27.922  1.00  0.00    -0.200 F 
ATOM     70  C   UNL A   1      40.312  26.230  26.772  1.00  0.00     0.200 A 
ATOM     71  F   UNL A   1      41.677  27.810  25.670  1.00  0.00    -0.200 F 
ATOM     72  F   UNL A   1      40.355  25.425  25.701  1.00  0.00    -0.200 F 
ENDBRANCH  48  62
BRANCH  49  73
ATOM     73  C   UNL A   1      39.487  33.917  36.993  1.00  0.00     0.064 A 
ATOM     74  C   UNL A   1      40.087  35.184  37.026  1.00  0.00     0.173 A 
ATOM     75  C   UNL A   1      38.767  33.506  38.123  1.00  0.00     0.173 A 
ATOM     76  F   UNL A   1      40.801  35.616  35.976  1.00  0.00    -0.203 F 
ATOM     77  C   UNL A   1      39.991  35.997  38.154  1.00  0.00     0.198 A 
ATOM     78  C   UNL A   1      38.644  34.333  39.239  1.00  0.00     0.198 A 
ATOM     79  F   UNL A   1      38.167  32.307  38.139  1.00  0.00    -0.203 F 
ATOM     80  F   UNL A   1      40.614  37.183  38.177  1.00  0.00    -0.200 F 
ATOM     81  C   UNL A   1      39.264  35.573  39.257  1.00  0.00     0.200 A 
ATOM     82  F   UNL A   1      37.924  33.928  40.294  1.00  0.00    -0.200 F 
ATOM     83  F   UNL A   1      39.165  36.358  40.338  1.00  0.00    -0.200 F 
ENDBRANCH  49  73
BRANCH  61  84
ATOM     84  C   UNL A   1      43.925  28.857  35.184  1.00  0.00     0.064 A 
ATOM     85  C   UNL A   1      45.210  29.383  34.982  1.00  0.00     0.173 A 
ATOM     86  C   UNL A   1      43.791  27.771  36.063  1.00  0.00     0.173 A 
ATOM     87  F   UNL A   1      45.394  30.414  34.143  1.00  0.00    -0.203 F 
ATOM     88  C   UNL A   1      46.322  28.814  35.597  1.00  0.00     0.198 A 
ATOM     89  C   UNL A   1      44.900  27.229  36.706  1.00  0.00     0.198 A 
ATOM     90  F   UNL A   1      42.584  27.236  36.301  1.00  0.00    -0.203 F 
ATOM     91  F   UNL A   1      47.546  29.287  35.333  1.00  0.00    -0.200 F 
ATOM     92  C   UNL A   1      46.165  27.741  36.463  1.00  0.00     0.200 A 
ATOM     93  F   UNL A   1      44.745  26.205  37.557  1.00  0.00    -0.200 F 
ATOM     94  F   UNL A   1      47.236  27.194  37.053  1.00  0.00    -0.200 F 
ENDBRANCH  61  84
ENDBRANCH  35  36
ENDBRANCH  27  30
ENDBRANCH  25  26
ENDBRANCH  24  25
ENDBRANCH  23  24
ENDBRANCH   3  23
TORSDOF 17
ENDMDL
MODEL 3
REMARK VINA RESULT:     -11.3      1.136      2.280
REMARK SMILES CCOc1cc(CO)cc(Br)c1OCC(C)(C)C(=O)NCCCNC(=O)c1ccc(-c2c3nc(c(-c4c(F)c(F)c(F)c(F)c4F)c4ccc([nH]4)c(-c4c(F)c(F)c(F)c(F)c4F)c4nc(c(-c5c(F)c(F)c(F)c(F)c5F)c5ccc2[nH]5)C=C4)C=C3)cc1
REMARK SMILES IDX 18 1 19 2 20 3 15 5 16 6 17 7 14 8 13 9 12 10 4 11 5 12 6 13
REMARK SMILES IDX 10 14 9 15 11 16 3 17 2 18 1 19 7 20 8 21 21 23 22 24 23 25
REMARK SMILES IDX 24 26 25 27 26 29 27 30 28 31 89 32 29 33 88 34 30 35 31 36
REMARK SMILES IDX 32 37 82 38 33 39 87 40 81 41 83 42 34 43 86 44 80 45 79 46
REMARK SMILES IDX 35 48 67 49 47 50 66 51 48 52 51 53 65 54 84 55 49 56 50 57
REMARK SMILES IDX 64 59 85 60 52 61 36 62 37 63 45 64 38 65 39 66 43 67 46 68
REMARK SMILES IDX 40 69 41 70 44 71 42 72 68 73 69 74 77 75 70 76 71 77 75 78
REMARK SMILES IDX 78 79 72 80 73 81 76 82 74 83 53 84 54 85 62 86 55 87 56 88
REMARK SMILES IDX 60 89 63 90 57 91 58 92 61 93 59 94
REMARK H PARENT 20 4 8 22 24 28 83 47 51 58
REMARK Flexibility Score: inf
ROOT
ATOM      1  C   UNL A   1      32.556  29.108  25.025  1.00  0.00     0.229 C 
ATOM      2  O   UNL A   1      32.761  28.890  23.830  1.00  0.00    -0.274 OA
ATOM      3  N   UNL A   1      31.862  30.250  25.314  1.00  0.00    -0.355 N 
ATOM      4  H   UNL A   1      31.612  30.775  24.520  1.00  0.00     0.163 HD
ENDROOT
BRANCH   1   5
ATOM      5  C   UNL A   1      33.063  28.173  26.135  1.00  0.00     0.077 C 
ATOM      6  C   UNL A   1      31.937  27.969  27.157  1.00  0.00     0.025 C 
ATOM      7  C   UNL A   1      34.311  28.828  26.778  1.00  0.00     0.025 C 
BRANCH   5   8
ATOM      8  C   UNL A   1      33.606  26.819  25.524  1.00  0.00     0.246 C 
BRANCH   8   9
ATOM      9  O   UNL A   1      33.228  25.541  26.050  1.00  0.00    -0.487 OA
BRANCH   9  10
ATOM     10  C   UNL A   1      32.699  24.546  25.278  1.00  0.00     0.175 A 
ATOM     11  C   UNL A   1      33.489  23.379  25.229  1.00  0.00     0.162 A 
ATOM     12  C   UNL A   1      33.282  22.436  24.222  1.00  0.00     0.056 A 
ATOM     13  C   UNL A   1      32.285  22.624  23.260  1.00  0.00    -0.018 A 
ATOM     14  C   UNL A   1      31.542  24.590  24.490  1.00  0.00     0.064 A 
ATOM     15  C   UNL A   1      31.371  23.663  23.450  1.00  0.00     0.026 A 
ATOM     16  Br  UNL A   1      30.094  25.794  24.769  1.00  0.00    -0.047 Br
BRANCH  11  17
ATOM     17  O   UNL A   1      34.345  23.167  26.280  1.00  0.00    -0.490 OA
BRANCH  17  18
ATOM     18  C   UNL A   1      35.675  22.729  26.007  1.00  0.00     0.226 C 
ATOM     19  C   UNL A   1      36.649  23.871  25.748  1.00  0.00     0.049 C 
ENDBRANCH  17  18
ENDBRANCH  11  17
BRANCH  13  20
ATOM     20  C   UNL A   1      32.132  21.659  22.115  1.00  0.00     0.191 C 
BRANCH  20  21
ATOM     21  O   UNL A   1      31.873  20.341  22.586  1.00  0.00    -0.392 OA
ATOM     22  H   UNL A   1      31.320  20.385  23.382  1.00  0.00     0.211 HD
ENDBRANCH  20  21
ENDBRANCH  13  20
ENDBRANCH   9  10
ENDBRANCH   8   9
ENDBRANCH   5   8
ENDBRANCH   1   5
BRANCH   3  23
ATOM     23  C   UNL A   1      31.420  30.840  26.572  1.00  0.00     0.117 C 
BRANCH  23  24
ATOM     24  C   UNL A   1      31.458  32.355  26.554  1.00  0.00     0.042 C 
BRANCH  24  25
ATOM     25  C   UNL A   1      32.664  32.927  27.269  1.00  0.00     0.118 C 
BRANCH  25  26
ATOM     26  N   UNL A   1      32.469  34.319  27.660  1.00  0.00    -0.352 N 
ATOM     27  C   UNL A   1      33.018  35.031  28.695  1.00  0.00     0.251 C 
ATOM     28  H   UNL A   1      31.846  34.827  27.091  1.00  0.00     0.163 HD
ATOM     29  O   UNL A   1      32.553  36.130  28.998  1.00  0.00    -0.269 OA
BRANCH  27  30
ATOM     30  C   UNL A   1      34.151  34.473  29.458  1.00  0.00     0.039 A 
ATOM     31  C   UNL A   1      33.907  33.833  30.674  1.00  0.00     0.014 A 
ATOM     32  C   UNL A   1      35.456  34.580  28.973  1.00  0.00     0.014 A 
ATOM     33  C   UNL A   1      34.966  33.243  31.364  1.00  0.00     0.010 A 
ATOM     34  C   UNL A   1      36.483  33.882  29.589  1.00  0.00     0.010 A 
ATOM     35  C   UNL A   1      36.256  33.228  30.807  1.00  0.00    -0.014 A 
BRANCH  35  36
ATOM     36  C   UNL A   1      37.385  32.561  31.498  1.00  0.00     0.031 A 
ATOM     37  C   UNL A   1      38.087  31.399  30.850  1.00  0.00     0.074 A 
ATOM     38  C   UNL A   1      37.743  32.970  32.731  1.00  0.00     0.049 A 
ATOM     39  N   UNL A   1      39.077  30.673  31.301  1.00  0.00    -0.248 NA
ATOM     40  C   UNL A   1      37.585  30.969  29.533  1.00  0.00     0.031 C 
ATOM     41  C   UNL A   1      37.092  34.038  33.490  1.00  0.00     0.029 A 
ATOM     42  N   UNL A   1      38.743  32.534  33.562  1.00  0.00    -0.354 N 
ATOM     43  C   UNL A   1      39.303  29.700  30.335  1.00  0.00     0.074 A 
ATOM     44  C   UNL A   1      38.300  29.879  29.311  1.00  0.00     0.031 C 
ATOM     45  C   UNL A   1      37.734  34.203  34.657  1.00  0.00     0.029 A 
ATOM     46  C   UNL A   1      38.815  33.227  34.744  1.00  0.00     0.049 A 
ATOM     47  H   UNL A   1      39.352  31.795  33.332  1.00  0.00     0.167 HD
ATOM     48  C   UNL A   1      40.282  28.765  30.289  1.00  0.00     0.037 A 
ATOM     49  C   UNL A   1      39.661  33.090  35.782  1.00  0.00     0.037 A 
ATOM     50  C   UNL A   1      41.290  28.608  31.303  1.00  0.00     0.049 A 
ATOM     51  C   UNL A   1      40.744  32.048  35.704  1.00  0.00     0.074 A 
ATOM     52  C   UNL A   1      42.365  27.738  31.325  1.00  0.00     0.029 A 
ATOM     53  N   UNL A   1      41.343  29.339  32.482  1.00  0.00    -0.354 N 
ATOM     54  N   UNL A   1      41.004  31.192  34.746  1.00  0.00    -0.248 NA
ATOM     55  C   UNL A   1      41.660  31.964  36.848  1.00  0.00     0.031 C 
ATOM     56  C   UNL A   1      43.032  27.900  32.544  1.00  0.00     0.029 A 
ATOM     57  C   UNL A   1      42.415  28.919  33.253  1.00  0.00     0.049 A 
ATOM     58  H   UNL A   1      40.711  30.051  32.734  1.00  0.00     0.167 HD
ATOM     59  C   UNL A   1      42.126  30.485  35.159  1.00  0.00     0.074 A 
ATOM     60  C   UNL A   1      42.512  31.034  36.442  1.00  0.00     0.031 C 
ATOM     61  C   UNL A   1      42.778  29.472  34.535  1.00  0.00     0.037 A 
BRANCH  48  62
ATOM     62  C   UNL A   1      40.300  27.840  29.104  1.00  0.00     0.064 A 
ATOM     63  C   UNL A   1      41.057  28.124  27.955  1.00  0.00     0.173 A 
ATOM     64  C   UNL A   1      39.563  26.647  29.120  1.00  0.00     0.173 A 
ATOM     65  F   UNL A   1      41.770  29.258  27.879  1.00  0.00    -0.203 F 
ATOM     66  C   UNL A   1      41.041  27.270  26.855  1.00  0.00     0.198 A 
ATOM     67  C   UNL A   1      39.580  25.777  28.033  1.00  0.00     0.198 A 
ATOM     68  F   UNL A   1      38.823  26.323  30.191  1.00  0.00    -0.203 F 
ATOM     69  F   UNL A   1      41.720  27.596  25.746  1.00  0.00    -0.200 F 
ATOM     70  C   UNL A   1      40.310  26.094  26.898  1.00  0.00     0.200 A 
ATOM     71  F   UNL A   1      38.882  24.633  28.082  1.00  0.00    -0.200 F 
ATOM     72  F   UNL A   1      40.300  25.270  25.840  1.00  0.00    -0.200 F 
ENDBRANCH  48  62
BRANCH  49  73
ATOM     73  C   UNL A   1      39.537  33.983  36.964  1.00  0.00     0.064 A 
ATOM     74  C   UNL A   1      38.809  33.586  38.095  1.00  0.00     0.173 A 
ATOM     75  C   UNL A   1      40.145  35.246  36.990  1.00  0.00     0.173 A 
ATOM     76  F   UNL A   1      38.195  32.393  38.113  1.00  0.00    -0.203 F 
ATOM     77  C   UNL A   1      38.672  34.429  39.196  1.00  0.00     0.198 A 
ATOM     78  C   UNL A   1      40.035  36.076  38.105  1.00  0.00     0.198 A 
ATOM     79  F   UNL A   1      40.860  35.670  35.938  1.00  0.00    -0.203 F 
ATOM     80  F   UNL A   1      37.930  34.044  40.244  1.00  0.00    -0.200 F 
ATOM     81  C   UNL A   1      39.291  35.670  39.203  1.00  0.00     0.200 A 
ATOM     82  F   UNL A   1      40.650  37.266  38.115  1.00  0.00    -0.200 F 
ATOM     83  F   UNL A   1      39.166  36.477  40.265  1.00  0.00    -0.200 F 
ENDBRANCH  49  73
BRANCH  61  84
ATOM     84  C   UNL A   1      43.991  28.913  35.225  1.00  0.00     0.064 A 
ATOM     85  C   UNL A   1      43.900  27.844  36.130  1.00  0.00     0.173 A 
ATOM     86  C   UNL A   1      45.262  29.449  34.969  1.00  0.00     0.173 A 
ATOM     87  F   UNL A   1      42.706  27.304  36.419  1.00  0.00    -0.203 F 
ATOM     88  C   UNL A   1      45.028  27.364  36.787  1.00  0.00     0.198 A 
ATOM     89  C   UNL A   1      46.394  28.940  35.598  1.00  0.00     0.198 A 
ATOM     90  F   UNL A   1      45.409  30.464  34.104  1.00  0.00    -0.203 F 
ATOM     91  F   UNL A   1      44.907  26.392  37.700  1.00  0.00    -0.200 F 
ATOM     92  C   UNL A   1      46.276  27.908  36.516  1.00  0.00     0.200 A 
ATOM     93  F   UNL A   1      47.601  29.454  35.321  1.00  0.00    -0.200 F 
ATOM     94  F   UNL A   1      47.361  27.445  37.150  1.00  0.00    -0.200 F 
ENDBRANCH  61  84
ENDBRANCH  35  36
ENDBRANCH  27  30
ENDBRANCH  25  26
ENDBRANCH  24  25
ENDBRANCH  23  24
ENDBRANCH   3  23
TORSDOF 17
ENDMDL
