MODEL 1
REMARK VINA RESULT:     -13.9      0.000      0.000
REMARK SMILES C[C@@H](C(=O)NCCCNC(=O)c1ccc(-c2c3nc(c(-c4c(F)c(F)c(F)c(F)c4F)c4ccc([nH]4)c(-c4c(F)c(F)c(F)c(F)c4F)c4nc(c(-c5c(F)c(F)c(F)c(F)c5F)c5ccc2[nH]5)C=C4)C=C3)cc1)N1C(=O)/C(=C/c2ccc(-c3ccc([N+](=O)[O-])cc3Cl)o2)SC1=S
REMARK SMILES IDX 6 1 5 2 3 3 4 4 2 6 1 7 75 8 76 9 96 10 77 11 78 12 95 13
REMARK SMILES IDX 97 14 79 15 80 16 81 17 94 18 82 19 83 20 84 21 85 22 92 23
REMARK SMILES IDX 86 24 91 25 93 26 87 27 88 28 89 29 90 30 7 31 8 32 9 33
REMARK SMILES IDX 10 34 11 36 12 37 13 38 74 39 14 40 73 41 15 42 16 43 17 44
REMARK SMILES IDX 67 45 18 46 72 47 66 48 68 49 19 50 71 51 65 52 64 53 20 55
REMARK SMILES IDX 52 56 32 57 51 58 33 59 36 60 50 61 69 62 34 63 35 64 49 66
REMARK SMILES IDX 70 67 37 68 21 69 22 70 30 71 23 72 24 73 28 74 31 75 25 76
REMARK SMILES IDX 26 77 29 78 27 79 53 80 54 81 62 82 55 83 56 84 60 85 63 86
REMARK SMILES IDX 57 87 58 88 61 89 59 90 38 91 39 92 47 93 40 94 41 95 45 96
REMARK SMILES IDX 48 97 42 98 43 99 46 100 44 101
REMARK H PARENT 5 5 9 35 68 54 36 65
REMARK Flexibility Score: inf
ROOT
ATOM      1  C   UNL A   1      37.674  20.148  24.668  1.00  0.00     0.117 C 
ENDROOT
BRANCH   1   2
ATOM      2  N   UNL A   1      36.269  19.909  24.931  1.00  0.00    -0.354 N 
ATOM      3  C   UNL A   1      35.220  20.777  24.993  1.00  0.00     0.242 C 
ATOM      4  O   UNL A   1      34.096  20.276  25.094  1.00  0.00    -0.273 OA
ATOM      5  H   UNL A   1      36.034  18.966  25.094  1.00  0.00     0.163 HD
BRANCH   3   6
ATOM      6  C   UNL A   1      35.436  22.300  24.868  1.00  0.00     0.178 C 
ATOM      7  C   UNL A   1      36.451  22.935  25.817  1.00  0.00     0.042 C 
BRANCH   6   8
ATOM      8  N   UNL A   1      34.126  22.986  24.921  1.00  0.00    -0.281 N 
ATOM      9  C   UNL A   1      33.653  23.573  23.756  1.00  0.00     0.267 C 
ATOM     10  C   UNL A   1      33.304  23.080  26.031  1.00  0.00     0.149 C 
ATOM     11  O   UNL A   1      34.220  23.582  22.671  1.00  0.00    -0.268 OA
ATOM     12  C   UNL A   1      32.376  24.284  24.012  1.00  0.00     0.084 C 
ATOM     13  S   UNL A   1      31.880  24.032  25.637  1.00  0.00    -0.054 SA
ATOM     14  S   UNL A   1      33.510  22.480  27.577  1.00  0.00    -0.052 S 
ATOM     15  C   UNL A   1      31.778  25.027  23.070  1.00  0.00     0.068 C 
BRANCH  15  16
ATOM     16  C   UNL A   1      30.629  25.816  23.342  1.00  0.00     0.128 A 
ATOM     17  C   UNL A   1      29.388  25.414  23.825  1.00  0.00     0.051 A 
ATOM     18  O   UNL A   1      30.583  27.179  23.157  1.00  0.00    -0.457 OA
ATOM     19  C   UNL A   1      28.553  26.550  23.874  1.00  0.00     0.051 A 
ATOM     20  C   UNL A   1      29.317  27.602  23.428  1.00  0.00     0.136 A 
BRANCH  20  21
ATOM     21  C   UNL A   1      29.029  29.012  23.223  1.00  0.00     0.036 A 
ATOM     22  C   UNL A   1      28.006  29.350  22.316  1.00  0.00     0.020 A 
ATOM     23  C   UNL A   1      29.774  30.046  23.818  1.00  0.00     0.058 A 
ATOM     24  C   UNL A   1      27.744  30.682  21.991  1.00  0.00     0.086 A 
ATOM     25  C   UNL A   1      29.519  31.385  23.497  1.00  0.00     0.106 A 
ATOM     26  Cl  UNL A   1      31.086  29.740  24.907  1.00  0.00    -0.083 Cl
ATOM     27  C   UNL A   1      28.511  31.696  22.575  1.00  0.00     0.270 A 
BRANCH  27  28
ATOM     28  N   UNL A   1      28.278  33.093  22.196  1.00  0.00     0.062 N 
ATOM     29  O   UNL A   1      27.668  33.307  21.138  1.00  0.00    -0.258 OA
ATOM     30  O   UNL A   1      28.710  33.976  22.949  1.00  0.00    -0.258 OA
ENDBRANCH  27  28
ENDBRANCH  20  21
ENDBRANCH  15  16
ENDBRANCH   6   8
ENDBRANCH   3   6
ENDBRANCH   1   2
BRANCH   1  31
ATOM     31  C   UNL A   1      38.565  19.109  25.339  1.00  0.00     0.042 C 
BRANCH  31  32
ATOM     32  C   UNL A   1      39.747  19.706  26.097  1.00  0.00     0.118 C 
BRANCH  32  33
ATOM     33  N   UNL A   1      40.909  18.828  26.114  1.00  0.00    -0.352 N 
ATOM     34  C   UNL A   1      42.245  19.143  26.130  1.00  0.00     0.251 C 
ATOM     35  H   UNL A   1      40.705  17.865  26.114  1.00  0.00     0.163 HD
ATOM     36  O   UNL A   1      43.087  18.264  25.969  1.00  0.00    -0.269 OA
BRANCH  34  37
ATOM     37  C   UNL A   1      42.673  20.543  26.322  1.00  0.00     0.039 A 
ATOM     38  C   UNL A   1      43.059  21.298  25.209  1.00  0.00     0.014 A 
ATOM     39  C   UNL A   1      42.699  21.110  27.598  1.00  0.00     0.014 A 
ATOM     40  C   UNL A   1      43.400  22.643  25.368  1.00  0.00     0.010 A 
ATOM     41  C   UNL A   1      42.963  22.466  27.744  1.00  0.00     0.010 A 
ATOM     42  C   UNL A   1      43.318  23.247  26.631  1.00  0.00    -0.014 A 
BRANCH  42  43
ATOM     43  C   UNL A   1      43.615  24.686  26.842  1.00  0.00     0.031 A 
ATOM     44  C   UNL A   1      45.020  25.185  26.661  1.00  0.00     0.074 A 
ATOM     45  C   UNL A   1      42.658  25.511  27.307  1.00  0.00     0.049 A 
ATOM     46  N   UNL A   1      45.538  26.343  26.978  1.00  0.00    -0.248 NA
ATOM     47  C   UNL A   1      45.979  24.234  26.079  1.00  0.00     0.031 C 
ATOM     48  C   UNL A   1      41.265  25.139  27.550  1.00  0.00     0.029 A 
ATOM     49  N   UNL A   1      42.725  26.828  27.691  1.00  0.00    -0.354 N 
ATOM     50  C   UNL A   1      46.888  26.248  26.664  1.00  0.00     0.074 A 
ATOM     51  C   UNL A   1      47.116  24.903  26.178  1.00  0.00     0.031 C 
ATOM     52  C   UNL A   1      40.608  26.200  28.044  1.00  0.00     0.029 A 
ATOM     53  C   UNL A   1      41.545  27.310  28.199  1.00  0.00     0.049 A 
ATOM     54  H   UNL A   1      43.541  27.373  27.609  1.00  0.00     0.167 HD
ATOM     55  C   UNL A   1      47.846  27.200  26.759  1.00  0.00     0.037 A 
ATOM     56  C   UNL A   1      41.257  28.504  28.755  1.00  0.00     0.037 A 
ATOM     57  C   UNL A   1      47.605  28.541  27.224  1.00  0.00     0.049 A 
ATOM     58  C   UNL A   1      42.337  29.546  28.864  1.00  0.00     0.074 A 
ATOM     59  C   UNL A   1      48.492  29.599  27.305  1.00  0.00     0.029 A 
ATOM     60  N   UNL A   1      46.383  29.005  27.691  1.00  0.00    -0.354 N 
ATOM     61  N   UNL A   1      43.598  29.466  28.519  1.00  0.00    -0.248 NA
ATOM     62  C   UNL A   1      41.953  30.844  29.432  1.00  0.00     0.031 C 
ATOM     63  C   UNL A   1      47.821  30.688  27.872  1.00  0.00     0.029 A 
ATOM     64  C   UNL A   1      46.499  30.329  28.084  1.00  0.00     0.049 A 
ATOM     65  H   UNL A   1      45.557  28.472  27.737  1.00  0.00     0.167 HD
ATOM     66  C   UNL A   1      44.151  30.709  28.794  1.00  0.00     0.074 A 
ATOM     67  C   UNL A   1      43.086  31.527  29.337  1.00  0.00     0.031 C 
ATOM     68  C   UNL A   1      45.424  31.135  28.605  1.00  0.00     0.037 A 
BRANCH  55  69
ATOM     69  C   UNL A   1      49.244  26.813  26.367  1.00  0.00     0.064 A 
ATOM     70  C   UNL A   1      50.156  26.288  27.297  1.00  0.00     0.173 A 
ATOM     71  C   UNL A   1      49.681  26.973  25.043  1.00  0.00     0.173 A 
ATOM     72  F   UNL A   1      49.794  26.123  28.578  1.00  0.00    -0.203 F 
ATOM     73  C   UNL A   1      51.464  25.986  26.927  1.00  0.00     0.198 A 
ATOM     74  C   UNL A   1      50.979  26.634  24.669  1.00  0.00     0.198 A 
ATOM     75  F   UNL A   1      48.851  27.462  24.110  1.00  0.00    -0.203 F 
ATOM     76  F   UNL A   1      52.336  25.556  27.850  1.00  0.00    -0.200 F 
ATOM     77  C   UNL A   1      51.873  26.154  25.613  1.00  0.00     0.200 A 
ATOM     78  F   UNL A   1      51.368  26.783  23.395  1.00  0.00    -0.200 F 
ATOM     79  F   UNL A   1      53.134  25.866  25.260  1.00  0.00    -0.200 F 
ENDBRANCH  55  69
BRANCH  56  80
ATOM     80  C   UNL A   1      39.877  28.771  29.237  1.00  0.00     0.064 A 
ATOM     81  C   UNL A   1      38.911  29.319  28.382  1.00  0.00     0.173 A 
ATOM     82  C   UNL A   1      39.486  28.454  30.546  1.00  0.00     0.173 A 
ATOM     83  F   UNL A   1      39.242  29.655  27.126  1.00  0.00    -0.203 F 
ATOM     84  C   UNL A   1      37.609  29.547  28.820  1.00  0.00     0.198 A 
ATOM     85  C   UNL A   1      38.175  28.657  30.974  1.00  0.00     0.198 A 
ATOM     86  F   UNL A   1      40.369  27.920  31.401  1.00  0.00    -0.203 F 
ATOM     87  F   UNL A   1      36.712  30.101  27.992  1.00  0.00    -0.200 F 
ATOM     88  C   UNL A   1      37.239  29.208  30.113  1.00  0.00     0.200 A 
ATOM     89  F   UNL A   1      37.819  28.311  32.219  1.00  0.00    -0.200 F 
ATOM     90  F   UNL A   1      35.981  29.413  30.529  1.00  0.00    -0.200 F 
ENDBRANCH  56  80
BRANCH  68  91
ATOM     91  C   UNL A   1      45.736  32.568  28.928  1.00  0.00     0.064 A 
ATOM     92  C   UNL A   1      45.466  33.607  28.027  1.00  0.00     0.173 A 
ATOM     93  C   UNL A   1      46.237  32.909  30.195  1.00  0.00     0.173 A 
ATOM     94  F   UNL A   1      45.000  33.334  26.799  1.00  0.00    -0.203 F 
ATOM     95  C   UNL A   1      45.696  34.936  28.380  1.00  0.00     0.198 A 
ATOM     96  C   UNL A   1      46.438  34.238  30.554  1.00  0.00     0.198 A 
ATOM     97  F   UNL A   1      46.506  31.951  31.095  1.00  0.00    -0.203 F 
ATOM     98  F   UNL A   1      45.461  35.912  27.491  1.00  0.00    -0.200 F 
ATOM     99  C   UNL A   1      46.170  35.250  29.644  1.00  0.00     0.200 A 
ATOM    100  F   UNL A   1      46.881  34.540  31.781  1.00  0.00    -0.200 F 
ATOM    101  F   UNL A   1      46.372  36.530  29.987  1.00  0.00    -0.200 F 
ENDBRANCH  68  91
ENDBRANCH  42  43
ENDBRANCH  34  37
ENDBRANCH  32  33
ENDBRANCH  31  32
ENDBRANCH   1  31
TORSDOF 14
ENDMDL
MODEL 2
REMARK VINA RESULT:     -13.9      0.356      7.030
REMARK SMILES C[C@@H](C(=O)NCCCNC(=O)c1ccc(-c2c3nc(c(-c4c(F)c(F)c(F)c(F)c4F)c4ccc([nH]4)c(-c4c(F)c(F)c(F)c(F)c4F)c4nc(c(-c5c(F)c(F)c(F)c(F)c5F)c5ccc2[nH]5)C=C4)C=C3)cc1)N1C(=O)/C(=C/c2ccc(-c3ccc([N+](=O)[O-])cc3Cl)o2)SC1=S
REMARK SMILES IDX 6 1 5 2 3 3 4 4 2 6 1 7 75 8 76 9 96 10 77 11 78 12 95 13
REMARK SMILES IDX 97 14 79 15 80 16 81 17 94 18 82 19 83 20 84 21 85 22 92 23
REMARK SMILES IDX 86 24 91 25 93 26 87 27 88 28 89 29 90 30 7 31 8 32 9 33
REMARK SMILES IDX 10 34 11 36 12 37 13 38 74 39 14 40 73 41 15 42 16 43 17 44
REMARK SMILES IDX 67 45 18 46 72 47 66 48 68 49 19 50 71 51 65 52 64 53 20 55
REMARK SMILES IDX 52 56 32 57 51 58 33 59 36 60 50 61 69 62 34 63 35 64 49 66
REMARK SMILES IDX 70 67 37 68 21 69 22 70 30 71 23 72 24 73 28 74 31 75 25 76
REMARK SMILES IDX 26 77 29 78 27 79 53 80 54 81 62 82 55 83 56 84 60 85 63 86
REMARK SMILES IDX 57 87 58 88 61 89 59 90 38 91 39 92 47 93 40 94 41 95 45 96
REMARK SMILES IDX 48 97 42 98 43 99 46 100 44 101
REMARK H PARENT 5 5 9 35 68 54 36 65
REMARK Flexibility Score: inf
ROOT
ATOM      1  C   UNL A   1      37.645  20.069  24.704  1.00  0.00     0.117 C 
ENDROOT
BRANCH   1   2
ATOM      2  N   UNL A   1      36.235  19.831  24.946  1.00  0.00    -0.354 N 
ATOM      3  C   UNL A   1      35.189  20.703  25.008  1.00  0.00     0.242 C 
ATOM      4  O   UNL A   1      34.063  20.206  25.086  1.00  0.00    -0.273 OA
ATOM      5  H   UNL A   1      35.995  18.887  25.090  1.00  0.00     0.163 HD
BRANCH   3   6
ATOM      6  C   UNL A   1      35.413  22.227  24.912  1.00  0.00     0.178 C 
ATOM      7  C   UNL A   1      36.418  22.842  25.885  1.00  0.00     0.042 C 
BRANCH   6   8
ATOM      8  N   UNL A   1      34.106  22.918  24.958  1.00  0.00    -0.281 N 
ATOM      9  C   UNL A   1      33.645  23.514  23.793  1.00  0.00     0.267 C 
ATOM     10  C   UNL A   1      33.275  23.008  26.062  1.00  0.00     0.149 C 
ATOM     11  O   UNL A   1      34.221  23.527  22.713  1.00  0.00    -0.268 OA
ATOM     12  C   UNL A   1      32.368  24.228  24.042  1.00  0.00     0.084 C 
ATOM     13  S   UNL A   1      31.858  23.968  25.661  1.00  0.00    -0.054 SA
ATOM     14  S   UNL A   1      33.466  22.398  27.605  1.00  0.00    -0.052 S 
ATOM     15  C   UNL A   1      31.781  24.980  23.101  1.00  0.00     0.068 C 
BRANCH  15  16
ATOM     16  C   UNL A   1      30.633  25.771  23.368  1.00  0.00     0.128 A 
ATOM     17  C   UNL A   1      29.382  25.369  23.823  1.00  0.00     0.051 A 
ATOM     18  O   UNL A   1      30.599  27.138  23.208  1.00  0.00    -0.457 OA
ATOM     19  C   UNL A   1      28.553  26.509  23.879  1.00  0.00     0.051 A 
ATOM     20  C   UNL A   1      29.331  27.564  23.465  1.00  0.00     0.136 A 
BRANCH  20  21
ATOM     21  C   UNL A   1      29.056  28.980  23.282  1.00  0.00     0.036 A 
ATOM     22  C   UNL A   1      28.020  29.340  22.399  1.00  0.00     0.020 A 
ATOM     23  C   UNL A   1      29.826  29.998  23.873  1.00  0.00     0.058 A 
ATOM     24  C   UNL A   1      27.768  30.679  22.095  1.00  0.00     0.086 A 
ATOM     25  C   UNL A   1      29.580  31.344  23.573  1.00  0.00     0.106 A 
ATOM     26  Cl  UNL A   1      31.155  29.664  24.932  1.00  0.00    -0.083 Cl
ATOM     27  C   UNL A   1      28.558  31.676  22.675  1.00  0.00     0.270 A 
BRANCH  27  28
ATOM     28  N   UNL A   1      28.334  33.081  22.316  1.00  0.00     0.062 N 
ATOM     29  O   UNL A   1      27.724  33.314  21.263  1.00  0.00    -0.258 OA
ATOM     30  O   UNL A   1      28.774  33.950  23.081  1.00  0.00    -0.258 OA
ENDBRANCH  27  28
ENDBRANCH  20  21
ENDBRANCH  15  16
ENDBRANCH   6   8
ENDBRANCH   3   6
ENDBRANCH   1   2
BRANCH   1  31
ATOM     31  C   UNL A   1      38.523  19.018  25.374  1.00  0.00     0.042 C 
BRANCH  31  32
ATOM     32  C   UNL A   1      39.713  19.599  26.132  1.00  0.00     0.118 C 
BRANCH  32  33
ATOM     33  N   UNL A   1      40.942  18.846  25.917  1.00  0.00    -0.352 N 
ATOM     34  C   UNL A   1      42.244  19.282  25.895  1.00  0.00     0.251 C 
ATOM     35  H   UNL A   1      40.820  17.882  25.764  1.00  0.00     0.163 HD
ATOM     36  O   UNL A   1      43.139  18.528  25.527  1.00  0.00    -0.269 OA
BRANCH  34  37
ATOM     37  C   UNL A   1      42.568  20.666  26.296  1.00  0.00     0.039 A 
ATOM     38  C   UNL A   1      42.679  20.974  27.656  1.00  0.00     0.014 A 
ATOM     39  C   UNL A   1      42.756  21.660  25.333  1.00  0.00     0.014 A 
ATOM     40  C   UNL A   1      43.053  22.263  28.047  1.00  0.00     0.010 A 
ATOM     41  C   UNL A   1      43.203  22.917  25.719  1.00  0.00     0.010 A 
ATOM     42  C   UNL A   1      43.353  23.233  27.080  1.00  0.00    -0.014 A 
BRANCH  42  43
ATOM     43  C   UNL A   1      43.809  24.599  27.443  1.00  0.00     0.031 A 
ATOM     44  C   UNL A   1      42.804  25.613  27.909  1.00  0.00     0.074 A 
ATOM     45  C   UNL A   1      45.090  24.959  27.241  1.00  0.00     0.049 A 
ATOM     46  N   UNL A   1      42.944  26.901  28.088  1.00  0.00    -0.248 NA
ATOM     47  C   UNL A   1      41.447  25.111  28.173  1.00  0.00     0.031 C 
ATOM     48  C   UNL A   1      46.152  24.074  26.765  1.00  0.00     0.029 A 
ATOM     49  N   UNL A   1      45.707  26.177  27.380  1.00  0.00    -0.354 N 
ATOM     50  C   UNL A   1      41.688  27.368  28.452  1.00  0.00     0.074 A 
ATOM     51  C   UNL A   1      40.789  26.233  28.421  1.00  0.00     0.031 C 
ATOM     52  C   UNL A   1      47.289  24.777  26.648  1.00  0.00     0.029 A 
ATOM     53  C   UNL A   1      47.024  26.172  26.992  1.00  0.00     0.049 A 
ATOM     54  H   UNL A   1      45.249  26.978  27.724  1.00  0.00     0.167 HD
ATOM     55  C   UNL A   1      41.321  28.625  28.796  1.00  0.00     0.037 A 
ATOM     56  C   UNL A   1      47.910  27.183  26.898  1.00  0.00     0.037 A 
ATOM     57  C   UNL A   1      42.227  29.743  28.844  1.00  0.00     0.049 A 
ATOM     58  C   UNL A   1      47.482  28.576  27.271  1.00  0.00     0.074 A 
ATOM     59  C   UNL A   1      41.970  31.045  29.233  1.00  0.00     0.029 A 
ATOM     60  N   UNL A   1      43.566  29.688  28.484  1.00  0.00    -0.354 N 
ATOM     61  N   UNL A   1      46.306  29.000  27.663  1.00  0.00    -0.248 NA
ATOM     62  C   UNL A   1      48.504  29.628  27.196  1.00  0.00     0.031 C 
ATOM     63  C   UNL A   1      43.141  31.791  29.057  1.00  0.00     0.029 A 
ATOM     64  C   UNL A   1      44.145  30.939  28.622  1.00  0.00     0.049 A 
ATOM     65  H   UNL A   1      44.035  28.879  28.177  1.00  0.00     0.167 HD
ATOM     66  C   UNL A   1      46.452  30.358  27.915  1.00  0.00     0.074 A 
ATOM     67  C   UNL A   1      47.833  30.687  27.629  1.00  0.00     0.031 C 
ATOM     68  C   UNL A   1      45.527  31.247  28.351  1.00  0.00     0.037 A 
BRANCH  55  69
ATOM     69  C   UNL A   1      39.873  28.855  29.128  1.00  0.00     0.064 A 
ATOM     70  C   UNL A   1      38.939  29.233  28.150  1.00  0.00     0.173 A 
ATOM     71  C   UNL A   1      39.413  28.698  30.445  1.00  0.00     0.173 A 
ATOM     72  F   UNL A   1      39.327  29.407  26.878  1.00  0.00    -0.203 F 
ATOM     73  C   UNL A   1      37.614  29.495  28.487  1.00  0.00     0.198 A 
ATOM     74  C   UNL A   1      38.078  28.923  30.770  1.00  0.00     0.198 A 
ATOM     75  F   UNL A   1      40.259  28.330  31.418  1.00  0.00    -0.203 F 
ATOM     76  F   UNL A   1      36.760  29.925  27.548  1.00  0.00    -0.200 F 
ATOM     77  C   UNL A   1      37.183  29.335  29.795  1.00  0.00     0.200 A 
ATOM     78  F   UNL A   1      37.660  28.754  32.033  1.00  0.00    -0.200 F 
ATOM     79  F   UNL A   1      35.907  29.590  30.118  1.00  0.00    -0.200 F 
ENDBRANCH  55  69
BRANCH  56  80
ATOM     80  C   UNL A   1      49.295  26.899  26.439  1.00  0.00     0.064 A 
ATOM     81  C   UNL A   1      49.640  27.009  25.085  1.00  0.00     0.173 A 
ATOM     82  C   UNL A   1      50.306  26.546  27.344  1.00  0.00     0.173 A 
ATOM     83  F   UNL A   1      48.702  27.325  24.180  1.00  0.00    -0.203 F 
ATOM     84  C   UNL A   1      50.942  26.769  24.653  1.00  0.00     0.198 A 
ATOM     85  C   UNL A   1      51.615  26.335  26.914  1.00  0.00     0.198 A 
ATOM     86  F   UNL A   1      50.031  26.436  28.652  1.00  0.00    -0.203 F 
ATOM     87  F   UNL A   1      51.239  26.852  23.348  1.00  0.00    -0.200 F 
ATOM     88  C   UNL A   1      51.931  26.441  25.569  1.00  0.00     0.200 A 
ATOM     89  F   UNL A   1      52.570  26.036  27.805  1.00  0.00    -0.200 F 
ATOM     90  F   UNL A   1      53.187  26.227  25.154  1.00  0.00    -0.200 F 
ENDBRANCH  56  80
BRANCH  68  91
ATOM     91  C   UNL A   1      45.979  32.655  28.609  1.00  0.00     0.064 A 
ATOM     92  C   UNL A   1      45.929  33.644  27.616  1.00  0.00     0.173 A 
ATOM     93  C   UNL A   1      46.392  33.035  29.896  1.00  0.00     0.173 A 
ATOM     94  F   UNL A   1      45.556  33.330  26.367  1.00  0.00    -0.203 F 
ATOM     95  C   UNL A   1      46.286  34.961  27.902  1.00  0.00     0.198 A 
ATOM     96  C   UNL A   1      46.719  34.357  30.185  1.00  0.00     0.198 A 
ATOM     97  F   UNL A   1      46.451  32.127  30.882  1.00  0.00    -0.203 F 
ATOM     98  F   UNL A   1      46.261  35.884  26.930  1.00  0.00    -0.200 F 
ATOM     99  C   UNL A   1      46.669  35.318  29.186  1.00  0.00     0.200 A 
ATOM    100  F   UNL A   1      47.073  34.702  31.429  1.00  0.00    -0.200 F 
ATOM    101  F   UNL A   1      46.991  36.589  29.462  1.00  0.00    -0.200 F 
ENDBRANCH  68  91
ENDBRANCH  42  43
ENDBRANCH  34  37
ENDBRANCH  32  33
ENDBRANCH  31  32
ENDBRANCH   1  31
TORSDOF 14
ENDMDL
MODEL 3
REMARK VINA RESULT:     -13.8      5.302     10.557
REMARK SMILES C[C@@H](C(=O)NCCCNC(=O)c1ccc(-c2c3nc(c(-c4c(F)c(F)c(F)c(F)c4F)c4ccc([nH]4)c(-c4c(F)c(F)c(F)c(F)c4F)c4nc(c(-c5c(F)c(F)c(F)c(F)c5F)c5ccc2[nH]5)C=C4)C=C3)cc1)N1C(=O)/C(=C/c2ccc(-c3ccc([N+](=O)[O-])cc3Cl)o2)SC1=S
REMARK SMILES IDX 6 1 5 2 3 3 4 4 2 6 1 7 75 8 76 9 96 10 77 11 78 12 95 13
REMARK SMILES IDX 97 14 79 15 80 16 81 17 94 18 82 19 83 20 84 21 85 22 92 23
REMARK SMILES IDX 86 24 91 25 93 26 87 27 88 28 89 29 90 30 7 31 8 32 9 33
REMARK SMILES IDX 10 34 11 36 12 37 13 38 74 39 14 40 73 41 15 42 16 43 17 44
REMARK SMILES IDX 67 45 18 46 72 47 66 48 68 49 19 50 71 51 65 52 64 53 20 55
REMARK SMILES IDX 52 56 32 57 51 58 33 59 36 60 50 61 69 62 34 63 35 64 49 66
REMARK SMILES IDX 70 67 37 68 21 69 22 70 30 71 23 72 24 73 28 74 31 75 25 76
REMARK SMILES IDX 26 77 29 78 27 79 53 80 54 81 62 82 55 83 56 84 60 85 63 86
REMARK SMILES IDX 57 87 58 88 61 89 59 90 38 91 39 92 47 93 40 94 41 95 45 96
REMARK SMILES IDX 48 97 42 98 43 99 46 100 44 101
REMARK H PARENT 5 5 9 35 68 54 36 65
REMARK Flexibility Score: inf
ROOT
ATOM      1  C   UNL A   1      31.817  29.936  25.777  1.00  0.00     0.117 C 
ENDROOT
BRANCH   1   2
ATOM      2  N   UNL A   1      32.810  29.913  24.721  1.00  0.00    -0.354 N 
ATOM      3  C   UNL A   1      32.987  29.036  23.693  1.00  0.00     0.242 C 
ATOM      4  O   UNL A   1      33.834  29.341  22.849  1.00  0.00    -0.273 OA
ATOM      5  H   UNL A   1      33.463  30.649  24.752  1.00  0.00     0.163 HD
BRANCH   3   6
ATOM      6  C   UNL A   1      32.114  27.769  23.565  1.00  0.00     0.178 C 
ATOM      7  C   UNL A   1      30.696  27.846  24.126  1.00  0.00     0.042 C 
BRANCH   6   8
ATOM      8  N   UNL A   1      32.858  26.607  24.099  1.00  0.00    -0.281 N 
ATOM      9  C   UNL A   1      33.608  25.851  23.209  1.00  0.00     0.267 C 
ATOM     10  C   UNL A   1      32.897  26.208  25.425  1.00  0.00     0.149 C 
ATOM     11  O   UNL A   1      33.718  26.051  22.006  1.00  0.00    -0.268 OA
ATOM     12  C   UNL A   1      34.213  24.684  23.897  1.00  0.00     0.084 C 
ATOM     13  S   UNL A   1      33.861  24.747  25.577  1.00  0.00    -0.054 SA
ATOM     14  S   UNL A   1      32.165  26.875  26.770  1.00  0.00    -0.052 S 
ATOM     15  C   UNL A   1      34.889  23.740  23.229  1.00  0.00     0.068 C 
BRANCH  15  16
ATOM     16  C   UNL A   1      35.359  22.555  23.855  1.00  0.00     0.128 A 
ATOM     17  C   UNL A   1      36.640  22.254  24.306  1.00  0.00     0.051 A 
ATOM     18  O   UNL A   1      34.556  21.470  24.126  1.00  0.00    -0.457 OA
ATOM     19  C   UNL A   1      36.626  20.934  24.803  1.00  0.00     0.051 A 
ATOM     20  C   UNL A   1      35.337  20.483  24.646  1.00  0.00     0.136 A 
BRANCH  20  21
ATOM     21  C   UNL A   1      34.695  19.212  24.938  1.00  0.00     0.036 A 
ATOM     22  C   UNL A   1      35.460  18.039  24.793  1.00  0.00     0.020 A 
ATOM     23  C   UNL A   1      33.333  19.094  25.272  1.00  0.00     0.058 A 
ATOM     24  C   UNL A   1      34.883  16.778  24.955  1.00  0.00     0.086 A 
ATOM     25  C   UNL A   1      32.746  17.833  25.436  1.00  0.00     0.106 A 
ATOM     26  Cl  UNL A   1      32.291  20.468  25.425  1.00  0.00    -0.083 Cl
ATOM     27  C   UNL A   1      33.522  16.681  25.265  1.00  0.00     0.270 A 
BRANCH  27  28
ATOM     28  N   UNL A   1      32.898  15.358  25.382  1.00  0.00     0.062 N 
ATOM     29  O   UNL A   1      33.643  14.368  25.370  1.00  0.00    -0.258 OA
ATOM     30  O   UNL A   1      31.663  15.309  25.475  1.00  0.00    -0.258 OA
ENDBRANCH  27  28
ENDBRANCH  20  21
ENDBRANCH  15  16
ENDBRANCH   6   8
ENDBRANCH   3   6
ENDBRANCH   1   2
BRANCH   1  31
ATOM     31  C   UNL A   1      31.486  31.358  26.217  1.00  0.00     0.042 C 
BRANCH  31  32
ATOM     32  C   UNL A   1      32.597  32.031  27.018  1.00  0.00     0.118 C 
BRANCH  32  33
ATOM     33  N   UNL A   1      32.320  33.433  27.299  1.00  0.00    -0.352 N 
ATOM     34  C   UNL A   1      32.908  34.277  28.209  1.00  0.00     0.251 C 
ATOM     35  H   UNL A   1      31.605  33.836  26.756  1.00  0.00     0.163 HD
ATOM     36  O   UNL A   1      32.423  35.384  28.425  1.00  0.00    -0.269 OA
BRANCH  34  37
ATOM     37  C   UNL A   1      34.113  33.847  28.946  1.00  0.00     0.039 A 
ATOM     38  C   UNL A   1      33.988  32.894  29.963  1.00  0.00     0.014 A 
ATOM     39  C   UNL A   1      35.365  34.384  28.639  1.00  0.00     0.014 A 
ATOM     40  C   UNL A   1      35.129  32.428  30.621  1.00  0.00     0.010 A 
ATOM     41  C   UNL A   1      36.505  33.864  29.238  1.00  0.00     0.010 A 
ATOM     42  C   UNL A   1      36.399  32.882  30.238  1.00  0.00    -0.014 A 
BRANCH  42  43
ATOM     43  C   UNL A   1      37.645  32.376  30.867  1.00  0.00     0.031 A 
ATOM     44  C   UNL A   1      38.418  31.277  30.196  1.00  0.00     0.074 A 
ATOM     45  C   UNL A   1      38.011  32.814  32.085  1.00  0.00     0.049 A 
ATOM     46  N   UNL A   1      39.409  30.558  30.654  1.00  0.00    -0.248 NA
ATOM     47  C   UNL A   1      37.988  30.916  28.836  1.00  0.00     0.031 C 
ATOM     48  C   UNL A   1      37.327  33.855  32.851  1.00  0.00     0.029 A 
ATOM     49  N   UNL A   1      39.034  32.411  32.908  1.00  0.00    -0.354 N 
ATOM     50  C   UNL A   1      39.700  29.639  29.653  1.00  0.00     0.074 A 
ATOM     51  C   UNL A   1      38.747  29.861  28.585  1.00  0.00     0.031 C 
ATOM     52  C   UNL A   1      37.945  34.007  34.032  1.00  0.00     0.029 A 
ATOM     53  C   UNL A   1      39.037  33.042  34.127  1.00  0.00     0.049 A 
ATOM     54  H   UNL A   1      39.700  31.734  32.649  1.00  0.00     0.167 HD
ATOM     55  C   UNL A   1      40.680  28.706  29.623  1.00  0.00     0.037 A 
ATOM     56  C   UNL A   1      39.814  32.844  35.210  1.00  0.00     0.037 A 
ATOM     57  C   UNL A   1      41.635  28.507  30.681  1.00  0.00     0.049 A 
ATOM     58  C   UNL A   1      40.891  31.794  35.163  1.00  0.00     0.074 A 
ATOM     59  C   UNL A   1      42.702  27.628  30.727  1.00  0.00     0.029 A 
ATOM     60  N   UNL A   1      41.632  29.197  31.886  1.00  0.00    -0.354 N 
ATOM     61  N   UNL A   1      41.192  30.964  34.196  1.00  0.00    -0.248 NA
ATOM     62  C   UNL A   1      41.739  31.658  36.355  1.00  0.00     0.031 C 
ATOM     63  C   UNL A   1      43.312  27.748  31.980  1.00  0.00     0.029 A 
ATOM     64  C   UNL A   1      42.666  28.748  32.691  1.00  0.00     0.049 A 
ATOM     65  H   UNL A   1      40.989  29.901  32.131  1.00  0.00     0.167 HD
ATOM     66  C   UNL A   1      42.283  30.232  34.644  1.00  0.00     0.074 A 
ATOM     67  C   UNL A   1      42.590  30.716  35.974  1.00  0.00     0.031 C 
ATOM     68  C   UNL A   1      42.971  29.253  34.006  1.00  0.00     0.037 A 
BRANCH  55  69
ATOM     69  C   UNL A   1      40.753  27.821  28.410  1.00  0.00     0.064 A 
ATOM     70  C   UNL A   1      40.086  26.586  28.353  1.00  0.00     0.173 A 
ATOM     71  C   UNL A   1      41.502  28.210  27.290  1.00  0.00     0.173 A 
ATOM     72  F   UNL A   1      39.363  26.160  29.400  1.00  0.00    -0.203 F 
ATOM     73  C   UNL A   1      40.209  25.755  27.243  1.00  0.00     0.198 A 
ATOM     74  C   UNL A   1      41.591  27.393  26.166  1.00  0.00     0.198 A 
ATOM     75  F   UNL A   1      42.153  29.382  27.285  1.00  0.00    -0.203 F 
ATOM     76  F   UNL A   1      39.622  24.550  27.244  1.00  0.00    -0.200 F 
ATOM     77  C   UNL A   1      40.957  26.160  26.149  1.00  0.00     0.200 A 
ATOM     78  F   UNL A   1      42.303  27.793  25.103  1.00  0.00    -0.200 F 
ATOM     79  F   UNL A   1      41.076  25.358  25.082  1.00  0.00    -0.200 F 
ENDBRANCH  55  69
BRANCH  56  80
ATOM     80  C   UNL A   1      39.601  33.676  36.423  1.00  0.00     0.064 A 
ATOM     81  C   UNL A   1      40.179  34.948  36.533  1.00  0.00     0.173 A 
ATOM     82  C   UNL A   1      38.791  33.234  37.479  1.00  0.00     0.173 A 
ATOM     83  F   UNL A   1      40.976  35.407  35.557  1.00  0.00    -0.203 F 
ATOM     84  C   UNL A   1      39.961  35.743  37.656  1.00  0.00     0.198 A 
ATOM     85  C   UNL A   1      38.551  34.041  38.589  1.00  0.00     0.198 A 
ATOM     86  F   UNL A   1      38.207  32.028  37.420  1.00  0.00    -0.203 F 
ATOM     87  F   UNL A   1      40.551  36.943  37.750  1.00  0.00    -0.200 F 
ATOM     88  C   UNL A   1      39.141  35.292  38.680  1.00  0.00     0.200 A 
ATOM     89  F   UNL A   1      37.743  33.610  39.567  1.00  0.00    -0.200 F 
ATOM     90  F   UNL A   1      38.919  36.065  39.752  1.00  0.00    -0.200 F 
ENDBRANCH  56  80
BRANCH  68  91
ATOM     91  C   UNL A   1      44.167  28.672  34.704  1.00  0.00     0.064 A 
ATOM     92  C   UNL A   1      44.080  27.507  35.479  1.00  0.00     0.173 A 
ATOM     93  C   UNL A   1      45.434  29.250  34.523  1.00  0.00     0.173 A 
ATOM     94  F   UNL A   1      42.891  26.926  35.695  1.00  0.00    -0.203 F 
ATOM     95  C   UNL A   1      45.218  26.948  36.056  1.00  0.00     0.198 A 
ATOM     96  C   UNL A   1      46.572  28.671  35.076  1.00  0.00     0.198 A 
ATOM     97  F   UNL A   1      45.571  30.362  33.785  1.00  0.00    -0.203 F 
ATOM     98  F   UNL A   1      45.108  25.852  36.820  1.00  0.00    -0.200 F 
ATOM     99  C   UNL A   1      46.462  27.522  35.845  1.00  0.00     0.200 A 
ATOM    100  F   UNL A   1      47.774  29.219  34.858  1.00  0.00    -0.200 F 
ATOM    101  F   UNL A   1      47.558  26.970  36.385  1.00  0.00    -0.200 F 
ENDBRANCH  68  91
ENDBRANCH  42  43
ENDBRANCH  34  37
ENDBRANCH  32  33
ENDBRANCH  31  32
ENDBRANCH   1  31
TORSDOF 14
ENDMDL
