MODEL 1
REMARK VINA RESULT:     -12.4      0.000      0.000
REMARK SMILES Cc1nn(C)c2c1nc(SCC(=O)NCCCNC(=O)c1ccc(-c3c4nc(c(-c5c(F)c(F)c(F)c(F)c5F)c5ccc([nH]5)c(-c5c(F)c(F)c(F)c(F)c5F)c5nc(c(-c6c(F)c(F)c(F)c(F)c6F)c6ccc3[nH]6)C=C5)C=C4)cc1)n2[C@H]1CC[N@@H+](C)C1
REMARK SMILES IDX 15 1 14 2 12 3 13 4 11 6 10 7 9 8 1 9 2 10 3 11 7 12 4 13
REMARK SMILES IDX 6 14 8 15 5 16 84 17 85 18 86 19 90 20 87 21 88 22 89 23
REMARK SMILES IDX 16 25 17 26 18 27 19 28 20 30 21 31 22 32 83 33 23 34 82 35
REMARK SMILES IDX 24 36 25 37 26 38 76 39 27 40 81 41 75 42 77 43 28 44 80 45
REMARK SMILES IDX 74 46 73 47 29 49 61 50 41 51 60 52 42 53 45 54 59 55 78 56
REMARK SMILES IDX 43 57 44 58 58 60 79 61 46 62 30 63 31 64 39 65 32 66 33 67
REMARK SMILES IDX 37 68 40 69 34 70 35 71 38 72 36 73 62 74 63 75 71 76 64 77
REMARK SMILES IDX 65 78 69 79 72 80 66 81 67 82 70 83 68 84 47 85 48 86 56 87
REMARK SMILES IDX 49 88 50 89 54 90 57 91 51 92 52 93 55 94 53 95
REMARK H PARENT 14 5 88 24 18 29 77 48 45 59
REMARK Flexibility Score: inf
ROOT
ATOM      1  C   UNL A   1      40.789  20.176  27.248  1.00  0.00     0.117 C 
ENDROOT
BRANCH   1   2
ATOM      2  N   UNL A   1      40.367  21.563  27.091  1.00  0.00    -0.355 N 
ATOM      3  C   UNL A   1      39.341  22.120  26.377  1.00  0.00     0.230 C 
ATOM      4  O   UNL A   1      39.175  23.337  26.495  1.00  0.00    -0.274 OA
ATOM      5  H   UNL A   1      40.916  22.214  27.586  1.00  0.00     0.163 HD
BRANCH   3   6
ATOM      6  C   UNL A   1      38.364  21.266  25.595  1.00  0.00     0.178 C 
BRANCH   6   7
ATOM      7  S   UNL A   1      37.354  22.184  24.431  1.00  0.00    -0.078 SA
BRANCH   7   8
ATOM      8  C   UNL A   1      35.717  21.682  24.716  1.00  0.00     0.171 A 
ATOM      9  C   UNL A   1      32.784  18.290  25.411  1.00  0.00     0.071 C 
ATOM     10  C   UNL A   1      32.872  19.757  25.278  1.00  0.00     0.087 A 
ATOM     11  N   UNL A   1      31.757  20.507  25.340  1.00  0.00    -0.174 NA
ATOM     12  C   UNL A   1      33.977  20.581  25.064  1.00  0.00     0.132 A 
ATOM     13  N   UNL A   1      32.184  21.783  25.159  1.00  0.00    -0.250 N 
ATOM     14  C   UNL A   1      33.533  21.858  24.958  1.00  0.00     0.159 A 
ATOM     15  N   UNL A   1      35.311  20.445  24.922  1.00  0.00    -0.219 NA
ATOM     16  C   UNL A   1      31.169  22.806  25.198  1.00  0.00     0.176 C 
ATOM     17  N   UNL A   1      34.655  22.600  24.688  1.00  0.00    -0.295 N 
BRANCH  17  18
ATOM     18  C   UNL A   1      34.811  24.030  24.446  1.00  0.00     0.152 C 
ATOM     19  C   UNL A   1      34.145  24.539  23.149  1.00  0.00     0.093 C 
ATOM     20  C   UNL A   1      34.241  24.967  25.507  1.00  0.00     0.288 C 
ATOM     21  C   UNL A   1      33.171  25.622  23.576  1.00  0.00     0.264 C 
ATOM     22  N   UNL A   1      33.787  26.160  24.789  1.00  0.00    -0.336 N 
ATOM     23  C   UNL A   1      32.815  26.909  25.583  1.00  0.00     0.332 C 
ATOM     24  H   UNL A   1      34.544  26.814  24.588  1.00  0.00     0.347 HD
ENDBRANCH  17  18
ENDBRANCH   7   8
ENDBRANCH   6   7
ENDBRANCH   3   6
ENDBRANCH   1   2
BRANCH   1  25
ATOM     25  C   UNL A   1      42.272  19.949  26.914  1.00  0.00     0.042 C 
BRANCH  25  26
ATOM     26  C   UNL A   1      42.554  19.923  25.421  1.00  0.00     0.118 C 
BRANCH  26  27
ATOM     27  N   UNL A   1      43.972  19.758  25.072  1.00  0.00    -0.352 N 
ATOM     28  C   UNL A   1      44.907  20.747  24.815  1.00  0.00     0.251 C 
ATOM     29  H   UNL A   1      44.297  18.830  25.012  1.00  0.00     0.163 HD
ATOM     30  O   UNL A   1      45.953  20.492  24.211  1.00  0.00    -0.269 OA
BRANCH  28  31
ATOM     31  C   UNL A   1      44.640  22.117  25.283  1.00  0.00     0.039 A 
ATOM     32  C   UNL A   1      43.665  22.952  24.730  1.00  0.00     0.014 A 
ATOM     33  C   UNL A   1      45.392  22.545  26.366  1.00  0.00     0.014 A 
ATOM     34  C   UNL A   1      43.435  24.194  25.327  1.00  0.00     0.010 A 
ATOM     35  C   UNL A   1      44.951  23.586  27.119  1.00  0.00     0.010 A 
ATOM     36  C   UNL A   1      44.089  24.492  26.532  1.00  0.00    -0.014 A 
BRANCH  36  37
ATOM     37  C   UNL A   1      43.881  25.722  27.279  1.00  0.00     0.031 A 
ATOM     38  C   UNL A   1      44.817  26.810  26.911  1.00  0.00     0.074 A 
ATOM     39  C   UNL A   1      42.759  25.920  28.011  1.00  0.00     0.049 A 
ATOM     40  N   UNL A   1      45.731  27.345  27.648  1.00  0.00    -0.248 NA
ATOM     41  C   UNL A   1      44.852  27.248  25.506  1.00  0.00     0.031 C 
ATOM     42  C   UNL A   1      41.593  25.035  28.168  1.00  0.00     0.029 A 
ATOM     43  N   UNL A   1      42.368  27.027  28.697  1.00  0.00    -0.354 N 
ATOM     44  C   UNL A   1      46.312  28.339  26.866  1.00  0.00     0.074 A 
ATOM     45  C   UNL A   1      45.891  28.085  25.516  1.00  0.00     0.031 C 
ATOM     46  C   UNL A   1      40.556  25.724  28.691  1.00  0.00     0.029 A 
ATOM     47  C   UNL A   1      41.026  27.039  29.071  1.00  0.00     0.049 A 
ATOM     48  H   UNL A   1      42.986  27.764  28.912  1.00  0.00     0.167 HD
ATOM     49  C   UNL A   1      46.861  29.442  27.448  1.00  0.00     0.037 A 
ATOM     50  C   UNL A   1      40.356  28.082  29.626  1.00  0.00     0.037 A 
ATOM     51  C   UNL A   1      47.085  29.213  28.856  1.00  0.00     0.049 A 
ATOM     52  C   UNL A   1      41.382  29.005  30.178  1.00  0.00     0.074 A 
ATOM     53  C   UNL A   1      47.835  28.309  29.584  1.00  0.00     0.029 A 
ATOM     54  N   UNL A   1      46.165  29.727  29.738  1.00  0.00    -0.354 N 
ATOM     55  N   UNL A   1      42.166  28.695  31.175  1.00  0.00    -0.248 NA
ATOM     56  C   UNL A   1      41.870  30.056  29.298  1.00  0.00     0.031 C 
ATOM     57  C   UNL A   1      47.014  27.966  30.700  1.00  0.00     0.029 A 
ATOM     58  C   UNL A   1      45.856  28.742  30.640  1.00  0.00     0.049 A 
ATOM     59  H   UNL A   1      45.793  30.638  29.725  1.00  0.00     0.167 HD
ATOM     60  C   UNL A   1      43.412  29.190  30.810  1.00  0.00     0.074 A 
ATOM     61  C   UNL A   1      43.152  30.072  29.673  1.00  0.00     0.031 C 
ATOM     62  C   UNL A   1      44.560  28.607  31.264  1.00  0.00     0.037 A 
BRANCH  49  63
ATOM     63  C   UNL A   1      46.815  30.836  26.864  1.00  0.00     0.064 A 
ATOM     64  C   UNL A   1      47.995  31.608  26.873  1.00  0.00     0.173 A 
ATOM     65  C   UNL A   1      45.630  31.553  26.588  1.00  0.00     0.173 A 
ATOM     66  F   UNL A   1      49.184  31.037  27.121  1.00  0.00    -0.203 F 
ATOM     67  C   UNL A   1      47.973  32.998  26.730  1.00  0.00     0.198 A 
ATOM     68  C   UNL A   1      45.619  32.933  26.394  1.00  0.00     0.198 A 
ATOM     69  F   UNL A   1      44.422  30.981  26.599  1.00  0.00    -0.203 F 
ATOM     70  F   UNL A   1      49.104  33.700  26.888  1.00  0.00    -0.200 F 
ATOM     71  C   UNL A   1      46.782  33.660  26.503  1.00  0.00     0.200 A 
ATOM     72  F   UNL A   1      44.450  33.556  26.182  1.00  0.00    -0.200 F 
ATOM     73  F   UNL A   1      46.747  34.997  26.435  1.00  0.00    -0.200 F 
ENDBRANCH  49  63
BRANCH  50  74
ATOM     74  C   UNL A   1      38.949  28.498  29.397  1.00  0.00     0.064 A 
ATOM     75  C   UNL A   1      38.062  28.698  30.468  1.00  0.00     0.173 A 
ATOM     76  C   UNL A   1      38.530  28.983  28.142  1.00  0.00     0.173 A 
ATOM     77  F   UNL A   1      38.404  28.314  31.706  1.00  0.00    -0.203 F 
ATOM     78  C   UNL A   1      36.840  29.361  30.297  1.00  0.00     0.198 A 
ATOM     79  C   UNL A   1      37.310  29.641  27.972  1.00  0.00     0.198 A 
ATOM     80  F   UNL A   1      39.341  28.915  27.077  1.00  0.00    -0.203 F 
ATOM     81  F   UNL A   1      36.046  29.585  31.354  1.00  0.00    -0.200 F 
ATOM     82  C   UNL A   1      36.470  29.840  29.051  1.00  0.00     0.200 A 
ATOM     83  F   UNL A   1      36.983  30.139  26.770  1.00  0.00    -0.200 F 
ATOM     84  F   UNL A   1      35.330  30.529  28.900  1.00  0.00    -0.200 F 
ENDBRANCH  50  74
BRANCH  62  85
ATOM     85  C   UNL A   1      44.448  27.574  32.353  1.00  0.00     0.064 A 
ATOM     86  C   UNL A   1      44.338  26.190  32.123  1.00  0.00     0.173 A 
ATOM     87  C   UNL A   1      44.644  27.990  33.675  1.00  0.00     0.173 A 
ATOM     88  F   UNL A   1      44.239  25.702  30.883  1.00  0.00    -0.203 F 
ATOM     89  C   UNL A   1      44.399  25.274  33.173  1.00  0.00     0.198 A 
ATOM     90  C   UNL A   1      44.740  27.073  34.717  1.00  0.00     0.198 A 
ATOM     91  F   UNL A   1      44.809  29.295  33.948  1.00  0.00    -0.203 F 
ATOM     92  F   UNL A   1      44.296  23.959  32.927  1.00  0.00    -0.200 F 
ATOM     93  C   UNL A   1      44.611  25.716  34.468  1.00  0.00     0.200 A 
ATOM     94  F   UNL A   1      44.995  27.503  35.960  1.00  0.00    -0.200 F 
ATOM     95  F   UNL A   1      44.722  24.834  35.471  1.00  0.00    -0.200 F 
ENDBRANCH  62  85
ENDBRANCH  36  37
ENDBRANCH  28  31
ENDBRANCH  26  27
ENDBRANCH  25  26
ENDBRANCH   1  25
TORSDOF 13
ENDMDL
MODEL 2
REMARK VINA RESULT:     -12.2      3.170      8.697
REMARK SMILES Cc1nn(C)c2c1nc(SCC(=O)NCCCNC(=O)c1ccc(-c3c4nc(c(-c5c(F)c(F)c(F)c(F)c5F)c5ccc([nH]5)c(-c5c(F)c(F)c(F)c(F)c5F)c5nc(c(-c6c(F)c(F)c(F)c(F)c6F)c6ccc3[nH]6)C=C5)C=C4)cc1)n2[C@H]1CC[N@@H+](C)C1
REMARK SMILES IDX 15 1 14 2 12 3 13 4 11 6 10 7 9 8 1 9 2 10 3 11 7 12 4 13
REMARK SMILES IDX 6 14 8 15 5 16 84 17 85 18 86 19 90 20 87 21 88 22 89 23
REMARK SMILES IDX 16 25 17 26 18 27 19 28 20 30 21 31 22 32 83 33 23 34 82 35
REMARK SMILES IDX 24 36 25 37 26 38 76 39 27 40 81 41 75 42 77 43 28 44 80 45
REMARK SMILES IDX 74 46 73 47 29 49 61 50 41 51 60 52 42 53 45 54 59 55 78 56
REMARK SMILES IDX 43 57 44 58 58 60 79 61 46 62 30 63 31 64 39 65 32 66 33 67
REMARK SMILES IDX 37 68 40 69 34 70 35 71 38 72 36 73 62 74 63 75 71 76 64 77
REMARK SMILES IDX 65 78 69 79 72 80 66 81 67 82 70 83 68 84 47 85 48 86 56 87
REMARK SMILES IDX 49 88 50 89 54 90 57 91 51 92 52 93 55 94 53 95
REMARK H PARENT 14 5 88 24 18 29 77 48 45 59
REMARK Flexibility Score: inf
ROOT
ATOM      1  C   UNL A   1      33.987  29.136  27.544  1.00  0.00     0.117 C 
ENDROOT
BRANCH   1   2
ATOM      2  N   UNL A   1      32.671  28.510  27.592  1.00  0.00    -0.355 N 
ATOM      3  C   UNL A   1      32.169  27.410  26.952  1.00  0.00     0.230 C 
ATOM      4  O   UNL A   1      31.023  27.065  27.250  1.00  0.00    -0.274 OA
ATOM      5  H   UNL A   1      32.030  28.958  28.190  1.00  0.00     0.163 HD
BRANCH   3   6
ATOM      6  C   UNL A   1      33.028  26.569  26.030  1.00  0.00     0.178 C 
BRANCH   6   7
ATOM      7  S   UNL A   1      32.611  24.824  26.026  1.00  0.00    -0.078 SA
BRANCH   7   8
ATOM      8  C   UNL A   1      34.118  23.971  25.904  1.00  0.00     0.171 A 
ATOM      9  C   UNL A   1      38.649  24.088  26.127  1.00  0.00     0.071 C 
ATOM     10  C   UNL A   1      37.509  23.188  25.868  1.00  0.00     0.087 A 
ATOM     11  N   UNL A   1      37.729  21.902  25.542  1.00  0.00    -0.174 NA
ATOM     12  C   UNL A   1      36.137  23.439  25.878  1.00  0.00     0.132 A 
ATOM     13  N   UNL A   1      36.493  21.374  25.350  1.00  0.00    -0.250 N 
ATOM     14  C   UNL A   1      35.500  22.298  25.519  1.00  0.00     0.159 A 
ATOM     15  N   UNL A   1      35.315  24.480  26.122  1.00  0.00    -0.219 NA
ATOM     16  C   UNL A   1      36.443  19.976  25.001  1.00  0.00     0.176 C 
ATOM     17  N   UNL A   1      34.170  22.631  25.489  1.00  0.00    -0.295 N 
BRANCH  17  18
ATOM     18  C   UNL A   1      32.998  21.832  25.148  1.00  0.00     0.152 C 
ATOM     19  C   UNL A   1      32.821  21.562  23.638  1.00  0.00     0.093 C 
ATOM     20  C   UNL A   1      32.930  20.431  25.750  1.00  0.00     0.288 C 
ATOM     21  C   UNL A   1      32.793  20.052  23.483  1.00  0.00     0.264 C 
ATOM     22  N   UNL A   1      32.242  19.600  24.760  1.00  0.00    -0.336 N 
ATOM     23  C   UNL A   1      32.525  18.183  24.981  1.00  0.00     0.332 C 
ATOM     24  H   UNL A   1      31.227  19.690  24.804  1.00  0.00     0.347 HD
ENDBRANCH  17  18
ENDBRANCH   7   8
ENDBRANCH   6   7
ENDBRANCH   3   6
ENDBRANCH   1   2
BRANCH   1  25
ATOM     25  C   UNL A   1      33.943  30.620  27.149  1.00  0.00     0.042 C 
BRANCH  25  26
ATOM     26  C   UNL A   1      35.154  31.404  27.626  1.00  0.00     0.118 C 
BRANCH  26  27
ATOM     27  N   UNL A   1      34.923  32.205  28.837  1.00  0.00    -0.352 N 
ATOM     28  C   UNL A   1      35.418  31.984  30.112  1.00  0.00     0.251 C 
ATOM     29  H   UNL A   1      34.346  32.996  28.729  1.00  0.00     0.163 HD
ATOM     30  O   UNL A   1      34.894  32.512  31.097  1.00  0.00    -0.269 OA
BRANCH  28  31
ATOM     31  C   UNL A   1      36.591  31.111  30.278  1.00  0.00     0.039 A 
ATOM     32  C   UNL A   1      36.517  29.718  30.376  1.00  0.00     0.014 A 
ATOM     33  C   UNL A   1      37.823  31.747  30.289  1.00  0.00     0.014 A 
ATOM     34  C   UNL A   1      37.709  28.991  30.427  1.00  0.00     0.010 A 
ATOM     35  C   UNL A   1      38.947  31.034  30.018  1.00  0.00     0.010 A 
ATOM     36  C   UNL A   1      38.922  29.671  30.241  1.00  0.00    -0.014 A 
BRANCH  36  37
ATOM     37  C   UNL A   1      40.218  29.014  30.209  1.00  0.00     0.031 A 
ATOM     38  C   UNL A   1      40.836  28.848  31.545  1.00  0.00     0.074 A 
ATOM     39  C   UNL A   1      40.653  28.368  29.101  1.00  0.00     0.049 A 
ATOM     40  N   UNL A   1      41.914  29.402  31.988  1.00  0.00    -0.248 NA
ATOM     41  C   UNL A   1      40.084  28.103  32.569  1.00  0.00     0.031 C 
ATOM     42  C   UNL A   1      39.960  28.173  27.817  1.00  0.00     0.029 A 
ATOM     43  N   UNL A   1      41.787  27.640  28.924  1.00  0.00    -0.354 N 
ATOM     44  C   UNL A   1      42.092  28.904  33.276  1.00  0.00     0.074 A 
ATOM     45  C   UNL A   1      40.844  28.299  33.648  1.00  0.00     0.031 C 
ATOM     46  C   UNL A   1      40.572  27.203  27.104  1.00  0.00     0.029 A 
ATOM     47  C   UNL A   1      41.794  26.833  27.788  1.00  0.00     0.049 A 
ATOM     48  H   UNL A   1      42.547  27.679  29.551  1.00  0.00     0.167 HD
ATOM     49  C   UNL A   1      43.342  28.794  33.806  1.00  0.00     0.037 A 
ATOM     50  C   UNL A   1      42.732  25.906  27.465  1.00  0.00     0.037 A 
ATOM     51  C   UNL A   1      44.285  29.587  33.051  1.00  0.00     0.049 A 
ATOM     52  C   UNL A   1      43.944  26.229  28.262  1.00  0.00     0.074 A 
ATOM     53  C   UNL A   1      44.400  30.930  32.753  1.00  0.00     0.029 A 
ATOM     54  N   UNL A   1      45.074  28.934  32.135  1.00  0.00    -0.354 N 
ATOM     55  N   UNL A   1      44.646  27.317  28.095  1.00  0.00    -0.248 NA
ATOM     56  C   UNL A   1      44.067  25.597  29.567  1.00  0.00     0.031 C 
ATOM     57  C   UNL A   1      44.836  30.969  31.394  1.00  0.00     0.029 A 
ATOM     58  C   UNL A   1      45.047  29.657  30.971  1.00  0.00     0.049 A 
ATOM     59  H   UNL A   1      45.570  28.098  32.287  1.00  0.00     0.167 HD
ATOM     60  C   UNL A   1      44.952  27.741  29.382  1.00  0.00     0.074 A 
ATOM     61  C   UNL A   1      44.621  26.606  30.244  1.00  0.00     0.031 C 
ATOM     62  C   UNL A   1      45.153  29.063  29.658  1.00  0.00     0.037 A 
BRANCH  49  63
ATOM     63  C   UNL A   1      43.793  27.678  34.723  1.00  0.00     0.064 A 
ATOM     64  C   UNL A   1      43.652  26.347  34.280  1.00  0.00     0.173 A 
ATOM     65  C   UNL A   1      44.055  27.829  36.101  1.00  0.00     0.173 A 
ATOM     66  F   UNL A   1      43.403  26.077  32.989  1.00  0.00    -0.203 F 
ATOM     67  C   UNL A   1      43.663  25.266  35.166  1.00  0.00     0.198 A 
ATOM     68  C   UNL A   1      44.118  26.744  36.974  1.00  0.00     0.198 A 
ATOM     69  F   UNL A   1      44.157  29.025  36.691  1.00  0.00    -0.203 F 
ATOM     70  F   UNL A   1      43.385  24.035  34.715  1.00  0.00    -0.200 F 
ATOM     71  C   UNL A   1      43.884  25.467  36.515  1.00  0.00     0.200 A 
ATOM     72  F   UNL A   1      44.325  26.963  38.281  1.00  0.00    -0.200 F 
ATOM     73  F   UNL A   1      43.826  24.443  37.376  1.00  0.00    -0.200 F 
ENDBRANCH  49  63
BRANCH  50  74
ATOM     74  C   UNL A   1      42.536  24.589  26.809  1.00  0.00     0.064 A 
ATOM     75  C   UNL A   1      43.124  24.297  25.566  1.00  0.00     0.173 A 
ATOM     76  C   UNL A   1      42.005  23.494  27.520  1.00  0.00     0.173 A 
ATOM     77  F   UNL A   1      43.698  25.272  24.847  1.00  0.00    -0.203 F 
ATOM     78  C   UNL A   1      43.194  22.986  25.075  1.00  0.00     0.198 A 
ATOM     79  C   UNL A   1      42.073  22.189  27.028  1.00  0.00     0.198 A 
ATOM     80  F   UNL A   1      41.500  23.658  28.750  1.00  0.00    -0.203 F 
ATOM     81  F   UNL A   1      43.814  22.739  23.913  1.00  0.00    -0.200 F 
ATOM     82  C   UNL A   1      42.677  21.933  25.812  1.00  0.00     0.200 A 
ATOM     83  F   UNL A   1      41.610  21.173  27.770  1.00  0.00    -0.200 F 
ATOM     84  F   UNL A   1      42.800  20.673  25.372  1.00  0.00    -0.200 F 
ENDBRANCH  50  74
BRANCH  62  85
ATOM     85  C   UNL A   1      45.274  30.018  28.501  1.00  0.00     0.064 A 
ATOM     86  C   UNL A   1      44.202  30.755  27.968  1.00  0.00     0.173 A 
ATOM     87  C   UNL A   1      46.559  30.329  28.040  1.00  0.00     0.173 A 
ATOM     88  F   UNL A   1      42.955  30.585  28.418  1.00  0.00    -0.203 F 
ATOM     89  C   UNL A   1      44.409  31.741  27.003  1.00  0.00     0.198 A 
ATOM     90  C   UNL A   1      46.767  31.336  27.102  1.00  0.00     0.198 A 
ATOM     91  F   UNL A   1      47.626  29.694  28.550  1.00  0.00    -0.203 F 
ATOM     92  F   UNL A   1      43.369  32.435  26.514  1.00  0.00    -0.200 F 
ATOM     93  C   UNL A   1      45.693  32.038  26.579  1.00  0.00     0.200 A 
ATOM     94  F   UNL A   1      48.016  31.653  26.733  1.00  0.00    -0.200 F 
ATOM     95  F   UNL A   1      45.899  33.020  25.690  1.00  0.00    -0.200 F 
ENDBRANCH  62  85
ENDBRANCH  36  37
ENDBRANCH  28  31
ENDBRANCH  26  27
ENDBRANCH  25  26
ENDBRANCH   1  25
TORSDOF 13
ENDMDL
MODEL 3
REMARK VINA RESULT:     -12.1      3.034      4.952
REMARK SMILES Cc1nn(C)c2c1nc(SCC(=O)NCCCNC(=O)c1ccc(-c3c4nc(c(-c5c(F)c(F)c(F)c(F)c5F)c5ccc([nH]5)c(-c5c(F)c(F)c(F)c(F)c5F)c5nc(c(-c6c(F)c(F)c(F)c(F)c6F)c6ccc3[nH]6)C=C5)C=C4)cc1)n2[C@H]1CC[N@@H+](C)C1
REMARK SMILES IDX 15 1 14 2 12 3 13 4 11 6 10 7 9 8 1 9 2 10 3 11 7 12 4 13
REMARK SMILES IDX 6 14 8 15 5 16 84 17 85 18 86 19 90 20 87 21 88 22 89 23
REMARK SMILES IDX 16 25 17 26 18 27 19 28 20 30 21 31 22 32 83 33 23 34 82 35
REMARK SMILES IDX 24 36 25 37 26 38 76 39 27 40 81 41 75 42 77 43 28 44 80 45
REMARK SMILES IDX 74 46 73 47 29 49 61 50 41 51 60 52 42 53 45 54 59 55 78 56
REMARK SMILES IDX 43 57 44 58 58 60 79 61 46 62 30 63 31 64 39 65 32 66 33 67
REMARK SMILES IDX 37 68 40 69 34 70 35 71 38 72 36 73 62 74 63 75 71 76 64 77
REMARK SMILES IDX 65 78 69 79 72 80 66 81 67 82 70 83 68 84 47 85 48 86 56 87
REMARK SMILES IDX 49 88 50 89 54 90 57 91 51 92 52 93 55 94 53 95
REMARK H PARENT 14 5 88 24 18 29 77 48 45 59
REMARK Flexibility Score: inf
ROOT
ATOM      1  C   UNL A   1      35.887  22.507  25.018  1.00  0.00     0.117 C 
ENDROOT
BRANCH   1   2
ATOM      2  N   UNL A   1      35.277  22.590  23.696  1.00  0.00    -0.355 N 
ATOM      3  C   UNL A   1      34.387  23.483  23.165  1.00  0.00     0.230 C 
ATOM      4  O   UNL A   1      34.101  23.345  21.972  1.00  0.00    -0.274 OA
ATOM      5  H   UNL A   1      35.555  21.877  23.075  1.00  0.00     0.163 HD
BRANCH   3   6
ATOM      6  C   UNL A   1      33.888  24.672  23.959  1.00  0.00     0.178 C 
BRANCH   6   7
ATOM      7  S   UNL A   1      33.308  26.039  22.952  1.00  0.00    -0.078 SA
BRANCH   7   8
ATOM      8  C   UNL A   1      33.141  27.391  24.028  1.00  0.00     0.171 A 
ATOM      9  C   UNL A   1      34.660  29.644  27.662  1.00  0.00     0.071 C 
ATOM     10  C   UNL A   1      33.611  29.660  26.624  1.00  0.00     0.087 A 
ATOM     11  N   UNL A   1      32.670  30.620  26.635  1.00  0.00    -0.174 NA
ATOM     12  C   UNL A   1      33.378  28.791  25.559  1.00  0.00     0.132 A 
ATOM     13  N   UNL A   1      31.864  30.331  25.582  1.00  0.00    -0.250 N 
ATOM     14  C   UNL A   1      32.255  29.200  24.922  1.00  0.00     0.159 A 
ATOM     15  N   UNL A   1      33.943  27.685  25.031  1.00  0.00    -0.219 NA
ATOM     16  C   UNL A   1      30.763  31.233  25.354  1.00  0.00     0.176 C 
ATOM     17  N   UNL A   1      32.052  28.272  23.933  1.00  0.00    -0.295 N 
BRANCH  17  18
ATOM     18  C   UNL A   1      30.992  28.162  22.937  1.00  0.00     0.152 C 
ATOM     19  C   UNL A   1      29.626  27.711  23.499  1.00  0.00     0.093 C 
ATOM     20  C   UNL A   1      30.638  29.436  22.175  1.00  0.00     0.288 C 
ATOM     21  C   UNL A   1      28.640  28.804  23.130  1.00  0.00     0.264 C 
ATOM     22  N   UNL A   1      29.202  29.353  21.896  1.00  0.00    -0.336 N 
ATOM     23  C   UNL A   1      28.649  30.675  21.610  1.00  0.00     0.332 C 
ATOM     24  H   UNL A   1      28.990  28.781  21.079  1.00  0.00     0.347 HD
ENDBRANCH  17  18
ENDBRANCH   7   8
ENDBRANCH   6   7
ENDBRANCH   3   6
ENDBRANCH   1   2
BRANCH   1  25
ATOM     25  C   UNL A   1      37.390  22.191  24.977  1.00  0.00     0.042 C 
BRANCH  25  26
ATOM     26  C   UNL A   1      38.161  22.793  26.140  1.00  0.00     0.118 C 
BRANCH  26  27
ATOM     27  N   UNL A   1      39.423  22.108  26.453  1.00  0.00    -0.352 N 
ATOM     28  C   UNL A   1      40.668  22.674  26.677  1.00  0.00     0.251 C 
ATOM     29  H   UNL A   1      39.379  21.126  26.512  1.00  0.00     0.163 HD
ATOM     30  O   UNL A   1      41.698  22.000  26.594  1.00  0.00    -0.269 OA
BRANCH  28  31
ATOM     31  C   UNL A   1      40.747  24.102  27.025  1.00  0.00     0.039 A 
ATOM     32  C   UNL A   1      40.056  25.109  26.344  1.00  0.00     0.014 A 
ATOM     33  C   UNL A   1      41.527  24.415  28.127  1.00  0.00     0.014 A 
ATOM     34  C   UNL A   1      40.131  26.415  26.833  1.00  0.00     0.010 A 
ATOM     35  C   UNL A   1      41.338  25.597  28.769  1.00  0.00     0.010 A 
ATOM     36  C   UNL A   1      40.777  26.640  28.058  1.00  0.00    -0.014 A 
BRANCH  36  37
ATOM     37  C   UNL A   1      40.861  27.942  28.699  1.00  0.00     0.031 A 
ATOM     38  C   UNL A   1      41.968  28.787  28.191  1.00  0.00     0.074 A 
ATOM     39  C   UNL A   1      39.848  28.420  29.460  1.00  0.00     0.049 A 
ATOM     40  N   UNL A   1      43.013  29.185  28.833  1.00  0.00    -0.248 NA
ATOM     41  C   UNL A   1      42.000  29.094  26.751  1.00  0.00     0.031 C 
ATOM     42  C   UNL A   1      38.543  27.802  29.749  1.00  0.00     0.029 A 
ATOM     43  N   UNL A   1      39.726  29.634  30.059  1.00  0.00    -0.354 N 
ATOM     44  C   UNL A   1      43.728  29.975  27.938  1.00  0.00     0.074 A 
ATOM     45  C   UNL A   1      43.181  29.704  26.638  1.00  0.00     0.031 C 
ATOM     46  C   UNL A   1      37.697  28.725  30.254  1.00  0.00     0.029 A 
ATOM     47  C   UNL A   1      38.438  29.946  30.491  1.00  0.00     0.049 A 
ATOM     48  H   UNL A   1      40.488  30.247  30.177  1.00  0.00     0.167 HD
ATOM     49  C   UNL A   1      44.518  30.989  28.391  1.00  0.00     0.037 A 
ATOM     50  C   UNL A   1      38.022  31.143  30.978  1.00  0.00     0.037 A 
ATOM     51  C   UNL A   1      44.781  30.834  29.803  1.00  0.00     0.049 A 
ATOM     52  C   UNL A   1      39.242  31.883  31.397  1.00  0.00     0.074 A 
ATOM     53  C   UNL A   1      45.382  29.859  30.575  1.00  0.00     0.029 A 
ATOM     54  N   UNL A   1      44.036  31.591  30.676  1.00  0.00    -0.354 N 
ATOM     55  N   UNL A   1      40.011  31.503  32.380  1.00  0.00    -0.248 NA
ATOM     56  C   UNL A   1      39.871  32.740  30.403  1.00  0.00     0.031 C 
ATOM     57  C   UNL A   1      44.582  29.778  31.754  1.00  0.00     0.029 A 
ATOM     58  C   UNL A   1      43.597  30.764  31.677  1.00  0.00     0.049 A 
ATOM     59  H   UNL A   1      43.850  32.554  30.596  1.00  0.00     0.167 HD
ATOM     60  C   UNL A   1      41.304  31.706  31.916  1.00  0.00     0.074 A 
ATOM     61  C   UNL A   1      41.152  32.528  30.716  1.00  0.00     0.031 C 
ATOM     62  C   UNL A   1      42.341  30.942  32.369  1.00  0.00     0.037 A 
BRANCH  49  63
ATOM     63  C   UNL A   1      44.710  32.312  27.685  1.00  0.00     0.064 A 
ATOM     64  C   UNL A   1      45.873  32.498  26.910  1.00  0.00     0.173 A 
ATOM     65  C   UNL A   1      43.986  33.489  27.975  1.00  0.00     0.173 A 
ATOM     66  F   UNL A   1      46.642  31.452  26.568  1.00  0.00    -0.203 F 
ATOM     67  C   UNL A   1      46.331  33.769  26.553  1.00  0.00     0.198 A 
ATOM     68  C   UNL A   1      44.418  34.751  27.571  1.00  0.00     0.198 A 
ATOM     69  F   UNL A   1      42.894  33.494  28.746  1.00  0.00    -0.203 F 
ATOM     70  F   UNL A   1      47.515  33.900  25.938  1.00  0.00    -0.200 F 
ATOM     71  C   UNL A   1      45.609  34.896  26.895  1.00  0.00     0.200 A 
ATOM     72  F   UNL A   1      43.706  35.832  27.921  1.00  0.00    -0.200 F 
ATOM     73  F   UNL A   1      46.079  36.118  26.615  1.00  0.00    -0.200 F 
ENDBRANCH  49  63
BRANCH  50  74
ATOM     74  C   UNL A   1      36.713  31.814  30.776  1.00  0.00     0.064 A 
ATOM     75  C   UNL A   1      35.889  32.152  31.863  1.00  0.00     0.173 A 
ATOM     76  C   UNL A   1      36.375  32.390  29.535  1.00  0.00     0.173 A 
ATOM     77  F   UNL A   1      36.168  31.689  33.089  1.00  0.00    -0.203 F 
ATOM     78  C   UNL A   1      34.807  33.030  31.720  1.00  0.00     0.198 A 
ATOM     79  C   UNL A   1      35.294  33.263  29.394  1.00  0.00     0.198 A 
ATOM     80  F   UNL A   1      37.148  32.196  28.458  1.00  0.00    -0.203 F 
ATOM     81  F   UNL A   1      34.079  33.376  32.792  1.00  0.00    -0.200 F 
ATOM     82  C   UNL A   1      34.517  33.592  30.488  1.00  0.00     0.200 A 
ATOM     83  F   UNL A   1      35.051  33.835  28.205  1.00  0.00    -0.200 F 
ATOM     84  F   UNL A   1      33.521  34.481  30.364  1.00  0.00    -0.200 F 
ENDBRANCH  50  74
BRANCH  62  85
ATOM     85  C   UNL A   1      42.098  30.044  33.551  1.00  0.00     0.064 A 
ATOM     86  C   UNL A   1      41.705  28.697  33.454  1.00  0.00     0.173 A 
ATOM     87  C   UNL A   1      42.453  30.518  34.819  1.00  0.00     0.173 A 
ATOM     88  F   UNL A   1      41.436  28.140  32.269  1.00  0.00    -0.203 F 
ATOM     89  C   UNL A   1      41.651  27.874  34.580  1.00  0.00     0.198 A 
ATOM     90  C   UNL A   1      42.432  29.687  35.935  1.00  0.00     0.198 A 
ATOM     91  F   UNL A   1      42.886  31.781  34.965  1.00  0.00    -0.203 F 
ATOM     92  F   UNL A   1      41.278  26.591  34.459  1.00  0.00    -0.200 F 
ATOM     93  C   UNL A   1      42.025  28.368  35.818  1.00  0.00     0.200 A 
ATOM     94  F   UNL A   1      42.843  30.157  37.122  1.00  0.00    -0.200 F 
ATOM     95  F   UNL A   1      42.023  27.566  36.891  1.00  0.00    -0.200 F 
ENDBRANCH  62  85
ENDBRANCH  36  37
ENDBRANCH  28  31
ENDBRANCH  26  27
ENDBRANCH  25  26
ENDBRANCH   1  25
TORSDOF 13
ENDMDL
