MODEL 1
REMARK VINA RESULT:     -11.9      0.000      0.000
REMARK SMILES CC(C)[C@H](/N=C1\C(=O)C(=O)[C@H]1[NH+]1CCCC1)C(=O)NCCCNC(=O)c1ccc(-c2c3nc(c(-c4c(F)c(F)c(F)c(F)c4F)c4ccc([nH]4)c(-c4c(F)c(F)c(F)c(F)c4F)c4nc(c(-c5c(F)c(F)c(F)c(F)c5F)c5ccc2[nH]5)C=C4)C=C3)cc1
REMARK SMILES IDX 21 1 20 2 19 3 17 4 18 5 4 7 2 8 1 9 3 10 5 11 6 12 7 13
REMARK SMILES IDX 11 14 8 15 9 16 10 17 12 18 13 19 16 20 14 22 15 23 22 24
REMARK SMILES IDX 23 25 24 26 25 28 26 29 27 30 88 31 28 32 87 33 29 34 30 35
REMARK SMILES IDX 31 36 81 37 32 38 86 39 80 40 82 41 33 42 85 43 79 44 78 45
REMARK SMILES IDX 34 47 66 48 46 49 65 50 47 51 50 52 64 53 83 54 48 55 49 56
REMARK SMILES IDX 63 58 84 59 51 60 35 61 36 62 44 63 37 64 38 65 42 66 45 67
REMARK SMILES IDX 39 68 40 69 43 70 41 71 67 72 68 73 76 74 69 75 70 76 74 77
REMARK SMILES IDX 77 78 71 79 72 80 75 81 73 82 52 83 53 84 61 85 54 86 55 87
REMARK SMILES IDX 59 88 62 89 56 90 57 91 60 92 58 93
REMARK H PARENT 19 6 12 21 23 27 82 46 50 57
REMARK Flexibility Score: inf
ROOT
ATOM      1  C   UNL A   1      31.363  32.320  26.500  1.00  0.00     0.042 C 
ENDROOT
BRANCH   1   2
ATOM      2  C   UNL A   1      31.369  30.802  26.407  1.00  0.00     0.117 C 
BRANCH   2   3
ATOM      3  N   UNL A   1      32.024  30.293  25.221  1.00  0.00    -0.354 N 
ATOM      4  C   UNL A   1      33.023  29.379  25.091  1.00  0.00     0.245 C 
ATOM      5  O   UNL A   1      33.374  29.104  23.939  1.00  0.00    -0.273 OA
ATOM      6  H   UNL A   1      31.694  30.670  24.373  1.00  0.00     0.163 HD
BRANCH   4   7
ATOM      7  C   UNL A   1      33.706  28.704  26.299  1.00  0.00     0.197 C 
BRANCH   7   8
ATOM      8  C   UNL A   1      34.924  29.499  26.845  1.00  0.00     0.017 C 
ATOM      9  C   UNL A   1      34.485  30.374  28.026  1.00  0.00     0.010 C 
ATOM     10  C   UNL A   1      36.148  28.689  27.288  1.00  0.00     0.010 C 
ENDBRANCH   7   8
BRANCH   7  11
ATOM     11  N   UNL A   1      34.013  27.304  25.950  1.00  0.00    -0.266 NA
ATOM     12  C   UNL A   1      33.101  26.417  26.098  1.00  0.00     0.153 C 
ATOM     13  C   UNL A   1      31.749  26.379  26.707  1.00  0.00     0.255 C 
ATOM     14  C   UNL A   1      33.105  24.910  25.820  1.00  0.00     0.314 C 
ATOM     15  O   UNL A   1      30.983  27.197  27.100  1.00  0.00    -0.283 OA
ATOM     16  C   UNL A   1      31.759  24.872  26.639  1.00  0.00     0.268 C 
ATOM     17  O   UNL A   1      30.943  24.106  27.074  1.00  0.00    -0.283 OA
BRANCH  14  18
ATOM     18  N   UNL A   1      33.010  24.426  24.418  1.00  0.00    -0.321 N 
ATOM     19  C   UNL A   1      32.757  22.985  24.342  1.00  0.00     0.263 C 
ATOM     20  C   UNL A   1      34.150  24.704  23.540  1.00  0.00     0.263 C 
ATOM     21  H   UNL A   1      32.223  24.976  24.074  1.00  0.00     0.349 HD
ATOM     22  C   UNL A   1      34.102  22.341  24.060  1.00  0.00     0.067 C 
ATOM     23  C   UNL A   1      34.894  23.397  23.315  1.00  0.00     0.067 C 
ENDBRANCH  14  18
ENDBRANCH   7  11
ENDBRANCH   4   7
ENDBRANCH   2   3
ENDBRANCH   1   2
BRANCH   1  24
ATOM     24  C   UNL A   1      32.534  32.920  27.261  1.00  0.00     0.118 C 
BRANCH  24  25
ATOM     25  N   UNL A   1      32.312  34.303  27.652  1.00  0.00    -0.352 N 
ATOM     26  C   UNL A   1      32.932  35.078  28.601  1.00  0.00     0.251 C 
ATOM     27  H   UNL A   1      31.597  34.761  27.152  1.00  0.00     0.163 HD
ATOM     28  O   UNL A   1      32.467  36.179  28.881  1.00  0.00    -0.269 OA
BRANCH  26  29
ATOM     29  C   UNL A   1      34.133  34.590  29.318  1.00  0.00     0.039 A 
ATOM     30  C   UNL A   1      33.981  34.064  30.605  1.00  0.00     0.014 A 
ATOM     31  C   UNL A   1      35.405  34.664  28.749  1.00  0.00     0.014 A 
ATOM     32  C   UNL A   1      35.086  33.535  31.279  1.00  0.00     0.010 A 
ATOM     33  C   UNL A   1      36.486  34.050  29.378  1.00  0.00     0.010 A 
ATOM     34  C   UNL A   1      36.341  33.479  30.650  1.00  0.00    -0.014 A 
BRANCH  34  35
ATOM     35  C   UNL A   1      37.510  32.828  31.300  1.00  0.00     0.031 A 
ATOM     36  C   UNL A   1      38.219  31.689  30.617  1.00  0.00     0.074 A 
ATOM     37  C   UNL A   1      37.878  33.201  32.543  1.00  0.00     0.049 A 
ATOM     38  N   UNL A   1      39.175  30.919  31.070  1.00  0.00    -0.248 NA
ATOM     39  C   UNL A   1      37.770  31.349  29.257  1.00  0.00     0.031 C 
ATOM     40  C   UNL A   1      37.237  34.249  33.339  1.00  0.00     0.029 A 
ATOM     41  N   UNL A   1      38.871  32.725  33.364  1.00  0.00    -0.354 N 
ATOM     42  C   UNL A   1      39.419  29.988  30.069  1.00  0.00     0.074 A 
ATOM     43  C   UNL A   1      38.484  30.261  28.999  1.00  0.00     0.031 C 
ATOM     44  C   UNL A   1      37.859  34.345  34.525  1.00  0.00     0.029 A 
ATOM     45  C   UNL A   1      38.916  33.341  34.591  1.00  0.00     0.049 A 
ATOM     46  H   UNL A   1      39.492  32.008  33.098  1.00  0.00     0.167 HD
ATOM     47  C   UNL A   1      40.351  29.007  30.035  1.00  0.00     0.037 A 
ATOM     48  C   UNL A   1      39.709  33.115  35.655  1.00  0.00     0.037 A 
ATOM     49  C   UNL A   1      41.319  28.771  31.073  1.00  0.00     0.049 A 
ATOM     50  C   UNL A   1      40.760  32.041  35.574  1.00  0.00     0.074 A 
ATOM     51  C   UNL A   1      42.364  27.863  31.086  1.00  0.00     0.029 A 
ATOM     52  N   UNL A   1      41.364  29.452  32.279  1.00  0.00    -0.354 N 
ATOM     53  N   UNL A   1      41.030  31.220  34.589  1.00  0.00    -0.248 NA
ATOM     54  C   UNL A   1      41.622  31.864  36.753  1.00  0.00     0.031 C 
ATOM     55  C   UNL A   1      43.018  27.968  32.318  1.00  0.00     0.029 A 
ATOM     56  C   UNL A   1      42.408  28.970  33.053  1.00  0.00     0.049 A 
ATOM     57  H   UNL A   1      40.748  30.171  32.546  1.00  0.00     0.167 HD
ATOM     58  C   UNL A   1      42.105  30.452  35.015  1.00  0.00     0.074 A 
ATOM     59  C   UNL A   1      42.451  30.915  36.342  1.00  0.00     0.031 C 
ATOM     60  C   UNL A   1      42.748  29.451  34.366  1.00  0.00     0.037 A 
BRANCH  47  61
ATOM     61  C   UNL A   1      40.388  28.113  28.830  1.00  0.00     0.064 A 
ATOM     62  C   UNL A   1      41.168  28.425  27.707  1.00  0.00     0.173 A 
ATOM     63  C   UNL A   1      39.691  26.895  28.829  1.00  0.00     0.173 A 
ATOM     64  F   UNL A   1      41.845  29.582  27.656  1.00  0.00    -0.203 F 
ATOM     65  C   UNL A   1      41.236  27.557  26.620  1.00  0.00     0.198 A 
ATOM     66  C   UNL A   1      39.783  26.018  27.751  1.00  0.00     0.198 A 
ATOM     67  F   UNL A   1      38.935  26.547  29.881  1.00  0.00    -0.203 F 
ATOM     68  F   UNL A   1      41.962  27.892  25.544  1.00  0.00    -0.200 F 
ATOM     69  C   UNL A   1      40.552  26.352  26.647  1.00  0.00     0.200 A 
ATOM     70  F   UNL A   1      39.132  24.847  27.785  1.00  0.00    -0.200 F 
ATOM     71  F   UNL A   1      40.632  25.511  25.607  1.00  0.00    -0.200 F 
ENDBRANCH  47  61
BRANCH  48  72
ATOM     72  C   UNL A   1      39.552  33.924  36.892  1.00  0.00     0.064 A 
ATOM     73  C   UNL A   1      38.785  33.454  37.968  1.00  0.00     0.173 A 
ATOM     74  C   UNL A   1      40.139  35.191  37.015  1.00  0.00     0.173 A 
ATOM     75  F   UNL A   1      38.187  32.256  37.890  1.00  0.00    -0.203 F 
ATOM     76  C   UNL A   1      38.589  34.232  39.107  1.00  0.00     0.198 A 
ATOM     77  C   UNL A   1      39.967  35.957  38.166  1.00  0.00     0.198 A 
ATOM     78  F   UNL A   1      40.887  35.685  36.017  1.00  0.00    -0.203 F 
ATOM     79  F   UNL A   1      37.806  33.781  40.097  1.00  0.00    -0.200 F 
ATOM     80  C   UNL A   1      39.182  35.481  39.207  1.00  0.00     0.200 A 
ATOM     81  F   UNL A   1      40.553  37.157  38.264  1.00  0.00    -0.200 F 
ATOM     82  F   UNL A   1      38.991  36.231  40.301  1.00  0.00    -0.200 F 
ENDBRANCH  48  72
BRANCH  60  83
ATOM     83  C   UNL A   1      43.910  28.811  35.065  1.00  0.00     0.064 A 
ATOM     84  C   UNL A   1      43.747  27.674  35.870  1.00  0.00     0.173 A 
ATOM     85  C   UNL A   1      45.207  29.315  34.891  1.00  0.00     0.173 A 
ATOM     86  F   UNL A   1      42.522  27.165  36.078  1.00  0.00    -0.203 F 
ATOM     87  C   UNL A   1      44.839  27.078  36.494  1.00  0.00     0.198 A 
ATOM     88  C   UNL A   1      46.301  28.700  35.494  1.00  0.00     0.198 A 
ATOM     89  F   UNL A   1      45.416  30.396  34.126  1.00  0.00    -0.203 F 
ATOM     90  F   UNL A   1      44.655  26.018  37.293  1.00  0.00    -0.200 F 
ATOM     91  C   UNL A   1      46.114  27.586  36.299  1.00  0.00     0.200 A 
ATOM     92  F   UNL A   1      47.534  29.183  35.295  1.00  0.00    -0.200 F 
ATOM     93  F   UNL A   1      47.166  27.005  36.894  1.00  0.00    -0.200 F 
ENDBRANCH  60  83
ENDBRANCH  34  35
ENDBRANCH  26  29
ENDBRANCH  24  25
ENDBRANCH   1  24
TORSDOF 13
ENDMDL
MODEL 2
REMARK VINA RESULT:     -11.7      1.436      2.646
REMARK SMILES CC(C)[C@H](/N=C1\C(=O)C(=O)[C@H]1[NH+]1CCCC1)C(=O)NCCCNC(=O)c1ccc(-c2c3nc(c(-c4c(F)c(F)c(F)c(F)c4F)c4ccc([nH]4)c(-c4c(F)c(F)c(F)c(F)c4F)c4nc(c(-c5c(F)c(F)c(F)c(F)c5F)c5ccc2[nH]5)C=C4)C=C3)cc1
REMARK SMILES IDX 21 1 20 2 19 3 17 4 18 5 4 7 2 8 1 9 3 10 5 11 6 12 7 13
REMARK SMILES IDX 11 14 8 15 9 16 10 17 12 18 13 19 16 20 14 22 15 23 22 24
REMARK SMILES IDX 23 25 24 26 25 28 26 29 27 30 88 31 28 32 87 33 29 34 30 35
REMARK SMILES IDX 31 36 81 37 32 38 86 39 80 40 82 41 33 42 85 43 79 44 78 45
REMARK SMILES IDX 34 47 66 48 46 49 65 50 47 51 50 52 64 53 83 54 48 55 49 56
REMARK SMILES IDX 63 58 84 59 51 60 35 61 36 62 44 63 37 64 38 65 42 66 45 67
REMARK SMILES IDX 39 68 40 69 43 70 41 71 67 72 68 73 76 74 69 75 70 76 74 77
REMARK SMILES IDX 77 78 71 79 72 80 75 81 73 82 52 83 53 84 61 85 54 86 55 87
REMARK SMILES IDX 59 88 62 89 56 90 57 91 60 92 58 93
REMARK H PARENT 19 6 12 21 23 27 82 46 50 57
REMARK Flexibility Score: inf
ROOT
ATOM      1  C   UNL A   1      31.532  31.223  26.330  1.00  0.00     0.042 C 
ENDROOT
BRANCH   1   2
ATOM      2  C   UNL A   1      31.818  29.808  25.852  1.00  0.00     0.117 C 
BRANCH   2   3
ATOM      3  N   UNL A   1      32.884  29.727  24.877  1.00  0.00    -0.354 N 
ATOM      4  C   UNL A   1      32.949  29.049  23.699  1.00  0.00     0.245 C 
ATOM      5  O   UNL A   1      33.985  29.185  23.038  1.00  0.00    -0.273 OA
ATOM      6  H   UNL A   1      33.692  30.243  25.102  1.00  0.00     0.163 HD
BRANCH   4   7
ATOM      7  C   UNL A   1      31.807  28.147  23.185  1.00  0.00     0.197 C 
BRANCH   7   8
ATOM      8  C   UNL A   1      30.409  28.823  23.249  1.00  0.00     0.017 C 
ATOM      9  C   UNL A   1      30.251  29.797  22.074  1.00  0.00     0.010 C 
ATOM     10  C   UNL A   1      29.185  27.901  23.264  1.00  0.00     0.010 C 
ENDBRANCH   7   8
BRANCH   7  11
ATOM     11  N   UNL A   1      31.876  26.849  23.882  1.00  0.00    -0.266 NA
ATOM     12  C   UNL A   1      32.517  25.887  23.332  1.00  0.00     0.153 C 
ATOM     13  C   UNL A   1      33.145  25.652  22.008  1.00  0.00     0.255 C 
ATOM     14  C   UNL A   1      32.775  24.450  23.798  1.00  0.00     0.314 C 
ATOM     15  O   UNL A   1      33.425  26.336  21.080  1.00  0.00    -0.283 OA
ATOM     16  C   UNL A   1      33.261  24.181  22.322  1.00  0.00     0.268 C 
ATOM     17  O   UNL A   1      33.636  23.298  21.601  1.00  0.00    -0.283 OA
BRANCH  14  18
ATOM     18  N   UNL A   1      33.786  24.196  24.856  1.00  0.00    -0.321 N 
ATOM     19  C   UNL A   1      34.240  22.803  24.871  1.00  0.00     0.263 C 
ATOM     20  C   UNL A   1      33.408  24.534  26.232  1.00  0.00     0.263 C 
ATOM     21  H   UNL A   1      34.526  24.842  24.580  1.00  0.00     0.349 HD
ATOM     22  C   UNL A   1      33.471  22.127  25.991  1.00  0.00     0.067 C 
ATOM     23  C   UNL A   1      33.165  23.232  26.980  1.00  0.00     0.067 C 
ENDBRANCH  14  18
ENDBRANCH   7  11
ENDBRANCH   4   7
ENDBRANCH   2   3
ENDBRANCH   1   2
BRANCH   1  24
ATOM     24  C   UNL A   1      32.732  31.959  26.904  1.00  0.00     0.118 C 
BRANCH  24  25
ATOM     25  N   UNL A   1      32.446  33.348  27.232  1.00  0.00    -0.352 N 
ATOM     26  C   UNL A   1      33.016  34.187  28.158  1.00  0.00     0.251 C 
ATOM     27  H   UNL A   1      31.722  33.753  26.701  1.00  0.00     0.163 HD
ATOM     28  O   UNL A   1      32.501  35.278  28.384  1.00  0.00    -0.269 OA
BRANCH  26  29
ATOM     29  C   UNL A   1      34.223  33.780  28.914  1.00  0.00     0.039 A 
ATOM     30  C   UNL A   1      34.085  32.852  29.953  1.00  0.00     0.014 A 
ATOM     31  C   UNL A   1      35.480  34.315  28.630  1.00  0.00     0.014 A 
ATOM     32  C   UNL A   1      35.216  32.399  30.640  1.00  0.00     0.010 A 
ATOM     33  C   UNL A   1      36.615  33.793  29.247  1.00  0.00     0.010 A 
ATOM     34  C   UNL A   1      36.497  32.830  30.260  1.00  0.00    -0.014 A 
BRANCH  34  35
ATOM     35  C   UNL A   1      37.724  32.287  30.901  1.00  0.00     0.031 A 
ATOM     36  C   UNL A   1      38.525  31.212  30.217  1.00  0.00     0.074 A 
ATOM     37  C   UNL A   1      38.068  32.696  32.140  1.00  0.00     0.049 A 
ATOM     38  N   UNL A   1      39.550  30.531  30.665  1.00  0.00    -0.248 NA
ATOM     39  C   UNL A   1      38.098  30.827  28.862  1.00  0.00     0.031 C 
ATOM     40  C   UNL A   1      37.343  33.687  32.937  1.00  0.00     0.029 A 
ATOM     41  N   UNL A   1      39.105  32.313  32.954  1.00  0.00    -0.354 N 
ATOM     42  C   UNL A   1      39.866  29.620  29.664  1.00  0.00     0.074 A 
ATOM     43  C   UNL A   1      38.902  29.806  28.602  1.00  0.00     0.031 C 
ATOM     44  C   UNL A   1      37.964  33.843  34.118  1.00  0.00     0.029 A 
ATOM     45  C   UNL A   1      39.107  32.936  34.179  1.00  0.00     0.049 A 
ATOM     46  H   UNL A   1      39.785  31.652  32.686  1.00  0.00     0.167 HD
ATOM     47  C   UNL A   1      40.880  28.725  29.626  1.00  0.00     0.037 A 
ATOM     48  C   UNL A   1      39.925  32.785  35.237  1.00  0.00     0.037 A 
ATOM     49  C   UNL A   1      41.874  28.580  30.657  1.00  0.00     0.049 A 
ATOM     50  C   UNL A   1      41.066  31.807  35.151  1.00  0.00     0.074 A 
ATOM     51  C   UNL A   1      42.995  27.768  30.665  1.00  0.00     0.029 A 
ATOM     52  N   UNL A   1      41.869  29.268  31.860  1.00  0.00    -0.354 N 
ATOM     53  N   UNL A   1      41.399  31.010  34.166  1.00  0.00    -0.248 NA
ATOM     54  C   UNL A   1      41.950  31.712  36.323  1.00  0.00     0.031 C 
ATOM     55  C   UNL A   1      43.647  27.935  31.890  1.00  0.00     0.029 A 
ATOM     56  C   UNL A   1      42.957  28.883  32.627  1.00  0.00     0.049 A 
ATOM     57  H   UNL A   1      41.194  29.931  32.130  1.00  0.00     0.167 HD
ATOM     58  C   UNL A   1      42.541  30.341  34.586  1.00  0.00     0.074 A 
ATOM     59  C   UNL A   1      42.855  30.838  35.908  1.00  0.00     0.031 C 
ATOM     60  C   UNL A   1      43.264  29.398  33.935  1.00  0.00     0.037 A 
BRANCH  47  61
ATOM     61  C   UNL A   1      40.987  27.833  28.424  1.00  0.00     0.064 A 
ATOM     62  C   UNL A   1      40.308  26.608  28.356  1.00  0.00     0.173 A 
ATOM     63  C   UNL A   1      41.719  28.243  27.299  1.00  0.00     0.173 A 
ATOM     64  F   UNL A   1      39.602  26.168  29.409  1.00  0.00    -0.203 F 
ATOM     65  C   UNL A   1      40.371  25.818  27.212  1.00  0.00     0.198 A 
ATOM     66  C   UNL A   1      41.759  27.462  26.148  1.00  0.00     0.198 A 
ATOM     67  F   UNL A   1      42.383  29.409  27.312  1.00  0.00    -0.203 F 
ATOM     68  F   UNL A   1      39.741  24.634  27.181  1.00  0.00    -0.200 F 
ATOM     69  C   UNL A   1      41.088  26.249  26.106  1.00  0.00     0.200 A 
ATOM     70  F   UNL A   1      42.441  27.887  25.075  1.00  0.00    -0.200 F 
ATOM     71  F   UNL A   1      41.134  25.494  25.000  1.00  0.00    -0.200 F 
ENDBRANCH  47  61
BRANCH  48  72
ATOM     72  C   UNL A   1      39.707  33.583  36.472  1.00  0.00     0.064 A 
ATOM     73  C   UNL A   1      38.846  33.127  37.481  1.00  0.00     0.173 A 
ATOM     74  C   UNL A   1      40.330  34.824  36.659  1.00  0.00     0.173 A 
ATOM     75  F   UNL A   1      38.210  31.955  37.340  1.00  0.00    -0.203 F 
ATOM     76  C   UNL A   1      38.595  33.897  38.616  1.00  0.00     0.198 A 
ATOM     77  C   UNL A   1      40.102  35.580  37.807  1.00  0.00     0.198 A 
ATOM     78  F   UNL A   1      41.168  35.303  35.727  1.00  0.00    -0.203 F 
ATOM     79  F   UNL A   1      37.725  33.463  39.538  1.00  0.00    -0.200 F 
ATOM     80  C   UNL A   1      39.225  35.121  38.779  1.00  0.00     0.200 A 
ATOM     81  F   UNL A   1      40.724  36.756  37.968  1.00  0.00    -0.200 F 
ATOM     82  F   UNL A   1      38.982  35.862  39.869  1.00  0.00    -0.200 F 
ENDBRANCH  48  72
BRANCH  60  83
ATOM     83  C   UNL A   1      44.483  28.865  34.627  1.00  0.00     0.064 A 
ATOM     84  C   UNL A   1      45.730  29.494  34.506  1.00  0.00     0.173 A 
ATOM     85  C   UNL A   1      44.392  27.737  35.455  1.00  0.00     0.173 A 
ATOM     86  F   UNL A   1      45.870  30.568  33.712  1.00  0.00    -0.203 F 
ATOM     87  C   UNL A   1      46.848  29.000  35.172  1.00  0.00     0.198 A 
ATOM     88  C   UNL A   1      45.506  27.262  36.143  1.00  0.00     0.198 A 
ATOM     89  F   UNL A   1      43.220  27.103  35.609  1.00  0.00    -0.203 F 
ATOM     90  F   UNL A   1      48.039  29.592  35.008  1.00  0.00    -0.200 F 
ATOM     91  C   UNL A   1      46.733  27.891  35.996  1.00  0.00     0.200 A 
ATOM     92  F   UNL A   1      45.391  26.197  36.948  1.00  0.00    -0.200 F 
ATOM     93  F   UNL A   1      47.808  27.421  36.643  1.00  0.00    -0.200 F 
ENDBRANCH  60  83
ENDBRANCH  34  35
ENDBRANCH  26  29
ENDBRANCH  24  25
ENDBRANCH   1  24
TORSDOF 13
ENDMDL
MODEL 3
REMARK VINA RESULT:     -11.7      5.391     11.031
REMARK SMILES CC(C)[C@H](/N=C1\C(=O)C(=O)[C@H]1[NH+]1CCCC1)C(=O)NCCCNC(=O)c1ccc(-c2c3nc(c(-c4c(F)c(F)c(F)c(F)c4F)c4ccc([nH]4)c(-c4c(F)c(F)c(F)c(F)c4F)c4nc(c(-c5c(F)c(F)c(F)c(F)c5F)c5ccc2[nH]5)C=C4)C=C3)cc1
REMARK SMILES IDX 21 1 20 2 19 3 17 4 18 5 4 7 2 8 1 9 3 10 5 11 6 12 7 13
REMARK SMILES IDX 11 14 8 15 9 16 10 17 12 18 13 19 16 20 14 22 15 23 22 24
REMARK SMILES IDX 23 25 24 26 25 28 26 29 27 30 88 31 28 32 87 33 29 34 30 35
REMARK SMILES IDX 31 36 81 37 32 38 86 39 80 40 82 41 33 42 85 43 79 44 78 45
REMARK SMILES IDX 34 47 66 48 46 49 65 50 47 51 50 52 64 53 83 54 48 55 49 56
REMARK SMILES IDX 63 58 84 59 51 60 35 61 36 62 44 63 37 64 38 65 42 66 45 67
REMARK SMILES IDX 39 68 40 69 43 70 41 71 67 72 68 73 76 74 69 75 70 76 74 77
REMARK SMILES IDX 77 78 71 79 72 80 75 81 73 82 52 83 53 84 61 85 54 86 55 87
REMARK SMILES IDX 59 88 62 89 56 90 57 91 60 92 58 93
REMARK H PARENT 19 6 12 21 23 27 82 46 50 57
REMARK Flexibility Score: inf
ROOT
ATOM      1  C   UNL A   1      37.356  20.007  24.984  1.00  0.00     0.042 C 
ENDROOT
BRANCH   1   2
ATOM      2  C   UNL A   1      36.251  21.052  24.950  1.00  0.00     0.117 C 
BRANCH   2   3
ATOM      3  N   UNL A   1      35.717  21.378  26.255  1.00  0.00    -0.354 N 
ATOM      4  C   UNL A   1      34.428  21.504  26.671  1.00  0.00     0.245 C 
ATOM      5  O   UNL A   1      34.256  21.762  27.867  1.00  0.00    -0.273 OA
ATOM      6  H   UNL A   1      36.395  21.536  26.952  1.00  0.00     0.163 HD
BRANCH   4   7
ATOM      7  C   UNL A   1      33.220  21.340  25.725  1.00  0.00     0.197 C 
BRANCH   7   8
ATOM      8  C   UNL A   1      33.314  20.086  24.813  1.00  0.00     0.017 C 
ATOM      9  C   UNL A   1      32.886  18.840  25.600  1.00  0.00     0.010 C 
ATOM     10  C   UNL A   1      32.520  20.110  23.502  1.00  0.00     0.010 C 
ENDBRANCH   7   8
BRANCH   7  11
ATOM     11  N   UNL A   1      33.019  22.602  24.987  1.00  0.00    -0.266 NA
ATOM     12  C   UNL A   1      32.235  23.486  25.480  1.00  0.00     0.153 C 
ATOM     13  C   UNL A   1      31.279  23.542  26.614  1.00  0.00     0.255 C 
ATOM     14  C   UNL A   1      31.834  24.875  24.970  1.00  0.00     0.314 C 
ATOM     15  O   UNL A   1      31.054  22.854  27.554  1.00  0.00    -0.283 OA
ATOM     16  C   UNL A   1      30.703  24.824  26.067  1.00  0.00     0.268 C 
ATOM     17  O   UNL A   1      29.755  25.440  26.471  1.00  0.00    -0.283 OA
BRANCH  14  18
ATOM     18  N   UNL A   1      32.792  26.003  25.099  1.00  0.00    -0.321 N 
ATOM     19  C   UNL A   1      32.135  27.308  24.985  1.00  0.00     0.263 C 
ATOM     20  C   UNL A   1      33.929  26.019  24.173  1.00  0.00     0.263 C 
ATOM     21  H   UNL A   1      33.167  25.838  26.033  1.00  0.00     0.349 HD
ATOM     22  C   UNL A   1      32.380  27.775  23.562  1.00  0.00     0.067 C 
ATOM     23  C   UNL A   1      33.683  27.120  23.153  1.00  0.00     0.067 C 
ENDBRANCH  14  18
ENDBRANCH   7  11
ENDBRANCH   4   7
ENDBRANCH   2   3
ENDBRANCH   1   2
BRANCH   1  24
ATOM     24  C   UNL A   1      38.643  20.459  25.653  1.00  0.00     0.118 C 
BRANCH  24  25
ATOM     25  N   UNL A   1      39.626  19.394  25.776  1.00  0.00    -0.352 N 
ATOM     26  C   UNL A   1      40.975  19.443  26.032  1.00  0.00     0.251 C 
ATOM     27  H   UNL A   1      39.265  18.486  25.655  1.00  0.00     0.163 HD
ATOM     28  O   UNL A   1      41.649  18.422  25.924  1.00  0.00    -0.269 OA
BRANCH  26  29
ATOM     29  C   UNL A   1      41.635  20.716  26.402  1.00  0.00     0.039 A 
ATOM     30  C   UNL A   1      41.984  21.613  25.386  1.00  0.00     0.014 A 
ATOM     31  C   UNL A   1      41.934  21.027  27.729  1.00  0.00     0.014 A 
ATOM     32  C   UNL A   1      42.547  22.851  25.711  1.00  0.00     0.010 A 
ATOM     33  C   UNL A   1      42.404  22.297  28.058  1.00  0.00     0.010 A 
ATOM     34  C   UNL A   1      42.717  23.224  27.054  1.00  0.00    -0.014 A 
BRANCH  34  35
ATOM     35  C   UNL A   1      43.215  24.574  27.431  1.00  0.00     0.031 A 
ATOM     36  C   UNL A   1      42.271  25.597  28.004  1.00  0.00     0.074 A 
ATOM     37  C   UNL A   1      44.496  24.910  27.175  1.00  0.00     0.049 A 
ATOM     38  N   UNL A   1      42.487  26.858  28.281  1.00  0.00    -0.248 NA
ATOM     39  C   UNL A   1      40.893  25.153  28.268  1.00  0.00     0.031 C 
ATOM     40  C   UNL A   1      45.498  24.032  26.568  1.00  0.00     0.029 A 
ATOM     41  N   UNL A   1      45.171  26.089  27.376  1.00  0.00    -0.354 N 
ATOM     42  C   UNL A   1      41.269  27.363  28.720  1.00  0.00     0.074 A 
ATOM     43  C   UNL A   1      40.308  26.285  28.635  1.00  0.00     0.031 C 
ATOM     44  C   UNL A   1      46.659  24.697  26.458  1.00  0.00     0.029 A 
ATOM     45  C   UNL A   1      46.476  26.059  26.949  1.00  0.00     0.049 A 
ATOM     46  H   UNL A   1      44.757  26.883  27.787  1.00  0.00     0.167 HD
ATOM     47  C   UNL A   1      40.983  28.606  29.172  1.00  0.00     0.037 A 
ATOM     48  C   UNL A   1      47.416  27.023  26.940  1.00  0.00     0.037 A 
ATOM     49  C   UNL A   1      41.951  29.662  29.312  1.00  0.00     0.049 A 
ATOM     50  C   UNL A   1      47.079  28.385  27.483  1.00  0.00     0.074 A 
ATOM     51  C   UNL A   1      41.777  30.925  29.851  1.00  0.00     0.029 A 
ATOM     52  N   UNL A   1      43.277  29.574  28.916  1.00  0.00    -0.354 N 
ATOM     53  N   UNL A   1      45.943  28.824  27.967  1.00  0.00    -0.248 NA
ATOM     54  C   UNL A   1      48.156  29.386  27.482  1.00  0.00     0.031 C 
ATOM     55  C   UNL A   1      42.988  31.616  29.745  1.00  0.00     0.029 A 
ATOM     56  C   UNL A   1      43.927  30.769  29.180  1.00  0.00     0.049 A 
ATOM     57  H   UNL A   1      43.694  28.782  28.509  1.00  0.00     0.167 HD
ATOM     58  C   UNL A   1      46.175  30.137  28.354  1.00  0.00     0.074 A 
ATOM     59  C   UNL A   1      47.564  30.420  28.063  1.00  0.00     0.031 C 
ATOM     60  C   UNL A   1      45.313  31.030  28.898  1.00  0.00     0.037 A 
BRANCH  47  61
ATOM     61  C   UNL A   1      39.566  28.903  29.567  1.00  0.00     0.064 A 
ATOM     62  C   UNL A   1      39.109  28.690  30.876  1.00  0.00     0.173 A 
ATOM     63  C   UNL A   1      38.677  29.473  28.644  1.00  0.00     0.173 A 
ATOM     64  F   UNL A   1      39.918  28.139  31.792  1.00  0.00    -0.203 F 
ATOM     65  C   UNL A   1      37.807  29.023  31.241  1.00  0.00     0.198 A 
ATOM     66  C   UNL A   1      37.384  29.828  29.020  1.00  0.00     0.198 A 
ATOM     67  F   UNL A   1      39.067  29.701  27.380  1.00  0.00    -0.203 F 
ATOM     68  F   UNL A   1      37.381  28.781  32.489  1.00  0.00    -0.200 F 
ATOM     69  C   UNL A   1      36.950  29.600  30.317  1.00  0.00     0.200 A 
ATOM     70  F   UNL A   1      36.562  30.399  28.129  1.00  0.00    -0.200 F 
ATOM     71  F   UNL A   1      35.703  29.935  30.675  1.00  0.00    -0.200 F 
ENDBRANCH  47  61
BRANCH  48  72
ATOM     72  C   UNL A   1      48.774  26.739  26.407  1.00  0.00     0.064 A 
ATOM     73  C   UNL A   1      49.094  27.009  25.068  1.00  0.00     0.173 A 
ATOM     74  C   UNL A   1      49.770  26.170  27.212  1.00  0.00     0.173 A 
ATOM     75  F   UNL A   1      48.168  27.534  24.252  1.00  0.00    -0.203 F 
ATOM     76  C   UNL A   1      50.348  26.693  24.549  1.00  0.00     0.198 A 
ATOM     77  C   UNL A   1      51.034  25.882  26.701  1.00  0.00     0.198 A 
ATOM     78  F   UNL A   1      49.519  25.898  28.501  1.00  0.00    -0.203 F 
ATOM     79  F   UNL A   1      50.608  26.910  23.253  1.00  0.00    -0.200 F 
ATOM     80  C   UNL A   1      51.318  26.133  25.366  1.00  0.00     0.200 A 
ATOM     81  F   UNL A   1      51.973  25.353  27.497  1.00  0.00    -0.200 F 
ATOM     82  F   UNL A   1      52.523  25.827  24.866  1.00  0.00    -0.200 F 
ENDBRANCH  48  72
BRANCH  60  83
ATOM     83  C   UNL A   1      45.854  32.385  29.247  1.00  0.00     0.064 A 
ATOM     84  C   UNL A   1      45.783  33.458  28.347  1.00  0.00     0.173 A 
ATOM     85  C   UNL A   1      46.409  32.622  30.513  1.00  0.00     0.173 A 
ATOM     86  F   UNL A   1      45.274  33.275  27.118  1.00  0.00    -0.203 F 
ATOM     87  C   UNL A   1      46.269  34.715  28.694  1.00  0.00     0.198 A 
ATOM     88  C   UNL A   1      46.868  33.888  30.867  1.00  0.00     0.198 A 
ATOM     89  F   UNL A   1      46.494  31.630  31.411  1.00  0.00    -0.203 F 
ATOM     90  F   UNL A   1      46.230  35.716  27.803  1.00  0.00    -0.200 F 
ATOM     91  C   UNL A   1      46.803  34.931  29.955  1.00  0.00     0.200 A 
ATOM     92  F   UNL A   1      47.372  34.098  32.090  1.00  0.00    -0.200 F 
ATOM     93  F   UNL A   1      47.262  36.144  30.291  1.00  0.00    -0.200 F 
ENDBRANCH  60  83
ENDBRANCH  34  35
ENDBRANCH  26  29
ENDBRANCH  24  25
ENDBRANCH   1  24
TORSDOF 13
ENDMDL
