MODEL 1
REMARK VINA RESULT:     -12.1      0.000      0.000
REMARK SMILES O=C(COc1ncc(C(F)(F)F)cc1Cl)NCCCNC(=O)c1ccc(-c2c3nc(c(-c4c(F)c(F)c(F)c(F)c4F)c4ccc([nH]4)c(-c4c(F)c(F)c(F)c(F)c4F)c4nc(c(-c5c(F)c(F)c(F)c(F)c5F)c5ccc2[nH]5)C=C4)C=C3)cc1
REMARK SMILES IDX 17 1 16 2 1 3 2 4 3 6 4 7 5 8 6 9 14 10 7 11 13 12 15 13
REMARK SMILES IDX 8 14 9 15 10 16 11 17 12 18 18 19 19 20 20 21 21 22 22 24
REMARK SMILES IDX 23 25 24 26 85 27 25 28 84 29 26 30 27 31 28 32 78 33 29 34
REMARK SMILES IDX 83 35 77 36 79 37 30 38 82 39 76 40 75 41 31 43 63 44 43 45
REMARK SMILES IDX 62 46 44 47 47 48 61 49 80 50 45 51 46 52 60 54 81 55 48 56
REMARK SMILES IDX 32 57 33 58 41 59 34 60 35 61 39 62 42 63 36 64 37 65 40 66
REMARK SMILES IDX 38 67 64 68 65 69 73 70 66 71 67 72 71 73 74 74 68 75 69 76
REMARK SMILES IDX 72 77 70 78 49 79 50 80 58 81 51 82 52 83 56 84 59 85 53 86
REMARK SMILES IDX 54 87 57 88 55 89
REMARK H PARENT 16 5 20 23 79 42 47 53
REMARK Flexibility Score: inf
ROOT
ATOM      1  C   UNL A   1      32.205  30.163  26.808  1.00  0.00     0.117 C 
ENDROOT
BRANCH   1   2
ATOM      2  N   UNL A   1      32.881  29.793  25.585  1.00  0.00    -0.353 N 
ATOM      3  O   UNL A   1      33.970  27.921  26.371  1.00  0.00    -0.271 OA
ATOM      4  C   UNL A   1      33.556  28.596  25.435  1.00  0.00     0.258 C 
ATOM      5  H   UNL A   1      32.858  30.421  24.826  1.00  0.00     0.163 HD
BRANCH   4   6
ATOM      6  C   UNL A   1      33.718  28.178  23.972  1.00  0.00     0.331 C 
BRANCH   6   7
ATOM      7  O   UNL A   1      32.834  27.082  23.711  1.00  0.00    -0.467 OA
BRANCH   7   8
ATOM      8  C   UNL A   1      31.584  27.501  23.341  1.00  0.00     0.233 A 
ATOM      9  N   UNL A   1      31.564  28.720  22.756  1.00  0.00    -0.220 NA
ATOM     10  C   UNL A   1      30.427  26.824  23.729  1.00  0.00     0.103 A 
ATOM     11  C   UNL A   1      30.351  29.293  22.564  1.00  0.00     0.128 A 
ATOM     12  C   UNL A   1      29.197  27.435  23.505  1.00  0.00     0.041 A 
ATOM     13  Cl  UNL A   1      30.410  25.302  24.520  1.00  0.00    -0.078 Cl
ATOM     14  C   UNL A   1      29.147  28.707  22.930  1.00  0.00     0.076 A 
BRANCH  14  15
ATOM     15  C   UNL A   1      27.857  29.442  22.751  1.00  0.00     0.417 C 
ATOM     16  F   UNL A   1      27.784  30.554  23.530  1.00  0.00    -0.166 F 
ATOM     17  F   UNL A   1      27.668  29.861  21.472  1.00  0.00    -0.166 F 
ATOM     18  F   UNL A   1      26.764  28.693  23.066  1.00  0.00    -0.166 F 
ENDBRANCH  14  15
ENDBRANCH   7   8
ENDBRANCH   6   7
ENDBRANCH   4   6
ENDBRANCH   1   2
BRANCH   1  19
ATOM     19  C   UNL A   1      31.804  31.623  26.872  1.00  0.00     0.042 C 
BRANCH  19  20
ATOM     20  C   UNL A   1      32.929  32.569  27.267  1.00  0.00     0.118 C 
BRANCH  20  21
ATOM     21  N   UNL A   1      32.488  33.920  27.600  1.00  0.00    -0.352 N 
ATOM     22  C   UNL A   1      32.988  34.823  28.509  1.00  0.00     0.251 C 
ATOM     23  H   UNL A   1      31.706  34.236  27.091  1.00  0.00     0.163 HD
ATOM     24  O   UNL A   1      32.416  35.893  28.692  1.00  0.00    -0.269 OA
BRANCH  22  25
ATOM     25  C   UNL A   1      34.186  34.488  29.306  1.00  0.00     0.039 A 
ATOM     26  C   UNL A   1      34.017  33.969  30.593  1.00  0.00     0.014 A 
ATOM     27  C   UNL A   1      35.469  34.642  28.777  1.00  0.00     0.014 A 
ATOM     28  C   UNL A   1      35.124  33.493  31.299  1.00  0.00     0.010 A 
ATOM     29  C   UNL A   1      36.557  34.085  29.440  1.00  0.00     0.010 A 
ATOM     30  C   UNL A   1      36.394  33.489  30.700  1.00  0.00    -0.014 A 
BRANCH  30  31
ATOM     31  C   UNL A   1      37.563  32.840  31.348  1.00  0.00     0.031 A 
ATOM     32  C   UNL A   1      38.250  31.684  30.679  1.00  0.00     0.074 A 
ATOM     33  C   UNL A   1      37.935  33.222  32.585  1.00  0.00     0.049 A 
ATOM     34  N   UNL A   1      39.185  30.895  31.144  1.00  0.00    -0.248 NA
ATOM     35  C   UNL A   1      37.801  31.349  29.318  1.00  0.00     0.031 C 
ATOM     36  C   UNL A   1      37.315  34.296  33.364  1.00  0.00     0.029 A 
ATOM     37  N   UNL A   1      38.913  32.735  33.417  1.00  0.00    -0.354 N 
ATOM     38  C   UNL A   1      39.417  29.957  30.146  1.00  0.00     0.074 A 
ATOM     39  C   UNL A   1      38.494  30.247  29.070  1.00  0.00     0.031 C 
ATOM     40  C   UNL A   1      37.937  34.397  34.550  1.00  0.00     0.029 A 
ATOM     41  C   UNL A   1      38.968  33.367  34.635  1.00  0.00     0.049 A 
ATOM     42  H   UNL A   1      39.518  31.999  33.164  1.00  0.00     0.167 HD
ATOM     43  C   UNL A   1      40.329  28.957  30.123  1.00  0.00     0.037 A 
ATOM     44  C   UNL A   1      39.750  33.135  35.706  1.00  0.00     0.037 A 
ATOM     45  C   UNL A   1      41.272  28.695  31.178  1.00  0.00     0.049 A 
ATOM     46  C   UNL A   1      40.760  32.020  35.652  1.00  0.00     0.074 A 
ATOM     47  C   UNL A   1      42.287  27.756  31.214  1.00  0.00     0.029 A 
ATOM     48  N   UNL A   1      41.316  29.379  32.384  1.00  0.00    -0.354 N 
ATOM     49  N   UNL A   1      41.012  31.181  34.678  1.00  0.00    -0.248 NA
ATOM     50  C   UNL A   1      41.593  31.823  36.847  1.00  0.00     0.031 C 
ATOM     51  C   UNL A   1      42.922  27.845  32.456  1.00  0.00     0.029 A 
ATOM     52  C   UNL A   1      42.329  28.867  33.179  1.00  0.00     0.049 A 
ATOM     53  H   UNL A   1      40.717  30.119  32.637  1.00  0.00     0.167 HD
ATOM     54  C   UNL A   1      42.044  30.370  35.131  1.00  0.00     0.074 A 
ATOM     55  C   UNL A   1      42.382  30.828  36.463  1.00  0.00     0.031 C 
ATOM     56  C   UNL A   1      42.656  29.340  34.500  1.00  0.00     0.037 A 
BRANCH  43  57
ATOM     57  C   UNL A   1      40.358  28.074  28.911  1.00  0.00     0.064 A 
ATOM     58  C   UNL A   1      41.108  28.412  27.774  1.00  0.00     0.173 A 
ATOM     59  C   UNL A   1      39.655  26.861  28.897  1.00  0.00     0.173 A 
ATOM     60  F   UNL A   1      41.788  29.567  27.733  1.00  0.00    -0.203 F 
ATOM     61  C   UNL A   1      41.131  27.580  26.658  1.00  0.00     0.198 A 
ATOM     62  C   UNL A   1      39.702  26.018  27.790  1.00  0.00     0.198 A 
ATOM     63  F   UNL A   1      38.926  26.489  29.960  1.00  0.00    -0.203 F 
ATOM     64  F   UNL A   1      41.817  27.946  25.566  1.00  0.00    -0.200 F 
ATOM     65  C   UNL A   1      40.434  26.381  26.670  1.00  0.00     0.200 A 
ATOM     66  F   UNL A   1      39.037  24.855  27.806  1.00  0.00    -0.200 F 
ATOM     67  F   UNL A   1      40.461  25.579  25.597  1.00  0.00    -0.200 F 
ENDBRANCH  43  57
BRANCH  44  68
ATOM     68  C   UNL A   1      39.623  33.985  36.917  1.00  0.00     0.064 A 
ATOM     69  C   UNL A   1      38.802  33.594  37.984  1.00  0.00     0.173 A 
ATOM     70  C   UNL A   1      40.313  35.201  37.036  1.00  0.00     0.173 A 
ATOM     71  F   UNL A   1      38.105  32.450  37.905  1.00  0.00    -0.203 F 
ATOM     72  C   UNL A   1      38.662  34.393  39.116  1.00  0.00     0.198 A 
ATOM     73  C   UNL A   1      40.192  35.986  38.179  1.00  0.00     0.198 A 
ATOM     74  F   UNL A   1      41.114  35.617  36.044  1.00  0.00    -0.203 F 
ATOM     75  F   UNL A   1      37.839  34.015  40.103  1.00  0.00    -0.200 F 
ATOM     76  C   UNL A   1      39.362  35.585  39.216  1.00  0.00     0.200 A 
ATOM     77  F   UNL A   1      40.879  37.133  38.277  1.00  0.00    -0.200 F 
ATOM     78  F   UNL A   1      39.230  36.353  40.307  1.00  0.00    -0.200 F 
ENDBRANCH  44  68
BRANCH  56  79
ATOM     79  C   UNL A   1      43.772  28.653  35.228  1.00  0.00     0.064 A 
ATOM     80  C   UNL A   1      45.097  29.100  35.126  1.00  0.00     0.173 A 
ATOM     81  C   UNL A   1      43.505  27.567  36.075  1.00  0.00     0.173 A 
ATOM     82  F   UNL A   1      45.404  30.125  34.317  1.00  0.00    -0.203 F 
ATOM     83  C   UNL A   1      46.118  28.473  35.836  1.00  0.00     0.198 A 
ATOM     84  C   UNL A   1      44.525  26.960  36.802  1.00  0.00     0.198 A 
ATOM     85  F   UNL A   1      42.252  27.105  36.208  1.00  0.00    -0.203 F 
ATOM     86  F   UNL A   1      47.383  28.893  35.697  1.00  0.00    -0.200 F 
ATOM     87  C   UNL A   1      45.830  27.410  36.678  1.00  0.00     0.200 A 
ATOM     88  F   UNL A   1      44.243  25.939  37.624  1.00  0.00    -0.200 F 
ATOM     89  F   UNL A   1      46.814  26.814  37.367  1.00  0.00    -0.200 F 
ENDBRANCH  56  79
ENDBRANCH  30  31
ENDBRANCH  22  25
ENDBRANCH  20  21
ENDBRANCH  19  20
ENDBRANCH   1  19
TORSDOF 13
ENDMDL
MODEL 2
REMARK VINA RESULT:     -11.9      6.706     11.771
REMARK SMILES O=C(COc1ncc(C(F)(F)F)cc1Cl)NCCCNC(=O)c1ccc(-c2c3nc(c(-c4c(F)c(F)c(F)c(F)c4F)c4ccc([nH]4)c(-c4c(F)c(F)c(F)c(F)c4F)c4nc(c(-c5c(F)c(F)c(F)c(F)c5F)c5ccc2[nH]5)C=C4)C=C3)cc1
REMARK SMILES IDX 17 1 16 2 1 3 2 4 3 6 4 7 5 8 6 9 14 10 7 11 13 12 15 13
REMARK SMILES IDX 8 14 9 15 10 16 11 17 12 18 18 19 19 20 20 21 21 22 22 24
REMARK SMILES IDX 23 25 24 26 85 27 25 28 84 29 26 30 27 31 28 32 78 33 29 34
REMARK SMILES IDX 83 35 77 36 79 37 30 38 82 39 76 40 75 41 31 43 63 44 43 45
REMARK SMILES IDX 62 46 44 47 47 48 61 49 80 50 45 51 46 52 60 54 81 55 48 56
REMARK SMILES IDX 32 57 33 58 41 59 34 60 35 61 39 62 42 63 36 64 37 65 40 66
REMARK SMILES IDX 38 67 64 68 65 69 73 70 66 71 67 72 71 73 74 74 68 75 69 76
REMARK SMILES IDX 72 77 70 78 49 79 50 80 58 81 51 82 52 83 56 84 59 85 53 86
REMARK SMILES IDX 54 87 57 88 55 89
REMARK H PARENT 16 5 20 23 79 42 47 53
REMARK Flexibility Score: inf
ROOT
ATOM      1  C   UNL A   1      37.036  21.521  24.867  1.00  0.00     0.117 C 
ENDROOT
BRANCH   1   2
ATOM      2  N   UNL A   1      36.113  21.702  25.965  1.00  0.00    -0.353 N 
ATOM      3  O   UNL A   1      35.768  23.968  25.726  1.00  0.00    -0.271 OA
ATOM      4  C   UNL A   1      35.422  22.881  26.174  1.00  0.00     0.258 C 
ATOM      5  H   UNL A   1      35.970  20.953  26.588  1.00  0.00     0.163 HD
BRANCH   4   6
ATOM      6  C   UNL A   1      34.155  22.692  27.011  1.00  0.00     0.331 C 
BRANCH   6   7
ATOM      7  O   UNL A   1      33.021  22.756  26.140  1.00  0.00    -0.467 OA
BRANCH   7   8
ATOM      8  C   UNL A   1      32.816  21.580  25.469  1.00  0.00     0.233 A 
ATOM      9  N   UNL A   1      33.201  20.481  26.156  1.00  0.00    -0.220 NA
ATOM     10  C   UNL A   1      32.444  21.545  24.125  1.00  0.00     0.103 A 
ATOM     11  C   UNL A   1      33.235  19.308  25.477  1.00  0.00     0.128 A 
ATOM     12  C   UNL A   1      32.476  20.322  23.461  1.00  0.00     0.041 A 
ATOM     13  Cl  UNL A   1      31.998  22.921  23.203  1.00  0.00    -0.078 Cl
ATOM     14  C   UNL A   1      32.900  19.176  24.136  1.00  0.00     0.076 A 
BRANCH  14  15
ATOM     15  C   UNL A   1      33.037  17.857  23.444  1.00  0.00     0.417 C 
ATOM     16  F   UNL A   1      34.338  17.501  23.265  1.00  0.00    -0.166 F 
ATOM     17  F   UNL A   1      32.457  16.841  24.136  1.00  0.00    -0.166 F 
ATOM     18  F   UNL A   1      32.472  17.839  22.206  1.00  0.00    -0.166 F 
ENDBRANCH  14  15
ENDBRANCH   7   8
ENDBRANCH   6   7
ENDBRANCH   4   6
ENDBRANCH   1   2
BRANCH   1  19
ATOM     19  C   UNL A   1      37.907  20.287  24.992  1.00  0.00     0.042 C 
BRANCH  19  20
ATOM     20  C   UNL A   1      39.166  20.487  25.823  1.00  0.00     0.118 C 
BRANCH  20  21
ATOM     21  N   UNL A   1      40.069  19.340  25.829  1.00  0.00    -0.352 N 
ATOM     22  C   UNL A   1      41.423  19.271  26.066  1.00  0.00     0.251 C 
ATOM     23  H   UNL A   1      39.640  18.475  25.631  1.00  0.00     0.163 HD
ATOM     24  O   UNL A   1      42.015  18.203  25.946  1.00  0.00    -0.269 OA
BRANCH  22  25
ATOM     25  C   UNL A   1      42.178  20.492  26.417  1.00  0.00     0.039 A 
ATOM     26  C   UNL A   1      42.735  21.259  25.391  1.00  0.00     0.014 A 
ATOM     27  C   UNL A   1      42.301  20.905  27.745  1.00  0.00     0.014 A 
ATOM     28  C   UNL A   1      43.309  22.498  25.684  1.00  0.00     0.010 A 
ATOM     29  C   UNL A   1      42.788  22.177  28.026  1.00  0.00     0.010 A 
ATOM     30  C   UNL A   1      43.281  22.994  26.997  1.00  0.00    -0.014 A 
BRANCH  30  31
ATOM     31  C   UNL A   1      43.727  24.374  27.322  1.00  0.00     0.031 A 
ATOM     32  C   UNL A   1      42.741  25.382  27.839  1.00  0.00     0.074 A 
ATOM     33  C   UNL A   1      44.992  24.746  27.048  1.00  0.00     0.049 A 
ATOM     34  N   UNL A   1      42.898  26.666  28.041  1.00  0.00    -0.248 NA
ATOM     35  C   UNL A   1      41.388  24.887  28.139  1.00  0.00     0.031 C 
ATOM     36  C   UNL A   1      46.032  23.877  26.494  1.00  0.00     0.029 A 
ATOM     37  N   UNL A   1      45.616  25.963  27.178  1.00  0.00    -0.354 N 
ATOM     38  C   UNL A   1      41.661  27.135  28.463  1.00  0.00     0.074 A 
ATOM     39  C   UNL A   1      40.753  26.009  28.446  1.00  0.00     0.031 C 
ATOM     40  C   UNL A   1      47.165  24.581  26.348  1.00  0.00     0.029 A 
ATOM     41  C   UNL A   1      46.922  25.962  26.754  1.00  0.00     0.049 A 
ATOM     42  H   UNL A   1      45.168  26.762  27.541  1.00  0.00     0.167 HD
ATOM     43  C   UNL A   1      41.319  28.387  28.848  1.00  0.00     0.037 A 
ATOM     44  C   UNL A   1      47.819  26.964  26.685  1.00  0.00     0.037 A 
ATOM     45  C   UNL A   1      42.233  29.496  28.901  1.00  0.00     0.049 A 
ATOM     46  C   UNL A   1      47.415  28.345  27.123  1.00  0.00     0.074 A 
ATOM     47  C   UNL A   1      42.002  30.784  29.351  1.00  0.00     0.029 A 
ATOM     48  N   UNL A   1      43.558  29.448  28.492  1.00  0.00    -0.354 N 
ATOM     49  N   UNL A   1      46.260  28.762  27.580  1.00  0.00    -0.248 NA
ATOM     50  C   UNL A   1      48.441  29.394  27.036  1.00  0.00     0.031 C 
ATOM     51  C   UNL A   1      43.175  31.525  29.180  1.00  0.00     0.029 A 
ATOM     52  C   UNL A   1      44.150  30.689  28.661  1.00  0.00     0.049 A 
ATOM     53  H   UNL A   1      44.010  28.649  28.135  1.00  0.00     0.167 HD
ATOM     54  C   UNL A   1      46.424  30.113  27.855  1.00  0.00     0.074 A 
ATOM     55  C   UNL A   1      47.795  30.443  27.527  1.00  0.00     0.031 C 
ATOM     56  C   UNL A   1      45.518  30.998  28.336  1.00  0.00     0.037 A 
BRANCH  43  57
ATOM     57  C   UNL A   1      39.894  28.623  29.251  1.00  0.00     0.064 A 
ATOM     58  C   UNL A   1      39.459  28.413  30.569  1.00  0.00     0.173 A 
ATOM     59  C   UNL A   1      38.959  29.096  28.319  1.00  0.00     0.173 A 
ATOM     60  F   UNL A   1      40.311  27.949  31.494  1.00  0.00    -0.203 F 
ATOM     61  C   UNL A   1      38.135  28.642  30.931  1.00  0.00     0.198 A 
ATOM     62  C   UNL A   1      37.642  29.350  28.691  1.00  0.00     0.198 A 
ATOM     63  F   UNL A   1      39.325  29.318  27.047  1.00  0.00    -0.203 F 
ATOM     64  F   UNL A   1      37.731  28.388  32.184  1.00  0.00    -0.200 F 
ATOM     65  C   UNL A   1      37.229  29.116  29.993  1.00  0.00     0.200 A 
ATOM     66  F   UNL A   1      36.771  29.820  27.787  1.00  0.00    -0.200 F 
ATOM     67  F   UNL A   1      35.956  29.341  30.345  1.00  0.00    -0.200 F 
ENDBRANCH  43  57
BRANCH  44  68
ATOM     68  C   UNL A   1      49.196  26.695  26.195  1.00  0.00     0.064 A 
ATOM     69  C   UNL A   1      50.179  26.195  27.060  1.00  0.00     0.173 A 
ATOM     70  C   UNL A   1      49.559  26.933  24.861  1.00  0.00     0.173 A 
ATOM     71  F   UNL A   1      49.884  25.975  28.350  1.00  0.00    -0.203 F 
ATOM     72  C   UNL A   1      51.477  25.958  26.614  1.00  0.00     0.198 A 
ATOM     73  C   UNL A   1      50.850  26.671  24.410  1.00  0.00     0.198 A 
ATOM     74  F   UNL A   1      48.653  27.408  23.993  1.00  0.00    -0.203 F 
ATOM     75  F   UNL A   1      52.408  25.519  27.472  1.00  0.00    -0.200 F 
ATOM     76  C   UNL A   1      51.810  26.190  25.289  1.00  0.00     0.200 A 
ATOM     77  F   UNL A   1      51.165  26.886  23.125  1.00  0.00    -0.200 F 
ATOM     78  F   UNL A   1      53.058  25.958  24.858  1.00  0.00    -0.200 F 
ENDBRANCH  44  68
BRANCH  56  79
ATOM     79  C   UNL A   1      45.987  32.404  28.564  1.00  0.00     0.064 A 
ATOM     80  C   UNL A   1      46.582  32.791  29.772  1.00  0.00     0.173 A 
ATOM     81  C   UNL A   1      45.883  33.361  27.542  1.00  0.00     0.173 A 
ATOM     82  F   UNL A   1      46.688  31.916  30.784  1.00  0.00    -0.203 F 
ATOM     83  C   UNL A   1      47.043  34.092  29.956  1.00  0.00     0.198 A 
ATOM     84  C   UNL A   1      46.369  34.653  27.722  1.00  0.00     0.198 A 
ATOM     85  F   UNL A   1      45.326  33.037  26.366  1.00  0.00    -0.203 F 
ATOM     86  F   UNL A   1      47.575  34.452  31.133  1.00  0.00    -0.200 F 
ATOM     87  C   UNL A   1      46.944  35.019  28.930  1.00  0.00     0.200 A 
ATOM     88  F   UNL A   1      46.282  35.545  26.724  1.00  0.00    -0.200 F 
ATOM     89  F   UNL A   1      47.397  36.268  29.107  1.00  0.00    -0.200 F 
ENDBRANCH  56  79
ENDBRANCH  30  31
ENDBRANCH  22  25
ENDBRANCH  20  21
ENDBRANCH  19  20
ENDBRANCH   1  19
TORSDOF 13
ENDMDL
MODEL 3
REMARK VINA RESULT:     -11.9      6.724     11.747
REMARK SMILES O=C(COc1ncc(C(F)(F)F)cc1Cl)NCCCNC(=O)c1ccc(-c2c3nc(c(-c4c(F)c(F)c(F)c(F)c4F)c4ccc([nH]4)c(-c4c(F)c(F)c(F)c(F)c4F)c4nc(c(-c5c(F)c(F)c(F)c(F)c5F)c5ccc2[nH]5)C=C4)C=C3)cc1
REMARK SMILES IDX 17 1 16 2 1 3 2 4 3 6 4 7 5 8 6 9 14 10 7 11 13 12 15 13
REMARK SMILES IDX 8 14 9 15 10 16 11 17 12 18 18 19 19 20 20 21 21 22 22 24
REMARK SMILES IDX 23 25 24 26 85 27 25 28 84 29 26 30 27 31 28 32 78 33 29 34
REMARK SMILES IDX 83 35 77 36 79 37 30 38 82 39 76 40 75 41 31 43 63 44 43 45
REMARK SMILES IDX 62 46 44 47 47 48 61 49 80 50 45 51 46 52 60 54 81 55 48 56
REMARK SMILES IDX 32 57 33 58 41 59 34 60 35 61 39 62 42 63 36 64 37 65 40 66
REMARK SMILES IDX 38 67 64 68 65 69 73 70 66 71 67 72 71 73 74 74 68 75 69 76
REMARK SMILES IDX 72 77 70 78 49 79 50 80 58 81 51 82 52 83 56 84 59 85 53 86
REMARK SMILES IDX 54 87 57 88 55 89
REMARK H PARENT 16 5 20 23 79 42 47 53
REMARK Flexibility Score: inf
ROOT
ATOM      1  C   UNL A   1      37.028  21.519  24.870  1.00  0.00     0.117 C 
ENDROOT
BRANCH   1   2
ATOM      2  N   UNL A   1      36.111  21.710  25.972  1.00  0.00    -0.353 N 
ATOM      3  O   UNL A   1      35.748  23.969  25.704  1.00  0.00    -0.271 OA
ATOM      4  C   UNL A   1      35.413  22.886  26.169  1.00  0.00     0.258 C 
ATOM      5  H   UNL A   1      35.977  20.969  26.607  1.00  0.00     0.163 HD
BRANCH   4   6
ATOM      6  C   UNL A   1      34.153  22.700  27.017  1.00  0.00     0.331 C 
BRANCH   6   7
ATOM      7  O   UNL A   1      33.011  22.765  26.156  1.00  0.00    -0.467 OA
BRANCH   7   8
ATOM      8  C   UNL A   1      32.805  21.593  25.479  1.00  0.00     0.233 A 
ATOM      9  N   UNL A   1      33.190  20.490  26.160  1.00  0.00    -0.220 NA
ATOM     10  C   UNL A   1      32.433  21.565  24.134  1.00  0.00     0.103 A 
ATOM     11  C   UNL A   1      33.223  19.321  25.475  1.00  0.00     0.128 A 
ATOM     12  C   UNL A   1      32.464  20.346  23.465  1.00  0.00     0.041 A 
ATOM     13  Cl  UNL A   1      31.988  22.946  23.219  1.00  0.00    -0.078 Cl
ATOM     14  C   UNL A   1      32.888  19.196  24.134  1.00  0.00     0.076 A 
BRANCH  14  15
ATOM     15  C   UNL A   1      33.023  17.880  23.435  1.00  0.00     0.417 C 
ATOM     16  F   UNL A   1      32.450  16.864  24.134  1.00  0.00    -0.166 F 
ATOM     17  F   UNL A   1      32.437  17.876  22.209  1.00  0.00    -0.166 F 
ATOM     18  F   UNL A   1      34.318  17.510  23.234  1.00  0.00    -0.166 F 
ENDBRANCH  14  15
ENDBRANCH   7   8
ENDBRANCH   6   7
ENDBRANCH   4   6
ENDBRANCH   1   2
BRANCH   1  19
ATOM     19  C   UNL A   1      37.905  20.291  25.005  1.00  0.00     0.042 C 
BRANCH  19  20
ATOM     20  C   UNL A   1      39.191  20.519  25.786  1.00  0.00     0.118 C 
BRANCH  20  21
ATOM     21  N   UNL A   1      40.083  19.364  25.821  1.00  0.00    -0.352 N 
ATOM     22  C   UNL A   1      41.434  19.287  26.075  1.00  0.00     0.251 C 
ATOM     23  H   UNL A   1      39.649  18.500  25.635  1.00  0.00     0.163 HD
ATOM     24  O   UNL A   1      42.018  18.212  25.979  1.00  0.00    -0.269 OA
BRANCH  22  25
ATOM     25  C   UNL A   1      42.196  20.507  26.412  1.00  0.00     0.039 A 
ATOM     26  C   UNL A   1      42.732  21.276  25.376  1.00  0.00     0.014 A 
ATOM     27  C   UNL A   1      42.347  20.918  27.737  1.00  0.00     0.014 A 
ATOM     28  C   UNL A   1      43.312  22.515  25.660  1.00  0.00     0.010 A 
ATOM     29  C   UNL A   1      42.841  22.189  28.011  1.00  0.00     0.010 A 
ATOM     30  C   UNL A   1      43.312  23.008  26.974  1.00  0.00    -0.014 A 
BRANCH  30  31
ATOM     31  C   UNL A   1      43.765  24.387  27.292  1.00  0.00     0.031 A 
ATOM     32  C   UNL A   1      42.786  25.401  27.812  1.00  0.00     0.074 A 
ATOM     33  C   UNL A   1      45.030  24.754  27.010  1.00  0.00     0.049 A 
ATOM     34  N   UNL A   1      42.949  26.685  28.009  1.00  0.00    -0.248 NA
ATOM     35  C   UNL A   1      41.433  24.911  28.121  1.00  0.00     0.031 C 
ATOM     36  C   UNL A   1      46.063  23.879  26.452  1.00  0.00     0.029 A 
ATOM     37  N   UNL A   1      45.659  25.969  27.133  1.00  0.00    -0.354 N 
ATOM     38  C   UNL A   1      41.716  27.159  28.437  1.00  0.00     0.074 A 
ATOM     39  C   UNL A   1      40.804  26.036  28.428  1.00  0.00     0.031 C 
ATOM     40  C   UNL A   1      47.198  24.579  26.298  1.00  0.00     0.029 A 
ATOM     41  C   UNL A   1      46.963  25.961  26.702  1.00  0.00     0.049 A 
ATOM     42  H   UNL A   1      45.216  26.771  27.495  1.00  0.00     0.167 HD
ATOM     43  C   UNL A   1      41.381  28.414  28.819  1.00  0.00     0.037 A 
ATOM     44  C   UNL A   1      47.863  26.960  26.624  1.00  0.00     0.037 A 
ATOM     45  C   UNL A   1      42.300  29.520  28.864  1.00  0.00     0.049 A 
ATOM     46  C   UNL A   1      47.467  28.343  27.061  1.00  0.00     0.074 A 
ATOM     47  C   UNL A   1      42.076  30.809  29.312  1.00  0.00     0.029 A 
ATOM     48  N   UNL A   1      43.622  29.465  28.447  1.00  0.00    -0.354 N 
ATOM     49  N   UNL A   1      46.316  28.766  27.523  1.00  0.00    -0.248 NA
ATOM     50  C   UNL A   1      48.496  29.389  26.965  1.00  0.00     0.031 C 
ATOM     51  C   UNL A   1      43.251  31.546  29.132  1.00  0.00     0.029 A 
ATOM     52  C   UNL A   1      44.220  30.705  28.609  1.00  0.00     0.049 A 
ATOM     53  H   UNL A   1      44.069  28.663  28.091  1.00  0.00     0.167 HD
ATOM     54  C   UNL A   1      46.486  30.117  27.793  1.00  0.00     0.074 A 
ATOM     55  C   UNL A   1      47.857  30.442  27.456  1.00  0.00     0.031 C 
ATOM     56  C   UNL A   1      45.587  31.007  28.276  1.00  0.00     0.037 A 
BRANCH  43  57
ATOM     57  C   UNL A   1      39.959  28.656  29.230  1.00  0.00     0.064 A 
ATOM     58  C   UNL A   1      38.993  29.092  28.311  1.00  0.00     0.173 A 
ATOM     59  C   UNL A   1      39.549  28.418  30.550  1.00  0.00     0.173 A 
ATOM     60  F   UNL A   1      39.338  29.347  27.040  1.00  0.00    -0.203 F 
ATOM     61  C   UNL A   1      37.675  29.307  28.704  1.00  0.00     0.198 A 
ATOM     62  C   UNL A   1      38.224  28.607  30.934  1.00  0.00     0.198 A 
ATOM     63  F   UNL A   1      40.432  27.995  31.467  1.00  0.00    -0.203 F 
ATOM     64  F   UNL A   1      36.781  29.770  27.819  1.00  0.00    -0.200 F 
ATOM     65  C   UNL A   1      37.291  29.058  30.013  1.00  0.00     0.200 A 
ATOM     66  F   UNL A   1      37.851  28.355  32.196  1.00  0.00    -0.200 F 
ATOM     67  F   UNL A   1      36.020  29.260  30.389  1.00  0.00    -0.200 F 
ENDBRANCH  43  57
BRANCH  44  68
ATOM     68  C   UNL A   1      49.236  26.685  26.128  1.00  0.00     0.064 A 
ATOM     69  C   UNL A   1      50.220  26.178  26.987  1.00  0.00     0.173 A 
ATOM     70  C   UNL A   1      49.594  26.922  24.792  1.00  0.00     0.173 A 
ATOM     71  F   UNL A   1      49.931  25.957  28.278  1.00  0.00    -0.203 F 
ATOM     72  C   UNL A   1      51.515  25.934  26.534  1.00  0.00     0.198 A 
ATOM     73  C   UNL A   1      50.882  26.654  24.335  1.00  0.00     0.198 A 
ATOM     74  F   UNL A   1      48.687  27.404  23.930  1.00  0.00    -0.203 F 
ATOM     75  F   UNL A   1      52.448  25.489  27.387  1.00  0.00    -0.200 F 
ATOM     76  C   UNL A   1      51.843  26.166  25.208  1.00  0.00     0.200 A 
ATOM     77  F   UNL A   1      51.192  26.869  23.049  1.00  0.00    -0.200 F 
ATOM     78  F   UNL A   1      53.088  25.929  24.771  1.00  0.00    -0.200 F 
ENDBRANCH  44  68
BRANCH  56  79
ATOM     79  C   UNL A   1      46.062  32.413  28.497  1.00  0.00     0.064 A 
ATOM     80  C   UNL A   1      45.940  33.392  27.502  1.00  0.00     0.173 A 
ATOM     81  C   UNL A   1      46.599  32.793  29.736  1.00  0.00     0.173 A 
ATOM     82  F   UNL A   1      45.448  33.072  26.296  1.00  0.00    -0.203 F 
ATOM     83  C   UNL A   1      46.354  34.701  27.735  1.00  0.00     0.198 A 
ATOM     84  C   UNL A   1      46.987  34.109  29.973  1.00  0.00     0.198 A 
ATOM     85  F   UNL A   1      46.731  31.892  30.722  1.00  0.00    -0.203 F 
ATOM     86  F   UNL A   1      46.263  35.614  26.758  1.00  0.00    -0.200 F 
ATOM     87  C   UNL A   1      46.869  35.060  28.971  1.00  0.00     0.200 A 
ATOM     88  F   UNL A   1      47.475  34.456  31.173  1.00  0.00    -0.200 F 
ATOM     89  F   UNL A   1      47.259  36.323  29.195  1.00  0.00    -0.200 F 
ENDBRANCH  56  79
ENDBRANCH  30  31
ENDBRANCH  22  25
ENDBRANCH  20  21
ENDBRANCH  19  20
ENDBRANCH   1  19
TORSDOF 13
ENDMDL
