MODEL 1
REMARK VINA RESULT:     -12.8      0.000      0.000
REMARK SMILES O=C(NCCCNC(=O)[C@@H]1CCC[N@@H+](Cc2nccn2C(F)F)C1)c1ccc(-c2c3nc(c(-c4c(F)c(F)c(F)c(F)c4F)c4ccc([nH]4)c(-c4c(F)c(F)c(F)c(F)c4F)c4nc(c(-c5c(F)c(F)c(F)c(F)c5F)c5ccc2[nH]5)C=C4)C=C3)cc1
REMARK SMILES IDX 5 1 4 2 3 3 1 4 2 5 25 7 26 8 87 9 27 10 86 11 28 12 29 13
REMARK SMILES IDX 30 14 80 15 31 16 85 17 79 18 81 19 32 20 84 21 78 22 77 23
REMARK SMILES IDX 33 25 65 26 45 27 64 28 46 29 49 30 63 31 82 32 47 33 48 34
REMARK SMILES IDX 62 36 83 37 50 38 34 39 35 40 43 41 36 42 37 43 41 44 44 45
REMARK SMILES IDX 38 46 39 47 42 48 40 49 66 50 67 51 75 52 68 53 69 54 73 55
REMARK SMILES IDX 76 56 70 57 71 58 74 59 72 60 51 61 52 62 60 63 53 64 54 65
REMARK SMILES IDX 58 66 61 67 55 68 56 69 59 70 57 71 6 72 7 73 8 74 9 76
REMARK SMILES IDX 10 77 11 78 24 79 12 80 14 81 13 82 15 84 16 85 17 86 20 87
REMARK SMILES IDX 18 88 19 89 21 90 22 91 23 92
REMARK H PARENT 3 6 81 24 49 35 7 75 14 83
REMARK Flexibility Score: inf
ROOT
ATOM      1  C   UNL A   1      32.005  29.497  26.869  1.00  0.00     0.042 C 
ENDROOT
BRANCH   1   2
ATOM      2  C   UNL A   1      33.366  30.189  26.797  1.00  0.00     0.118 C 
BRANCH   2   3
ATOM      3  N   UNL A   1      33.641  31.143  27.854  1.00  0.00    -0.352 N 
ATOM      4  O   UNL A   1      34.626  32.591  29.195  1.00  0.00    -0.269 OA
ATOM      5  C   UNL A   1      34.763  31.578  28.498  1.00  0.00     0.251 C 
ATOM      6  H   UNL A   1      32.825  31.582  28.185  1.00  0.00     0.163 HD
BRANCH   5   7
ATOM      7  C   UNL A   1      36.084  30.896  28.498  1.00  0.00     0.039 A 
ATOM      8  C   UNL A   1      36.308  29.548  28.219  1.00  0.00     0.014 A 
ATOM      9  C   UNL A   1      37.178  31.689  28.896  1.00  0.00     0.014 A 
ATOM     10  C   UNL A   1      37.557  28.977  28.459  1.00  0.00     0.010 A 
ATOM     11  C   UNL A   1      38.431  31.133  29.113  1.00  0.00     0.010 A 
ATOM     12  C   UNL A   1      38.605  29.764  28.945  1.00  0.00    -0.014 A 
BRANCH  12  13
ATOM     13  C   UNL A   1      39.908  29.140  29.151  1.00  0.00     0.031 A 
ATOM     14  C   UNL A   1      40.301  28.953  30.578  1.00  0.00     0.074 A 
ATOM     15  C   UNL A   1      40.640  28.620  28.145  1.00  0.00     0.049 A 
ATOM     16  N   UNL A   1      41.359  29.383  31.187  1.00  0.00    -0.248 NA
ATOM     17  C   UNL A   1      39.346  28.262  31.459  1.00  0.00     0.031 C 
ATOM     18  C   UNL A   1      40.255  28.454  26.742  1.00  0.00     0.029 A 
ATOM     19  N   UNL A   1      41.866  28.022  28.196  1.00  0.00    -0.354 N 
ATOM     20  C   UNL A   1      41.285  28.887  32.490  1.00  0.00     0.074 A 
ATOM     21  C   UNL A   1      39.971  28.319  32.635  1.00  0.00     0.031 C 
ATOM     22  C   UNL A   1      41.122  27.610  26.136  1.00  0.00     0.029 A 
ATOM     23  C   UNL A   1      42.188  27.281  27.066  1.00  0.00     0.049 A 
ATOM     24  H   UNL A   1      42.471  28.109  28.968  1.00  0.00     0.167 HD
ATOM     25  C   UNL A   1      42.389  28.795  33.282  1.00  0.00     0.037 A 
ATOM     26  C   UNL A   1      43.216  26.405  26.936  1.00  0.00     0.037 A 
ATOM     27  C   UNL A   1      43.433  29.677  32.829  1.00  0.00     0.049 A 
ATOM     28  C   UNL A   1      44.203  26.702  28.003  1.00  0.00     0.074 A 
ATOM     29  C   UNL A   1      43.555  31.043  32.665  1.00  0.00     0.029 A 
ATOM     30  N   UNL A   1      44.496  29.135  32.150  1.00  0.00    -0.354 N 
ATOM     31  N   UNL A   1      44.933  27.780  28.043  1.00  0.00    -0.248 NA
ATOM     32  C   UNL A   1      44.065  25.991  29.265  1.00  0.00     0.031 C 
ATOM     33  C   UNL A   1      44.363  31.205  31.502  1.00  0.00     0.029 A 
ATOM     34  C   UNL A   1      44.719  29.931  31.060  1.00  0.00     0.049 A 
ATOM     35  H   UNL A   1      45.002  28.329  32.402  1.00  0.00     0.167 HD
ATOM     36  C   UNL A   1      44.981  28.120  29.386  1.00  0.00     0.074 A 
ATOM     37  C   UNL A   1      44.510  26.934  30.097  1.00  0.00     0.031 C 
ATOM     38  C   UNL A   1      45.129  29.418  29.777  1.00  0.00     0.037 A 
BRANCH  25  39
ATOM     39  C   UNL A   1      42.670  27.644  34.227  1.00  0.00     0.064 A 
ATOM     40  C   UNL A   1      43.174  26.436  33.696  1.00  0.00     0.173 A 
ATOM     41  C   UNL A   1      42.157  27.558  35.539  1.00  0.00     0.173 A 
ATOM     42  F   UNL A   1      43.696  26.396  32.461  1.00  0.00    -0.203 F 
ATOM     43  C   UNL A   1      43.051  25.222  34.375  1.00  0.00     0.198 A 
ATOM     44  C   UNL A   1      42.085  26.351  36.234  1.00  0.00     0.198 A 
ATOM     45  F   UNL A   1      41.605  28.604  36.164  1.00  0.00    -0.203 F 
ATOM     46  F   UNL A   1      43.404  24.081  33.766  1.00  0.00    -0.200 F 
ATOM     47  C   UNL A   1      42.491  25.178  35.638  1.00  0.00     0.200 A 
ATOM     48  F   UNL A   1      41.532  26.329  37.455  1.00  0.00    -0.200 F 
ATOM     49  F   UNL A   1      42.297  24.007  36.257  1.00  0.00    -0.200 F 
ENDBRANCH  25  39
BRANCH  26  50
ATOM     50  C   UNL A   1      43.251  25.140  26.164  1.00  0.00     0.064 A 
ATOM     51  C   UNL A   1      44.296  24.860  25.266  1.00  0.00     0.173 A 
ATOM     52  C   UNL A   1      42.410  24.061  26.499  1.00  0.00     0.173 A 
ATOM     53  F   UNL A   1      45.174  25.818  24.934  1.00  0.00    -0.203 F 
ATOM     54  C   UNL A   1      44.497  23.574  24.753  1.00  0.00     0.198 A 
ATOM     55  C   UNL A   1      42.607  22.781  25.980  1.00  0.00     0.198 A 
ATOM     56  F   UNL A   1      41.441  24.204  27.414  1.00  0.00    -0.203 F 
ATOM     57  F   UNL A   1      45.542  23.330  23.948  1.00  0.00    -0.200 F 
ATOM     58  C   UNL A   1      43.659  22.534  25.117  1.00  0.00     0.200 A 
ATOM     59  F   UNL A   1      41.811  21.776  26.373  1.00  0.00    -0.200 F 
ATOM     60  F   UNL A   1      43.886  21.290  24.674  1.00  0.00    -0.200 F 
ENDBRANCH  26  50
BRANCH  38  61
ATOM     61  C   UNL A   1      45.500  30.426  28.730  1.00  0.00     0.064 A 
ATOM     62  C   UNL A   1      44.569  31.062  27.891  1.00  0.00     0.173 A 
ATOM     63  C   UNL A   1      46.829  30.865  28.669  1.00  0.00     0.173 A 
ATOM     64  F   UNL A   1      43.264  30.774  27.964  1.00  0.00    -0.203 F 
ATOM     65  C   UNL A   1      44.963  32.058  26.999  1.00  0.00     0.198 A 
ATOM     66  C   UNL A   1      47.213  31.886  27.804  1.00  0.00     0.198 A 
ATOM     67  F   UNL A   1      47.750  30.334  29.489  1.00  0.00    -0.203 F 
ATOM     68  F   UNL A   1      44.057  32.642  26.199  1.00  0.00    -0.200 F 
ATOM     69  C   UNL A   1      46.283  32.473  26.962  1.00  0.00     0.200 A 
ATOM     70  F   UNL A   1      48.481  32.320  27.808  1.00  0.00    -0.200 F 
ATOM     71  F   UNL A   1      46.655  33.460  26.135  1.00  0.00    -0.200 F 
ENDBRANCH  38  61
ENDBRANCH  12  13
ENDBRANCH   5   7
ENDBRANCH   2   3
ENDBRANCH   1   2
BRANCH   1  72
ATOM     72  C   UNL A   1      31.973  28.180  27.632  1.00  0.00     0.117 C 
BRANCH  72  73
ATOM     73  N   UNL A   1      31.478  27.064  26.857  1.00  0.00    -0.356 N 
ATOM     74  C   UNL A   1      32.063  26.140  26.057  1.00  0.00     0.228 C 
ATOM     75  H   UNL A   1      30.502  26.952  26.924  1.00  0.00     0.163 HD
ATOM     76  O   UNL A   1      31.289  25.270  25.635  1.00  0.00    -0.275 OA
BRANCH  74  77
ATOM     77  C   UNL A   1      33.515  26.215  25.558  1.00  0.00     0.133 C 
ATOM     78  C   UNL A   1      33.648  27.331  24.494  1.00  0.00     0.025 C 
ATOM     79  C   UNL A   1      34.162  24.963  24.958  1.00  0.00     0.276 C 
ATOM     80  C   UNL A   1      33.058  26.889  23.149  1.00  0.00     0.062 C 
ATOM     81  N   UNL A   1      33.538  24.521  23.700  1.00  0.00    -0.328 N 
ATOM     82  C   UNL A   1      33.651  25.561  22.671  1.00  0.00     0.262 C 
ATOM     83  H   UNL A   1      32.542  24.377  23.864  1.00  0.00     0.348 HD
BRANCH  81  84
ATOM     84  C   UNL A   1      34.073  23.213  23.264  1.00  0.00     0.339 C 
BRANCH  84  85
ATOM     85  C   UNL A   1      33.528  22.016  24.002  1.00  0.00     0.168 A 
ATOM     86  N   UNL A   1      32.254  21.653  24.008  1.00  0.00    -0.236 NA
ATOM     87  N   UNL A   1      34.264  21.153  24.784  1.00  0.00    -0.273 N 
ATOM     88  C   UNL A   1      32.153  20.602  24.875  1.00  0.00     0.131 A 
ATOM     89  C   UNL A   1      33.386  20.274  25.373  1.00  0.00     0.113 A 
BRANCH  87  90
ATOM     90  C   UNL A   1      35.696  21.125  24.987  1.00  0.00     0.450 C 
ATOM     91  F   UNL A   1      36.024  21.662  26.192  1.00  0.00    -0.185 F 
ATOM     92  F   UNL A   1      36.153  19.843  24.996  1.00  0.00    -0.185 F 
ENDBRANCH  87  90
ENDBRANCH  84  85
ENDBRANCH  81  84
ENDBRANCH  74  77
ENDBRANCH  72  73
ENDBRANCH   1  72
TORSDOF 13
ENDMDL
MODEL 2
REMARK VINA RESULT:     -12.6      3.135      8.475
REMARK SMILES O=C(NCCCNC(=O)[C@@H]1CCC[N@@H+](Cc2nccn2C(F)F)C1)c1ccc(-c2c3nc(c(-c4c(F)c(F)c(F)c(F)c4F)c4ccc([nH]4)c(-c4c(F)c(F)c(F)c(F)c4F)c4nc(c(-c5c(F)c(F)c(F)c(F)c5F)c5ccc2[nH]5)C=C4)C=C3)cc1
REMARK SMILES IDX 5 1 4 2 3 3 1 4 2 5 25 7 26 8 87 9 27 10 86 11 28 12 29 13
REMARK SMILES IDX 30 14 80 15 31 16 85 17 79 18 81 19 32 20 84 21 78 22 77 23
REMARK SMILES IDX 33 25 65 26 45 27 64 28 46 29 49 30 63 31 82 32 47 33 48 34
REMARK SMILES IDX 62 36 83 37 50 38 34 39 35 40 43 41 36 42 37 43 41 44 44 45
REMARK SMILES IDX 38 46 39 47 42 48 40 49 66 50 67 51 75 52 68 53 69 54 73 55
REMARK SMILES IDX 76 56 70 57 71 58 74 59 72 60 51 61 52 62 60 63 53 64 54 65
REMARK SMILES IDX 58 66 61 67 55 68 56 69 59 70 57 71 6 72 7 73 8 74 9 76
REMARK SMILES IDX 10 77 11 78 24 79 12 80 14 81 13 82 15 84 16 85 17 86 20 87
REMARK SMILES IDX 18 88 19 89 21 90 22 91 23 92
REMARK H PARENT 3 6 81 24 49 35 7 75 14 83
REMARK Flexibility Score: inf
ROOT
ATOM      1  C   UNL A   1      36.667  21.001  24.636  1.00  0.00     0.042 C 
ENDROOT
BRANCH   1   2
ATOM      2  C   UNL A   1      37.512  21.715  25.691  1.00  0.00     0.118 C 
BRANCH   2   3
ATOM      3  N   UNL A   1      38.914  21.345  25.728  1.00  0.00    -0.352 N 
ATOM      4  O   UNL A   1      41.016  21.072  26.339  1.00  0.00    -0.269 OA
ATOM      5  C   UNL A   1      40.020  21.805  26.381  1.00  0.00     0.251 C 
ATOM      6  H   UNL A   1      39.115  20.580  25.142  1.00  0.00     0.163 HD
BRANCH   5   7
ATOM      7  C   UNL A   1      40.146  23.126  27.053  1.00  0.00     0.039 A 
ATOM      8  C   UNL A   1      39.320  24.230  26.846  1.00  0.00     0.014 A 
ATOM      9  C   UNL A   1      41.255  23.270  27.908  1.00  0.00     0.014 A 
ATOM     10  C   UNL A   1      39.664  25.475  27.369  1.00  0.00     0.010 A 
ATOM     11  C   UNL A   1      41.591  24.502  28.453  1.00  0.00     0.010 A 
ATOM     12  C   UNL A   1      40.822  25.615  28.137  1.00  0.00    -0.014 A 
BRANCH  12  13
ATOM     13  C   UNL A   1      41.132  26.927  28.698  1.00  0.00     0.031 A 
ATOM     14  C   UNL A   1      42.351  27.581  28.139  1.00  0.00     0.074 A 
ATOM     15  C   UNL A   1      40.304  27.581  29.538  1.00  0.00     0.049 A 
ATOM     16  N   UNL A   1      43.399  28.008  28.766  1.00  0.00    -0.248 NA
ATOM     17  C   UNL A   1      42.443  27.703  26.674  1.00  0.00     0.031 C 
ATOM     18  C   UNL A   1      38.945  27.208  29.936  1.00  0.00     0.029 A 
ATOM     19  N   UNL A   1      40.474  28.796  30.136  1.00  0.00    -0.354 N 
ATOM     20  C   UNL A   1      44.218  28.594  27.800  1.00  0.00     0.074 A 
ATOM     21  C   UNL A   1      43.643  28.263  26.524  1.00  0.00     0.031 C 
ATOM     22  C   UNL A   1      38.342  28.270  30.518  1.00  0.00     0.029 A 
ATOM     23  C   UNL A   1      39.307  29.348  30.649  1.00  0.00     0.049 A 
ATOM     24  H   UNL A   1      41.349  29.242  30.200  1.00  0.00     0.167 HD
ATOM     25  C   UNL A   1      45.192  29.485  28.136  1.00  0.00     0.037 A 
ATOM     26  C   UNL A   1      39.133  30.623  31.080  1.00  0.00     0.037 A 
ATOM     27  C   UNL A   1      45.570  29.352  29.519  1.00  0.00     0.049 A 
ATOM     28  C   UNL A   1      40.474  31.195  31.354  1.00  0.00     0.074 A 
ATOM     29  C   UNL A   1      46.106  28.341  30.292  1.00  0.00     0.029 A 
ATOM     30  N   UNL A   1      45.110  30.286  30.414  1.00  0.00    -0.354 N 
ATOM     31  N   UNL A   1      41.245  30.815  32.332  1.00  0.00    -0.248 NA
ATOM     32  C   UNL A   1      41.139  31.902  30.269  1.00  0.00     0.031 C 
ATOM     33  C   UNL A   1      45.488  28.484  31.569  1.00  0.00     0.029 A 
ATOM     34  C   UNL A   1      44.653  29.599  31.505  1.00  0.00     0.049 A 
ATOM     35  H   UNL A   1      45.111  31.262  30.293  1.00  0.00     0.167 HD
ATOM     36  C   UNL A   1      42.524  30.837  31.798  1.00  0.00     0.074 A 
ATOM     37  C   UNL A   1      42.407  31.602  30.559  1.00  0.00     0.031 C 
ATOM     38  C   UNL A   1      43.494  29.999  32.264  1.00  0.00     0.037 A 
BRANCH  25  39
ATOM     39  C   UNL A   1      45.531  30.724  27.332  1.00  0.00     0.064 A 
ATOM     40  C   UNL A   1      46.886  30.998  27.042  1.00  0.00     0.173 A 
ATOM     41  C   UNL A   1      44.643  31.804  27.135  1.00  0.00     0.173 A 
ATOM     42  F   UNL A   1      47.821  30.047  27.182  1.00  0.00    -0.203 F 
ATOM     43  C   UNL A   1      47.327  32.281  26.711  1.00  0.00     0.198 A 
ATOM     44  C   UNL A   1      45.081  33.071  26.753  1.00  0.00     0.198 A 
ATOM     45  F   UNL A   1      43.336  31.716  27.406  1.00  0.00    -0.203 F 
ATOM     46  F   UNL A   1      48.640  32.524  26.597  1.00  0.00    -0.200 F 
ATOM     47  C   UNL A   1      46.426  33.321  26.584  1.00  0.00     0.200 A 
ATOM     48  F   UNL A   1      44.192  34.068  26.642  1.00  0.00    -0.200 F 
ATOM     49  F   UNL A   1      46.852  34.568  26.348  1.00  0.00    -0.200 F 
ENDBRANCH  25  39
BRANCH  26  50
ATOM     50  C   UNL A   1      37.924  31.473  30.965  1.00  0.00     0.064 A 
ATOM     51  C   UNL A   1      37.421  31.862  29.712  1.00  0.00     0.173 A 
ATOM     52  C   UNL A   1      37.079  31.687  32.071  1.00  0.00     0.173 A 
ATOM     53  F   UNL A   1      38.139  31.647  28.600  1.00  0.00    -0.203 F 
ATOM     54  C   UNL A   1      36.141  32.414  29.574  1.00  0.00     0.198 A 
ATOM     55  C   UNL A   1      35.807  32.244  31.934  1.00  0.00     0.198 A 
ATOM     56  F   UNL A   1      37.431  31.268  33.295  1.00  0.00    -0.203 F 
ATOM     57  F   UNL A   1      35.670  32.715  28.356  1.00  0.00    -0.200 F 
ATOM     58  C   UNL A   1      35.333  32.595  30.683  1.00  0.00     0.200 A 
ATOM     59  F   UNL A   1      35.021  32.376  33.011  1.00  0.00    -0.200 F 
ATOM     60  F   UNL A   1      34.085  33.065  30.546  1.00  0.00    -0.200 F 
ENDBRANCH  26  50
BRANCH  38  61
ATOM     61  C   UNL A   1      43.219  29.247  33.532  1.00  0.00     0.064 A 
ATOM     62  C   UNL A   1      42.514  28.032  33.584  1.00  0.00     0.173 A 
ATOM     63  C   UNL A   1      43.811  29.702  34.718  1.00  0.00     0.173 A 
ATOM     64  F   UNL A   1      42.011  27.478  32.475  1.00  0.00    -0.203 F 
ATOM     65  C   UNL A   1      42.369  27.332  34.781  1.00  0.00     0.198 A 
ATOM     66  C   UNL A   1      43.696  28.982  35.903  1.00  0.00     0.198 A 
ATOM     67  F   UNL A   1      44.545  30.825  34.714  1.00  0.00    -0.203 F 
ATOM     68  F   UNL A   1      41.681  26.181  34.808  1.00  0.00    -0.200 F 
ATOM     69  C   UNL A   1      42.966  27.804  35.937  1.00  0.00     0.200 A 
ATOM     70  F   UNL A   1      44.318  29.416  37.008  1.00  0.00    -0.200 F 
ATOM     71  F   UNL A   1      42.863  27.111  37.079  1.00  0.00    -0.200 F 
ENDBRANCH  38  61
ENDBRANCH  12  13
ENDBRANCH   5   7
ENDBRANCH   2   3
ENDBRANCH   1   2
BRANCH   1  72
ATOM     72  C   UNL A   1      35.349  20.420  25.128  1.00  0.00     0.117 C 
BRANCH  72  73
ATOM     73  N   UNL A   1      34.724  21.189  26.181  1.00  0.00    -0.356 N 
ATOM     74  C   UNL A   1      33.814  22.193  26.199  1.00  0.00     0.228 C 
ATOM     75  H   UNL A   1      35.026  20.927  27.080  1.00  0.00     0.163 HD
ATOM     76  O   UNL A   1      33.456  22.532  27.336  1.00  0.00    -0.275 OA
BRANCH  74  77
ATOM     77  C   UNL A   1      33.361  22.981  24.960  1.00  0.00     0.133 C 
ATOM     78  C   UNL A   1      34.549  23.790  24.389  1.00  0.00     0.025 C 
ATOM     79  C   UNL A   1      32.189  23.960  25.087  1.00  0.00     0.276 C 
ATOM     80  C   UNL A   1      34.841  25.029  25.245  1.00  0.00     0.062 C 
ATOM     81  N   UNL A   1      32.470  25.107  25.964  1.00  0.00    -0.328 N 
ATOM     82  C   UNL A   1      33.594  25.895  25.444  1.00  0.00     0.262 C 
ATOM     83  H   UNL A   1      32.755  24.755  26.878  1.00  0.00     0.348 HD
BRANCH  81  84
ATOM     84  C   UNL A   1      31.255  25.915  26.199  1.00  0.00     0.339 C 
BRANCH  84  85
ATOM     85  C   UNL A   1      31.180  27.207  25.424  1.00  0.00     0.168 A 
ATOM     86  N   UNL A   1      30.820  27.301  24.153  1.00  0.00    -0.236 NA
ATOM     87  N   UNL A   1      31.496  28.455  25.913  1.00  0.00    -0.273 N 
ATOM     88  C   UNL A   1      30.993  28.608  23.794  1.00  0.00     0.131 A 
ATOM     89  C   UNL A   1      31.415  29.345  24.868  1.00  0.00     0.113 A 
BRANCH  87  90
ATOM     90  C   UNL A   1      31.853  28.825  27.265  1.00  0.00     0.450 C 
ATOM     91  F   UNL A   1      30.949  28.338  28.155  1.00  0.00    -0.185 F 
ATOM     92  F   UNL A   1      33.058  28.292  27.605  1.00  0.00    -0.185 F 
ENDBRANCH  87  90
ENDBRANCH  84  85
ENDBRANCH  81  84
ENDBRANCH  74  77
ENDBRANCH  72  73
ENDBRANCH   1  72
TORSDOF 13
ENDMDL
MODEL 3
REMARK VINA RESULT:     -12.6      1.647      2.064
REMARK SMILES O=C(NCCCNC(=O)[C@@H]1CCC[N@@H+](Cc2nccn2C(F)F)C1)c1ccc(-c2c3nc(c(-c4c(F)c(F)c(F)c(F)c4F)c4ccc([nH]4)c(-c4c(F)c(F)c(F)c(F)c4F)c4nc(c(-c5c(F)c(F)c(F)c(F)c5F)c5ccc2[nH]5)C=C4)C=C3)cc1
REMARK SMILES IDX 5 1 4 2 3 3 1 4 2 5 25 7 26 8 87 9 27 10 86 11 28 12 29 13
REMARK SMILES IDX 30 14 80 15 31 16 85 17 79 18 81 19 32 20 84 21 78 22 77 23
REMARK SMILES IDX 33 25 65 26 45 27 64 28 46 29 49 30 63 31 82 32 47 33 48 34
REMARK SMILES IDX 62 36 83 37 50 38 34 39 35 40 43 41 36 42 37 43 41 44 44 45
REMARK SMILES IDX 38 46 39 47 42 48 40 49 66 50 67 51 75 52 68 53 69 54 73 55
REMARK SMILES IDX 76 56 70 57 71 58 74 59 72 60 51 61 52 62 60 63 53 64 54 65
REMARK SMILES IDX 58 66 61 67 55 68 56 69 59 70 57 71 6 72 7 73 8 74 9 76
REMARK SMILES IDX 10 77 11 78 24 79 12 80 14 81 13 82 15 84 16 85 17 86 20 87
REMARK SMILES IDX 18 88 19 89 21 90 22 91 23 92
REMARK H PARENT 3 6 81 24 49 35 7 75 14 83
REMARK Flexibility Score: inf
ROOT
ATOM      1  C   UNL A   1      34.509  30.555  27.424  1.00  0.00     0.042 C 
ENDROOT
BRANCH   1   2
ATOM      2  C   UNL A   1      34.619  31.966  28.000  1.00  0.00     0.118 C 
BRANCH   2   3
ATOM      3  N   UNL A   1      34.347  32.087  29.419  1.00  0.00    -0.352 N 
ATOM      4  O   UNL A   1      34.552  32.375  31.597  1.00  0.00    -0.269 OA
ATOM      5  C   UNL A   1      35.084  31.958  30.561  1.00  0.00     0.251 C 
ATOM      6  H   UNL A   1      33.408  32.316  29.603  1.00  0.00     0.163 HD
BRANCH   5   7
ATOM      7  C   UNL A   1      36.411  31.294  30.668  1.00  0.00     0.039 A 
ATOM      8  C   UNL A   1      37.633  31.937  30.857  1.00  0.00     0.014 A 
ATOM      9  C   UNL A   1      36.409  29.898  30.479  1.00  0.00     0.014 A 
ATOM     10  C   UNL A   1      38.828  31.230  30.727  1.00  0.00     0.010 A 
ATOM     11  C   UNL A   1      37.594  29.183  30.373  1.00  0.00     0.010 A 
ATOM     12  C   UNL A   1      38.805  29.862  30.444  1.00  0.00    -0.014 A 
BRANCH  12  13
ATOM     13  C   UNL A   1      40.074  29.148  30.351  1.00  0.00     0.031 A 
ATOM     14  C   UNL A   1      40.794  28.966  31.645  1.00  0.00     0.074 A 
ATOM     15  C   UNL A   1      40.499  28.549  29.219  1.00  0.00     0.049 A 
ATOM     16  N   UNL A   1      41.996  29.329  31.959  1.00  0.00    -0.248 NA
ATOM     17  C   UNL A   1      40.042  28.370  32.761  1.00  0.00     0.031 C 
ATOM     18  C   UNL A   1      39.768  28.380  27.961  1.00  0.00     0.029 A 
ATOM     19  N   UNL A   1      41.656  27.863  28.994  1.00  0.00    -0.354 N 
ATOM     20  C   UNL A   1      42.213  28.871  33.259  1.00  0.00     0.074 A 
ATOM     21  C   UNL A   1      40.940  28.407  33.745  1.00  0.00     0.031 C 
ATOM     22  C   UNL A   1      40.400  27.459  27.198  1.00  0.00     0.029 A 
ATOM     23  C   UNL A   1      41.639  27.073  27.852  1.00  0.00     0.049 A 
ATOM     24  H   UNL A   1      42.437  27.923  29.590  1.00  0.00     0.167 HD
ATOM     25  C   UNL A   1      43.470  28.717  33.760  1.00  0.00     0.037 A 
ATOM     26  C   UNL A   1      42.542  26.120  27.510  1.00  0.00     0.037 A 
ATOM     27  C   UNL A   1      44.426  29.506  33.030  1.00  0.00     0.049 A 
ATOM     28  C   UNL A   1      43.779  26.367  28.290  1.00  0.00     0.074 A 
ATOM     29  C   UNL A   1      44.595  30.855  32.784  1.00  0.00     0.029 A 
ATOM     30  N   UNL A   1      45.250  28.870  32.135  1.00  0.00    -0.354 N 
ATOM     31  N   UNL A   1      44.568  27.388  28.105  1.00  0.00    -0.248 NA
ATOM     32  C   UNL A   1      43.911  25.698  29.575  1.00  0.00     0.031 C 
ATOM     33  C   UNL A   1      45.099  30.928  31.452  1.00  0.00     0.029 A 
ATOM     34  C   UNL A   1      45.249  29.621  30.990  1.00  0.00     0.049 A 
ATOM     35  H   UNL A   1      45.747  28.034  32.288  1.00  0.00     0.167 HD
ATOM     36  C   UNL A   1      44.968  27.755  29.380  1.00  0.00     0.074 A 
ATOM     37  C   UNL A   1      44.609  26.626  30.234  1.00  0.00     0.031 C 
ATOM     38  C   UNL A   1      45.295  29.048  29.668  1.00  0.00     0.037 A 
BRANCH  25  39
ATOM     39  C   UNL A   1      43.898  27.570  34.655  1.00  0.00     0.064 A 
ATOM     40  C   UNL A   1      43.690  26.246  34.209  1.00  0.00     0.173 A 
ATOM     41  C   UNL A   1      44.176  27.706  36.032  1.00  0.00     0.173 A 
ATOM     42  F   UNL A   1      43.428  25.991  32.919  1.00  0.00    -0.203 F 
ATOM     43  C   UNL A   1      43.636  25.168  35.096  1.00  0.00     0.198 A 
ATOM     44  C   UNL A   1      44.173  26.619  36.905  1.00  0.00     0.198 A 
ATOM     45  F   UNL A   1      44.353  28.897  36.614  1.00  0.00    -0.203 F 
ATOM     46  F   UNL A   1      43.283  23.956  34.646  1.00  0.00    -0.200 F 
ATOM     47  C   UNL A   1      43.860  25.358  36.446  1.00  0.00     0.200 A 
ATOM     48  F   UNL A   1      44.386  26.825  38.212  1.00  0.00    -0.200 F 
ATOM     49  F   UNL A   1      43.728  24.342  37.309  1.00  0.00    -0.200 F 
ENDBRANCH  25  39
BRANCH  26  50
ATOM     50  C   UNL A   1      42.301  24.838  26.806  1.00  0.00     0.064 A 
ATOM     51  C   UNL A   1      43.079  24.453  25.701  1.00  0.00     0.173 A 
ATOM     52  C   UNL A   1      41.489  23.838  27.376  1.00  0.00     0.173 A 
ATOM     53  F   UNL A   1      43.918  25.329  25.130  1.00  0.00    -0.203 F 
ATOM     54  C   UNL A   1      43.058  23.142  25.209  1.00  0.00     0.198 A 
ATOM     55  C   UNL A   1      41.463  22.533  26.881  1.00  0.00     0.198 A 
ATOM     56  F   UNL A   1      40.778  24.080  28.487  1.00  0.00    -0.203 F 
ATOM     57  F   UNL A   1      43.861  22.796  24.192  1.00  0.00    -0.200 F 
ATOM     58  C   UNL A   1      42.258  22.182  25.805  1.00  0.00     0.200 A 
ATOM     59  F   UNL A   1      40.714  21.605  27.493  1.00  0.00    -0.200 F 
ATOM     60  F   UNL A   1      42.284  20.913  25.375  1.00  0.00    -0.200 F 
ENDBRANCH  26  50
BRANCH  38  61
ATOM     61  C   UNL A   1      45.462  29.999  28.521  1.00  0.00     0.064 A 
ATOM     62  C   UNL A   1      44.395  30.673  27.901  1.00  0.00     0.173 A 
ATOM     63  C   UNL A   1      46.761  30.348  28.129  1.00  0.00     0.173 A 
ATOM     64  F   UNL A   1      43.131  30.474  28.294  1.00  0.00    -0.203 F 
ATOM     65  C   UNL A   1      44.621  31.616  26.900  1.00  0.00     0.198 A 
ATOM     66  C   UNL A   1      46.985  31.317  27.155  1.00  0.00     0.198 A 
ATOM     67  F   UNL A   1      47.819  29.779  28.728  1.00  0.00    -0.203 F 
ATOM     68  F   UNL A   1      43.586  32.236  26.314  1.00  0.00    -0.200 F 
ATOM     69  C   UNL A   1      45.916  31.941  26.533  1.00  0.00     0.200 A 
ATOM     70  F   UNL A   1      48.240  31.665  26.839  1.00  0.00    -0.200 F 
ATOM     71  F   UNL A   1      46.136  32.878  25.600  1.00  0.00    -0.200 F 
ENDBRANCH  38  61
ENDBRANCH  12  13
ENDBRANCH   5   7
ENDBRANCH   2   3
ENDBRANCH   1   2
BRANCH   1  72
ATOM     72  C   UNL A   1      33.275  30.282  26.574  1.00  0.00     0.117 C 
BRANCH  72  73
ATOM     73  N   UNL A   1      32.274  29.475  27.234  1.00  0.00    -0.356 N 
ATOM     74  C   UNL A   1      31.960  28.156  27.207  1.00  0.00     0.228 C 
ATOM     75  H   UNL A   1      31.693  29.996  27.833  1.00  0.00     0.163 HD
ATOM     76  O   UNL A   1      31.070  27.830  28.004  1.00  0.00    -0.275 OA
BRANCH  74  77
ATOM     77  C   UNL A   1      32.511  27.151  26.183  1.00  0.00     0.133 C 
ATOM     78  C   UNL A   1      31.976  27.491  24.772  1.00  0.00     0.025 C 
ATOM     79  C   UNL A   1      32.257  25.656  26.396  1.00  0.00     0.276 C 
ATOM     80  C   UNL A   1      30.512  27.064  24.615  1.00  0.00     0.062 C 
ATOM     81  N   UNL A   1      30.837  25.280  26.304  1.00  0.00    -0.328 N 
ATOM     82  C   UNL A   1      30.303  25.590  24.973  1.00  0.00     0.262 C 
ATOM     83  H   UNL A   1      30.308  25.841  26.971  1.00  0.00     0.348 HD
BRANCH  81  84
ATOM     84  C   UNL A   1      30.627  23.870  26.699  1.00  0.00     0.339 C 
BRANCH  84  85
ATOM     85  C   UNL A   1      31.880  23.040  26.814  1.00  0.00     0.168 A 
ATOM     86  N   UNL A   1      32.480  22.739  27.956  1.00  0.00    -0.236 NA
ATOM     87  N   UNL A   1      32.585  22.502  25.760  1.00  0.00    -0.273 N 
ATOM     88  C   UNL A   1      33.632  22.079  27.629  1.00  0.00     0.131 A 
ATOM     89  C   UNL A   1      33.722  21.923  26.271  1.00  0.00     0.113 A 
BRANCH  87  90
ATOM     90  C   UNL A   1      32.244  22.511  24.354  1.00  0.00     0.450 C 
ATOM     91  F   UNL A   1      33.046  23.368  23.668  1.00  0.00    -0.185 F 
ATOM     92  F   UNL A   1      32.433  21.280  23.807  1.00  0.00    -0.185 F 
ENDBRANCH  87  90
ENDBRANCH  84  85
ENDBRANCH  81  84
ENDBRANCH  74  77
ENDBRANCH  72  73
ENDBRANCH   1  72
TORSDOF 13
ENDMDL
