MODEL 1
REMARK VINA RESULT:     -11.7      0.000      0.000
REMARK SMILES CC[C@@H]1CCCN(C(=O)c2csc(/C=C/C(=O)NCCCNC(=O)c3ccc(-c4c5nc(c(-c6c(F)c(F)c(F)c(F)c6F)c6ccc([nH]6)c(-c6c(F)c(F)c(F)c(F)c6F)c6nc(c(-c7c(F)c(F)c(F)c(F)c7F)c7ccc4[nH]7)C=C6)C=C5)cc3)c2)C1
REMARK SMILES IDX 19 1 18 2 16 3 17 4 15 6 14 7 13 8 10 9 11 10 88 11 12 12
REMARK SMILES IDX 8 13 9 14 7 15 3 16 4 17 89 18 5 19 6 20 2 21 1 22 20 23
REMARK SMILES IDX 21 24 22 25 23 26 24 28 25 29 26 30 87 31 27 32 86 33 28 34
REMARK SMILES IDX 29 35 30 36 80 37 31 38 85 39 79 40 81 41 32 42 84 43 78 44
REMARK SMILES IDX 77 45 33 47 65 48 45 49 64 50 46 51 49 52 63 53 82 54 47 55
REMARK SMILES IDX 48 56 62 58 83 59 50 60 34 61 35 62 43 63 36 64 37 65 41 66
REMARK SMILES IDX 44 67 38 68 39 69 42 70 40 71 66 72 67 73 75 74 68 75 69 76
REMARK SMILES IDX 73 77 76 78 70 79 71 80 74 81 72 82 51 83 52 84 60 85 53 86
REMARK SMILES IDX 54 87 58 88 61 89 55 90 56 91 59 92 57 93
REMARK H PARENT 18 5 22 27 81 46 49 57
REMARK Flexibility Score: inf
ROOT
ATOM      1  C   UNL A   1      31.850  30.530  26.862  1.00  0.00     0.118 C 
ENDROOT
BRANCH   1   2
ATOM      2  N   UNL A   1      33.139  30.268  27.479  1.00  0.00    -0.352 N 
ATOM      3  C   UNL A   1      34.048  29.282  27.266  1.00  0.00     0.244 C 
ATOM      4  O   UNL A   1      35.137  29.333  27.833  1.00  0.00    -0.270 OA
ATOM      5  H   UNL A   1      33.398  30.919  28.171  1.00  0.00     0.163 HD
BRANCH   3   6
ATOM      6  C   UNL A   1      33.787  28.192  26.301  1.00  0.00     0.072 C 
ATOM      7  C   UNL A   1      32.892  27.215  26.501  1.00  0.00     0.024 C 
BRANCH   7   8
ATOM      8  C   UNL A   1      32.674  26.163  25.561  1.00  0.00     0.028 A 
ATOM      9  C   UNL A   1      33.092  24.518  23.921  1.00  0.00     0.051 A 
ATOM     10  C   UNL A   1      31.723  24.428  24.058  1.00  0.00     0.079 A 
ATOM     11  C   UNL A   1      33.632  25.511  24.804  1.00  0.00     0.033 A 
ATOM     12  S   UNL A   1      31.107  25.558  25.178  1.00  0.00    -0.144 S 
BRANCH   9  13
ATOM     13  C   UNL A   1      33.886  23.672  23.039  1.00  0.00     0.254 C 
ATOM     14  O   UNL A   1      33.654  23.665  21.835  1.00  0.00    -0.269 OA
BRANCH  13  15
ATOM     15  N   UNL A   1      34.842  22.846  23.633  1.00  0.00    -0.338 N 
ATOM     16  C   UNL A   1      35.102  21.672  25.826  1.00  0.00     0.008 C 
ATOM     17  C   UNL A   1      36.626  21.781  25.641  1.00  0.00     0.007 C 
ATOM     18  C   UNL A   1      34.388  21.729  24.463  1.00  0.00     0.123 C 
ATOM     19  C   UNL A   1      37.024  22.974  24.781  1.00  0.00     0.022 C 
ATOM     20  C   UNL A   1      36.290  22.955  23.446  1.00  0.00     0.120 C 
BRANCH  16  21
ATOM     21  C   UNL A   1      34.567  22.645  26.905  1.00  0.00     0.002 C 
ATOM     22  C   UNL A   1      33.076  22.632  27.205  1.00  0.00     0.004 C 
ENDBRANCH  16  21
ENDBRANCH  13  15
ENDBRANCH   9  13
ENDBRANCH   7   8
ENDBRANCH   3   6
ENDBRANCH   1   2
BRANCH   1  23
ATOM     23  C   UNL A   1      31.509  32.019  26.882  1.00  0.00     0.042 C 
BRANCH  23  24
ATOM     24  C   UNL A   1      32.733  32.935  26.876  1.00  0.00     0.118 C 
BRANCH  24  25
ATOM     25  N   UNL A   1      32.480  34.201  27.548  1.00  0.00    -0.352 N 
ATOM     26  C   UNL A   1      33.024  34.720  28.697  1.00  0.00     0.251 C 
ATOM     27  H   UNL A   1      31.812  34.777  27.111  1.00  0.00     0.163 HD
ATOM     28  O   UNL A   1      32.529  35.728  29.196  1.00  0.00    -0.269 OA
BRANCH  26  29
ATOM     29  C   UNL A   1      34.189  34.082  29.352  1.00  0.00     0.039 A 
ATOM     30  C   UNL A   1      35.474  34.474  28.958  1.00  0.00     0.014 A 
ATOM     31  C   UNL A   1      34.035  33.058  30.290  1.00  0.00     0.014 A 
ATOM     32  C   UNL A   1      36.598  33.880  29.538  1.00  0.00     0.010 A 
ATOM     33  C   UNL A   1      35.156  32.501  30.907  1.00  0.00     0.010 A 
ATOM     34  C   UNL A   1      36.449  32.904  30.535  1.00  0.00    -0.014 A 
BRANCH  34  35
ATOM     35  C   UNL A   1      37.631  32.287  31.190  1.00  0.00     0.031 A 
ATOM     36  C   UNL A   1      38.389  31.185  30.502  1.00  0.00     0.074 A 
ATOM     37  C   UNL A   1      37.991  32.681  32.426  1.00  0.00     0.049 A 
ATOM     38  N   UNL A   1      39.381  30.457  30.949  1.00  0.00    -0.248 NA
ATOM     39  C   UNL A   1      37.964  30.845  29.136  1.00  0.00     0.031 C 
ATOM     40  C   UNL A   1      37.325  33.723  33.209  1.00  0.00     0.029 A 
ATOM     41  N   UNL A   1      39.001  32.243  33.246  1.00  0.00    -0.354 N 
ATOM     42  C   UNL A   1      39.687  29.565  29.930  1.00  0.00     0.074 A 
ATOM     43  C   UNL A   1      38.754  29.819  28.853  1.00  0.00     0.031 C 
ATOM     44  C   UNL A   1      37.949  33.850  34.391  1.00  0.00     0.029 A 
ATOM     45  C   UNL A   1      39.035  32.878  34.464  1.00  0.00     0.049 A 
ATOM     46  H   UNL A   1      39.639  31.540  32.987  1.00  0.00     0.167 HD
ATOM     47  C   UNL A   1      40.667  28.632  29.889  1.00  0.00     0.037 A 
ATOM     48  C   UNL A   1      39.846  32.688  35.522  1.00  0.00     0.037 A 
ATOM     49  C   UNL A   1      41.613  28.396  30.948  1.00  0.00     0.049 A 
ATOM     50  C   UNL A   1      40.926  31.644  35.450  1.00  0.00     0.074 A 
ATOM     51  C   UNL A   1      42.659  27.489  30.987  1.00  0.00     0.029 A 
ATOM     52  N   UNL A   1      41.634  29.081  32.153  1.00  0.00    -0.354 N 
ATOM     53  N   UNL A   1      41.222  30.828  34.468  1.00  0.00    -0.248 NA
ATOM     54  C   UNL A   1      41.788  31.497  36.631  1.00  0.00     0.031 C 
ATOM     55  C   UNL A   1      43.297  27.609  32.226  1.00  0.00     0.029 A 
ATOM     56  C   UNL A   1      42.671  28.615  32.944  1.00  0.00     0.049 A 
ATOM     57  H   UNL A   1      41.005  29.794  32.409  1.00  0.00     0.167 HD
ATOM     58  C   UNL A   1      42.317  30.094  34.900  1.00  0.00     0.074 A 
ATOM     59  C   UNL A   1      42.642  30.567  36.230  1.00  0.00     0.031 C 
ATOM     60  C   UNL A   1      42.993  29.113  34.255  1.00  0.00     0.037 A 
BRANCH  47  61
ATOM     61  C   UNL A   1      40.778  27.796  28.649  1.00  0.00     0.064 A 
ATOM     62  C   UNL A   1      40.040  26.613  28.499  1.00  0.00     0.173 A 
ATOM     63  C   UNL A   1      41.586  28.209  27.578  1.00  0.00     0.173 A 
ATOM     64  F   UNL A   1      39.263  26.171  29.500  1.00  0.00    -0.203 F 
ATOM     65  C   UNL A   1      40.119  25.864  27.329  1.00  0.00     0.198 A 
ATOM     66  C   UNL A   1      41.644  27.470  26.400  1.00  0.00     0.198 A 
ATOM     67  F   UNL A   1      42.306  29.336  27.671  1.00  0.00    -0.203 F 
ATOM     68  F   UNL A   1      39.431  24.719  27.220  1.00  0.00    -0.200 F 
ATOM     69  C   UNL A   1      40.914  26.296  26.278  1.00  0.00     0.200 A 
ATOM     70  F   UNL A   1      42.405  27.894  25.381  1.00  0.00    -0.200 F 
ATOM     71  F   UNL A   1      40.982  25.579  25.148  1.00  0.00    -0.200 F 
ENDBRANCH  47  61
BRANCH  48  72
ATOM     72  C   UNL A   1      39.680  33.517  36.744  1.00  0.00     0.064 A 
ATOM     73  C   UNL A   1      38.805  33.120  37.766  1.00  0.00     0.173 A 
ATOM     74  C   UNL A   1      40.371  34.726  36.906  1.00  0.00     0.173 A 
ATOM     75  F   UNL A   1      38.107  31.983  37.644  1.00  0.00    -0.203 F 
ATOM     76  C   UNL A   1      38.611  33.914  38.893  1.00  0.00     0.198 A 
ATOM     77  C   UNL A   1      40.194  35.506  38.047  1.00  0.00     0.198 A 
ATOM     78  F   UNL A   1      41.220  35.147  35.958  1.00  0.00    -0.203 F 
ATOM     79  F   UNL A   1      37.733  33.536  39.833  1.00  0.00    -0.200 F 
ATOM     80  C   UNL A   1      39.308  35.104  39.034  1.00  0.00     0.200 A 
ATOM     81  F   UNL A   1      40.877  36.651  38.185  1.00  0.00    -0.200 F 
ATOM     82  F   UNL A   1      39.119  35.869  40.119  1.00  0.00    -0.200 F 
ENDBRANCH  48  72
BRANCH  60  83
ATOM     83  C   UNL A   1      44.175  28.518  34.957  1.00  0.00     0.064 A 
ATOM     84  C   UNL A   1      44.050  27.384  35.774  1.00  0.00     0.173 A 
ATOM     85  C   UNL A   1      45.454  29.068  34.783  1.00  0.00     0.173 A 
ATOM     86  F   UNL A   1      42.844  26.833  35.983  1.00  0.00    -0.203 F 
ATOM     87  C   UNL A   1      45.160  26.834  36.408  1.00  0.00     0.198 A 
ATOM     88  C   UNL A   1      46.565  28.501  35.400  1.00  0.00     0.198 A 
ATOM     89  F   UNL A   1      45.624  30.149  34.009  1.00  0.00    -0.203 F 
ATOM     90  F   UNL A   1      45.013  25.775  37.215  1.00  0.00    -0.200 F 
ATOM     91  C   UNL A   1      46.417  27.390  36.215  1.00  0.00     0.200 A 
ATOM     92  F   UNL A   1      47.780  29.033  35.208  1.00  0.00    -0.200 F 
ATOM     93  F   UNL A   1      47.486  26.856  36.824  1.00  0.00    -0.200 F 
ENDBRANCH  60  83
ENDBRANCH  34  35
ENDBRANCH  26  29
ENDBRANCH  24  25
ENDBRANCH  23  24
ENDBRANCH   1  23
TORSDOF 14
ENDMDL
MODEL 2
REMARK VINA RESULT:     -11.5      5.217     10.897
REMARK SMILES CC[C@@H]1CCCN(C(=O)c2csc(/C=C/C(=O)NCCCNC(=O)c3ccc(-c4c5nc(c(-c6c(F)c(F)c(F)c(F)c6F)c6ccc([nH]6)c(-c6c(F)c(F)c(F)c(F)c6F)c6nc(c(-c7c(F)c(F)c(F)c(F)c7F)c7ccc4[nH]7)C=C6)C=C5)cc3)c2)C1
REMARK SMILES IDX 19 1 18 2 16 3 17 4 15 6 14 7 13 8 10 9 11 10 88 11 12 12
REMARK SMILES IDX 8 13 9 14 7 15 3 16 4 17 89 18 5 19 6 20 2 21 1 22 20 23
REMARK SMILES IDX 21 24 22 25 23 26 24 28 25 29 26 30 87 31 27 32 86 33 28 34
REMARK SMILES IDX 29 35 30 36 80 37 31 38 85 39 79 40 81 41 32 42 84 43 78 44
REMARK SMILES IDX 77 45 33 47 65 48 45 49 64 50 46 51 49 52 63 53 82 54 47 55
REMARK SMILES IDX 48 56 62 58 83 59 50 60 34 61 35 62 43 63 36 64 37 65 41 66
REMARK SMILES IDX 44 67 38 68 39 69 42 70 40 71 66 72 67 73 75 74 68 75 69 76
REMARK SMILES IDX 73 77 76 78 70 79 71 80 74 81 72 82 51 83 52 84 60 85 53 86
REMARK SMILES IDX 54 87 58 88 61 89 55 90 56 91 59 92 57 93
REMARK H PARENT 18 5 22 27 81 46 49 57
REMARK Flexibility Score: inf
ROOT
ATOM      1  C   UNL A   1      36.498  20.376  24.983  1.00  0.00     0.118 C 
ENDROOT
BRANCH   1   2
ATOM      2  N   UNL A   1      35.281  19.583  25.000  1.00  0.00    -0.352 N 
ATOM      3  C   UNL A   1      33.986  19.929  24.780  1.00  0.00     0.244 C 
ATOM      4  O   UNL A   1      33.128  19.051  24.732  1.00  0.00    -0.270 OA
ATOM      5  H   UNL A   1      35.419  18.630  25.206  1.00  0.00     0.163 HD
BRANCH   3   6
ATOM      6  C   UNL A   1      33.599  21.331  24.514  1.00  0.00     0.072 C 
ATOM      7  C   UNL A   1      32.674  21.693  23.615  1.00  0.00     0.024 C 
BRANCH   7   8
ATOM      8  C   UNL A   1      32.334  23.057  23.364  1.00  0.00     0.028 A 
ATOM      9  C   UNL A   1      32.557  25.360  22.902  1.00  0.00     0.051 A 
ATOM     10  C   UNL A   1      31.191  25.242  23.054  1.00  0.00     0.079 A 
ATOM     11  C   UNL A   1      33.203  24.091  23.068  1.00  0.00     0.033 A 
ATOM     12  S   UNL A   1      30.718  23.650  23.448  1.00  0.00    -0.144 S 
BRANCH   9  13
ATOM     13  C   UNL A   1      33.239  26.602  22.559  1.00  0.00     0.254 C 
ATOM     14  O   UNL A   1      34.030  26.620  21.622  1.00  0.00    -0.269 OA
BRANCH  13  15
ATOM     15  N   UNL A   1      33.002  27.709  23.375  1.00  0.00    -0.338 N 
ATOM     16  C   UNL A   1      32.552  28.100  25.803  1.00  0.00     0.008 C 
ATOM     17  C   UNL A   1      31.777  29.366  25.399  1.00  0.00     0.007 C 
ATOM     18  C   UNL A   1      33.580  27.729  24.719  1.00  0.00     0.123 C 
ATOM     19  C   UNL A   1      31.191  29.269  23.996  1.00  0.00     0.022 C 
ATOM     20  C   UNL A   1      32.268  28.912  22.978  1.00  0.00     0.120 C 
BRANCH  16  21
ATOM     21  C   UNL A   1      31.615  26.955  26.260  1.00  0.00     0.002 C 
ATOM     22  C   UNL A   1      32.226  25.583  26.502  1.00  0.00     0.004 C 
ENDBRANCH  16  21
ENDBRANCH  13  15
ENDBRANCH   9  13
ENDBRANCH   7   8
ENDBRANCH   3   6
ENDBRANCH   1   2
BRANCH   1  23
ATOM     23  C   UNL A   1      37.745  19.492  25.001  1.00  0.00     0.042 C 
BRANCH  23  24
ATOM     24  C   UNL A   1      38.925  20.099  25.758  1.00  0.00     0.118 C 
BRANCH  24  25
ATOM     25  N   UNL A   1      40.040  19.172  25.880  1.00  0.00    -0.352 N 
ATOM     26  C   UNL A   1      41.378  19.413  26.077  1.00  0.00     0.251 C 
ATOM     27  H   UNL A   1      39.798  18.221  25.809  1.00  0.00     0.163 HD
ATOM     28  O   UNL A   1      42.179  18.490  25.960  1.00  0.00    -0.269 OA
BRANCH  26  29
ATOM     29  C   UNL A   1      41.873  20.766  26.418  1.00  0.00     0.039 A 
ATOM     30  C   UNL A   1      42.155  21.656  25.375  1.00  0.00     0.014 A 
ATOM     31  C   UNL A   1      42.130  21.143  27.739  1.00  0.00     0.014 A 
ATOM     32  C   UNL A   1      42.644  22.935  25.657  1.00  0.00     0.010 A 
ATOM     33  C   UNL A   1      42.569  22.438  28.023  1.00  0.00     0.010 A 
ATOM     34  C   UNL A   1      42.833  23.345  26.985  1.00  0.00    -0.014 A 
BRANCH  34  35
ATOM     35  C   UNL A   1      43.316  24.712  27.306  1.00  0.00     0.031 A 
ATOM     36  C   UNL A   1      42.379  25.726  27.903  1.00  0.00     0.074 A 
ATOM     37  C   UNL A   1      44.584  25.060  27.011  1.00  0.00     0.049 A 
ATOM     38  N   UNL A   1      42.584  26.994  28.160  1.00  0.00    -0.248 NA
ATOM     39  C   UNL A   1      41.027  25.256  28.239  1.00  0.00     0.031 C 
ATOM     40  C   UNL A   1      45.584  24.177  26.411  1.00  0.00     0.029 A 
ATOM     41  N   UNL A   1      45.244  26.253  27.168  1.00  0.00    -0.354 N 
ATOM     42  C   UNL A   1      41.386  27.475  28.671  1.00  0.00     0.074 A 
ATOM     43  C   UNL A   1      40.447  26.373  28.657  1.00  0.00     0.031 C 
ATOM     44  C   UNL A   1      46.733  24.855  26.257  1.00  0.00     0.029 A 
ATOM     45  C   UNL A   1      46.541  26.227  26.717  1.00  0.00     0.049 A 
ATOM     46  H   UNL A   1      44.827  27.051  27.564  1.00  0.00     0.167 HD
ATOM     47  C   UNL A   1      41.100  28.718  29.127  1.00  0.00     0.037 A 
ATOM     48  C   UNL A   1      47.467  27.204  26.671  1.00  0.00     0.037 A 
ATOM     49  C   UNL A   1      42.039  29.808  29.167  1.00  0.00     0.049 A 
ATOM     50  C   UNL A   1      47.122  28.575  27.183  1.00  0.00     0.074 A 
ATOM     51  C   UNL A   1      41.848  31.097  29.636  1.00  0.00     0.029 A 
ATOM     52  N   UNL A   1      43.353  29.733  28.730  1.00  0.00    -0.354 N 
ATOM     53  N   UNL A   1      45.993  29.008  27.691  1.00  0.00    -0.248 NA
ATOM     54  C   UNL A   1      48.180  29.594  27.120  1.00  0.00     0.031 C 
ATOM     55  C   UNL A   1      43.040  31.808  29.460  1.00  0.00     0.029 A 
ATOM     56  C   UNL A   1      43.982  30.953  28.914  1.00  0.00     0.049 A 
ATOM     57  H   UNL A   1      43.776  28.931  28.346  1.00  0.00     0.167 HD
ATOM     58  C   UNL A   1      46.214  30.335  28.032  1.00  0.00     0.074 A 
ATOM     59  C   UNL A   1      47.588  30.635  27.685  1.00  0.00     0.031 C 
ATOM     60  C   UNL A   1      45.356  31.227  28.583  1.00  0.00     0.037 A 
BRANCH  47  61
ATOM     61  C   UNL A   1      39.711  28.969  29.633  1.00  0.00     0.064 A 
ATOM     62  C   UNL A   1      39.381  28.776  30.982  1.00  0.00     0.173 A 
ATOM     63  C   UNL A   1      38.716  29.462  28.776  1.00  0.00     0.173 A 
ATOM     64  F   UNL A   1      40.296  28.296  31.839  1.00  0.00    -0.203 F 
ATOM     65  C   UNL A   1      38.100  29.050  31.452  1.00  0.00     0.198 A 
ATOM     66  C   UNL A   1      37.442  29.757  29.254  1.00  0.00     0.198 A 
ATOM     67  F   UNL A   1      38.984  29.670  27.478  1.00  0.00    -0.203 F 
ATOM     68  F   UNL A   1      37.797  28.825  32.738  1.00  0.00    -0.200 F 
ATOM     69  C   UNL A   1      37.133  29.547  30.590  1.00  0.00     0.200 A 
ATOM     70  F   UNL A   1      36.512  30.247  28.421  1.00  0.00    -0.200 F 
ATOM     71  F   UNL A   1      35.903  29.819  31.045  1.00  0.00    -0.200 F 
ENDBRANCH  47  61
BRANCH  48  72
ATOM     72  C   UNL A   1      48.821  26.921  26.130  1.00  0.00     0.064 A 
ATOM     73  C   UNL A   1      49.119  27.160  24.781  1.00  0.00     0.173 A 
ATOM     74  C   UNL A   1      49.834  26.388  26.940  1.00  0.00     0.173 A 
ATOM     75  F   UNL A   1      48.175  27.648  23.964  1.00  0.00    -0.203 F 
ATOM     76  C   UNL A   1      50.373  26.854  24.257  1.00  0.00     0.198 A 
ATOM     77  C   UNL A   1      51.096  26.107  26.420  1.00  0.00     0.198 A 
ATOM     78  F   UNL A   1      49.599  26.144  28.237  1.00  0.00    -0.203 F 
ATOM     79  F   UNL A   1      50.617  27.048  22.953  1.00  0.00    -0.200 F 
ATOM     80  C   UNL A   1      51.361  26.332  25.078  1.00  0.00     0.200 A 
ATOM     81  F   UNL A   1      52.052  25.612  27.217  1.00  0.00    -0.200 F 
ATOM     82  F   UNL A   1      52.566  26.036  24.572  1.00  0.00    -0.200 F 
ENDBRANCH  48  72
BRANCH  60  83
ATOM     83  C   UNL A   1      45.887  32.595  28.884  1.00  0.00     0.064 A 
ATOM     84  C   UNL A   1      46.511  32.887  30.106  1.00  0.00     0.173 A 
ATOM     85  C   UNL A   1      45.802  33.616  27.925  1.00  0.00     0.173 A 
ATOM     86  F   UNL A   1      46.602  31.947  31.059  1.00  0.00    -0.203 F 
ATOM     87  C   UNL A   1      47.013  34.159  30.365  1.00  0.00     0.198 A 
ATOM     88  C   UNL A   1      46.325  34.880  28.179  1.00  0.00     0.198 A 
ATOM     89  F   UNL A   1      45.217  33.383  26.742  1.00  0.00    -0.203 F 
ATOM     90  F   UNL A   1      47.571  34.429  31.553  1.00  0.00    -0.200 F 
ATOM     91  C   UNL A   1      46.925  35.152  29.399  1.00  0.00     0.200 A 
ATOM     92  F   UNL A   1      46.247  35.836  27.244  1.00  0.00    -0.200 F 
ATOM     93  F   UNL A   1      47.413  36.376  29.650  1.00  0.00    -0.200 F 
ENDBRANCH  60  83
ENDBRANCH  34  35
ENDBRANCH  26  29
ENDBRANCH  24  25
ENDBRANCH  23  24
ENDBRANCH   1  23
TORSDOF 14
ENDMDL
MODEL 3
REMARK VINA RESULT:     -11.5      0.537      7.336
REMARK SMILES CC[C@@H]1CCCN(C(=O)c2csc(/C=C/C(=O)NCCCNC(=O)c3ccc(-c4c5nc(c(-c6c(F)c(F)c(F)c(F)c6F)c6ccc([nH]6)c(-c6c(F)c(F)c(F)c(F)c6F)c6nc(c(-c7c(F)c(F)c(F)c(F)c7F)c7ccc4[nH]7)C=C6)C=C5)cc3)c2)C1
REMARK SMILES IDX 19 1 18 2 16 3 17 4 15 6 14 7 13 8 10 9 11 10 88 11 12 12
REMARK SMILES IDX 8 13 9 14 7 15 3 16 4 17 89 18 5 19 6 20 2 21 1 22 20 23
REMARK SMILES IDX 21 24 22 25 23 26 24 28 25 29 26 30 87 31 27 32 86 33 28 34
REMARK SMILES IDX 29 35 30 36 80 37 31 38 85 39 79 40 81 41 32 42 84 43 78 44
REMARK SMILES IDX 77 45 33 47 65 48 45 49 64 50 46 51 49 52 63 53 82 54 47 55
REMARK SMILES IDX 48 56 62 58 83 59 50 60 34 61 35 62 43 63 36 64 37 65 41 66
REMARK SMILES IDX 44 67 38 68 39 69 42 70 40 71 66 72 67 73 75 74 68 75 69 76
REMARK SMILES IDX 73 77 76 78 70 79 71 80 74 81 72 82 51 83 52 84 60 85 53 86
REMARK SMILES IDX 54 87 58 88 61 89 55 90 56 91 59 92 57 93
REMARK H PARENT 18 5 22 27 81 46 49 57
REMARK Flexibility Score: inf
ROOT
ATOM      1  C   UNL A   1      31.779  30.687  26.881  1.00  0.00     0.118 C 
ENDROOT
BRANCH   1   2
ATOM      2  N   UNL A   1      33.062  30.397  27.497  1.00  0.00    -0.352 N 
ATOM      3  C   UNL A   1      33.858  29.299  27.428  1.00  0.00     0.244 C 
ATOM      4  O   UNL A   1      34.971  29.328  27.948  1.00  0.00    -0.270 OA
ATOM      5  H   UNL A   1      33.416  31.123  28.061  1.00  0.00     0.163 HD
BRANCH   3   6
ATOM      6  C   UNL A   1      33.448  28.098  26.670  1.00  0.00     0.072 C 
ATOM      7  C   UNL A   1      33.653  27.938  25.355  1.00  0.00     0.024 C 
BRANCH   7   8
ATOM      8  C   UNL A   1      33.228  26.776  24.643  1.00  0.00     0.028 A 
ATOM      9  C   UNL A   1      33.307  24.771  23.400  1.00  0.00     0.051 A 
ATOM     10  C   UNL A   1      31.947  24.987  23.487  1.00  0.00     0.079 A 
ATOM     11  C   UNL A   1      34.035  25.801  24.083  1.00  0.00     0.033 A 
ATOM     12  S   UNL A   1      31.571  26.430  24.318  1.00  0.00    -0.144 S 
BRANCH   9  13
ATOM     13  C   UNL A   1      33.914  23.616  22.751  1.00  0.00     0.254 C 
ATOM     14  O   UNL A   1      33.593  23.328  21.603  1.00  0.00    -0.269 OA
BRANCH  13  15
ATOM     15  N   UNL A   1      34.793  22.843  23.511  1.00  0.00    -0.338 N 
ATOM     16  C   UNL A   1      34.879  21.988  25.860  1.00  0.00     0.008 C 
ATOM     17  C   UNL A   1      36.413  22.002  25.751  1.00  0.00     0.007 C 
ATOM     18  C   UNL A   1      34.240  21.879  24.463  1.00  0.00     0.123 C 
ATOM     19  C   UNL A   1      36.918  23.039  24.755  1.00  0.00     0.022 C 
ATOM     20  C   UNL A   1      36.253  22.860  23.395  1.00  0.00     0.120 C 
BRANCH  16  21
ATOM     21  C   UNL A   1      34.340  23.130  26.757  1.00  0.00     0.002 C 
ATOM     22  C   UNL A   1      32.834  23.325  26.840  1.00  0.00     0.004 C 
ENDBRANCH  16  21
ENDBRANCH  13  15
ENDBRANCH   9  13
ENDBRANCH   7   8
ENDBRANCH   3   6
ENDBRANCH   1   2
BRANCH   1  23
ATOM     23  C   UNL A   1      31.485  32.187  26.875  1.00  0.00     0.042 C 
BRANCH  23  24
ATOM     24  C   UNL A   1      32.736  33.064  26.883  1.00  0.00     0.118 C 
BRANCH  24  25
ATOM     25  N   UNL A   1      32.542  34.300  27.626  1.00  0.00    -0.352 N 
ATOM     26  C   UNL A   1      33.125  34.738  28.790  1.00  0.00     0.251 C 
ATOM     27  H   UNL A   1      31.887  34.921  27.233  1.00  0.00     0.163 HD
ATOM     28  O   UNL A   1      32.676  35.734  29.351  1.00  0.00    -0.269 OA
BRANCH  26  29
ATOM     29  C   UNL A   1      34.278  34.026  29.386  1.00  0.00     0.039 A 
ATOM     30  C   UNL A   1      34.028  33.009  30.314  1.00  0.00     0.014 A 
ATOM     31  C   UNL A   1      35.596  34.394  29.100  1.00  0.00     0.014 A 
ATOM     32  C   UNL A   1      35.092  32.329  30.914  1.00  0.00     0.010 A 
ATOM     33  C   UNL A   1      36.657  33.680  29.659  1.00  0.00     0.010 A 
ATOM     34  C   UNL A   1      36.416  32.643  30.574  1.00  0.00    -0.014 A 
BRANCH  34  35
ATOM     35  C   UNL A   1      37.558  31.906  31.172  1.00  0.00     0.031 A 
ATOM     36  C   UNL A   1      38.025  32.233  32.565  1.00  0.00     0.074 A 
ATOM     37  C   UNL A   1      38.211  30.980  30.444  1.00  0.00     0.049 A 
ATOM     38  N   UNL A   1      39.060  31.773  33.221  1.00  0.00    -0.248 NA
ATOM     39  C   UNL A   1      37.231  33.220  33.311  1.00  0.00     0.031 C 
ATOM     40  C   UNL A   1      37.873  30.588  29.076  1.00  0.00     0.029 A 
ATOM     41  N   UNL A   1      39.304  30.208  30.751  1.00  0.00    -0.354 N 
ATOM     42  C   UNL A   1      39.052  32.425  34.447  1.00  0.00     0.074 A 
ATOM     43  C   UNL A   1      37.928  33.338  34.432  1.00  0.00     0.031 C 
ATOM     44  C   UNL A   1      38.734  29.643  28.664  1.00  0.00     0.029 A 
ATOM     45  C   UNL A   1      39.704  29.387  29.724  1.00  0.00     0.049 A 
ATOM     46  H   UNL A   1      39.759  30.240  31.623  1.00  0.00     0.167 HD
ATOM     47  C   UNL A   1      39.893  32.264  35.496  1.00  0.00     0.037 A 
ATOM     48  C   UNL A   1      40.742  28.533  29.646  1.00  0.00     0.037 A 
ATOM     49  C   UNL A   1      40.994  31.337  35.523  1.00  0.00     0.049 A 
ATOM     50  C   UNL A   1      41.661  28.375  30.826  1.00  0.00     0.074 A 
ATOM     51  C   UNL A   1      41.887  31.085  36.552  1.00  0.00     0.029 A 
ATOM     52  N   UNL A   1      41.347  30.501  34.475  1.00  0.00    -0.354 N 
ATOM     53  N   UNL A   1      41.623  28.977  31.989  1.00  0.00    -0.248 NA
ATOM     54  C   UNL A   1      42.765  27.415  30.683  1.00  0.00     0.031 C 
ATOM     55  C   UNL A   1      42.794  30.114  36.116  1.00  0.00     0.029 A 
ATOM     56  C   UNL A   1      42.446  29.736  34.830  1.00  0.00     0.049 A 
ATOM     57  H   UNL A   1      40.885  30.457  33.607  1.00  0.00     0.167 HD
ATOM     58  C   UNL A   1      42.676  28.450  32.725  1.00  0.00     0.074 A 
ATOM     59  C   UNL A   1      43.329  27.471  31.881  1.00  0.00     0.031 C 
ATOM     60  C   UNL A   1      43.069  28.751  33.986  1.00  0.00     0.037 A 
BRANCH  47  61
ATOM     61  C   UNL A   1      39.652  33.103  36.715  1.00  0.00     0.064 A 
ATOM     62  C   UNL A   1      38.746  32.703  37.708  1.00  0.00     0.173 A 
ATOM     63  C   UNL A   1      40.373  34.289  36.920  1.00  0.00     0.173 A 
ATOM     64  F   UNL A   1      38.024  31.582  37.551  1.00  0.00    -0.203 F 
ATOM     65  C   UNL A   1      38.558  33.468  38.855  1.00  0.00     0.198 A 
ATOM     66  C   UNL A   1      40.200  35.039  38.080  1.00  0.00     0.198 A 
ATOM     67  F   UNL A   1      41.256  34.711  36.003  1.00  0.00    -0.203 F 
ATOM     68  F   UNL A   1      37.662  33.085  39.775  1.00  0.00    -0.200 F 
ATOM     69  C   UNL A   1      39.289  34.631  39.044  1.00  0.00     0.200 A 
ATOM     70  F   UNL A   1      40.915  36.158  38.266  1.00  0.00    -0.200 F 
ATOM     71  F   UNL A   1      39.114  35.362  40.153  1.00  0.00    -0.200 F 
ENDBRANCH  47  61
BRANCH  48  72
ATOM     72  C   UNL A   1      40.964  27.744  28.407  1.00  0.00     0.064 A 
ATOM     73  C   UNL A   1      40.324  26.512  28.217  1.00  0.00     0.173 A 
ATOM     74  C   UNL A   1      41.833  28.193  27.402  1.00  0.00     0.173 A 
ATOM     75  F   UNL A   1      39.502  26.033  29.161  1.00  0.00    -0.203 F 
ATOM     76  C   UNL A   1      40.563  25.746  27.078  1.00  0.00     0.198 A 
ATOM     77  C   UNL A   1      42.051  27.437  26.252  1.00  0.00     0.198 A 
ATOM     78  F   UNL A   1      42.467  29.366  27.536  1.00  0.00    -0.203 F 
ATOM     79  F   UNL A   1      39.975  24.549  26.943  1.00  0.00    -0.200 F 
ATOM     80  C   UNL A   1      41.423  26.211  26.095  1.00  0.00     0.200 A 
ATOM     81  F   UNL A   1      42.874  27.894  25.299  1.00  0.00    -0.200 F 
ATOM     82  F   UNL A   1      41.654  25.473  25.001  1.00  0.00    -0.200 F 
ENDBRANCH  48  72
BRANCH  60  83
ATOM     83  C   UNL A   1      44.229  27.985  34.544  1.00  0.00     0.064 A 
ATOM     84  C   UNL A   1      45.543  28.461  34.435  1.00  0.00     0.173 A 
ATOM     85  C   UNL A   1      44.018  26.778  35.227  1.00  0.00     0.173 A 
ATOM     86  F   UNL A   1      45.795  29.604  33.777  1.00  0.00    -0.203 F 
ATOM     87  C   UNL A   1      46.609  27.746  34.974  1.00  0.00     0.198 A 
ATOM     88  C   UNL A   1      45.083  26.077  35.784  1.00  0.00     0.198 A 
ATOM     89  F   UNL A   1      42.779  26.284  35.360  1.00  0.00    -0.203 F 
ATOM     90  F   UNL A   1      47.861  28.198  34.824  1.00  0.00    -0.200 F 
ATOM     91  C   UNL A   1      46.377  26.558  35.652  1.00  0.00     0.200 A 
ATOM     92  F   UNL A   1      44.859  24.933  36.446  1.00  0.00    -0.200 F 
ATOM     93  F   UNL A   1      47.405  25.872  36.172  1.00  0.00    -0.200 F 
ENDBRANCH  60  83
ENDBRANCH  34  35
ENDBRANCH  26  29
ENDBRANCH  24  25
ENDBRANCH  23  24
ENDBRANCH   1  23
TORSDOF 14
ENDMDL
