MODEL 1
REMARK VINA RESULT:     -11.5      0.000      0.000
REMARK SMILES CC[N@@H+]1CCO[C@H](c2nc(C)c(C(=O)NCCCNC(=O)c3ccc(-c4c5nc(c(-c6c(F)c(F)c(F)c(F)c6F)c6ccc([nH]6)c(-c6c(F)c(F)c(F)c(F)c6F)c6nc(c(-c7c(F)c(F)c(F)c(F)c7F)c7ccc4[nH]7)C=C6)C=C5)cc3)s2)C1
REMARK SMILES IDX 17 1 16 2 15 3 13 4 14 5 12 7 8 8 9 9 85 10 10 11 11 12 7 13
REMARK SMILES IDX 3 14 4 15 86 16 5 18 6 19 2 20 1 21 18 22 19 23 20 24 21 26
REMARK SMILES IDX 22 27 23 28 84 29 24 30 83 31 25 32 26 33 27 34 77 35 28 36
REMARK SMILES IDX 82 37 76 38 78 39 29 40 81 41 75 42 74 43 30 45 62 46 42 47
REMARK SMILES IDX 61 48 43 49 46 50 60 51 79 52 44 53 45 54 59 56 80 57 47 58
REMARK SMILES IDX 31 59 32 60 40 61 33 62 34 63 38 64 41 65 35 66 36 67 39 68
REMARK SMILES IDX 37 69 63 70 64 71 72 72 65 73 66 74 70 75 73 76 67 77 68 78
REMARK SMILES IDX 71 79 69 80 48 81 49 82 57 83 50 84 51 85 55 86 58 87 52 88
REMARK SMILES IDX 53 89 56 90 54 91
REMARK H PARENT 15 6 3 17 19 25 78 44 46 55
REMARK Flexibility Score: inf
ROOT
ATOM      1  C   UNL A   1      35.267  23.251  26.239  1.00  0.00     0.042 C 
ENDROOT
BRANCH   1   2
ATOM      2  C   UNL A   1      34.222  24.356  26.125  1.00  0.00     0.118 C 
BRANCH   2   3
ATOM      3  N   UNL A   1      32.945  23.880  26.593  1.00  0.00    -0.351 N 
ATOM      4  C   UNL A   1      31.711  24.459  26.717  1.00  0.00     0.263 C 
ATOM      5  O   UNL A   1      30.915  23.732  27.326  1.00  0.00    -0.268 OA
ATOM      6  H   UNL A   1      32.965  22.940  26.885  1.00  0.00     0.163 HD
BRANCH   4   7
ATOM      7  C   UNL A   1      31.313  25.730  26.125  1.00  0.00     0.115 A 
ATOM      8  C   UNL A   1      30.943  27.197  24.207  1.00  0.00     0.128 A 
ATOM      9  N   UNL A   1      31.168  27.909  25.288  1.00  0.00    -0.243 NA
ATOM     10  S   UNL A   1      30.525  25.577  24.564  1.00  0.00    -0.110 S 
ATOM     11  C   UNL A   1      31.316  27.094  26.409  1.00  0.00     0.062 A 
ATOM     12  C   UNL A   1      31.515  27.866  27.660  1.00  0.00     0.068 C 
BRANCH   8  13
ATOM     13  C   UNL A   1      30.990  27.721  22.787  1.00  0.00     0.232 C 
ATOM     14  N   UNL A   1      33.115  26.668  21.704  1.00  0.00    -0.331 N 
ATOM     15  C   UNL A   1      33.663  28.037  21.754  1.00  0.00     0.291 C 
ATOM     16  C   UNL A   1      31.628  26.772  21.728  1.00  0.00     0.302 C 
ATOM     17  H   UNL A   1      33.430  26.227  20.840  1.00  0.00     0.348 HD
ATOM     18  C   UNL A   1      33.083  28.888  22.891  1.00  0.00     0.222 C 
ATOM     19  O   UNL A   1      31.658  29.008  22.776  1.00  0.00    -0.359 OA
BRANCH  14  20
ATOM     20  C   UNL A   1      33.622  25.781  22.759  1.00  0.00     0.258 C 
ATOM     21  C   UNL A   1      33.398  24.295  22.507  1.00  0.00     0.071 C 
ENDBRANCH  14  20
ENDBRANCH   8  13
ENDBRANCH   4   7
ENDBRANCH   2   3
ENDBRANCH   1   2
BRANCH   1  22
ATOM     22  C   UNL A   1      36.618  23.650  25.658  1.00  0.00     0.118 C 
BRANCH  22  23
ATOM     23  N   UNL A   1      37.636  22.658  25.964  1.00  0.00    -0.352 N 
ATOM     24  C   UNL A   1      38.934  22.824  26.380  1.00  0.00     0.251 C 
ATOM     25  H   UNL A   1      37.350  21.722  25.857  1.00  0.00     0.163 HD
ATOM     26  O   UNL A   1      39.711  21.877  26.304  1.00  0.00    -0.269 OA
BRANCH  24  27
ATOM     27  C   UNL A   1      39.407  24.122  26.916  1.00  0.00     0.039 A 
ATOM     28  C   UNL A   1      39.156  24.421  28.259  1.00  0.00     0.014 A 
ATOM     29  C   UNL A   1      40.023  25.073  26.099  1.00  0.00     0.014 A 
ATOM     30  C   UNL A   1      39.550  25.654  28.785  1.00  0.00     0.010 A 
ATOM     31  C   UNL A   1      40.491  26.266  26.644  1.00  0.00     0.010 A 
ATOM     32  C   UNL A   1      40.240  26.580  27.986  1.00  0.00    -0.014 A 
BRANCH  32  33
ATOM     33  C   UNL A   1      40.674  27.890  28.535  1.00  0.00     0.031 A 
ATOM     34  C   UNL A   1      42.123  28.131  28.863  1.00  0.00     0.074 A 
ATOM     35  C   UNL A   1      39.757  28.845  28.780  1.00  0.00     0.049 A 
ATOM     36  N   UNL A   1      42.691  29.191  29.385  1.00  0.00    -0.248 NA
ATOM     37  C   UNL A   1      43.055  27.024  28.597  1.00  0.00     0.031 C 
ATOM     38  C   UNL A   1      38.318  28.712  28.553  1.00  0.00     0.029 A 
ATOM     39  N   UNL A   1      39.900  30.116  29.278  1.00  0.00    -0.354 N 
ATOM     40  C   UNL A   1      44.035  28.870  29.523  1.00  0.00     0.074 A 
ATOM     41  C   UNL A   1      44.191  27.500  29.084  1.00  0.00     0.031 C 
ATOM     42  C   UNL A   1      37.713  29.865  28.885  1.00  0.00     0.029 A 
ATOM     43  C   UNL A   1      38.715  30.804  29.378  1.00  0.00     0.049 A 
ATOM     44  H   UNL A   1      40.769  30.498  29.540  1.00  0.00     0.167 HD
ATOM     45  C   UNL A   1      45.052  29.656  29.952  1.00  0.00     0.037 A 
ATOM     46  C   UNL A   1      38.467  32.052  29.816  1.00  0.00     0.037 A 
ATOM     47  C   UNL A   1      44.897  31.027  30.360  1.00  0.00     0.049 A 
ATOM     48  C   UNL A   1      39.617  32.910  30.270  1.00  0.00     0.074 A 
ATOM     49  C   UNL A   1      45.870  31.927  30.757  1.00  0.00     0.029 A 
ATOM     50  N   UNL A   1      43.684  31.699  30.421  1.00  0.00    -0.354 N 
ATOM     51  N   UNL A   1      40.894  32.619  30.332  1.00  0.00    -0.248 NA
ATOM     52  C   UNL A   1      39.290  34.275  30.704  1.00  0.00     0.031 C 
ATOM     53  C   UNL A   1      45.241  33.130  31.097  1.00  0.00     0.029 A 
ATOM     54  C   UNL A   1      43.883  32.996  30.864  1.00  0.00     0.049 A 
ATOM     55  H   UNL A   1      42.811  31.310  30.183  1.00  0.00     0.167 HD
ATOM     56  C   UNL A   1      41.526  33.769  30.784  1.00  0.00     0.074 A 
ATOM     57  C   UNL A   1      40.493  34.769  30.962  1.00  0.00     0.031 C 
ATOM     58  C   UNL A   1      42.842  33.979  31.029  1.00  0.00     0.037 A 
BRANCH  45  59
ATOM     59  C   UNL A   1      46.426  29.049  29.997  1.00  0.00     0.064 A 
ATOM     60  C   UNL A   1      47.290  29.099  28.892  1.00  0.00     0.173 A 
ATOM     61  C   UNL A   1      46.899  28.438  31.169  1.00  0.00     0.173 A 
ATOM     62  F   UNL A   1      46.884  29.661  27.743  1.00  0.00    -0.203 F 
ATOM     63  C   UNL A   1      48.561  28.533  28.947  1.00  0.00     0.198 A 
ATOM     64  C   UNL A   1      48.182  27.901  31.231  1.00  0.00     0.198 A 
ATOM     65  F   UNL A   1      46.118  28.369  32.258  1.00  0.00    -0.203 F 
ATOM     66  F   UNL A   1      49.347  28.546  27.861  1.00  0.00    -0.200 F 
ATOM     67  C   UNL A   1      49.009  27.941  30.118  1.00  0.00     0.200 A 
ATOM     68  F   UNL A   1      48.618  27.340  32.368  1.00  0.00    -0.200 F 
ATOM     69  F   UNL A   1      50.234  27.401  30.172  1.00  0.00    -0.200 F 
ENDBRANCH  45  59
BRANCH  46  70
ATOM     70  C   UNL A   1      37.078  32.579  29.810  1.00  0.00     0.064 A 
ATOM     71  C   UNL A   1      36.579  33.278  28.702  1.00  0.00     0.173 A 
ATOM     72  C   UNL A   1      36.221  32.394  30.905  1.00  0.00     0.173 A 
ATOM     73  F   UNL A   1      37.367  33.496  27.638  1.00  0.00    -0.203 F 
ATOM     74  C   UNL A   1      35.285  33.792  28.698  1.00  0.00     0.198 A 
ATOM     75  C   UNL A   1      34.916  32.883  30.888  1.00  0.00     0.198 A 
ATOM     76  F   UNL A   1      36.647  31.724  31.986  1.00  0.00    -0.203 F 
ATOM     77  F   UNL A   1      34.849  34.495  27.644  1.00  0.00    -0.200 F 
ATOM     78  C   UNL A   1      34.452  33.589  29.788  1.00  0.00     0.200 A 
ATOM     79  F   UNL A   1      34.111  32.671  31.937  1.00  0.00    -0.200 F 
ATOM     80  F   UNL A   1      33.205  34.079  29.782  1.00  0.00    -0.200 F 
ENDBRANCH  46  70
BRANCH  58  81
ATOM     81  C   UNL A   1      43.242  35.354  31.483  1.00  0.00     0.064 A 
ATOM     82  C   UNL A   1      43.225  35.716  32.838  1.00  0.00     0.173 A 
ATOM     83  C   UNL A   1      43.668  36.312  30.550  1.00  0.00     0.173 A 
ATOM     84  F   UNL A   1      42.813  34.840  33.767  1.00  0.00    -0.203 F 
ATOM     85  C   UNL A   1      43.589  36.999  33.239  1.00  0.00     0.198 A 
ATOM     86  C   UNL A   1      44.060  37.583  30.958  1.00  0.00     0.198 A 
ATOM     87  F   UNL A   1      43.709  36.013  29.243  1.00  0.00    -0.203 F 
ATOM     88  F   UNL A   1      43.511  37.341  34.533  1.00  0.00    -0.200 F 
ATOM     89  C   UNL A   1      44.011  37.929  32.300  1.00  0.00     0.200 A 
ATOM     90  F   UNL A   1      44.481  38.476  30.053  1.00  0.00    -0.200 F 
ATOM     91  F   UNL A   1      44.362  39.162  32.689  1.00  0.00    -0.200 F 
ENDBRANCH  58  81
ENDBRANCH  32  33
ENDBRANCH  24  27
ENDBRANCH  22  23
ENDBRANCH   1  22
TORSDOF 12
ENDMDL
MODEL 2
REMARK VINA RESULT:     -11.4      4.014      7.101
REMARK SMILES CC[N@@H+]1CCO[C@H](c2nc(C)c(C(=O)NCCCNC(=O)c3ccc(-c4c5nc(c(-c6c(F)c(F)c(F)c(F)c6F)c6ccc([nH]6)c(-c6c(F)c(F)c(F)c(F)c6F)c6nc(c(-c7c(F)c(F)c(F)c(F)c7F)c7ccc4[nH]7)C=C6)C=C5)cc3)s2)C1
REMARK SMILES IDX 17 1 16 2 15 3 13 4 14 5 12 7 8 8 9 9 85 10 10 11 11 12 7 13
REMARK SMILES IDX 3 14 4 15 86 16 5 18 6 19 2 20 1 21 18 22 19 23 20 24 21 26
REMARK SMILES IDX 22 27 23 28 84 29 24 30 83 31 25 32 26 33 27 34 77 35 28 36
REMARK SMILES IDX 82 37 76 38 78 39 29 40 81 41 75 42 74 43 30 45 62 46 42 47
REMARK SMILES IDX 61 48 43 49 46 50 60 51 79 52 44 53 45 54 59 56 80 57 47 58
REMARK SMILES IDX 31 59 32 60 40 61 33 62 34 63 38 64 41 65 35 66 36 67 39 68
REMARK SMILES IDX 37 69 63 70 64 71 72 72 65 73 66 74 70 75 73 76 67 77 68 78
REMARK SMILES IDX 71 79 69 80 48 81 49 82 57 83 50 84 51 85 55 86 58 87 52 88
REMARK SMILES IDX 53 89 56 90 54 91
REMARK H PARENT 15 6 3 17 19 25 78 44 46 55
REMARK Flexibility Score: inf
ROOT
ATOM      1  C   UNL A   1      33.690  29.191  23.768  1.00  0.00     0.042 C 
ENDROOT
BRANCH   1   2
ATOM      2  C   UNL A   1      32.587  28.794  22.792  1.00  0.00     0.118 C 
BRANCH   2   3
ATOM      3  N   UNL A   1      32.975  27.616  22.059  1.00  0.00    -0.351 N 
ATOM      4  C   UNL A   1      33.153  26.305  22.407  1.00  0.00     0.263 C 
ATOM      5  O   UNL A   1      33.656  25.643  21.490  1.00  0.00    -0.268 OA
ATOM      6  H   UNL A   1      33.149  27.792  21.106  1.00  0.00     0.163 HD
BRANCH   4   7
ATOM      7  C   UNL A   1      32.717  25.699  23.660  1.00  0.00     0.115 A 
ATOM      8  C   UNL A   1      33.073  24.264  25.604  1.00  0.00     0.128 A 
ATOM      9  N   UNL A   1      31.789  24.378  25.351  1.00  0.00    -0.243 NA
ATOM     10  S   UNL A   1      34.003  25.475  24.833  1.00  0.00    -0.110 S 
ATOM     11  C   UNL A   1      31.557  25.246  24.286  1.00  0.00     0.062 A 
ATOM     12  C   UNL A   1      30.114  25.445  24.008  1.00  0.00     0.068 C 
BRANCH   8  13
ATOM     13  C   UNL A   1      33.699  23.223  26.508  1.00  0.00     0.232 C 
ATOM     14  N   UNL A   1      35.370  21.889  25.016  1.00  0.00    -0.331 N 
ATOM     15  C   UNL A   1      34.406  20.780  25.150  1.00  0.00     0.291 C 
ATOM     16  C   UNL A   1      35.164  22.813  26.168  1.00  0.00     0.302 C 
ATOM     17  H   UNL A   1      36.312  21.499  25.032  1.00  0.00     0.348 HD
ATOM     18  C   UNL A   1      32.960  21.247  25.367  1.00  0.00     0.222 C 
ATOM     19  O   UNL A   1      32.845  22.052  26.549  1.00  0.00    -0.359 OA
BRANCH  14  20
ATOM     20  C   UNL A   1      35.300  22.591  23.727  1.00  0.00     0.258 C 
ATOM     21  C   UNL A   1      36.650  22.953  23.122  1.00  0.00     0.071 C 
ENDBRANCH  14  20
ENDBRANCH   8  13
ENDBRANCH   4   7
ENDBRANCH   2   3
ENDBRANCH   1   2
BRANCH   1  22
ATOM     22  C   UNL A   1      33.240  29.148  25.222  1.00  0.00     0.118 C 
BRANCH  22  23
ATOM     23  N   UNL A   1      32.767  30.450  25.666  1.00  0.00    -0.352 N 
ATOM     24  C   UNL A   1      33.124  31.192  26.764  1.00  0.00     0.251 C 
ATOM     25  H   UNL A   1      32.085  30.864  25.088  1.00  0.00     0.163 HD
ATOM     26  O   UNL A   1      32.406  32.123  27.115  1.00  0.00    -0.269 OA
BRANCH  24  27
ATOM     27  C   UNL A   1      34.357  30.887  27.528  1.00  0.00     0.039 A 
ATOM     28  C   UNL A   1      34.489  29.620  28.104  1.00  0.00     0.014 A 
ATOM     29  C   UNL A   1      35.343  31.853  27.745  1.00  0.00     0.014 A 
ATOM     30  C   UNL A   1      35.620  29.314  28.867  1.00  0.00     0.010 A 
ATOM     31  C   UNL A   1      36.508  31.521  28.433  1.00  0.00     0.010 A 
ATOM     32  C   UNL A   1      36.649  30.257  29.020  1.00  0.00    -0.014 A 
BRANCH  32  33
ATOM     33  C   UNL A   1      37.861  29.942  29.819  1.00  0.00     0.031 A 
ATOM     34  C   UNL A   1      38.915  29.021  29.266  1.00  0.00     0.074 A 
ATOM     35  C   UNL A   1      37.991  30.450  31.060  1.00  0.00     0.049 A 
ATOM     36  N   UNL A   1      40.022  28.596  29.824  1.00  0.00    -0.248 NA
ATOM     37  C   UNL A   1      38.682  28.482  27.916  1.00  0.00     0.031 C 
ATOM     38  C   UNL A   1      37.014  31.311  31.725  1.00  0.00     0.029 A 
ATOM     39  N   UNL A   1      38.996  30.310  31.984  1.00  0.00    -0.354 N 
ATOM     40  C   UNL A   1      40.601  27.731  28.904  1.00  0.00     0.074 A 
ATOM     41  C   UNL A   1      39.701  27.648  27.775  1.00  0.00     0.031 C 
ATOM     42  C   UNL A   1      37.479  31.647  32.940  1.00  0.00     0.029 A 
ATOM     43  C   UNL A   1      38.769  30.998  33.151  1.00  0.00     0.049 A 
ATOM     44  H   UNL A   1      39.802  29.769  31.825  1.00  0.00     0.167 HD
ATOM     45  C   UNL A   1      41.791  27.087  28.982  1.00  0.00     0.037 A 
ATOM     46  C   UNL A   1      39.519  31.095  34.264  1.00  0.00     0.037 A 
ATOM     47  C   UNL A   1      42.698  27.197  30.095  1.00  0.00     0.049 A 
ATOM     48  C   UNL A   1      40.844  30.384  34.318  1.00  0.00     0.074 A 
ATOM     49  C   UNL A   1      43.951  26.631  30.247  1.00  0.00     0.029 A 
ATOM     50  N   UNL A   1      42.446  27.926  31.248  1.00  0.00    -0.354 N 
ATOM     51  N   UNL A   1      41.414  29.624  33.413  1.00  0.00    -0.248 NA
ATOM     52  C   UNL A   1      41.636  30.555  35.544  1.00  0.00     0.031 C 
ATOM     53  C   UNL A   1      44.440  26.984  31.510  1.00  0.00     0.029 A 
ATOM     54  C   UNL A   1      43.514  27.811  32.123  1.00  0.00     0.049 A 
ATOM     55  H   UNL A   1      41.629  28.448  31.418  1.00  0.00     0.167 HD
ATOM     56  C   UNL A   1      42.639  29.249  33.947  1.00  0.00     0.074 A 
ATOM     57  C   UNL A   1      42.738  29.881  35.246  1.00  0.00     0.031 C 
ATOM     58  C   UNL A   1      43.596  28.453  33.410  1.00  0.00     0.037 A 
BRANCH  45  59
ATOM     59  C   UNL A   1      42.181  26.208  27.827  1.00  0.00     0.064 A 
ATOM     60  C   UNL A   1      41.777  24.867  27.753  1.00  0.00     0.173 A 
ATOM     61  C   UNL A   1      42.941  26.722  26.765  1.00  0.00     0.173 A 
ATOM     62  F   UNL A   1      41.058  24.322  28.747  1.00  0.00    -0.203 F 
ATOM     63  C   UNL A   1      42.145  24.063  26.677  1.00  0.00     0.198 A 
ATOM     64  C   UNL A   1      43.281  25.924  25.676  1.00  0.00     0.198 A 
ATOM     65  F   UNL A   1      43.349  27.999  26.780  1.00  0.00    -0.203 F 
ATOM     66  F   UNL A   1      41.792  22.770  26.656  1.00  0.00    -0.200 F 
ATOM     67  C   UNL A   1      42.891  24.593  25.636  1.00  0.00     0.200 A 
ATOM     68  F   UNL A   1      43.992  26.442  24.663  1.00  0.00    -0.200 F 
ATOM     69  F   UNL A   1      43.241  23.821  24.598  1.00  0.00    -0.200 F 
ENDBRANCH  45  59
BRANCH  46  70
ATOM     70  C   UNL A   1      39.053  31.928  35.403  1.00  0.00     0.064 A 
ATOM     71  C   UNL A   1      39.361  33.294  35.468  1.00  0.00     0.173 A 
ATOM     72  C   UNL A   1      38.292  31.380  36.446  1.00  0.00     0.173 A 
ATOM     73  F   UNL A   1      40.102  33.859  34.503  1.00  0.00    -0.203 F 
ATOM     74  C   UNL A   1      38.945  34.076  36.543  1.00  0.00     0.198 A 
ATOM     75  C   UNL A   1      37.851  32.169  37.506  1.00  0.00     0.198 A 
ATOM     76  F   UNL A   1      37.964  30.080  36.427  1.00  0.00    -0.203 F 
ATOM     77  F   UNL A   1      39.291  35.368  36.601  1.00  0.00    -0.200 F 
ATOM     78  C   UNL A   1      38.185  33.514  37.558  1.00  0.00     0.200 A 
ATOM     79  F   UNL A   1      37.105  31.627  38.477  1.00  0.00    -0.200 F 
ATOM     80  F   UNL A   1      37.780  34.268  38.589  1.00  0.00    -0.200 F 
ENDBRANCH  46  70
BRANCH  58  81
ATOM     81  C   UNL A   1      44.848  28.252  34.215  1.00  0.00     0.064 A 
ATOM     82  C   UNL A   1      45.948  29.113  34.093  1.00  0.00     0.173 A 
ATOM     83  C   UNL A   1      44.936  27.197  35.136  1.00  0.00     0.173 A 
ATOM     84  F   UNL A   1      45.918  30.128  33.215  1.00  0.00    -0.203 F 
ATOM     85  C   UNL A   1      47.105  28.905  34.839  1.00  0.00     0.198 A 
ATOM     86  C   UNL A   1      46.082  27.011  35.904  1.00  0.00     0.198 A 
ATOM     87  F   UNL A   1      43.908  26.351  35.297  1.00  0.00    -0.203 F 
ATOM     88  F   UNL A   1      48.166  29.706  34.665  1.00  0.00    -0.200 F 
ATOM     89  C   UNL A   1      47.168  27.858  35.748  1.00  0.00     0.200 A 
ATOM     90  F   UNL A   1      46.138  26.008  36.790  1.00  0.00    -0.200 F 
ATOM     91  F   UNL A   1      48.282  27.661  36.467  1.00  0.00    -0.200 F 
ENDBRANCH  58  81
ENDBRANCH  32  33
ENDBRANCH  24  27
ENDBRANCH  22  23
ENDBRANCH   1  22
TORSDOF 12
ENDMDL
MODEL 3
REMARK VINA RESULT:     -11.4      3.988      8.869
REMARK SMILES CC[N@@H+]1CCO[C@H](c2nc(C)c(C(=O)NCCCNC(=O)c3ccc(-c4c5nc(c(-c6c(F)c(F)c(F)c(F)c6F)c6ccc([nH]6)c(-c6c(F)c(F)c(F)c(F)c6F)c6nc(c(-c7c(F)c(F)c(F)c(F)c7F)c7ccc4[nH]7)C=C6)C=C5)cc3)s2)C1
REMARK SMILES IDX 17 1 16 2 15 3 13 4 14 5 12 7 8 8 9 9 85 10 10 11 11 12 7 13
REMARK SMILES IDX 3 14 4 15 86 16 5 18 6 19 2 20 1 21 18 22 19 23 20 24 21 26
REMARK SMILES IDX 22 27 23 28 84 29 24 30 83 31 25 32 26 33 27 34 77 35 28 36
REMARK SMILES IDX 82 37 76 38 78 39 29 40 81 41 75 42 74 43 30 45 62 46 42 47
REMARK SMILES IDX 61 48 43 49 46 50 60 51 79 52 44 53 45 54 59 56 80 57 47 58
REMARK SMILES IDX 31 59 32 60 40 61 33 62 34 63 38 64 41 65 35 66 36 67 39 68
REMARK SMILES IDX 37 69 63 70 64 71 72 72 65 73 66 74 70 75 73 76 67 77 68 78
REMARK SMILES IDX 71 79 69 80 48 81 49 82 57 83 50 84 51 85 55 86 58 87 52 88
REMARK SMILES IDX 53 89 56 90 54 91
REMARK H PARENT 15 6 3 17 19 25 78 44 46 55
REMARK Flexibility Score: inf
ROOT
ATOM      1  C   UNL A   1      32.791  28.996  23.809  1.00  0.00     0.042 C 
ENDROOT
BRANCH   1   2
ATOM      2  C   UNL A   1      33.977  28.699  22.896  1.00  0.00     0.118 C 
BRANCH   2   3
ATOM      3  N   UNL A   1      33.667  27.597  22.022  1.00  0.00    -0.351 N 
ATOM      4  C   UNL A   1      33.277  26.303  22.238  1.00  0.00     0.263 C 
ATOM      5  O   UNL A   1      33.275  25.636  21.195  1.00  0.00    -0.268 OA
ATOM      6  H   UNL A   1      33.753  27.822  21.067  1.00  0.00     0.163 HD
BRANCH   4   7
ATOM      7  C   UNL A   1      32.811  25.765  23.511  1.00  0.00     0.115 A 
ATOM      8  C   UNL A   1      33.084  24.366  25.495  1.00  0.00     0.128 A 
ATOM      9  N   UNL A   1      31.809  24.559  25.245  1.00  0.00    -0.243 NA
ATOM     10  S   UNL A   1      34.088  25.489  24.683  1.00  0.00    -0.110 S 
ATOM     11  C   UNL A   1      31.628  25.410  24.156  1.00  0.00     0.062 A 
ATOM     12  C   UNL A   1      30.199  25.697  23.880  1.00  0.00     0.068 C 
BRANCH   8  13
ATOM     13  C   UNL A   1      33.646  23.312  26.426  1.00  0.00     0.232 C 
ATOM     14  N   UNL A   1      35.288  21.887  24.987  1.00  0.00    -0.331 N 
ATOM     15  C   UNL A   1      34.275  20.822  25.115  1.00  0.00     0.291 C 
ATOM     16  C   UNL A   1      35.098  22.835  26.122  1.00  0.00     0.302 C 
ATOM     17  H   UNL A   1      36.212  21.457  25.029  1.00  0.00     0.348 HD
ATOM     18  C   UNL A   1      32.847  21.354  25.295  1.00  0.00     0.222 C 
ATOM     19  O   UNL A   1      32.742  22.179  26.463  1.00  0.00    -0.359 OA
BRANCH  14  20
ATOM     20  C   UNL A   1      35.276  22.573  23.688  1.00  0.00     0.258 C 
ATOM     21  C   UNL A   1      36.650  22.953  23.153  1.00  0.00     0.071 C 
ENDBRANCH  14  20
ENDBRANCH   8  13
ENDBRANCH   4   7
ENDBRANCH   2   3
ENDBRANCH   1   2
BRANCH   1  22
ATOM     22  C   UNL A   1      33.197  29.196  25.263  1.00  0.00     0.118 C 
BRANCH  22  23
ATOM     23  N   UNL A   1      32.777  30.501  25.751  1.00  0.00    -0.352 N 
ATOM     24  C   UNL A   1      33.192  31.206  26.854  1.00  0.00     0.251 C 
ATOM     25  H   UNL A   1      32.090  30.947  25.207  1.00  0.00     0.163 HD
ATOM     26  O   UNL A   1      32.514  32.149  27.250  1.00  0.00    -0.269 OA
BRANCH  24  27
ATOM     27  C   UNL A   1      34.441  30.848  27.568  1.00  0.00     0.039 A 
ATOM     28  C   UNL A   1      34.580  29.544  28.056  1.00  0.00     0.014 A 
ATOM     29  C   UNL A   1      35.435  31.794  27.827  1.00  0.00     0.014 A 
ATOM     30  C   UNL A   1      35.725  29.186  28.772  1.00  0.00     0.010 A 
ATOM     31  C   UNL A   1      36.613  31.414  28.466  1.00  0.00     0.010 A 
ATOM     32  C   UNL A   1      36.762  30.113  28.965  1.00  0.00    -0.014 A 
BRANCH  32  33
ATOM     33  C   UNL A   1      37.989  29.743  29.714  1.00  0.00     0.031 A 
ATOM     34  C   UNL A   1      38.226  30.287  31.097  1.00  0.00     0.074 A 
ATOM     35  C   UNL A   1      38.911  28.952  29.132  1.00  0.00     0.049 A 
ATOM     36  N   UNL A   1      39.252  30.112  31.893  1.00  0.00    -0.248 NA
ATOM     37  C   UNL A   1      37.186  31.170  31.648  1.00  0.00     0.031 C 
ATOM     38  C   UNL A   1      38.820  28.405  27.778  1.00  0.00     0.029 A 
ATOM     39  N   UNL A   1      40.109  28.476  29.603  1.00  0.00    -0.354 N 
ATOM     40  C   UNL A   1      38.987  30.873  33.025  1.00  0.00     0.074 A 
ATOM     41  C   UNL A   1      37.733  31.556  32.792  1.00  0.00     0.031 C 
ATOM     42  C   UNL A   1      39.901  27.646  27.537  1.00  0.00     0.029 A 
ATOM     43  C   UNL A   1      40.776  27.680  28.705  1.00  0.00     0.049 A 
ATOM     44  H   UNL A   1      40.457  28.686  30.499  1.00  0.00     0.167 HD
ATOM     45  C   UNL A   1      39.711  30.973  34.166  1.00  0.00     0.037 A 
ATOM     46  C   UNL A   1      41.959  27.047  28.813  1.00  0.00     0.037 A 
ATOM     47  C   UNL A   1      40.943  30.269  34.405  1.00  0.00     0.049 A 
ATOM     48  C   UNL A   1      42.734  27.160  30.098  1.00  0.00     0.074 A 
ATOM     49  C   UNL A   1      41.724  30.256  35.547  1.00  0.00     0.029 A 
ATOM     50  N   UNL A   1      41.574  29.448  33.481  1.00  0.00    -0.354 N 
ATOM     51  N   UNL A   1      42.440  27.828  31.187  1.00  0.00    -0.248 NA
ATOM     52  C   UNL A   1      44.001  26.419  30.171  1.00  0.00     0.031 C 
ATOM     53  C   UNL A   1      42.849  29.461  35.300  1.00  0.00     0.029 A 
ATOM     54  C   UNL A   1      42.742  28.937  34.022  1.00  0.00     0.049 A 
ATOM     55  H   UNL A   1      41.239  29.257  32.575  1.00  0.00     0.167 HD
ATOM     56  C   UNL A   1      43.468  27.568  32.083  1.00  0.00     0.074 A 
ATOM     57  C   UNL A   1      44.383  26.665  31.416  1.00  0.00     0.031 C 
ATOM     58  C   UNL A   1      43.638  28.034  33.344  1.00  0.00     0.037 A 
BRANCH  45  59
ATOM     59  C   UNL A   1      39.183  31.875  35.246  1.00  0.00     0.064 A 
ATOM     60  C   UNL A   1      38.412  31.378  36.308  1.00  0.00     0.173 A 
ATOM     61  C   UNL A   1      39.479  33.247  35.238  1.00  0.00     0.173 A 
ATOM     62  F   UNL A   1      38.091  30.077  36.358  1.00  0.00    -0.203 F 
ATOM     63  C   UNL A   1      37.929  32.225  37.302  1.00  0.00     0.198 A 
ATOM     64  C   UNL A   1      39.020  34.085  36.251  1.00  0.00     0.198 A 
ATOM     65  F   UNL A   1      40.218  33.774  34.250  1.00  0.00    -0.203 F 
ATOM     66  F   UNL A   1      37.149  31.736  38.277  1.00  0.00    -0.200 F 
ATOM     67  C   UNL A   1      38.238  33.576  37.277  1.00  0.00     0.200 A 
ATOM     68  F   UNL A   1      39.332  35.389  36.232  1.00  0.00    -0.200 F 
ATOM     69  F   UNL A   1      37.778  34.389  38.237  1.00  0.00    -0.200 F 
ENDBRANCH  45  59
BRANCH  46  70
ATOM     70  C   UNL A   1      42.464  26.219  27.687  1.00  0.00     0.064 A 
ATOM     71  C   UNL A   1      42.021  24.902  27.508  1.00  0.00     0.173 A 
ATOM     72  C   UNL A   1      43.394  26.725  26.767  1.00  0.00     0.173 A 
ATOM     73  F   UNL A   1      41.145  24.367  28.373  1.00  0.00    -0.203 F 
ATOM     74  C   UNL A   1      42.505  24.114  26.467  1.00  0.00     0.198 A 
ATOM     75  C   UNL A   1      43.856  25.946  25.708  1.00  0.00     0.198 A 
ATOM     76  F   UNL A   1      43.843  27.983  26.889  1.00  0.00    -0.203 F 
ATOM     77  F   UNL A   1      42.099  22.843  26.347  1.00  0.00    -0.200 F 
ATOM     78  C   UNL A   1      43.418  24.638  25.564  1.00  0.00     0.200 A 
ATOM     79  F   UNL A   1      44.726  26.462  24.830  1.00  0.00    -0.200 F 
ATOM     80  F   UNL A   1      43.880  23.882  24.560  1.00  0.00    -0.200 F 
ENDBRANCH  46  70
BRANCH  58  81
ATOM     81  C   UNL A   1      44.843  27.546  34.096  1.00  0.00     0.064 A 
ATOM     82  C   UNL A   1      44.808  26.370  34.859  1.00  0.00     0.173 A 
ATOM     83  C   UNL A   1      46.053  28.253  34.031  1.00  0.00     0.173 A 
ATOM     84  F   UNL A   1      43.670  25.666  34.964  1.00  0.00    -0.203 F 
ATOM     85  C   UNL A   1      45.932  25.938  35.559  1.00  0.00     0.198 A 
ATOM     86  C   UNL A   1      47.183  27.801  34.706  1.00  0.00     0.198 A 
ATOM     87  F   UNL A   1      46.142  29.379  33.308  1.00  0.00    -0.203 F 
ATOM     88  F   UNL A   1      45.859  24.842  36.328  1.00  0.00    -0.200 F 
ATOM     89  C   UNL A   1      47.119  26.650  35.477  1.00  0.00     0.200 A 
ATOM     90  F   UNL A   1      48.334  28.482  34.616  1.00  0.00    -0.200 F 
ATOM     91  F   UNL A   1      48.200  26.231  36.149  1.00  0.00    -0.200 F 
ENDBRANCH  58  81
ENDBRANCH  32  33
ENDBRANCH  24  27
ENDBRANCH  22  23
ENDBRANCH   1  22
TORSDOF 12
ENDMDL
