MODEL 1
REMARK VINA RESULT:     -13.6      0.000      0.000
REMARK SMILES Cc1ccc(C(=O)N2C[C@H](C(=O)NCCCNC(=O)c3ccc(-c4c5nc(c(-c6c(F)c(F)c(F)c(F)c6F)c6ccc([nH]6)c(-c6c(F)c(F)c(F)c(F)c6F)c6nc(c(-c7c(F)c(F)c(F)c(F)c7F)c7ccc4[nH]7)C=C6)C=C5)cc3)Oc3ccccc32)o1
REMARK SMILES IDX 15 1 14 2 13 3 11 4 12 5 10 7 8 8 9 9 89 10 84 11 88 12
REMARK SMILES IDX 83 13 85 14 87 15 86 16 6 17 7 18 5 19 1 20 2 21 3 22 90 23
REMARK SMILES IDX 4 24 16 25 17 26 18 27 19 29 20 30 21 31 82 32 22 33 81 34
REMARK SMILES IDX 23 35 24 36 25 37 75 38 26 39 80 40 74 41 76 42 27 43 79 44
REMARK SMILES IDX 73 45 72 46 28 48 60 49 40 50 59 51 41 52 44 53 58 54 77 55
REMARK SMILES IDX 42 56 43 57 57 59 78 60 45 61 29 62 30 63 38 64 31 65 32 66
REMARK SMILES IDX 36 67 39 68 33 69 34 70 37 71 35 72 61 73 62 74 70 75 63 76
REMARK SMILES IDX 64 77 68 78 71 79 65 80 66 81 69 82 67 83 46 84 47 85 55 86
REMARK SMILES IDX 48 87 49 88 53 89 56 90 50 91 51 92 54 93 52 94
REMARK H PARENT 13 6 17 28 76 47 44 58
REMARK Flexibility Score: inf
ROOT
ATOM      1  C   UNL A   1      33.071  28.486  23.560  1.00  0.00     0.042 C 
ENDROOT
BRANCH   1   2
ATOM      2  C   UNL A   1      32.398  27.114  23.569  1.00  0.00     0.118 C 
BRANCH   2   3
ATOM      3  N   UNL A   1      32.520  26.427  22.293  1.00  0.00    -0.353 N 
ATOM      4  C   UNL A   1      32.931  25.159  21.995  1.00  0.00     0.262 C 
ATOM      5  O   UNL A   1      32.934  24.836  20.803  1.00  0.00    -0.271 OA
ATOM      6  H   UNL A   1      32.264  26.968  21.511  1.00  0.00     0.163 HD
BRANCH   4   7
ATOM      7  C   UNL A   1      33.454  24.194  23.065  1.00  0.00     0.281 C 
ATOM      8  N   UNL A   1      33.187  21.899  23.934  1.00  0.00    -0.298 N 
ATOM      9  C   UNL A   1      32.741  22.857  22.920  1.00  0.00     0.181 C 
ATOM     10  C   UNL A   1      34.584  21.973  24.253  1.00  0.00     0.087 A 
ATOM     11  C   UNL A   1      35.364  23.026  23.737  1.00  0.00     0.144 A 
ATOM     12  C   UNL A   1      35.236  20.975  24.992  1.00  0.00     0.030 A 
ATOM     13  O   UNL A   1      34.869  24.066  22.992  1.00  0.00    -0.477 OA
ATOM     14  C   UNL A   1      36.748  23.060  23.934  1.00  0.00     0.049 A 
ATOM     15  C   UNL A   1      36.619  21.018  25.198  1.00  0.00     0.002 A 
ATOM     16  C   UNL A   1      37.375  22.056  24.665  1.00  0.00     0.004 A 
BRANCH   8  17
ATOM     17  C   UNL A   1      32.304  21.010  24.573  1.00  0.00     0.294 C 
ATOM     18  O   UNL A   1      31.482  21.405  25.402  1.00  0.00    -0.265 OA
BRANCH  17  19
ATOM     19  C   UNL A   1      32.408  19.592  24.244  1.00  0.00     0.192 A 
ATOM     20  C   UNL A   1      32.851  16.367  25.746  1.00  0.00     0.087 C 
ATOM     21  C   UNL A   1      32.681  17.462  24.770  1.00  0.00     0.101 A 
ATOM     22  C   UNL A   1      32.688  17.519  23.395  1.00  0.00     0.046 A 
ATOM     23  O   UNL A   1      32.505  18.706  25.288  1.00  0.00    -0.456 OA
ATOM     24  C   UNL A   1      32.529  18.886  23.057  1.00  0.00     0.056 A 
ENDBRANCH  17  19
ENDBRANCH   8  17
ENDBRANCH   4   7
ENDBRANCH   2   3
ENDBRANCH   1   2
BRANCH   1  25
ATOM     25  C   UNL A   1      33.623  28.930  24.912  1.00  0.00     0.118 C 
BRANCH  25  26
ATOM     26  N   UNL A   1      32.916  30.078  25.456  1.00  0.00    -0.352 N 
ATOM     27  C   UNL A   1      33.170  30.817  26.584  1.00  0.00     0.251 C 
ATOM     28  H   UNL A   1      32.134  30.370  24.933  1.00  0.00     0.163 HD
ATOM     29  O   UNL A   1      32.355  31.656  26.955  1.00  0.00    -0.269 OA
BRANCH  27  30
ATOM     30  C   UNL A   1      34.406  30.606  27.373  1.00  0.00     0.039 A 
ATOM     31  C   UNL A   1      34.637  29.340  27.923  1.00  0.00     0.014 A 
ATOM     32  C   UNL A   1      35.301  31.650  27.625  1.00  0.00     0.014 A 
ATOM     33  C   UNL A   1      35.788  29.106  28.680  1.00  0.00     0.010 A 
ATOM     34  C   UNL A   1      36.470  31.407  28.347  1.00  0.00     0.010 A 
ATOM     35  C   UNL A   1      36.723  30.133  28.880  1.00  0.00    -0.014 A 
BRANCH  35  36
ATOM     36  C   UNL A   1      37.965  29.897  29.653  1.00  0.00     0.031 A 
ATOM     37  C   UNL A   1      39.034  28.995  29.108  1.00  0.00     0.074 A 
ATOM     38  C   UNL A   1      38.106  30.442  30.875  1.00  0.00     0.049 A 
ATOM     39  N   UNL A   1      40.132  28.574  29.683  1.00  0.00    -0.248 NA
ATOM     40  C   UNL A   1      38.832  28.481  27.745  1.00  0.00     0.031 C 
ATOM     41  C   UNL A   1      37.128  31.312  31.531  1.00  0.00     0.029 A 
ATOM     42  N   UNL A   1      39.123  30.332  31.789  1.00  0.00    -0.354 N 
ATOM     43  C   UNL A   1      40.728  27.715  28.774  1.00  0.00     0.074 A 
ATOM     44  C   UNL A   1      39.876  27.677  27.603  1.00  0.00     0.031 C 
ATOM     45  C   UNL A   1      37.597  31.661  32.741  1.00  0.00     0.029 A 
ATOM     46  C   UNL A   1      38.894  31.023  32.951  1.00  0.00     0.049 A 
ATOM     47  H   UNL A   1      39.939  29.806  31.626  1.00  0.00     0.167 HD
ATOM     48  C   UNL A   1      41.882  27.018  28.902  1.00  0.00     0.037 A 
ATOM     49  C   UNL A   1      39.642  31.124  34.065  1.00  0.00     0.037 A 
ATOM     50  C   UNL A   1      42.763  27.091  30.035  1.00  0.00     0.049 A 
ATOM     51  C   UNL A   1      40.954  30.402  34.151  1.00  0.00     0.074 A 
ATOM     52  C   UNL A   1      43.983  26.464  30.224  1.00  0.00     0.029 A 
ATOM     53  N   UNL A   1      42.523  27.850  31.168  1.00  0.00    -0.354 N 
ATOM     54  N   UNL A   1      41.513  29.603  33.277  1.00  0.00    -0.248 NA
ATOM     55  C   UNL A   1      41.738  30.594  35.381  1.00  0.00     0.031 C 
ATOM     56  C   UNL A   1      44.479  26.841  31.478  1.00  0.00     0.029 A 
ATOM     57  C   UNL A   1      43.572  27.709  32.063  1.00  0.00     0.049 A 
ATOM     58  H   UNL A   1      41.726  28.409  31.317  1.00  0.00     0.167 HD
ATOM     59  C   UNL A   1      42.713  29.201  33.844  1.00  0.00     0.074 A 
ATOM     60  C   UNL A   1      42.808  29.849  35.136  1.00  0.00     0.031 C 
ATOM     61  C   UNL A   1      43.650  28.364  33.340  1.00  0.00     0.037 A 
BRANCH  48  62
ATOM     62  C   UNL A   1      42.250  26.097  27.783  1.00  0.00     0.064 A 
ATOM     63  C   UNL A   1      41.686  24.819  27.672  1.00  0.00     0.173 A 
ATOM     64  C   UNL A   1      43.160  26.510  26.799  1.00  0.00     0.173 A 
ATOM     65  F   UNL A   1      40.824  24.379  28.601  1.00  0.00    -0.203 F 
ATOM     66  C   UNL A   1      42.030  23.979  26.617  1.00  0.00     0.198 A 
ATOM     67  C   UNL A   1      43.493  25.672  25.739  1.00  0.00     0.198 A 
ATOM     68  F   UNL A   1      43.727  27.723  26.870  1.00  0.00    -0.203 F 
ATOM     69  F   UNL A   1      41.500  22.751  26.540  1.00  0.00    -0.200 F 
ATOM     70  C   UNL A   1      42.930  24.407  25.651  1.00  0.00     0.200 A 
ATOM     71  F   UNL A   1      44.364  26.085  24.808  1.00  0.00    -0.200 F 
ATOM     72  F   UNL A   1      43.261  23.596  24.637  1.00  0.00    -0.200 F 
ENDBRANCH  48  62
BRANCH  49  73
ATOM     73  C   UNL A   1      39.163  31.959  35.190  1.00  0.00     0.064 A 
ATOM     74  C   UNL A   1      38.444  31.389  36.247  1.00  0.00     0.173 A 
ATOM     75  C   UNL A   1      39.433  33.333  35.237  1.00  0.00     0.173 A 
ATOM     76  F   UNL A   1      38.151  30.081  36.228  1.00  0.00    -0.203 F 
ATOM     77  C   UNL A   1      38.007  32.167  37.315  1.00  0.00     0.198 A 
ATOM     78  C   UNL A   1      39.004  34.108  36.311  1.00  0.00     0.198 A 
ATOM     79  F   UNL A   1      40.120  33.918  34.244  1.00  0.00    -0.203 F 
ATOM     80  F   UNL A   1      37.307  31.604  38.309  1.00  0.00    -0.200 F 
ATOM     81  C   UNL A   1      38.291  33.525  37.349  1.00  0.00     0.200 A 
ATOM     82  F   UNL A   1      39.283  35.418  36.344  1.00  0.00    -0.200 F 
ATOM     83  F   UNL A   1      37.873  34.272  38.379  1.00  0.00    -0.200 F 
ENDBRANCH  49  73
BRANCH  61  84
ATOM     84  C   UNL A   1      44.860  28.111  34.181  1.00  0.00     0.064 A 
ATOM     85  C   UNL A   1      45.986  28.941  34.093  1.00  0.00     0.173 A 
ATOM     86  C   UNL A   1      44.880  27.055  35.103  1.00  0.00     0.173 A 
ATOM     87  F   UNL A   1      46.012  29.952  33.212  1.00  0.00    -0.203 F 
ATOM     88  C   UNL A   1      47.098  28.717  34.900  1.00  0.00     0.198 A 
ATOM     89  C   UNL A   1      45.990  26.840  35.913  1.00  0.00     0.198 A 
ATOM     90  F   UNL A   1      43.824  26.236  35.213  1.00  0.00    -0.203 F 
ATOM     91  F   UNL A   1      48.174  29.509  34.790  1.00  0.00    -0.200 F 
ATOM     92  C   UNL A   1      47.098  27.670  35.811  1.00  0.00     0.200 A 
ATOM     93  F   UNL A   1      45.992  25.827  36.790  1.00  0.00    -0.200 F 
ATOM     94  F   UNL A   1      48.170  27.455  36.585  1.00  0.00    -0.200 F 
ENDBRANCH  61  84
ENDBRANCH  35  36
ENDBRANCH  27  30
ENDBRANCH  25  26
ENDBRANCH   1  25
TORSDOF 12
ENDMDL
MODEL 2
REMARK VINA RESULT:     -13.6      0.087      1.667
REMARK SMILES Cc1ccc(C(=O)N2C[C@H](C(=O)NCCCNC(=O)c3ccc(-c4c5nc(c(-c6c(F)c(F)c(F)c(F)c6F)c6ccc([nH]6)c(-c6c(F)c(F)c(F)c(F)c6F)c6nc(c(-c7c(F)c(F)c(F)c(F)c7F)c7ccc4[nH]7)C=C6)C=C5)cc3)Oc3ccccc32)o1
REMARK SMILES IDX 15 1 14 2 13 3 11 4 12 5 10 7 8 8 9 9 89 10 84 11 88 12
REMARK SMILES IDX 83 13 85 14 87 15 86 16 6 17 7 18 5 19 1 20 2 21 3 22 90 23
REMARK SMILES IDX 4 24 16 25 17 26 18 27 19 29 20 30 21 31 82 32 22 33 81 34
REMARK SMILES IDX 23 35 24 36 25 37 75 38 26 39 80 40 74 41 76 42 27 43 79 44
REMARK SMILES IDX 73 45 72 46 28 48 60 49 40 50 59 51 41 52 44 53 58 54 77 55
REMARK SMILES IDX 42 56 43 57 57 59 78 60 45 61 29 62 30 63 38 64 31 65 32 66
REMARK SMILES IDX 36 67 39 68 33 69 34 70 37 71 35 72 61 73 62 74 70 75 63 76
REMARK SMILES IDX 64 77 68 78 71 79 65 80 66 81 69 82 67 83 46 84 47 85 55 86
REMARK SMILES IDX 48 87 49 88 53 89 56 90 50 91 51 92 54 93 52 94
REMARK H PARENT 13 6 17 28 76 47 44 58
REMARK Flexibility Score: inf
ROOT
ATOM      1  C   UNL A   1      32.885  28.559  23.624  1.00  0.00     0.042 C 
ENDROOT
BRANCH   1   2
ATOM      2  C   UNL A   1      32.380  27.118  23.596  1.00  0.00     0.118 C 
BRANCH   2   3
ATOM      3  N   UNL A   1      32.597  26.478  22.307  1.00  0.00    -0.353 N 
ATOM      4  C   UNL A   1      33.064  25.233  21.994  1.00  0.00     0.262 C 
ATOM      5  O   UNL A   1      33.147  24.951  20.795  1.00  0.00    -0.271 OA
ATOM      6  H   UNL A   1      32.370  27.037  21.530  1.00  0.00     0.163 HD
BRANCH   4   7
ATOM      7  C   UNL A   1      33.553  24.249  23.063  1.00  0.00     0.281 C 
ATOM      8  N   UNL A   1      33.213  21.960  23.923  1.00  0.00    -0.298 N 
ATOM      9  C   UNL A   1      32.799  22.935  22.911  1.00  0.00     0.181 C 
ATOM     10  C   UNL A   1      34.610  21.990  24.246  1.00  0.00     0.087 A 
ATOM     11  C   UNL A   1      35.424  23.018  23.735  1.00  0.00     0.144 A 
ATOM     12  C   UNL A   1      35.228  20.969  24.983  1.00  0.00     0.030 A 
ATOM     13  O   UNL A   1      34.964  24.077  22.993  1.00  0.00    -0.477 OA
ATOM     14  C   UNL A   1      36.808  23.009  23.937  1.00  0.00     0.049 A 
ATOM     15  C   UNL A   1      36.611  20.967  25.193  1.00  0.00     0.002 A 
ATOM     16  C   UNL A   1      37.401  21.983  24.666  1.00  0.00     0.004 A 
BRANCH   8  17
ATOM     17  C   UNL A   1      32.300  21.097  24.556  1.00  0.00     0.294 C 
ATOM     18  O   UNL A   1      31.482  21.516  25.378  1.00  0.00    -0.265 OA
BRANCH  17  19
ATOM     19  C   UNL A   1      32.367  19.676  24.231  1.00  0.00     0.192 A 
ATOM     20  C   UNL A   1      32.600  16.437  25.750  1.00  0.00     0.087 C 
ATOM     21  C   UNL A   1      32.529  17.537  24.768  1.00  0.00     0.101 A 
ATOM     22  C   UNL A   1      32.615  17.593  23.395  1.00  0.00     0.046 A 
ATOM     23  O   UNL A   1      32.371  18.787  25.277  1.00  0.00    -0.456 OA
ATOM     24  C   UNL A   1      32.528  18.965  23.051  1.00  0.00     0.056 A 
ENDBRANCH  17  19
ENDBRANCH   8  17
ENDBRANCH   4   7
ENDBRANCH   2   3
ENDBRANCH   1   2
BRANCH   1  25
ATOM     25  C   UNL A   1      33.503  28.988  24.952  1.00  0.00     0.118 C 
BRANCH  25  26
ATOM     26  N   UNL A   1      32.855  30.160  25.518  1.00  0.00    -0.352 N 
ATOM     27  C   UNL A   1      33.162  30.881  26.645  1.00  0.00     0.251 C 
ATOM     28  H   UNL A   1      32.075  30.488  25.013  1.00  0.00     0.163 HD
ATOM     29  O   UNL A   1      32.390  31.750  27.038  1.00  0.00    -0.269 OA
BRANCH  27  30
ATOM     30  C   UNL A   1      34.404  30.613  27.407  1.00  0.00     0.039 A 
ATOM     31  C   UNL A   1      35.293  31.671  27.626  1.00  0.00     0.014 A 
ATOM     32  C   UNL A   1      34.726  29.328  27.853  1.00  0.00     0.014 A 
ATOM     33  C   UNL A   1      36.477  31.455  28.335  1.00  0.00     0.010 A 
ATOM     34  C   UNL A   1      35.890  29.120  28.595  1.00  0.00     0.010 A 
ATOM     35  C   UNL A   1      36.774  30.182  28.842  1.00  0.00    -0.014 A 
BRANCH  35  36
ATOM     36  C   UNL A   1      38.010  29.938  29.623  1.00  0.00     0.031 A 
ATOM     37  C   UNL A   1      39.081  29.038  29.082  1.00  0.00     0.074 A 
ATOM     38  C   UNL A   1      38.142  30.476  30.850  1.00  0.00     0.049 A 
ATOM     39  N   UNL A   1      40.173  28.610  29.663  1.00  0.00    -0.248 NA
ATOM     40  C   UNL A   1      38.889  28.533  27.714  1.00  0.00     0.031 C 
ATOM     41  C   UNL A   1      37.161  31.343  31.503  1.00  0.00     0.029 A 
ATOM     42  N   UNL A   1      39.151  30.357  31.771  1.00  0.00    -0.354 N 
ATOM     43  C   UNL A   1      40.775  27.755  28.753  1.00  0.00     0.074 A 
ATOM     44  C   UNL A   1      39.932  27.726  27.575  1.00  0.00     0.031 C 
ATOM     45  C   UNL A   1      37.621  31.684  32.720  1.00  0.00     0.029 A 
ATOM     46  C   UNL A   1      38.914  31.041  32.936  1.00  0.00     0.049 A 
ATOM     47  H   UNL A   1      39.967  29.830  31.611  1.00  0.00     0.167 HD
ATOM     48  C   UNL A   1      41.925  27.054  28.887  1.00  0.00     0.037 A 
ATOM     49  C   UNL A   1      39.653  31.134  34.056  1.00  0.00     0.037 A 
ATOM     50  C   UNL A   1      42.797  27.118  30.026  1.00  0.00     0.049 A 
ATOM     51  C   UNL A   1      40.963  30.407  34.149  1.00  0.00     0.074 A 
ATOM     52  C   UNL A   1      44.015  26.487  30.221  1.00  0.00     0.029 A 
ATOM     53  N   UNL A   1      42.550  27.870  31.163  1.00  0.00    -0.354 N 
ATOM     54  N   UNL A   1      41.527  29.613  33.275  1.00  0.00    -0.248 NA
ATOM     55  C   UNL A   1      41.737  30.590  35.386  1.00  0.00     0.031 C 
ATOM     56  C   UNL A   1      44.501  26.854  31.482  1.00  0.00     0.029 A 
ATOM     57  C   UNL A   1      43.591  27.721  32.065  1.00  0.00     0.049 A 
ATOM     58  H   UNL A   1      41.753  28.430  31.308  1.00  0.00     0.167 HD
ATOM     59  C   UNL A   1      42.722  29.204  33.849  1.00  0.00     0.074 A 
ATOM     60  C   UNL A   1      42.808  29.843  35.146  1.00  0.00     0.031 C 
ATOM     61  C   UNL A   1      43.661  28.368  33.346  1.00  0.00     0.037 A 
BRANCH  48  62
ATOM     62  C   UNL A   1      42.301  26.139  27.764  1.00  0.00     0.064 A 
ATOM     63  C   UNL A   1      43.228  26.525  26.787  1.00  0.00     0.173 A 
ATOM     64  C   UNL A   1      41.741  24.857  27.682  1.00  0.00     0.173 A 
ATOM     65  F   UNL A   1      43.775  27.749  26.821  1.00  0.00    -0.203 F 
ATOM     66  C   UNL A   1      43.576  25.657  25.756  1.00  0.00     0.198 A 
ATOM     67  C   UNL A   1      42.100  23.987  26.656  1.00  0.00     0.198 A 
ATOM     68  F   UNL A   1      40.846  24.450  28.593  1.00  0.00    -0.203 F 
ATOM     69  F   UNL A   1      44.446  26.050  24.816  1.00  0.00    -0.200 F 
ATOM     70  C   UNL A   1      43.015  24.389  25.693  1.00  0.00     0.200 A 
ATOM     71  F   UNL A   1      41.555  22.764  26.594  1.00  0.00    -0.200 F 
ATOM     72  F   UNL A   1      43.349  23.556  24.698  1.00  0.00    -0.200 F 
ENDBRANCH  48  62
BRANCH  49  73
ATOM     73  C   UNL A   1      39.168  31.963  35.182  1.00  0.00     0.064 A 
ATOM     74  C   UNL A   1      38.443  31.386  36.233  1.00  0.00     0.173 A 
ATOM     75  C   UNL A   1      39.435  33.337  35.238  1.00  0.00     0.173 A 
ATOM     76  F   UNL A   1      38.153  30.078  36.206  1.00  0.00    -0.203 F 
ATOM     77  C   UNL A   1      38.000  32.158  37.303  1.00  0.00     0.198 A 
ATOM     78  C   UNL A   1      39.000  34.105  36.314  1.00  0.00     0.198 A 
ATOM     79  F   UNL A   1      40.126  33.926  34.252  1.00  0.00    -0.203 F 
ATOM     80  F   UNL A   1      37.295  31.590  38.290  1.00  0.00    -0.200 F 
ATOM     81  C   UNL A   1      38.282  33.517  37.345  1.00  0.00     0.200 A 
ATOM     82  F   UNL A   1      39.277  35.416  36.354  1.00  0.00    -0.200 F 
ATOM     83  F   UNL A   1      37.858  34.258  38.376  1.00  0.00    -0.200 F 
ENDBRANCH  49  73
BRANCH  61  84
ATOM     84  C   UNL A   1      44.863  28.106  34.196  1.00  0.00     0.064 A 
ATOM     85  C   UNL A   1      44.887  27.039  35.103  1.00  0.00     0.173 A 
ATOM     86  C   UNL A   1      46.009  28.905  34.075  1.00  0.00     0.173 A 
ATOM     87  F   UNL A   1      43.805  26.261  35.258  1.00  0.00    -0.203 F 
ATOM     88  C   UNL A   1      46.020  26.783  35.870  1.00  0.00     0.198 A 
ATOM     89  C   UNL A   1      47.142  28.640  34.838  1.00  0.00     0.198 A 
ATOM     90  F   UNL A   1      46.024  29.938  33.221  1.00  0.00    -0.203 F 
ATOM     91  F   UNL A   1      46.019  25.769  36.747  1.00  0.00    -0.200 F 
ATOM     92  C   UNL A   1      47.147  27.581  35.734  1.00  0.00     0.200 A 
ATOM     93  F   UNL A   1      48.230  29.413  34.709  1.00  0.00    -0.200 F 
ATOM     94  F   UNL A   1      48.237  27.334  36.474  1.00  0.00    -0.200 F 
ENDBRANCH  61  84
ENDBRANCH  35  36
ENDBRANCH  27  30
ENDBRANCH  25  26
ENDBRANCH   1  25
TORSDOF 12
ENDMDL
MODEL 3
REMARK VINA RESULT:     -13.6      0.119      1.944
REMARK SMILES Cc1ccc(C(=O)N2C[C@H](C(=O)NCCCNC(=O)c3ccc(-c4c5nc(c(-c6c(F)c(F)c(F)c(F)c6F)c6ccc([nH]6)c(-c6c(F)c(F)c(F)c(F)c6F)c6nc(c(-c7c(F)c(F)c(F)c(F)c7F)c7ccc4[nH]7)C=C6)C=C5)cc3)Oc3ccccc32)o1
REMARK SMILES IDX 15 1 14 2 13 3 11 4 12 5 10 7 8 8 9 9 89 10 84 11 88 12
REMARK SMILES IDX 83 13 85 14 87 15 86 16 6 17 7 18 5 19 1 20 2 21 3 22 90 23
REMARK SMILES IDX 4 24 16 25 17 26 18 27 19 29 20 30 21 31 82 32 22 33 81 34
REMARK SMILES IDX 23 35 24 36 25 37 75 38 26 39 80 40 74 41 76 42 27 43 79 44
REMARK SMILES IDX 73 45 72 46 28 48 60 49 40 50 59 51 41 52 44 53 58 54 77 55
REMARK SMILES IDX 42 56 43 57 57 59 78 60 45 61 29 62 30 63 38 64 31 65 32 66
REMARK SMILES IDX 36 67 39 68 33 69 34 70 37 71 35 72 61 73 62 74 70 75 63 76
REMARK SMILES IDX 64 77 68 78 71 79 65 80 66 81 69 82 67 83 46 84 47 85 55 86
REMARK SMILES IDX 48 87 49 88 53 89 56 90 50 91 51 92 54 93 52 94
REMARK H PARENT 13 6 17 28 76 47 44 58
REMARK Flexibility Score: inf
ROOT
ATOM      1  C   UNL A   1      32.918  28.527  23.668  1.00  0.00     0.042 C 
ENDROOT
BRANCH   1   2
ATOM      2  C   UNL A   1      32.403  27.090  23.616  1.00  0.00     0.118 C 
BRANCH   2   3
ATOM      3  N   UNL A   1      32.639  26.461  22.326  1.00  0.00    -0.353 N 
ATOM      4  C   UNL A   1      33.114  25.220  22.008  1.00  0.00     0.262 C 
ATOM      5  O   UNL A   1      33.212  24.948  20.809  1.00  0.00    -0.271 OA
ATOM      6  H   UNL A   1      32.419  27.026  21.550  1.00  0.00     0.163 HD
BRANCH   4   7
ATOM      7  C   UNL A   1      33.593  24.229  23.076  1.00  0.00     0.281 C 
ATOM      8  N   UNL A   1      33.234  21.940  23.928  1.00  0.00    -0.298 N 
ATOM      9  C   UNL A   1      32.829  22.921  22.918  1.00  0.00     0.181 C 
ATOM     10  C   UNL A   1      34.630  21.959  24.254  1.00  0.00     0.087 A 
ATOM     11  C   UNL A   1      35.454  22.983  23.749  1.00  0.00     0.144 A 
ATOM     12  C   UNL A   1      35.239  20.931  24.989  1.00  0.00     0.030 A 
ATOM     13  O   UNL A   1      35.003  24.047  23.009  1.00  0.00    -0.477 OA
ATOM     14  C   UNL A   1      36.836  22.963  23.953  1.00  0.00     0.049 A 
ATOM     15  C   UNL A   1      36.622  20.919  25.203  1.00  0.00     0.002 A 
ATOM     16  C   UNL A   1      37.421  21.931  24.680  1.00  0.00     0.004 A 
BRANCH   8  17
ATOM     17  C   UNL A   1      32.314  21.082  24.556  1.00  0.00     0.294 C 
ATOM     18  O   UNL A   1      31.494  21.506  25.375  1.00  0.00    -0.265 OA
BRANCH  17  19
ATOM     19  C   UNL A   1      32.374  19.661  24.231  1.00  0.00     0.192 A 
ATOM     20  C   UNL A   1      32.598  16.420  25.748  1.00  0.00     0.087 C 
ATOM     21  C   UNL A   1      32.528  17.521  24.766  1.00  0.00     0.101 A 
ATOM     22  C   UNL A   1      32.610  17.578  23.394  1.00  0.00     0.046 A 
ATOM     23  O   UNL A   1      32.377  18.772  25.277  1.00  0.00    -0.456 OA
ATOM     24  C   UNL A   1      32.528  18.950  23.050  1.00  0.00     0.056 A 
ENDBRANCH  17  19
ENDBRANCH   8  17
ENDBRANCH   4   7
ENDBRANCH   2   3
ENDBRANCH   1   2
BRANCH   1  25
ATOM     25  C   UNL A   1      33.461  28.958  25.027  1.00  0.00     0.118 C 
BRANCH  25  26
ATOM     26  N   UNL A   1      32.800  30.144  25.544  1.00  0.00    -0.352 N 
ATOM     27  C   UNL A   1      33.096  30.912  26.642  1.00  0.00     0.251 C 
ATOM     28  H   UNL A   1      32.018  30.444  25.025  1.00  0.00     0.163 HD
ATOM     29  O   UNL A   1      32.313  31.788  26.999  1.00  0.00    -0.269 OA
BRANCH  27  30
ATOM     30  C   UNL A   1      34.338  30.688  27.418  1.00  0.00     0.039 A 
ATOM     31  C   UNL A   1      34.543  29.433  28.001  1.00  0.00     0.014 A 
ATOM     32  C   UNL A   1      35.266  31.713  27.626  1.00  0.00     0.014 A 
ATOM     33  C   UNL A   1      35.699  29.187  28.745  1.00  0.00     0.010 A 
ATOM     34  C   UNL A   1      36.439  31.457  28.336  1.00  0.00     0.010 A 
ATOM     35  C   UNL A   1      36.665  30.191  28.902  1.00  0.00    -0.014 A 
BRANCH  35  36
ATOM     36  C   UNL A   1      37.913  29.942  29.662  1.00  0.00     0.031 A 
ATOM     37  C   UNL A   1      38.972  29.040  29.100  1.00  0.00     0.074 A 
ATOM     38  C   UNL A   1      38.067  30.476  30.887  1.00  0.00     0.049 A 
ATOM     39  N   UNL A   1      40.072  28.608  29.662  1.00  0.00    -0.248 NA
ATOM     40  C   UNL A   1      38.756  28.539  27.734  1.00  0.00     0.031 C 
ATOM     41  C   UNL A   1      37.100  31.345  31.559  1.00  0.00     0.029 A 
ATOM     42  N   UNL A   1      39.092  30.353  31.791  1.00  0.00    -0.354 N 
ATOM     43  C   UNL A   1      40.656  27.753  28.739  1.00  0.00     0.074 A 
ATOM     44  C   UNL A   1      39.794  27.730  27.576  1.00  0.00     0.031 C 
ATOM     45  C   UNL A   1      37.581  31.681  32.768  1.00  0.00     0.029 A 
ATOM     46  C   UNL A   1      38.876  31.034  32.961  1.00  0.00     0.049 A 
ATOM     47  H   UNL A   1      39.904  29.824  31.616  1.00  0.00     0.167 HD
ATOM     48  C   UNL A   1      41.807  27.049  28.852  1.00  0.00     0.037 A 
ATOM     49  C   UNL A   1      39.635  31.122  34.069  1.00  0.00     0.037 A 
ATOM     50  C   UNL A   1      42.699  27.108  29.977  1.00  0.00     0.049 A 
ATOM     51  C   UNL A   1      40.944  30.392  34.138  1.00  0.00     0.074 A 
ATOM     52  C   UNL A   1      43.917  26.473  30.150  1.00  0.00     0.029 A 
ATOM     53  N   UNL A   1      42.473  27.858  31.119  1.00  0.00    -0.354 N 
ATOM     54  N   UNL A   1      41.491  29.598  33.252  1.00  0.00    -0.248 NA
ATOM     55  C   UNL A   1      41.739  30.569  35.362  1.00  0.00     0.031 C 
ATOM     56  C   UNL A   1      44.426  26.835  31.403  1.00  0.00     0.029 A 
ATOM     57  C   UNL A   1      43.528  27.703  32.003  1.00  0.00     0.049 A 
ATOM     58  H   UNL A   1      41.680  28.419  31.280  1.00  0.00     0.167 HD
ATOM     59  C   UNL A   1      42.693  29.184  33.805  1.00  0.00     0.074 A 
ATOM     60  C   UNL A   1      42.803  29.820  35.102  1.00  0.00     0.031 C 
ATOM     61  C   UNL A   1      43.621  28.347  33.285  1.00  0.00     0.037 A 
BRANCH  48  62
ATOM     62  C   UNL A   1      42.161  26.136  27.721  1.00  0.00     0.064 A 
ATOM     63  C   UNL A   1      43.071  26.522  26.728  1.00  0.00     0.173 A 
ATOM     64  C   UNL A   1      41.599  24.854  27.647  1.00  0.00     0.173 A 
ATOM     65  F   UNL A   1      43.619  27.746  26.753  1.00  0.00    -0.203 F 
ATOM     66  C   UNL A   1      43.399  25.656  25.689  1.00  0.00     0.198 A 
ATOM     67  C   UNL A   1      41.937  23.986  26.613  1.00  0.00     0.198 A 
ATOM     68  F   UNL A   1      40.720  24.447  28.574  1.00  0.00    -0.203 F 
ATOM     69  F   UNL A   1      44.251  26.050  24.734  1.00  0.00    -0.200 F 
ATOM     70  C   UNL A   1      42.835  24.389  25.634  1.00  0.00     0.200 A 
ATOM     71  F   UNL A   1      41.391  22.764  26.559  1.00  0.00    -0.200 F 
ATOM     72  F   UNL A   1      43.150  23.557  24.631  1.00  0.00    -0.200 F 
ENDBRANCH  48  62
BRANCH  49  73
ATOM     73  C   UNL A   1      39.170  31.950  35.205  1.00  0.00     0.064 A 
ATOM     74  C   UNL A   1      39.441  33.323  35.246  1.00  0.00     0.173 A 
ATOM     75  C   UNL A   1      38.433  31.388  36.256  1.00  0.00     0.173 A 
ATOM     76  F   UNL A   1      40.159  33.892  34.267  1.00  0.00    -0.203 F 
ATOM     77  C   UNL A   1      38.991  34.109  36.303  1.00  0.00     0.198 A 
ATOM     78  C   UNL A   1      37.975  32.178  37.308  1.00  0.00     0.198 A 
ATOM     79  F   UNL A   1      38.153  30.077  36.254  1.00  0.00    -0.203 F 
ATOM     80  F   UNL A   1      39.275  35.418  36.330  1.00  0.00    -0.200 F 
ATOM     81  C   UNL A   1      38.255  33.536  37.331  1.00  0.00     0.200 A 
ATOM     82  F   UNL A   1      37.262  31.624  38.297  1.00  0.00    -0.200 F 
ATOM     83  F   UNL A   1      37.820  34.294  38.347  1.00  0.00    -0.200 F 
ENDBRANCH  49  73
BRANCH  61  84
ATOM     84  C   UNL A   1      44.837  28.080  34.113  1.00  0.00     0.064 A 
ATOM     85  C   UNL A   1      44.883  26.995  34.999  1.00  0.00     0.173 A 
ATOM     86  C   UNL A   1      45.974  28.891  33.994  1.00  0.00     0.173 A 
ATOM     87  F   UNL A   1      43.811  26.204  35.152  1.00  0.00    -0.203 F 
ATOM     88  C   UNL A   1      46.028  26.734  35.745  1.00  0.00     0.198 A 
ATOM     89  C   UNL A   1      47.119  28.623  34.736  1.00  0.00     0.198 A 
ATOM     90  F   UNL A   1      45.968  29.942  33.161  1.00  0.00    -0.203 F 
ATOM     91  F   UNL A   1      46.048  25.703  36.601  1.00  0.00    -0.200 F 
ATOM     92  C   UNL A   1      47.146  27.545  35.611  1.00  0.00     0.200 A 
ATOM     93  F   UNL A   1      48.198  29.408  34.609  1.00  0.00    -0.200 F 
ATOM     94  F   UNL A   1      48.247  27.294  36.331  1.00  0.00    -0.200 F 
ENDBRANCH  61  84
ENDBRANCH  35  36
ENDBRANCH  27  30
ENDBRANCH  25  26
ENDBRANCH   1  25
TORSDOF 12
ENDMDL
