MODEL 1
REMARK VINA RESULT:     -11.9      0.000      0.000
REMARK SMILES CC(C)(C)N(CC(=O)NCCCNC(=O)c1ccc(-c2c3nc(c(-c4c(F)c(F)c(F)c(F)c4F)c4ccc([nH]4)c(-c4c(F)c(F)c(F)c(F)c4F)c4nc(c(-c5c(F)c(F)c(F)c(F)c5F)c5ccc2[nH]5)C=C4)C=C3)cc1)C(=O)C1(c2ccccc2)CCC1
REMARK SMILES IDX 10 1 9 2 7 3 8 4 6 6 5 7 2 8 1 9 3 10 4 11 79 12 80 13 81 14
REMARK SMILES IDX 88 15 90 16 89 17 82 18 83 19 87 20 84 21 86 22 85 23 11 24
REMARK SMILES IDX 12 25 13 26 14 27 15 29 16 30 17 31 78 32 18 33 77 34 19 35
REMARK SMILES IDX 20 36 21 37 71 38 22 39 76 40 70 41 72 42 23 43 75 44 69 45
REMARK SMILES IDX 68 46 24 48 56 49 36 50 55 51 37 52 40 53 54 54 73 55 38 56
REMARK SMILES IDX 39 57 53 59 74 60 41 61 25 62 26 63 34 64 27 65 28 66 32 67
REMARK SMILES IDX 35 68 29 69 30 70 33 71 31 72 57 73 58 74 66 75 59 76 60 77
REMARK SMILES IDX 64 78 67 79 61 80 62 81 65 82 63 83 42 84 43 85 51 86 44 87
REMARK SMILES IDX 45 88 49 89 52 90 46 91 47 92 50 93 48 94
REMARK H PARENT 9 5 13 28 72 47 40 58
REMARK Flexibility Score: inf
ROOT
ATOM      1  C   UNL A   1      32.323  27.958  22.852  1.00  0.00     0.117 C 
ENDROOT
BRANCH   1   2
ATOM      2  N   UNL A   1      32.940  26.832  22.191  1.00  0.00    -0.354 N 
ATOM      3  C   UNL A   1      32.696  25.501  22.292  1.00  0.00     0.239 C 
ATOM      4  O   UNL A   1      33.167  24.792  21.392  1.00  0.00    -0.273 OA
ATOM      5  H   UNL A   1      33.658  27.069  21.561  1.00  0.00     0.163 HD
BRANCH   3   6
ATOM      6  C   UNL A   1      31.744  24.866  23.320  1.00  0.00     0.220 C 
BRANCH   6   7
ATOM      7  N   UNL A   1      32.225  24.076  24.467  1.00  0.00    -0.328 N 
BRANCH   7   8
ATOM      8  C   UNL A   1      32.835  24.790  25.671  1.00  0.00     0.035 C 
ATOM      9  C   UNL A   1      34.216  25.452  25.400  1.00  0.00     0.034 C 
ATOM     10  C   UNL A   1      33.051  23.847  26.881  1.00  0.00     0.034 C 
ATOM     11  C   UNL A   1      31.912  25.956  26.105  1.00  0.00     0.034 C 
ENDBRANCH   7   8
BRANCH   7  12
ATOM     12  C   UNL A   1      31.863  22.697  24.617  1.00  0.00     0.234 C 
ATOM     13  O   UNL A   1      30.845  22.410  25.275  1.00  0.00    -0.274 OA
BRANCH  12  14
ATOM     14  C   UNL A   1      32.670  21.494  23.949  1.00  0.00     0.074 C 
ATOM     15  C   UNL A   1      32.245  20.082  24.605  1.00  0.00     0.022 C 
ATOM     16  C   UNL A   1      32.153  20.811  22.624  1.00  0.00     0.022 C 
ATOM     17  C   UNL A   1      32.478  19.438  23.235  1.00  0.00     0.003 C 
BRANCH  14  18
ATOM     18  C   UNL A   1      34.260  21.812  24.098  1.00  0.00    -0.032 A 
ATOM     19  C   UNL A   1      35.020  21.291  25.169  1.00  0.00     0.005 A 
ATOM     20  C   UNL A   1      34.975  22.598  23.176  1.00  0.00     0.005 A 
ATOM     21  C   UNL A   1      36.383  21.561  25.325  1.00  0.00     0.000 A 
ATOM     22  C   UNL A   1      36.329  22.908  23.340  1.00  0.00     0.000 A 
ATOM     23  C   UNL A   1      37.035  22.387  24.418  1.00  0.00     0.000 A 
ENDBRANCH  14  18
ENDBRANCH  12  14
ENDBRANCH   7  12
ENDBRANCH   6   7
ENDBRANCH   3   6
ENDBRANCH   1   2
BRANCH   1  24
ATOM     24  C   UNL A   1      33.315  28.970  23.406  1.00  0.00     0.042 C 
BRANCH  24  25
ATOM     25  C   UNL A   1      33.438  28.969  24.926  1.00  0.00     0.118 C 
BRANCH  25  26
ATOM     26  N   UNL A   1      32.908  30.178  25.543  1.00  0.00    -0.352 N 
ATOM     27  C   UNL A   1      33.270  30.896  26.652  1.00  0.00     0.251 C 
ATOM     28  H   UNL A   1      32.132  30.553  25.068  1.00  0.00     0.163 HD
ATOM     29  O   UNL A   1      32.519  31.793  27.033  1.00  0.00    -0.269 OA
BRANCH  27  30
ATOM     30  C   UNL A   1      34.513  30.629  27.415  1.00  0.00     0.039 A 
ATOM     31  C   UNL A   1      34.681  29.353  27.968  1.00  0.00     0.014 A 
ATOM     32  C   UNL A   1      35.469  31.611  27.680  1.00  0.00     0.014 A 
ATOM     33  C   UNL A   1      35.813  29.053  28.730  1.00  0.00     0.010 A 
ATOM     34  C   UNL A   1      36.644  31.289  28.362  1.00  0.00     0.010 A 
ATOM     35  C   UNL A   1      36.825  30.010  28.907  1.00  0.00    -0.014 A 
BRANCH  35  36
ATOM     36  C   UNL A   1      38.062  29.678  29.664  1.00  0.00     0.031 A 
ATOM     37  C   UNL A   1      38.297  30.242  31.040  1.00  0.00     0.074 A 
ATOM     38  C   UNL A   1      38.997  28.893  29.095  1.00  0.00     0.049 A 
ATOM     39  N   UNL A   1      39.320  30.075  31.841  1.00  0.00    -0.248 NA
ATOM     40  C   UNL A   1      37.258  31.133  31.579  1.00  0.00     0.031 C 
ATOM     41  C   UNL A   1      38.917  28.327  27.747  1.00  0.00     0.029 A 
ATOM     42  N   UNL A   1      40.199  28.435  29.575  1.00  0.00    -0.354 N 
ATOM     43  C   UNL A   1      39.054  30.845  32.966  1.00  0.00     0.074 A 
ATOM     44  C   UNL A   1      37.800  31.524  32.724  1.00  0.00     0.031 C 
ATOM     45  C   UNL A   1      40.004  27.574  27.521  1.00  0.00     0.029 A 
ATOM     46  C   UNL A   1      40.875  27.629  28.691  1.00  0.00     0.049 A 
ATOM     47  H   UNL A   1      40.545  28.663  30.468  1.00  0.00     0.167 HD
ATOM     48  C   UNL A   1      39.777  30.957  34.107  1.00  0.00     0.037 A 
ATOM     49  C   UNL A   1      42.062  27.005  28.809  1.00  0.00     0.037 A 
ATOM     50  C   UNL A   1      41.010  30.259  34.359  1.00  0.00     0.049 A 
ATOM     51  C   UNL A   1      42.838  27.137  30.091  1.00  0.00     0.074 A 
ATOM     52  C   UNL A   1      41.785  30.260  35.506  1.00  0.00     0.029 A 
ATOM     53  N   UNL A   1      41.653  29.436  33.445  1.00  0.00    -0.354 N 
ATOM     54  N   UNL A   1      42.538  27.809  31.175  1.00  0.00    -0.248 NA
ATOM     55  C   UNL A   1      44.115  26.411  30.169  1.00  0.00     0.031 C 
ATOM     56  C   UNL A   1      42.918  29.474  35.272  1.00  0.00     0.029 A 
ATOM     57  C   UNL A   1      42.824  28.940  33.998  1.00  0.00     0.049 A 
ATOM     58  H   UNL A   1      41.326  29.233  32.539  1.00  0.00     0.167 HD
ATOM     59  C   UNL A   1      43.569  27.566  32.073  1.00  0.00     0.074 A 
ATOM     60  C   UNL A   1      44.495  26.671  31.412  1.00  0.00     0.031 C 
ATOM     61  C   UNL A   1      43.732  28.042  33.331  1.00  0.00     0.037 A 
BRANCH  48  62
ATOM     62  C   UNL A   1      39.246  31.866  35.179  1.00  0.00     0.064 A 
ATOM     63  C   UNL A   1      38.468  31.377  36.240  1.00  0.00     0.173 A 
ATOM     64  C   UNL A   1      39.553  33.235  35.170  1.00  0.00     0.173 A 
ATOM     65  F   UNL A   1      38.137  30.078  36.292  1.00  0.00    -0.203 F 
ATOM     66  C   UNL A   1      37.993  32.229  37.234  1.00  0.00     0.198 A 
ATOM     67  C   UNL A   1      39.103  34.078  36.183  1.00  0.00     0.198 A 
ATOM     68  F   UNL A   1      40.300  33.755  34.185  1.00  0.00    -0.203 F 
ATOM     69  F   UNL A   1      37.211  31.746  38.210  1.00  0.00    -0.200 F 
ATOM     70  C   UNL A   1      38.317  33.576  37.209  1.00  0.00     0.200 A 
ATOM     71  F   UNL A   1      39.429  35.379  36.166  1.00  0.00    -0.200 F 
ATOM     72  F   UNL A   1      37.866  34.394  38.171  1.00  0.00    -0.200 F 
ENDBRANCH  48  62
BRANCH  49  73
ATOM     73  C   UNL A   1      42.573  26.167  27.693  1.00  0.00     0.064 A 
ATOM     74  C   UNL A   1      43.502  26.680  26.776  1.00  0.00     0.173 A 
ATOM     75  C   UNL A   1      42.147  24.842  27.520  1.00  0.00     0.173 A 
ATOM     76  F   UNL A   1      43.922  27.948  26.889  1.00  0.00    -0.203 F 
ATOM     77  C   UNL A   1      43.968  25.906  25.716  1.00  0.00     0.198 A 
ATOM     78  C   UNL A   1      42.637  24.060  26.476  1.00  0.00     0.198 A 
ATOM     79  F   UNL A   1      41.265  24.303  28.373  1.00  0.00    -0.203 F 
ATOM     80  F   UNL A   1      44.819  26.436  24.827  1.00  0.00    -0.200 F 
ATOM     81  C   UNL A   1      43.540  24.595  25.570  1.00  0.00     0.200 A 
ATOM     82  F   UNL A   1      42.232  22.789  26.347  1.00  0.00    -0.200 F 
ATOM     83  F   UNL A   1      43.993  23.850  24.553  1.00  0.00    -0.200 F 
ENDBRANCH  49  73
BRANCH  61  84
ATOM     84  C   UNL A   1      44.941  27.574  34.091  1.00  0.00     0.064 A 
ATOM     85  C   UNL A   1      44.917  26.404  34.864  1.00  0.00     0.173 A 
ATOM     86  C   UNL A   1      46.145  28.289  34.016  1.00  0.00     0.173 A 
ATOM     87  F   UNL A   1      43.786  25.693  34.980  1.00  0.00    -0.203 F 
ATOM     88  C   UNL A   1      46.049  25.985  35.560  1.00  0.00     0.198 A 
ATOM     89  C   UNL A   1      47.282  27.850  34.687  1.00  0.00     0.198 A 
ATOM     90  F   UNL A   1      46.222  29.411  33.283  1.00  0.00    -0.203 F 
ATOM     91  F   UNL A   1      45.989  24.892  36.335  1.00  0.00    -0.200 F 
ATOM     92  C   UNL A   1      47.231  26.704  35.466  1.00  0.00     0.200 A 
ATOM     93  F   UNL A   1      48.428  28.538  34.585  1.00  0.00    -0.200 F 
ATOM     94  F   UNL A   1      48.320  26.295  36.132  1.00  0.00    -0.200 F 
ENDBRANCH  61  84
ENDBRANCH  35  36
ENDBRANCH  27  30
ENDBRANCH  25  26
ENDBRANCH  24  25
ENDBRANCH   1  24
TORSDOF 15
ENDMDL
MODEL 2
REMARK VINA RESULT:     -11.8      0.940      1.925
REMARK SMILES CC(C)(C)N(CC(=O)NCCCNC(=O)c1ccc(-c2c3nc(c(-c4c(F)c(F)c(F)c(F)c4F)c4ccc([nH]4)c(-c4c(F)c(F)c(F)c(F)c4F)c4nc(c(-c5c(F)c(F)c(F)c(F)c5F)c5ccc2[nH]5)C=C4)C=C3)cc1)C(=O)C1(c2ccccc2)CCC1
REMARK SMILES IDX 10 1 9 2 7 3 8 4 6 6 5 7 2 8 1 9 3 10 4 11 79 12 80 13 81 14
REMARK SMILES IDX 88 15 90 16 89 17 82 18 83 19 87 20 84 21 86 22 85 23 11 24
REMARK SMILES IDX 12 25 13 26 14 27 15 29 16 30 17 31 78 32 18 33 77 34 19 35
REMARK SMILES IDX 20 36 21 37 71 38 22 39 76 40 70 41 72 42 23 43 75 44 69 45
REMARK SMILES IDX 68 46 24 48 56 49 36 50 55 51 37 52 40 53 54 54 73 55 38 56
REMARK SMILES IDX 39 57 53 59 74 60 41 61 25 62 26 63 34 64 27 65 28 66 32 67
REMARK SMILES IDX 35 68 29 69 30 70 33 71 31 72 57 73 58 74 66 75 59 76 60 77
REMARK SMILES IDX 64 78 67 79 61 80 62 81 65 82 63 83 42 84 43 85 51 86 44 87
REMARK SMILES IDX 45 88 49 89 52 90 46 91 47 92 50 93 48 94
REMARK H PARENT 9 5 13 28 72 47 40 58
REMARK Flexibility Score: inf
ROOT
ATOM      1  C   UNL A   1      32.038  27.207  26.523  1.00  0.00     0.117 C 
ENDROOT
BRANCH   1   2
ATOM      2  N   UNL A   1      30.946  26.326  26.867  1.00  0.00    -0.354 N 
ATOM      3  C   UNL A   1      30.314  25.369  26.142  1.00  0.00     0.239 C 
ATOM      4  O   UNL A   1      29.620  24.570  26.785  1.00  0.00    -0.273 OA
ATOM      5  H   UNL A   1      30.602  26.439  27.783  1.00  0.00     0.163 HD
BRANCH   3   6
ATOM      6  C   UNL A   1      30.552  25.114  24.644  1.00  0.00     0.220 C 
BRANCH   6   7
ATOM      7  N   UNL A   1      31.875  24.763  24.098  1.00  0.00    -0.328 N 
BRANCH   7   8
ATOM      8  C   UNL A   1      32.531  25.679  23.067  1.00  0.00     0.035 C 
ATOM      9  C   UNL A   1      32.834  25.001  21.700  1.00  0.00     0.034 C 
ATOM     10  C   UNL A   1      33.880  26.262  23.554  1.00  0.00     0.034 C 
ATOM     11  C   UNL A   1      31.574  26.848  22.728  1.00  0.00     0.034 C 
ENDBRANCH   7   8
BRANCH   7  12
ATOM     12  C   UNL A   1      32.691  23.764  24.724  1.00  0.00     0.234 C 
ATOM     13  O   UNL A   1      33.157  23.991  25.857  1.00  0.00    -0.274 OA
BRANCH  12  14
ATOM     14  C   UNL A   1      33.008  22.345  24.069  1.00  0.00     0.074 C 
ATOM     15  C   UNL A   1      32.130  21.182  24.763  1.00  0.00     0.022 C 
ATOM     16  C   UNL A   1      32.253  21.868  22.768  1.00  0.00     0.022 C 
ATOM     17  C   UNL A   1      32.089  20.478  23.404  1.00  0.00     0.003 C 
BRANCH  14  18
ATOM     18  C   UNL A   1      34.611  22.085  24.184  1.00  0.00    -0.032 A 
ATOM     19  C   UNL A   1      35.132  20.998  24.920  1.00  0.00     0.005 A 
ATOM     20  C   UNL A   1      35.568  22.902  23.553  1.00  0.00     0.005 A 
ATOM     21  C   UNL A   1      36.505  20.762  25.044  1.00  0.00     0.000 A 
ATOM     22  C   UNL A   1      36.944  22.701  23.701  1.00  0.00     0.000 A 
ATOM     23  C   UNL A   1      37.414  21.628  24.448  1.00  0.00     0.000 A 
ENDBRANCH  14  18
ENDBRANCH  12  14
ENDBRANCH   7  12
ENDBRANCH   6   7
ENDBRANCH   3   6
ENDBRANCH   1   2
BRANCH   1  24
ATOM     24  C   UNL A   1      31.597  28.539  25.936  1.00  0.00     0.042 C 
BRANCH  24  25
ATOM     25  C   UNL A   1      32.742  29.469  25.548  1.00  0.00     0.118 C 
BRANCH  25  26
ATOM     26  N   UNL A   1      32.548  30.838  26.009  1.00  0.00    -0.352 N 
ATOM     27  C   UNL A   1      33.155  31.592  26.979  1.00  0.00     0.251 C 
ATOM     28  H   UNL A   1      31.837  31.317  25.526  1.00  0.00     0.163 HD
ATOM     29  O   UNL A   1      32.656  32.680  27.264  1.00  0.00    -0.269 OA
BRANCH  27  30
ATOM     30  C   UNL A   1      34.369  31.147  27.704  1.00  0.00     0.039 A 
ATOM     31  C   UNL A   1      35.355  32.103  27.979  1.00  0.00     0.014 A 
ATOM     32  C   UNL A   1      34.608  29.813  28.039  1.00  0.00     0.014 A 
ATOM     33  C   UNL A   1      36.539  31.736  28.625  1.00  0.00     0.010 A 
ATOM     34  C   UNL A   1      35.747  29.460  28.766  1.00  0.00     0.010 A 
ATOM     35  C   UNL A   1      36.733  30.414  29.057  1.00  0.00    -0.014 A 
BRANCH  35  36
ATOM     36  C   UNL A   1      37.962  30.029  29.800  1.00  0.00     0.031 A 
ATOM     37  C   UNL A   1      38.207  30.533  31.198  1.00  0.00     0.074 A 
ATOM     38  C   UNL A   1      38.883  29.249  29.201  1.00  0.00     0.049 A 
ATOM     39  N   UNL A   1      39.226  30.315  31.992  1.00  0.00    -0.248 NA
ATOM     40  C   UNL A   1      37.185  31.421  31.772  1.00  0.00     0.031 C 
ATOM     41  C   UNL A   1      38.793  28.740  27.831  1.00  0.00     0.029 A 
ATOM     42  N   UNL A   1      40.075  28.750  29.662  1.00  0.00    -0.354 N 
ATOM     43  C   UNL A   1      38.974  31.043  33.146  1.00  0.00     0.074 A 
ATOM     44  C   UNL A   1      37.733  31.756  32.932  1.00  0.00     0.031 C 
ATOM     45  C   UNL A   1      39.866  27.976  27.575  1.00  0.00     0.029 A 
ATOM     46  C   UNL A   1      40.736  27.968  28.746  1.00  0.00     0.049 A 
ATOM     47  H   UNL A   1      40.425  28.935  30.563  1.00  0.00     0.167 HD
ATOM     48  C   UNL A   1      39.698  31.096  34.291  1.00  0.00     0.037 A 
ATOM     49  C   UNL A   1      41.911  27.316  28.840  1.00  0.00     0.037 A 
ATOM     50  C   UNL A   1      40.917  30.365  34.515  1.00  0.00     0.049 A 
ATOM     51  C   UNL A   1      42.689  27.382  30.126  1.00  0.00     0.074 A 
ATOM     52  C   UNL A   1      41.691  30.306  35.662  1.00  0.00     0.029 A 
ATOM     53  N   UNL A   1      41.545  29.568  33.570  1.00  0.00    -0.354 N 
ATOM     54  N   UNL A   1      42.400  28.016  31.236  1.00  0.00    -0.248 NA
ATOM     55  C   UNL A   1      43.951  26.630  30.175  1.00  0.00     0.031 C 
ATOM     56  C   UNL A   1      42.809  29.508  35.397  1.00  0.00     0.029 A 
ATOM     57  C   UNL A   1      42.705  29.027  34.102  1.00  0.00     0.049 A 
ATOM     58  H   UNL A   1      41.215  29.407  32.656  1.00  0.00     0.167 HD
ATOM     59  C   UNL A   1      43.426  27.718  32.123  1.00  0.00     0.074 A 
ATOM     60  C   UNL A   1      44.335  26.832  31.427  1.00  0.00     0.031 C 
ATOM     61  C   UNL A   1      43.597  28.140  33.400  1.00  0.00     0.037 A 
BRANCH  48  62
ATOM     62  C   UNL A   1      39.183  31.971  35.399  1.00  0.00     0.064 A 
ATOM     63  C   UNL A   1      38.396  31.455  36.440  1.00  0.00     0.173 A 
ATOM     64  C   UNL A   1      39.516  33.334  35.445  1.00  0.00     0.173 A 
ATOM     65  F   UNL A   1      38.042  30.161  36.440  1.00  0.00    -0.203 F 
ATOM     66  C   UNL A   1      37.937  32.275  37.467  1.00  0.00     0.198 A 
ATOM     67  C   UNL A   1      39.080  34.144  36.490  1.00  0.00     0.198 A 
ATOM     68  F   UNL A   1      40.272  33.878  34.480  1.00  0.00    -0.203 F 
ATOM     69  F   UNL A   1      37.145  31.768  38.424  1.00  0.00    -0.200 F 
ATOM     70  C   UNL A   1      38.285  33.616  37.496  1.00  0.00     0.200 A 
ATOM     71  F   UNL A   1      39.430  35.438  36.524  1.00  0.00    -0.200 F 
ATOM     72  F   UNL A   1      37.849  34.403  38.490  1.00  0.00    -0.200 F 
ENDBRANCH  48  62
BRANCH  49  73
ATOM     73  C   UNL A   1      42.407  26.515  27.691  1.00  0.00     0.064 A 
ATOM     74  C   UNL A   1      43.351  27.043  26.799  1.00  0.00     0.173 A 
ATOM     75  C   UNL A   1      41.952  25.208  27.461  1.00  0.00     0.173 A 
ATOM     76  F   UNL A   1      43.801  28.295  26.966  1.00  0.00    -0.203 F 
ATOM     77  C   UNL A   1      43.803  26.304  25.708  1.00  0.00     0.198 A 
ATOM     78  C   UNL A   1      42.428  24.460  26.387  1.00  0.00     0.198 A 
ATOM     79  F   UNL A   1      41.053  24.654  28.289  1.00  0.00    -0.203 F 
ATOM     80  F   UNL A   1      44.671  26.851  24.845  1.00  0.00    -0.200 F 
ATOM     81  C   UNL A   1      43.346  25.010  25.507  1.00  0.00     0.200 A 
ATOM     82  F   UNL A   1      41.994  23.205  26.203  1.00  0.00    -0.200 F 
ATOM     83  F   UNL A   1      43.786  24.299  24.460  1.00  0.00    -0.200 F 
ENDBRANCH  49  73
BRANCH  61  84
ATOM     84  C   UNL A   1      44.796  27.618  34.140  1.00  0.00     0.064 A 
ATOM     85  C   UNL A   1      46.033  28.278  34.099  1.00  0.00     0.173 A 
ATOM     86  C   UNL A   1      44.693  26.461  34.927  1.00  0.00     0.173 A 
ATOM     87  F   UNL A   1      46.186  29.380  33.351  1.00  0.00    -0.203 F 
ATOM     88  C   UNL A   1      47.132  27.779  34.795  1.00  0.00     0.198 A 
ATOM     89  C   UNL A   1      45.785  25.983  35.645  1.00  0.00     0.198 A 
ATOM     90  F   UNL A   1      43.529  25.797  35.006  1.00  0.00    -0.203 F 
ATOM     91  F   UNL A   1      48.318  28.397  34.700  1.00  0.00    -0.200 F 
ATOM     92  C   UNL A   1      47.005  26.637  35.572  1.00  0.00     0.200 A 
ATOM     93  F   UNL A   1      45.658  24.887  36.406  1.00  0.00    -0.200 F 
ATOM     94  F   UNL A   1      48.064  26.163  36.244  1.00  0.00    -0.200 F 
ENDBRANCH  61  84
ENDBRANCH  35  36
ENDBRANCH  27  30
ENDBRANCH  25  26
ENDBRANCH  24  25
ENDBRANCH   1  24
TORSDOF 15
ENDMDL
MODEL 3
REMARK VINA RESULT:     -11.8      0.195      2.014
REMARK SMILES CC(C)(C)N(CC(=O)NCCCNC(=O)c1ccc(-c2c3nc(c(-c4c(F)c(F)c(F)c(F)c4F)c4ccc([nH]4)c(-c4c(F)c(F)c(F)c(F)c4F)c4nc(c(-c5c(F)c(F)c(F)c(F)c5F)c5ccc2[nH]5)C=C4)C=C3)cc1)C(=O)C1(c2ccccc2)CCC1
REMARK SMILES IDX 10 1 9 2 7 3 8 4 6 6 5 7 2 8 1 9 3 10 4 11 79 12 80 13 81 14
REMARK SMILES IDX 88 15 90 16 89 17 82 18 83 19 87 20 84 21 86 22 85 23 11 24
REMARK SMILES IDX 12 25 13 26 14 27 15 29 16 30 17 31 78 32 18 33 77 34 19 35
REMARK SMILES IDX 20 36 21 37 71 38 22 39 76 40 70 41 72 42 23 43 75 44 69 45
REMARK SMILES IDX 68 46 24 48 56 49 36 50 55 51 37 52 40 53 54 54 73 55 38 56
REMARK SMILES IDX 39 57 53 59 74 60 41 61 25 62 26 63 34 64 27 65 28 66 32 67
REMARK SMILES IDX 35 68 29 69 30 70 33 71 31 72 57 73 58 74 66 75 59 76 60 77
REMARK SMILES IDX 64 78 67 79 61 80 62 81 65 82 63 83 42 84 43 85 51 86 44 87
REMARK SMILES IDX 45 88 49 89 52 90 46 91 47 92 50 93 48 94
REMARK H PARENT 9 5 13 28 72 47 40 58
REMARK Flexibility Score: inf
ROOT
ATOM      1  C   UNL A   1      32.299  28.187  23.069  1.00  0.00     0.117 C 
ENDROOT
BRANCH   1   2
ATOM      2  N   UNL A   1      32.976  27.106  22.393  1.00  0.00    -0.354 N 
ATOM      3  C   UNL A   1      32.782  25.764  22.448  1.00  0.00     0.239 C 
ATOM      4  O   UNL A   1      33.305  25.102  21.540  1.00  0.00    -0.273 OA
ATOM      5  H   UNL A   1      33.702  27.390  21.791  1.00  0.00     0.163 HD
BRANCH   3   6
ATOM      6  C   UNL A   1      31.827  25.062  23.428  1.00  0.00     0.220 C 
BRANCH   6   7
ATOM      7  N   UNL A   1      32.306  24.205  24.527  1.00  0.00    -0.328 N 
BRANCH   7   8
ATOM      8  C   UNL A   1      32.941  24.843  25.759  1.00  0.00     0.035 C 
ATOM      9  C   UNL A   1      34.261  25.617  25.479  1.00  0.00     0.034 C 
ATOM     10  C   UNL A   1      33.287  23.809  26.860  1.00  0.00     0.034 C 
ATOM     11  C   UNL A   1      31.977  25.900  26.351  1.00  0.00     0.034 C 
ENDBRANCH   7   8
BRANCH   7  12
ATOM     12  C   UNL A   1      31.920  22.826  24.608  1.00  0.00     0.234 C 
ATOM     13  O   UNL A   1      30.922  22.520  25.288  1.00  0.00    -0.274 OA
BRANCH  12  14
ATOM     14  C   UNL A   1      32.674  21.650  23.838  1.00  0.00     0.074 C 
ATOM     15  C   UNL A   1      32.153  20.208  24.341  1.00  0.00     0.022 C 
ATOM     16  C   UNL A   1      32.154  21.135  22.441  1.00  0.00     0.022 C 
ATOM     17  C   UNL A   1      32.384  19.691  22.917  1.00  0.00     0.003 C 
BRANCH  14  18
ATOM     18  C   UNL A   1      34.276  21.858  24.050  1.00  0.00    -0.032 A 
ATOM     19  C   UNL A   1      34.990  21.132  25.029  1.00  0.00     0.005 A 
ATOM     20  C   UNL A   1      35.044  22.745  23.275  1.00  0.00     0.005 A 
ATOM     21  C   UNL A   1      36.363  21.302  25.238  1.00  0.00     0.000 A 
ATOM     22  C   UNL A   1      36.408  22.953  23.499  1.00  0.00     0.000 A 
ATOM     23  C   UNL A   1      37.070  22.230  24.483  1.00  0.00     0.000 A 
ENDBRANCH  14  18
ENDBRANCH  12  14
ENDBRANCH   7  12
ENDBRANCH   6   7
ENDBRANCH   3   6
ENDBRANCH   1   2
BRANCH   1  24
ATOM     24  C   UNL A   1      33.227  29.119  23.834  1.00  0.00     0.042 C 
BRANCH  24  25
ATOM     25  C   UNL A   1      33.003  29.137  25.341  1.00  0.00     0.118 C 
BRANCH  25  26
ATOM     26  N   UNL A   1      32.724  30.470  25.862  1.00  0.00    -0.352 N 
ATOM     27  C   UNL A   1      33.267  31.207  26.881  1.00  0.00     0.251 C 
ATOM     28  H   UNL A   1      31.999  30.933  25.385  1.00  0.00     0.163 HD
ATOM     29  O   UNL A   1      32.703  32.251  27.205  1.00  0.00    -0.269 OA
BRANCH  27  30
ATOM     30  C   UNL A   1      34.487  30.793  27.615  1.00  0.00     0.039 A 
ATOM     31  C   UNL A   1      35.472  31.761  27.847  1.00  0.00     0.014 A 
ATOM     32  C   UNL A   1      34.732  29.474  27.999  1.00  0.00     0.014 A 
ATOM     33  C   UNL A   1      36.661  31.422  28.500  1.00  0.00     0.010 A 
ATOM     34  C   UNL A   1      35.877  29.151  28.731  1.00  0.00     0.010 A 
ATOM     35  C   UNL A   1      36.861  30.118  28.979  1.00  0.00    -0.014 A 
BRANCH  35  36
ATOM     36  C   UNL A   1      38.096  29.764  29.729  1.00  0.00     0.031 A 
ATOM     37  C   UNL A   1      38.342  30.311  31.111  1.00  0.00     0.074 A 
ATOM     38  C   UNL A   1      39.021  28.974  29.149  1.00  0.00     0.049 A 
ATOM     39  N   UNL A   1      39.366  30.123  31.906  1.00  0.00    -0.248 NA
ATOM     40  C   UNL A   1      37.315  31.207  31.662  1.00  0.00     0.031 C 
ATOM     41  C   UNL A   1      38.930  28.424  27.795  1.00  0.00     0.029 A 
ATOM     42  N   UNL A   1      40.219  28.498  29.620  1.00  0.00    -0.354 N 
ATOM     43  C   UNL A   1      39.112  30.884  33.040  1.00  0.00     0.074 A 
ATOM     44  C   UNL A   1      37.865  31.580  32.809  1.00  0.00     0.031 C 
ATOM     45  C   UNL A   1      40.008  27.661  27.557  1.00  0.00     0.029 A 
ATOM     46  C   UNL A   1      40.883  27.694  28.725  1.00  0.00     0.049 A 
ATOM     47  H   UNL A   1      40.570  28.712  30.514  1.00  0.00     0.167 HD
ATOM     48  C   UNL A   1      39.840  30.975  34.179  1.00  0.00     0.037 A 
ATOM     49  C   UNL A   1      42.063  27.055  28.833  1.00  0.00     0.037 A 
ATOM     50  C   UNL A   1      41.066  30.261  34.420  1.00  0.00     0.049 A 
ATOM     51  C   UNL A   1      42.844  27.164  30.113  1.00  0.00     0.074 A 
ATOM     52  C   UNL A   1      41.844  30.241  35.565  1.00  0.00     0.029 A 
ATOM     53  N   UNL A   1      41.696  29.441  33.496  1.00  0.00    -0.354 N 
ATOM     54  N   UNL A   1      42.555  27.828  31.206  1.00  0.00    -0.248 NA
ATOM     55  C   UNL A   1      44.113  26.424  30.179  1.00  0.00     0.031 C 
ATOM     56  C   UNL A   1      42.967  29.444  35.319  1.00  0.00     0.029 A 
ATOM     57  C   UNL A   1      42.863  28.925  34.039  1.00  0.00     0.049 A 
ATOM     58  H   UNL A   1      41.364  29.251  32.589  1.00  0.00     0.167 HD
ATOM     59  C   UNL A   1      43.587  27.564  32.097  1.00  0.00     0.074 A 
ATOM     60  C   UNL A   1      44.500  26.666  31.423  1.00  0.00     0.031 C 
ATOM     61  C   UNL A   1      43.759  28.025  33.360  1.00  0.00     0.037 A 
BRANCH  48  62
ATOM     62  C   UNL A   1      39.323  31.879  35.264  1.00  0.00     0.064 A 
ATOM     63  C   UNL A   1      39.627  33.249  35.288  1.00  0.00     0.173 A 
ATOM     64  C   UNL A   1      38.479  31.378  36.267  1.00  0.00     0.173 A 
ATOM     65  F   UNL A   1      40.436  33.777  34.358  1.00  0.00    -0.203 F 
ATOM     66  C   UNL A   1      39.130  34.076  36.291  1.00  0.00     0.198 A 
ATOM     67  C   UNL A   1      37.959  32.216  37.250  1.00  0.00     0.198 A 
ATOM     68  F   UNL A   1      38.149  30.078  36.287  1.00  0.00    -0.203 F 
ATOM     69  F   UNL A   1      39.475  35.372  36.321  1.00  0.00    -0.200 F 
ATOM     70  C   UNL A   1      38.291  33.561  37.267  1.00  0.00     0.200 A 
ATOM     71  F   UNL A   1      37.135  31.719  38.185  1.00  0.00    -0.200 F 
ATOM     72  F   UNL A   1      37.807  34.361  38.228  1.00  0.00    -0.200 F 
ENDBRANCH  48  62
BRANCH  49  73
ATOM     73  C   UNL A   1      42.561  26.223  27.706  1.00  0.00     0.064 A 
ATOM     74  C   UNL A   1      42.103  24.911  27.524  1.00  0.00     0.173 A 
ATOM     75  C   UNL A   1      43.499  26.721  26.790  1.00  0.00     0.173 A 
ATOM     76  F   UNL A   1      41.221  24.385  28.386  1.00  0.00    -0.203 F 
ATOM     77  C   UNL A   1      42.582  24.120  26.482  1.00  0.00     0.198 A 
ATOM     78  C   UNL A   1      43.954  25.938  25.731  1.00  0.00     0.198 A 
ATOM     79  F   UNL A   1      43.964  27.972  26.917  1.00  0.00    -0.203 F 
ATOM     80  F   UNL A   1      42.162  22.853  26.358  1.00  0.00    -0.200 F 
ATOM     81  C   UNL A   1      43.502  24.636  25.582  1.00  0.00     0.200 A 
ATOM     82  F   UNL A   1      44.834  26.446  24.856  1.00  0.00    -0.200 F 
ATOM     83  F   UNL A   1      43.958  23.876  24.578  1.00  0.00    -0.200 F 
ENDBRANCH  49  73
BRANCH  61  84
ATOM     84  C   UNL A   1      44.964  27.534  34.111  1.00  0.00     0.064 A 
ATOM     85  C   UNL A   1      46.174  28.244  34.108  1.00  0.00     0.173 A 
ATOM     86  C   UNL A   1      44.895  26.355  34.869  1.00  0.00     0.173 A 
ATOM     87  F   UNL A   1      46.296  29.368  33.387  1.00  0.00    -0.203 F 
ATOM     88  C   UNL A   1      47.280  27.773  34.812  1.00  0.00     0.198 A 
ATOM     89  C   UNL A   1      45.992  25.905  35.596  1.00  0.00     0.198 A 
ATOM     90  F   UNL A   1      43.758  25.644  34.912  1.00  0.00    -0.203 F 
ATOM     91  F   UNL A   1      48.442  28.440  34.753  1.00  0.00    -0.200 F 
ATOM     92  C   UNL A   1      47.186  26.609  35.561  1.00  0.00     0.200 A 
ATOM     93  F   UNL A   1      45.896  24.787  36.330  1.00  0.00    -0.200 F 
ATOM     94  F   UNL A   1      48.251  26.162  36.241  1.00  0.00    -0.200 F 
ENDBRANCH  61  84
ENDBRANCH  35  36
ENDBRANCH  27  30
ENDBRANCH  25  26
ENDBRANCH  24  25
ENDBRANCH   1  24
TORSDOF 15
ENDMDL
