MODEL 1
REMARK VINA RESULT:     -15.4      0.000      0.000
REMARK SMILES Cc1nn(-c2nc3ccccc3o2)c2c1[C@H](c1ccc(C(=O)NCCCNC(=O)c3ccc(-c4c5nc(c(-c6c(F)c(F)c(F)c(F)c6F)c6ccc([nH]6)c(-c6c(F)c(F)c(F)c(F)c6F)c6nc(c(-c7c(F)c(F)c(F)c(F)c7F)c7ccc4[nH]7)C=C6)C=C5)cc3)cc1)CC(=O)N2
REMARK SMILES IDX 25 1 24 2 23 3 21 4 22 5 20 7 17 8 18 9 94 10 19 11 93 12
REMARK SMILES IDX 16 13 1 14 2 15 3 16 15 17 4 18 14 19 98 20 95 21 96 22
REMARK SMILES IDX 97 24 5 25 6 26 13 27 7 28 12 29 8 30 11 31 9 32 10 33 26 34
REMARK SMILES IDX 27 35 28 36 29 38 30 39 31 40 92 41 32 42 91 43 33 44 34 45
REMARK SMILES IDX 35 46 85 47 36 48 90 49 84 50 86 51 37 52 89 53 83 54 82 55
REMARK SMILES IDX 38 57 70 58 50 59 69 60 51 61 54 62 68 63 87 64 52 65 53 66
REMARK SMILES IDX 67 68 88 69 55 70 39 71 40 72 48 73 41 74 42 75 46 76 49 77
REMARK SMILES IDX 43 78 44 79 47 80 45 81 71 82 72 83 80 84 73 85 74 86 78 87
REMARK SMILES IDX 81 88 75 89 76 90 79 91 77 92 56 93 57 94 65 95 58 96 59 97
REMARK SMILES IDX 63 98 66 99 60 100 61 101 64 102 62 103
REMARK H PARENT 23 6 98 23 27 37 86 56 54 67
REMARK Flexibility Score: inf
ROOT
ATOM      1  C   UNL A   1      31.350  31.850  26.171  1.00  0.00     0.042 C 
ENDROOT
BRANCH   1   2
ATOM      2  C   UNL A   1      31.547  30.365  25.826  1.00  0.00     0.118 C 
BRANCH   2   3
ATOM      3  N   UNL A   1      31.407  30.095  24.399  1.00  0.00    -0.352 N 
ATOM      4  C   UNL A   1      31.749  28.981  23.666  1.00  0.00     0.251 C 
ATOM      5  O   UNL A   1      31.382  28.901  22.495  1.00  0.00    -0.269 OA
ATOM      6  H   UNL A   1      31.005  30.826  23.876  1.00  0.00     0.163 HD
BRANCH   4   7
ATOM      7  C   UNL A   1      32.524  27.862  24.263  1.00  0.00     0.039 A 
ATOM      8  C   UNL A   1      34.002  25.744  25.443  1.00  0.00    -0.040 A 
ATOM      9  C   UNL A   1      33.592  26.858  26.200  1.00  0.00     0.005 A 
ATOM     10  C   UNL A   1      33.630  25.713  24.093  1.00  0.00     0.005 A 
ATOM     11  C   UNL A   1      32.838  27.892  25.624  1.00  0.00     0.014 A 
ATOM     12  C   UNL A   1      32.898  26.748  23.521  1.00  0.00     0.014 A 
BRANCH   8  13
ATOM     13  C   UNL A   1      34.773  24.598  26.090  1.00  0.00     0.064 C 
ATOM     14  C   UNL A   1      31.491  24.006  27.026  1.00  0.00     0.069 C 
ATOM     15  C   UNL A   1      32.517  23.136  26.393  1.00  0.00     0.066 A 
ATOM     16  N   UNL A   1      32.178  21.870  26.112  1.00  0.00    -0.167 NA
ATOM     17  C   UNL A   1      33.874  23.403  26.047  1.00  0.00     0.026 A 
ATOM     18  N   UNL A   1      33.328  21.291  25.700  1.00  0.00    -0.166 N 
ATOM     19  C   UNL A   1      34.385  22.160  25.751  1.00  0.00     0.145 A 
ATOM     20  N   UNL A   1      35.710  21.861  25.546  1.00  0.00    -0.310 N 
ATOM     21  C   UNL A   1      36.118  24.291  25.378  1.00  0.00     0.113 C 
ATOM     22  C   UNL A   1      36.639  22.871  25.535  1.00  0.00     0.226 C 
ATOM     23  H   UNL A   1      35.991  20.928  25.406  1.00  0.00     0.171 HD
ATOM     24  O   UNL A   1      37.840  22.614  25.494  1.00  0.00    -0.275 OA
BRANCH  18  25
ATOM     25  C   UNL A   1      33.302  19.959  25.312  1.00  0.00     0.325 A 
ATOM     26  N   UNL A   1      32.524  19.080  25.929  1.00  0.00    -0.191 NA
ATOM     27  O   UNL A   1      34.040  19.433  24.276  1.00  0.00    -0.422 OA
ATOM     28  C   UNL A   1      32.864  17.888  25.357  1.00  0.00     0.111 A 
ATOM     29  C   UNL A   1      33.818  18.091  24.374  1.00  0.00     0.156 A 
ATOM     30  C   UNL A   1      32.440  16.588  25.644  1.00  0.00     0.032 A 
ATOM     31  C   UNL A   1      34.449  17.077  23.667  1.00  0.00     0.049 A 
ATOM     32  C   UNL A   1      33.090  15.532  24.992  1.00  0.00     0.003 A 
ATOM     33  C   UNL A   1      34.084  15.775  24.033  1.00  0.00     0.004 A 
ENDBRANCH  18  25
ENDBRANCH   8  13
ENDBRANCH   4   7
ENDBRANCH   2   3
ENDBRANCH   1   2
BRANCH   1  34
ATOM     34  C   UNL A   1      32.261  32.312  27.288  1.00  0.00     0.118 C 
BRANCH  34  35
ATOM     35  N   UNL A   1      32.237  33.770  27.474  1.00  0.00    -0.352 N 
ATOM     36  C   UNL A   1      32.958  34.563  28.362  1.00  0.00     0.251 C 
ATOM     37  H   UNL A   1      31.619  34.259  26.884  1.00  0.00     0.163 HD
ATOM     38  O   UNL A   1      32.592  35.687  28.643  1.00  0.00    -0.269 OA
BRANCH  36  39
ATOM     39  C   UNL A   1      34.196  34.013  28.945  1.00  0.00     0.039 A 
ATOM     40  C   UNL A   1      34.293  33.496  30.243  1.00  0.00     0.014 A 
ATOM     41  C   UNL A   1      35.285  33.966  28.099  1.00  0.00     0.014 A 
ATOM     42  C   UNL A   1      35.513  32.951  30.646  1.00  0.00     0.010 A 
ATOM     43  C   UNL A   1      36.234  33.036  28.347  1.00  0.00     0.010 A 
ATOM     44  C   UNL A   1      36.494  32.759  29.672  1.00  0.00    -0.014 A 
BRANCH  44  45
ATOM     45  C   UNL A   1      37.823  32.217  29.896  1.00  0.00     0.031 A 
ATOM     46  C   UNL A   1      37.965  30.819  29.432  1.00  0.00     0.074 A 
ATOM     47  C   UNL A   1      38.869  33.049  30.125  1.00  0.00     0.049 A 
ATOM     48  N   UNL A   1      38.110  29.759  30.153  1.00  0.00    -0.248 NA
ATOM     49  C   UNL A   1      37.702  30.538  28.008  1.00  0.00     0.031 C 
ATOM     50  C   UNL A   1      38.871  34.518  30.219  1.00  0.00     0.029 A 
ATOM     51  N   UNL A   1      40.197  32.754  30.190  1.00  0.00    -0.354 N 
ATOM     52  C   UNL A   1      38.195  28.710  29.244  1.00  0.00     0.074 A 
ATOM     53  C   UNL A   1      37.640  29.207  28.018  1.00  0.00     0.031 C 
ATOM     54  C   UNL A   1      40.136  34.986  30.113  1.00  0.00     0.029 A 
ATOM     55  C   UNL A   1      41.046  33.859  30.081  1.00  0.00     0.049 A 
ATOM     56  H   UNL A   1      40.533  31.836  30.306  1.00  0.00     0.167 HD
ATOM     57  C   UNL A   1      39.020  27.649  29.474  1.00  0.00     0.037 A 
ATOM     58  C   UNL A   1      42.395  33.804  29.917  1.00  0.00     0.037 A 
ATOM     59  C   UNL A   1      39.447  27.644  30.856  1.00  0.00     0.049 A 
ATOM     60  C   UNL A   1      42.816  32.428  30.307  1.00  0.00     0.074 A 
ATOM     61  C   UNL A   1      38.787  27.610  32.070  1.00  0.00     0.029 A 
ATOM     62  N   UNL A   1      40.711  28.110  31.134  1.00  0.00    -0.354 N 
ATOM     63  N   UNL A   1      42.735  31.973  31.529  1.00  0.00    -0.248 NA
ATOM     64  C   UNL A   1      42.815  31.414  29.261  1.00  0.00     0.031 C 
ATOM     65  C   UNL A   1      39.503  28.524  32.900  1.00  0.00     0.029 A 
ATOM     66  C   UNL A   1      40.614  28.977  32.190  1.00  0.00     0.049 A 
ATOM     67  H   UNL A   1      41.538  27.865  30.658  1.00  0.00     0.167 HD
ATOM     68  C   UNL A   1      42.246  30.681  31.393  1.00  0.00     0.074 A 
ATOM     69  C   UNL A   1      42.366  30.373  29.968  1.00  0.00     0.031 C 
ATOM     70  C   UNL A   1      41.500  30.102  32.381  1.00  0.00     0.037 A 
BRANCH  57  71
ATOM     71  C   UNL A   1      39.777  26.886  28.403  1.00  0.00     0.064 A 
ATOM     72  C   UNL A   1      39.675  25.479  28.397  1.00  0.00     0.173 A 
ATOM     73  C   UNL A   1      40.806  27.412  27.591  1.00  0.00     0.173 A 
ATOM     74  F   UNL A   1      38.723  24.859  29.110  1.00  0.00    -0.203 F 
ATOM     75  C   UNL A   1      40.606  24.669  27.742  1.00  0.00     0.198 A 
ATOM     76  C   UNL A   1      41.702  26.600  26.897  1.00  0.00     0.198 A 
ATOM     77  F   UNL A   1      41.069  28.717  27.496  1.00  0.00    -0.203 F 
ATOM     78  F   UNL A   1      40.546  23.339  27.890  1.00  0.00    -0.200 F 
ATOM     79  C   UNL A   1      41.629  25.230  27.005  1.00  0.00     0.200 A 
ATOM     80  F   UNL A   1      42.690  27.169  26.190  1.00  0.00    -0.200 F 
ATOM     81  F   UNL A   1      42.566  24.461  26.438  1.00  0.00    -0.200 F 
ENDBRANCH  57  71
BRANCH  58  82
ATOM     82  C   UNL A   1      43.282  34.726  29.158  1.00  0.00     0.064 A 
ATOM     83  C   UNL A   1      43.591  34.501  27.805  1.00  0.00     0.173 A 
ATOM     84  C   UNL A   1      43.629  35.992  29.670  1.00  0.00     0.173 A 
ATOM     85  F   UNL A   1      43.255  33.342  27.220  1.00  0.00    -0.203 F 
ATOM     86  C   UNL A   1      44.192  35.488  27.010  1.00  0.00     0.198 A 
ATOM     87  C   UNL A   1      44.232  36.974  28.879  1.00  0.00     0.198 A 
ATOM     88  F   UNL A   1      43.304  36.335  30.924  1.00  0.00    -0.203 F 
ATOM     89  F   UNL A   1      44.421  35.257  25.710  1.00  0.00    -0.200 F 
ATOM     90  C   UNL A   1      44.502  36.727  27.547  1.00  0.00     0.200 A 
ATOM     91  F   UNL A   1      44.490  38.181  29.402  1.00  0.00    -0.200 F 
ATOM     92  F   UNL A   1      45.021  37.693  26.775  1.00  0.00    -0.200 F 
ENDBRANCH  58  82
BRANCH  70  93
ATOM     93  C   UNL A   1      41.405  30.805  33.708  1.00  0.00     0.064 A 
ATOM     94  C   UNL A   1      40.409  31.744  34.035  1.00  0.00     0.173 A 
ATOM     95  C   UNL A   1      42.238  30.369  34.744  1.00  0.00     0.173 A 
ATOM     96  F   UNL A   1      39.510  32.138  33.127  1.00  0.00    -0.203 F 
ATOM     97  C   UNL A   1      40.276  32.239  35.331  1.00  0.00     0.198 A 
ATOM     98  C   UNL A   1      42.082  30.838  36.045  1.00  0.00     0.198 A 
ATOM     99  F   UNL A   1      43.170  29.433  34.505  1.00  0.00    -0.203 F 
ATOM    100  F   UNL A   1      39.314  33.131  35.615  1.00  0.00    -0.200 F 
ATOM    101  C   UNL A   1      41.106  31.778  36.337  1.00  0.00     0.200 A 
ATOM    102  F   UNL A   1      42.853  30.349  37.025  1.00  0.00    -0.200 F 
ATOM    103  F   UNL A   1      40.947  32.214  37.595  1.00  0.00    -0.200 F 
ENDBRANCH  70  93
ENDBRANCH  44  45
ENDBRANCH  36  39
ENDBRANCH  34  35
ENDBRANCH   1  34
TORSDOF 12
ENDMDL
MODEL 2
REMARK VINA RESULT:     -15.1      1.470      2.060
REMARK SMILES Cc1nn(-c2nc3ccccc3o2)c2c1[C@H](c1ccc(C(=O)NCCCNC(=O)c3ccc(-c4c5nc(c(-c6c(F)c(F)c(F)c(F)c6F)c6ccc([nH]6)c(-c6c(F)c(F)c(F)c(F)c6F)c6nc(c(-c7c(F)c(F)c(F)c(F)c7F)c7ccc4[nH]7)C=C6)C=C5)cc3)cc1)CC(=O)N2
REMARK SMILES IDX 25 1 24 2 23 3 21 4 22 5 20 7 17 8 18 9 94 10 19 11 93 12
REMARK SMILES IDX 16 13 1 14 2 15 3 16 15 17 4 18 14 19 98 20 95 21 96 22
REMARK SMILES IDX 97 24 5 25 6 26 13 27 7 28 12 29 8 30 11 31 9 32 10 33 26 34
REMARK SMILES IDX 27 35 28 36 29 38 30 39 31 40 92 41 32 42 91 43 33 44 34 45
REMARK SMILES IDX 35 46 85 47 36 48 90 49 84 50 86 51 37 52 89 53 83 54 82 55
REMARK SMILES IDX 38 57 70 58 50 59 69 60 51 61 54 62 68 63 87 64 52 65 53 66
REMARK SMILES IDX 67 68 88 69 55 70 39 71 40 72 48 73 41 74 42 75 46 76 49 77
REMARK SMILES IDX 43 78 44 79 47 80 45 81 71 82 72 83 80 84 73 85 74 86 78 87
REMARK SMILES IDX 81 88 75 89 76 90 79 91 77 92 56 93 57 94 65 95 58 96 59 97
REMARK SMILES IDX 63 98 66 99 60 100 61 101 64 102 62 103
REMARK H PARENT 23 6 98 23 27 37 86 56 54 67
REMARK Flexibility Score: inf
ROOT
ATOM      1  C   UNL A   1      31.432  32.563  26.997  1.00  0.00     0.042 C 
ENDROOT
BRANCH   1   2
ATOM      2  C   UNL A   1      31.634  31.115  26.525  1.00  0.00     0.118 C 
BRANCH   2   3
ATOM      3  N   UNL A   1      33.040  30.731  26.470  1.00  0.00    -0.352 N 
ATOM      4  C   UNL A   1      33.623  29.525  26.151  1.00  0.00     0.251 C 
ATOM      5  O   UNL A   1      34.842  29.472  26.002  1.00  0.00    -0.269 OA
ATOM      6  H   UNL A   1      33.675  31.449  26.699  1.00  0.00     0.163 HD
BRANCH   4   7
ATOM      7  C   UNL A   1      32.811  28.296  25.954  1.00  0.00     0.039 A 
ATOM      8  C   UNL A   1      31.285  25.927  25.606  1.00  0.00    -0.040 A 
ATOM      9  C   UNL A   1      32.395  25.959  26.472  1.00  0.00     0.005 A 
ATOM     10  C   UNL A   1      30.952  27.115  24.944  1.00  0.00     0.005 A 
ATOM     11  C   UNL A   1      33.133  27.137  26.665  1.00  0.00     0.014 A 
ATOM     12  C   UNL A   1      31.696  28.276  25.124  1.00  0.00     0.014 A 
BRANCH   8  13
ATOM     13  C   UNL A   1      30.454  24.658  25.444  1.00  0.00     0.064 C 
ATOM     14  C   UNL A   1      32.562  24.610  22.695  1.00  0.00     0.069 C 
ATOM     15  C   UNL A   1      32.258  23.590  23.734  1.00  0.00     0.066 A 
ATOM     16  N   UNL A   1      32.875  22.403  23.646  1.00  0.00    -0.167 NA
ATOM     17  C   UNL A   1      31.359  23.631  24.840  1.00  0.00     0.026 A 
ATOM     18  N   UNL A   1      32.300  21.646  24.607  1.00  0.00    -0.166 N 
ATOM     19  C   UNL A   1      31.313  22.325  25.270  1.00  0.00     0.145 A 
ATOM     20  N   UNL A   1      30.436  21.811  26.194  1.00  0.00    -0.310 N 
ATOM     21  C   UNL A   1      29.867  24.141  26.785  1.00  0.00     0.113 C 
ATOM     22  C   UNL A   1      29.565  22.651  26.843  1.00  0.00     0.226 C 
ATOM     23  H   UNL A   1      30.431  20.847  26.390  1.00  0.00     0.171 HD
ATOM     24  O   UNL A   1      28.681  22.197  27.566  1.00  0.00    -0.275 OA
BRANCH  18  25
ATOM     25  C   UNL A   1      32.744  20.344  24.784  1.00  0.00     0.325 A 
ATOM     26  N   UNL A   1      33.949  19.968  24.378  1.00  0.00    -0.191 NA
ATOM     27  O   UNL A   1      32.014  19.346  25.392  1.00  0.00    -0.422 OA
ATOM     28  C   UNL A   1      33.965  18.623  24.610  1.00  0.00     0.111 A 
ATOM     29  C   UNL A   1      32.771  18.230  25.192  1.00  0.00     0.156 A 
ATOM     30  C   UNL A   1      34.935  17.661  24.317  1.00  0.00     0.032 A 
ATOM     31  C   UNL A   1      32.425  16.914  25.467  1.00  0.00     0.049 A 
ATOM     32  C   UNL A   1      34.604  16.316  24.528  1.00  0.00     0.003 A 
ATOM     33  C   UNL A   1      33.367  15.953  25.079  1.00  0.00     0.004 A 
ENDBRANCH  18  25
ENDBRANCH   8  13
ENDBRANCH   4   7
ENDBRANCH   2   3
ENDBRANCH   1   2
BRANCH   1  34
ATOM     34  C   UNL A   1      32.741  33.294  27.208  1.00  0.00     0.118 C 
BRANCH  34  35
ATOM     35  N   UNL A   1      32.581  34.538  27.976  1.00  0.00    -0.352 N 
ATOM     36  C   UNL A   1      33.165  34.918  29.179  1.00  0.00     0.251 C 
ATOM     37  H   UNL A   1      31.969  35.199  27.580  1.00  0.00     0.163 HD
ATOM     38  O   UNL A   1      32.686  35.804  29.860  1.00  0.00    -0.269 OA
BRANCH  36  39
ATOM     39  C   UNL A   1      34.399  34.231  29.607  1.00  0.00     0.039 A 
ATOM     40  C   UNL A   1      34.499  33.434  30.753  1.00  0.00     0.014 A 
ATOM     41  C   UNL A   1      35.478  34.359  28.757  1.00  0.00     0.014 A 
ATOM     42  C   UNL A   1      35.713  32.793  31.007  1.00  0.00     0.010 A 
ATOM     43  C   UNL A   1      36.412  33.382  28.776  1.00  0.00     0.010 A 
ATOM     44  C   UNL A   1      36.681  32.810  30.002  1.00  0.00    -0.014 A 
BRANCH  44  45
ATOM     45  C   UNL A   1      38.001  32.211  30.079  1.00  0.00     0.031 A 
ATOM     46  C   UNL A   1      38.053  30.847  29.508  1.00  0.00     0.074 A 
ATOM     47  C   UNL A   1      39.093  32.990  30.280  1.00  0.00     0.049 A 
ATOM     48  N   UNL A   1      38.215  29.733  30.140  1.00  0.00    -0.248 NA
ATOM     49  C   UNL A   1      37.670  30.678  28.095  1.00  0.00     0.031 C 
ATOM     50  C   UNL A   1      39.158  34.448  30.476  1.00  0.00     0.029 A 
ATOM     51  N   UNL A   1      40.410  32.649  30.217  1.00  0.00    -0.354 N 
ATOM     52  C   UNL A   1      38.188  28.750  29.156  1.00  0.00     0.074 A 
ATOM     53  C   UNL A   1      37.558  29.352  28.017  1.00  0.00     0.031 C 
ATOM     54  C   UNL A   1      40.427  34.882  30.300  1.00  0.00     0.029 A 
ATOM     55  C   UNL A   1      41.289  33.731  30.117  1.00  0.00     0.049 A 
ATOM     56  H   UNL A   1      40.719  31.715  30.242  1.00  0.00     0.167 HD
ATOM     57  C   UNL A   1      38.988  27.650  29.245  1.00  0.00     0.037 A 
ATOM     58  C   UNL A   1      42.618  33.645  29.842  1.00  0.00     0.037 A 
ATOM     59  C   UNL A   1      39.522  27.531  30.585  1.00  0.00     0.049 A 
ATOM     60  C   UNL A   1      43.015  32.232  30.099  1.00  0.00     0.074 A 
ATOM     61  C   UNL A   1      38.957  27.431  31.842  1.00  0.00     0.029 A 
ATOM     62  N   UNL A   1      40.821  27.935  30.791  1.00  0.00    -0.354 N 
ATOM     63  N   UNL A   1      43.013  31.693  31.289  1.00  0.00    -0.248 NA
ATOM     64  C   UNL A   1      42.894  31.297  28.989  1.00  0.00     0.031 C 
ATOM     65  C   UNL A   1      39.770  28.258  32.674  1.00  0.00     0.029 A 
ATOM     66  C   UNL A   1      40.839  28.726  31.909  1.00  0.00     0.049 A 
ATOM     67  H   UNL A   1      41.597  27.699  30.234  1.00  0.00     0.167 HD
ATOM     68  C   UNL A   1      42.467  30.430  31.104  1.00  0.00     0.074 A 
ATOM     69  C   UNL A   1      42.463  30.221  29.656  1.00  0.00     0.031 C 
ATOM     70  C   UNL A   1      41.779  29.805  32.106  1.00  0.00     0.037 A 
BRANCH  57  71
ATOM     71  C   UNL A   1      39.630  26.942  28.066  1.00  0.00     0.064 A 
ATOM     72  C   UNL A   1      39.621  25.532  28.057  1.00  0.00     0.173 A 
ATOM     73  C   UNL A   1      40.493  27.538  27.119  1.00  0.00     0.173 A 
ATOM     74  F   UNL A   1      38.826  24.847  28.894  1.00  0.00    -0.203 F 
ATOM     75  C   UNL A   1      40.498  24.787  27.264  1.00  0.00     0.198 A 
ATOM     76  C   UNL A   1      41.330  26.790  26.293  1.00  0.00     0.198 A 
ATOM     77  F   UNL A   1      40.653  28.859  27.004  1.00  0.00    -0.203 F 
ATOM     78  F   UNL A   1      40.549  23.456  27.402  1.00  0.00    -0.200 F 
ATOM     79  C   UNL A   1      41.364  25.419  26.394  1.00  0.00     0.200 A 
ATOM     80  F   UNL A   1      42.164  27.426  25.457  1.00  0.00    -0.200 F 
ATOM     81  F   UNL A   1      42.257  24.715  25.686  1.00  0.00    -0.200 F 
ENDBRANCH  57  71
BRANCH  58  82
ATOM     82  C   UNL A   1      43.477  34.590  29.079  1.00  0.00     0.064 A 
ATOM     83  C   UNL A   1      43.737  34.407  27.710  1.00  0.00     0.173 A 
ATOM     84  C   UNL A   1      43.842  35.841  29.616  1.00  0.00     0.173 A 
ATOM     85  F   UNL A   1      43.380  33.266  27.102  1.00  0.00    -0.203 F 
ATOM     86  C   UNL A   1      44.308  35.419  26.924  1.00  0.00     0.198 A 
ATOM     87  C   UNL A   1      44.416  36.847  28.835  1.00  0.00     0.198 A 
ATOM     88  F   UNL A   1      43.562  36.146  30.892  1.00  0.00    -0.203 F 
ATOM     89  F   UNL A   1      44.490  35.227  25.611  1.00  0.00    -0.200 F 
ATOM     90  C   UNL A   1      44.638  36.641  27.487  1.00  0.00     0.200 A 
ATOM     91  F   UNL A   1      44.692  38.037  29.384  1.00  0.00    -0.200 F 
ATOM     92  F   UNL A   1      45.129  37.630  26.726  1.00  0.00    -0.200 F 
ENDBRANCH  58  82
BRANCH  70  93
ATOM     93  C   UNL A   1      41.815  30.413  33.482  1.00  0.00     0.064 A 
ATOM     94  C   UNL A   1      40.849  31.310  33.975  1.00  0.00     0.173 A 
ATOM     95  C   UNL A   1      42.755  29.920  34.395  1.00  0.00     0.173 A 
ATOM     96  F   UNL A   1      39.857  31.751  33.194  1.00  0.00    -0.203 F 
ATOM     97  C   UNL A   1      40.845  31.712  35.309  1.00  0.00     0.198 A 
ATOM     98  C   UNL A   1      42.728  30.296  35.734  1.00  0.00     0.198 A 
ATOM     99  F   UNL A   1      43.665  29.019  33.996  1.00  0.00    -0.203 F 
ATOM    100  F   UNL A   1      39.909  32.565  35.752  1.00  0.00    -0.200 F 
ATOM    101  C   UNL A   1      41.779  31.196  36.190  1.00  0.00     0.200 A 
ATOM    102  F   UNL A   1      43.602  29.753  36.593  1.00  0.00    -0.200 F 
ATOM    103  F   UNL A   1      41.746  31.542  37.485  1.00  0.00    -0.200 F 
ENDBRANCH  70  93
ENDBRANCH  44  45
ENDBRANCH  36  39
ENDBRANCH  34  35
ENDBRANCH   1  34
TORSDOF 12
ENDMDL
MODEL 3
REMARK VINA RESULT:     -14.8      2.893      7.384
REMARK SMILES Cc1nn(-c2nc3ccccc3o2)c2c1[C@H](c1ccc(C(=O)NCCCNC(=O)c3ccc(-c4c5nc(c(-c6c(F)c(F)c(F)c(F)c6F)c6ccc([nH]6)c(-c6c(F)c(F)c(F)c(F)c6F)c6nc(c(-c7c(F)c(F)c(F)c(F)c7F)c7ccc4[nH]7)C=C6)C=C5)cc3)cc1)CC(=O)N2
REMARK SMILES IDX 25 1 24 2 23 3 21 4 22 5 20 7 17 8 18 9 94 10 19 11 93 12
REMARK SMILES IDX 16 13 1 14 2 15 3 16 15 17 4 18 14 19 98 20 95 21 96 22
REMARK SMILES IDX 97 24 5 25 6 26 13 27 7 28 12 29 8 30 11 31 9 32 10 33 26 34
REMARK SMILES IDX 27 35 28 36 29 38 30 39 31 40 92 41 32 42 91 43 33 44 34 45
REMARK SMILES IDX 35 46 85 47 36 48 90 49 84 50 86 51 37 52 89 53 83 54 82 55
REMARK SMILES IDX 38 57 70 58 50 59 69 60 51 61 54 62 68 63 87 64 52 65 53 66
REMARK SMILES IDX 67 68 88 69 55 70 39 71 40 72 48 73 41 74 42 75 46 76 49 77
REMARK SMILES IDX 43 78 44 79 47 80 45 81 71 82 72 83 80 84 73 85 74 86 78 87
REMARK SMILES IDX 81 88 75 89 76 90 79 91 77 92 56 93 57 94 65 95 58 96 59 97
REMARK SMILES IDX 63 98 66 99 60 100 61 101 64 102 62 103
REMARK H PARENT 23 6 98 23 27 37 86 56 54 67
REMARK Flexibility Score: inf
ROOT
ATOM      1  C   UNL A   1      35.435  31.637  27.641  1.00  0.00     0.042 C 
ENDROOT
BRANCH   1   2
ATOM      2  C   UNL A   1      34.030  31.088  27.940  1.00  0.00     0.118 C 
BRANCH   2   3
ATOM      3  N   UNL A   1      32.975  31.859  27.292  1.00  0.00    -0.352 N 
ATOM      4  C   UNL A   1      31.869  31.439  26.587  1.00  0.00     0.251 C 
ATOM      5  O   UNL A   1      31.014  32.263  26.272  1.00  0.00    -0.269 OA
ATOM      6  H   UNL A   1      33.068  32.837  27.370  1.00  0.00     0.163 HD
BRANCH   4   7
ATOM      7  C   UNL A   1      31.673  30.011  26.225  1.00  0.00     0.039 A 
ATOM      8  C   UNL A   1      31.287  27.294  25.493  1.00  0.00    -0.040 A 
ATOM      9  C   UNL A   1      31.071  28.336  24.571  1.00  0.00     0.005 A 
ATOM     10  C   UNL A   1      31.723  27.652  26.776  1.00  0.00     0.005 A 
ATOM     11  C   UNL A   1      31.288  29.677  24.924  1.00  0.00     0.014 A 
ATOM     12  C   UNL A   1      31.919  28.983  27.127  1.00  0.00     0.014 A 
BRANCH   8  13
ATOM     13  C   UNL A   1      31.104  25.836  25.085  1.00  0.00     0.064 C 
ATOM     14  C   UNL A   1      33.580  26.978  22.948  1.00  0.00     0.069 C 
ATOM     15  C   UNL A   1      33.506  25.791  23.842  1.00  0.00     0.066 A 
ATOM     16  N   UNL A   1      34.557  24.960  23.868  1.00  0.00    -0.167 NA
ATOM     17  C   UNL A   1      32.455  25.332  24.689  1.00  0.00     0.026 A 
ATOM     18  N   UNL A   1      34.151  23.919  24.628  1.00  0.00    -0.166 N 
ATOM     19  C   UNL A   1      32.857  24.065  25.047  1.00  0.00     0.145 A 
ATOM     20  N   UNL A   1      32.091  23.133  25.705  1.00  0.00    -0.310 N 
ATOM     21  C   UNL A   1      30.507  24.958  26.218  1.00  0.00     0.113 C 
ATOM     22  C   UNL A   1      30.837  23.475  26.146  1.00  0.00     0.226 C 
ATOM     23  H   UNL A   1      32.439  22.226  25.859  1.00  0.00     0.171 HD
ATOM     24  O   UNL A   1      30.084  22.621  26.609  1.00  0.00    -0.275 OA
BRANCH  18  25
ATOM     25  C   UNL A   1      35.040  22.879  24.863  1.00  0.00     0.325 A 
ATOM     26  N   UNL A   1      36.319  23.115  25.122  1.00  0.00    -0.191 NA
ATOM     27  O   UNL A   1      34.698  21.545  24.870  1.00  0.00    -0.422 OA
ATOM     28  C   UNL A   1      36.876  21.870  25.171  1.00  0.00     0.111 A 
ATOM     29  C   UNL A   1      35.898  20.908  24.978  1.00  0.00     0.156 A 
ATOM     30  C   UNL A   1      38.205  21.473  25.332  1.00  0.00     0.032 A 
ATOM     31  C   UNL A   1      36.143  19.546  24.873  1.00  0.00     0.049 A 
ATOM     32  C   UNL A   1      38.503  20.113  25.178  1.00  0.00     0.003 A 
ATOM     33  C   UNL A   1      37.491  19.172  24.939  1.00  0.00     0.004 A 
ENDBRANCH  18  25
ENDBRANCH   8  13
ENDBRANCH   4   7
ENDBRANCH   2   3
ENDBRANCH   1   2
BRANCH   1  34
ATOM     34  C   UNL A   1      35.658  33.013  28.230  1.00  0.00     0.118 C 
BRANCH  34  35
ATOM     35  N   UNL A   1      35.165  33.128  29.611  1.00  0.00    -0.352 N 
ATOM     36  C   UNL A   1      35.389  32.298  30.704  1.00  0.00     0.251 C 
ATOM     37  H   UNL A   1      34.592  33.908  29.788  1.00  0.00     0.163 HD
ATOM     38  O   UNL A   1      34.654  32.319  31.672  1.00  0.00    -0.269 OA
BRANCH  36  39
ATOM     39  C   UNL A   1      36.555  31.396  30.671  1.00  0.00     0.039 A 
ATOM     40  C   UNL A   1      36.474  30.008  30.505  1.00  0.00     0.014 A 
ATOM     41  C   UNL A   1      37.787  32.011  30.749  1.00  0.00     0.014 A 
ATOM     42  C   UNL A   1      37.664  29.281  30.432  1.00  0.00     0.010 A 
ATOM     43  C   UNL A   1      38.846  31.370  30.206  1.00  0.00     0.010 A 
ATOM     44  C   UNL A   1      38.857  29.995  30.316  1.00  0.00    -0.014 A 
BRANCH  44  45
ATOM     45  C   UNL A   1      40.189  29.423  30.236  1.00  0.00     0.031 A 
ATOM     46  C   UNL A   1      40.820  29.236  31.561  1.00  0.00     0.074 A 
ATOM     47  C   UNL A   1      40.590  28.783  29.110  1.00  0.00     0.049 A 
ATOM     48  N   UNL A   1      41.823  29.880  32.054  1.00  0.00    -0.248 NA
ATOM     49  C   UNL A   1      40.124  28.380  32.539  1.00  0.00     0.031 C 
ATOM     50  C   UNL A   1      39.851  28.587  27.852  1.00  0.00     0.029 A 
ATOM     51  N   UNL A   1      41.716  28.046  28.899  1.00  0.00    -0.354 N 
ATOM     52  C   UNL A   1      42.022  29.332  33.317  1.00  0.00     0.074 A 
ATOM     53  C   UNL A   1      40.795  28.668  33.654  1.00  0.00     0.031 C 
ATOM     54  C   UNL A   1      40.445  27.622  27.112  1.00  0.00     0.029 A 
ATOM     55  C   UNL A   1      41.676  27.228  27.767  1.00  0.00     0.049 A 
ATOM     56  H   UNL A   1      42.498  28.088  29.497  1.00  0.00     0.167 HD
ATOM     57  C   UNL A   1      43.278  29.176  33.823  1.00  0.00     0.037 A 
ATOM     58  C   UNL A   1      42.582  26.261  27.459  1.00  0.00     0.037 A 
ATOM     59  C   UNL A   1      44.225  29.949  33.048  1.00  0.00     0.049 A 
ATOM     60  C   UNL A   1      43.795  26.539  28.281  1.00  0.00     0.074 A 
ATOM     61  C   UNL A   1      44.339  31.287  32.721  1.00  0.00     0.029 A 
ATOM     62  N   UNL A   1      44.998  29.275  32.132  1.00  0.00    -0.354 N 
ATOM     63  N   UNL A   1      44.548  27.593  28.113  1.00  0.00    -0.248 NA
ATOM     64  C   UNL A   1      43.850  25.935  29.605  1.00  0.00     0.031 C 
ATOM     65  C   UNL A   1      44.743  31.295  31.352  1.00  0.00     0.029 A 
ATOM     66  C   UNL A   1      44.956  29.975  30.955  1.00  0.00     0.049 A 
ATOM     67  H   UNL A   1      45.492  28.439  32.292  1.00  0.00     0.167 HD
ATOM     68  C   UNL A   1      44.830  28.034  29.399  1.00  0.00     0.074 A 
ATOM     69  C   UNL A   1      44.418  26.941  30.279  1.00  0.00     0.031 C 
ATOM     70  C   UNL A   1      45.070  29.355  29.655  1.00  0.00     0.037 A 
BRANCH  57  71
ATOM     71  C   UNL A   1      43.724  28.029  34.711  1.00  0.00     0.064 A 
ATOM     72  C   UNL A   1      43.489  26.714  34.260  1.00  0.00     0.173 A 
ATOM     73  C   UNL A   1      44.086  28.136  36.073  1.00  0.00     0.173 A 
ATOM     74  F   UNL A   1      43.161  26.478  32.981  1.00  0.00    -0.203 F 
ATOM     75  C   UNL A   1      43.485  25.619  35.128  1.00  0.00     0.198 A 
ATOM     76  C   UNL A   1      44.131  27.034  36.925  1.00  0.00     0.198 A 
ATOM     77  F   UNL A   1      44.318  29.302  36.680  1.00  0.00    -0.203 F 
ATOM     78  F   UNL A   1      43.113  24.415  34.675  1.00  0.00    -0.200 F 
ATOM     79  C   UNL A   1      43.791  25.783  36.465  1.00  0.00     0.200 A 
ATOM     80  F   UNL A   1      44.428  27.218  38.220  1.00  0.00    -0.200 F 
ATOM     81  F   UNL A   1      43.716  24.751  37.315  1.00  0.00    -0.200 F 
ENDBRANCH  57  71
BRANCH  58  82
ATOM     82  C   UNL A   1      42.364  24.962  26.770  1.00  0.00     0.064 A 
ATOM     83  C   UNL A   1      43.075  24.617  25.607  1.00  0.00     0.173 A 
ATOM     84  C   UNL A   1      41.647  23.919  27.389  1.00  0.00     0.173 A 
ATOM     85  F   UNL A   1      43.824  25.535  24.978  1.00  0.00    -0.203 F 
ATOM     86  C   UNL A   1      43.084  23.307  25.108  1.00  0.00     0.198 A 
ATOM     87  C   UNL A   1      41.651  22.614  26.888  1.00  0.00     0.198 A 
ATOM     88  F   UNL A   1      41.003  24.124  28.546  1.00  0.00    -0.203 F 
ATOM     89  F   UNL A   1      43.819  23.005  24.028  1.00  0.00    -0.200 F 
ATOM     90  C   UNL A   1      42.379  22.306  25.754  1.00  0.00     0.200 A 
ATOM     91  F   UNL A   1      40.998  21.648  27.547  1.00  0.00    -0.200 F 
ATOM     92  F   UNL A   1      42.434  21.040  25.313  1.00  0.00    -0.200 F 
ENDBRANCH  58  82
BRANCH  70  93
ATOM     93  C   UNL A   1      45.243  30.288  28.486  1.00  0.00     0.064 A 
ATOM     94  C   UNL A   1      44.213  31.083  27.951  1.00  0.00     0.173 A 
ATOM     95  C   UNL A   1      46.542  30.523  28.020  1.00  0.00     0.173 A 
ATOM     96  F   UNL A   1      42.961  30.990  28.412  1.00  0.00    -0.203 F 
ATOM     97  C   UNL A   1      44.471  32.045  26.976  1.00  0.00     0.198 A 
ATOM     98  C   UNL A   1      46.802  31.509  27.073  1.00  0.00     0.198 A 
ATOM     99  F   UNL A   1      47.572  29.836  28.535  1.00  0.00    -0.203 F 
ATOM    100  F   UNL A   1      43.469  32.792  26.487  1.00  0.00    -0.200 F 
ATOM    101  C   UNL A   1      45.767  32.265  26.546  1.00  0.00     0.200 A 
ATOM    102  F   UNL A   1      48.066  31.752  26.699  1.00  0.00    -0.200 F 
ATOM    103  F   UNL A   1      46.025  33.224  25.646  1.00  0.00    -0.200 F 
ENDBRANCH  70  93
ENDBRANCH  44  45
ENDBRANCH  36  39
ENDBRANCH  34  35
ENDBRANCH   1  34
TORSDOF 12
ENDMDL
