MODEL 1
REMARK VINA RESULT:     -11.0      0.000      0.000
REMARK SMILES CCCOCCO[C@H]1CC[C@@]([NH3+])(C(=O)NCCCNC(=O)c2ccc(-c3c4nc(c(-c5c(F)c(F)c(F)c(F)c5F)c5ccc([nH]5)c(-c5c(F)c(F)c(F)c(F)c5F)c5nc(c(-c6c(F)c(F)c(F)c(F)c6F)c6ccc3[nH]6)C=C5)C=C4)cc2)C1
REMARK SMILES IDX 13 1 14 2 15 3 11 5 8 6 9 7 85 8 10 9 7 10 6 11 5 12 4 13
REMARK SMILES IDX 3 14 2 15 1 16 12 17 16 21 17 22 18 23 19 24 20 25 21 27
REMARK SMILES IDX 22 28 23 29 84 30 24 31 83 32 25 33 26 34 27 35 77 36 28 37
REMARK SMILES IDX 82 38 76 39 78 40 29 41 81 42 75 43 74 44 30 46 62 47 42 48
REMARK SMILES IDX 61 49 43 50 46 51 60 52 79 53 44 54 45 55 59 57 80 58 47 59
REMARK SMILES IDX 31 60 32 61 40 62 33 63 34 64 38 65 41 66 35 67 36 68 39 69
REMARK SMILES IDX 37 70 63 71 64 72 72 73 65 74 66 75 70 76 73 77 67 78 68 79
REMARK SMILES IDX 71 80 69 81 48 82 49 83 57 84 50 85 51 86 55 87 58 88 52 89
REMARK SMILES IDX 53 90 56 91 54 92
REMARK H PARENT 15 4 12 18 12 19 12 20 19 26 78 45 46 56
REMARK Flexibility Score: inf
ROOT
ATOM      1  C   UNL A   1      33.209  29.219  25.060  1.00  0.00     0.281 C 
ATOM      2  O   UNL A   1      33.020  29.057  23.852  1.00  0.00    -0.268 OA
ATOM      3  N   UNL A   1      32.872  30.452  25.541  1.00  0.00    -0.351 N 
ATOM      4  H   UNL A   1      33.411  31.235  25.284  1.00  0.00     0.163 HD
ENDROOT
BRANCH   1   5
ATOM      5  C   UNL A   1      33.491  28.023  26.033  1.00  0.00     0.176 C 
ATOM      6  C   UNL A   1      31.502  26.584  26.111  1.00  0.00     0.125 C 
ATOM      7  C   UNL A   1      32.565  25.838  25.315  1.00  0.00     0.039 C 
ATOM      8  C   UNL A   1      32.288  27.626  26.912  1.00  0.00     0.111 C 
ATOM      9  C   UNL A   1      33.837  26.700  25.335  1.00  0.00     0.082 C 
BRANCH   6  10
ATOM     10  O   UNL A   1      30.580  27.265  25.274  1.00  0.00    -0.376 OA
BRANCH  10  11
ATOM     11  C   UNL A   1      30.415  26.736  23.956  1.00  0.00     0.189 C 
BRANCH  11  12
ATOM     12  C   UNL A   1      29.493  27.605  23.071  1.00  0.00     0.188 C 
BRANCH  12  13
ATOM     13  O   UNL A   1      30.055  28.619  22.249  1.00  0.00    -0.379 OA
BRANCH  13  14
ATOM     14  C   UNL A   1      29.328  29.819  22.051  1.00  0.00     0.160 C 
BRANCH  14  15
ATOM     15  C   UNL A   1      29.076  30.779  23.226  1.00  0.00     0.025 C 
ATOM     16  C   UNL A   1      27.711  31.331  23.571  1.00  0.00     0.006 C 
ENDBRANCH  14  15
ENDBRANCH  13  14
ENDBRANCH  12  13
ENDBRANCH  11  12
ENDBRANCH  10  11
ENDBRANCH   6  10
BRANCH   5  17
ATOM     17  N   UNL A   1      34.591  28.510  26.907  1.00  0.00    -0.345 N 
ATOM     18  H   UNL A   1      34.797  29.484  26.685  1.00  0.00     0.345 HD
ATOM     19  H   UNL A   1      35.425  27.943  26.751  1.00  0.00     0.345 HD
ATOM     20  H   UNL A   1      34.308  28.437  27.884  1.00  0.00     0.345 HD
ENDBRANCH   5  17
ENDBRANCH   1   5
BRANCH   3  21
ATOM     21  C   UNL A   1      31.733  30.632  26.424  1.00  0.00     0.118 C 
BRANCH  21  22
ATOM     22  C   UNL A   1      31.473  32.088  26.762  1.00  0.00     0.042 C 
BRANCH  22  23
ATOM     23  C   UNL A   1      32.686  32.806  27.334  1.00  0.00     0.118 C 
BRANCH  23  24
ATOM     24  N   UNL A   1      32.429  34.215  27.616  1.00  0.00    -0.352 N 
ATOM     25  C   UNL A   1      32.971  35.040  28.569  1.00  0.00     0.251 C 
ATOM     26  H   UNL A   1      31.761  34.640  27.030  1.00  0.00     0.163 HD
ATOM     27  O   UNL A   1      32.464  36.138  28.798  1.00  0.00    -0.269 OA
BRANCH  25  28
ATOM     28  C   UNL A   1      34.143  34.597  29.350  1.00  0.00     0.039 A 
ATOM     29  C   UNL A   1      33.957  34.120  30.649  1.00  0.00     0.014 A 
ATOM     30  C   UNL A   1      35.422  34.638  28.794  1.00  0.00     0.014 A 
ATOM     31  C   UNL A   1      35.042  33.592  31.351  1.00  0.00     0.010 A 
ATOM     32  C   UNL A   1      36.479  34.018  29.450  1.00  0.00     0.010 A 
ATOM     33  C   UNL A   1      36.300  33.482  30.733  1.00  0.00    -0.014 A 
BRANCH  33  34
ATOM     34  C   UNL A   1      37.430  32.787  31.399  1.00  0.00     0.031 A 
ATOM     35  C   UNL A   1      38.094  31.610  30.739  1.00  0.00     0.074 A 
ATOM     36  C   UNL A   1      37.804  33.169  32.637  1.00  0.00     0.049 A 
ATOM     37  N   UNL A   1      39.045  30.834  31.195  1.00  0.00    -0.248 NA
ATOM     38  C   UNL A   1      37.606  31.238  29.402  1.00  0.00     0.031 C 
ATOM     39  C   UNL A   1      37.196  34.259  33.404  1.00  0.00     0.029 A 
ATOM     40  N   UNL A   1      38.778  32.681  33.471  1.00  0.00    -0.354 N 
ATOM     41  C   UNL A   1      39.259  29.881  30.208  1.00  0.00     0.074 A 
ATOM     42  C   UNL A   1      38.299  30.135  29.158  1.00  0.00     0.031 C 
ATOM     43  C   UNL A   1      37.828  34.374  34.582  1.00  0.00     0.029 A 
ATOM     44  C   UNL A   1      38.853  33.340  34.675  1.00  0.00     0.049 A 
ATOM     45  H   UNL A   1      39.366  31.929  33.231  1.00  0.00     0.167 HD
ATOM     46  C   UNL A   1      40.191  28.899  30.172  1.00  0.00     0.037 A 
ATOM     47  C   UNL A   1      39.650  33.126  35.740  1.00  0.00     0.037 A 
ATOM     48  C   UNL A   1      41.155  28.663  31.214  1.00  0.00     0.049 A 
ATOM     49  C   UNL A   1      40.661  32.013  35.680  1.00  0.00     0.074 A 
ATOM     50  C   UNL A   1      42.182  27.735  31.245  1.00  0.00     0.029 A 
ATOM     51  N   UNL A   1      41.205  29.354  32.416  1.00  0.00    -0.354 N 
ATOM     52  N   UNL A   1      40.910  31.170  34.708  1.00  0.00    -0.248 NA
ATOM     53  C   UNL A   1      41.505  31.824  36.868  1.00  0.00     0.031 C 
ATOM     54  C   UNL A   1      42.813  27.823  32.490  1.00  0.00     0.029 A 
ATOM     55  C   UNL A   1      42.223  28.850  33.210  1.00  0.00     0.049 A 
ATOM     56  H   UNL A   1      40.605  30.093  32.668  1.00  0.00     0.167 HD
ATOM     57  C   UNL A   1      41.952  30.369  35.154  1.00  0.00     0.074 A 
ATOM     58  C   UNL A   1      42.305  30.842  36.476  1.00  0.00     0.031 C 
ATOM     59  C   UNL A   1      42.560  29.332  34.526  1.00  0.00     0.037 A 
BRANCH  46  60
ATOM     60  C   UNL A   1      40.215  28.006  28.964  1.00  0.00     0.064 A 
ATOM     61  C   UNL A   1      40.954  28.335  27.817  1.00  0.00     0.173 A 
ATOM     62  C   UNL A   1      39.525  26.783  28.969  1.00  0.00     0.173 A 
ATOM     63  F   UNL A   1      41.625  29.495  27.755  1.00  0.00    -0.203 F 
ATOM     64  C   UNL A   1      40.976  27.489  26.709  1.00  0.00     0.198 A 
ATOM     65  C   UNL A   1      39.578  25.925  27.873  1.00  0.00     0.198 A 
ATOM     66  F   UNL A   1      38.807  26.415  30.040  1.00  0.00    -0.203 F 
ATOM     67  F   UNL A   1      41.646  27.850  25.607  1.00  0.00    -0.200 F 
ATOM     68  C   UNL A   1      40.295  26.283  26.742  1.00  0.00     0.200 A 
ATOM     69  F   UNL A   1      38.932  24.751  27.912  1.00  0.00    -0.200 F 
ATOM     70  F   UNL A   1      40.326  25.466  25.680  1.00  0.00    -0.200 F 
ENDBRANCH  46  60
BRANCH  47  71
ATOM     71  C   UNL A   1      39.532  33.989  36.945  1.00  0.00     0.064 A 
ATOM     72  C   UNL A   1      38.764  33.588  38.047  1.00  0.00     0.173 A 
ATOM     73  C   UNL A   1      40.172  35.235  37.018  1.00  0.00     0.173 A 
ATOM     74  F   UNL A   1      38.115  32.413  38.019  1.00  0.00    -0.203 F 
ATOM     75  C   UNL A   1      38.620  34.409  39.164  1.00  0.00     0.198 A 
ATOM     76  C   UNL A   1      40.055  36.041  38.148  1.00  0.00     0.198 A 
ATOM     77  F   UNL A   1      40.923  35.665  35.994  1.00  0.00    -0.203 F 
ATOM     78  F   UNL A   1      37.836  34.024  40.180  1.00  0.00    -0.200 F 
ATOM     79  C   UNL A   1      39.271  35.632  39.216  1.00  0.00     0.200 A 
ATOM     80  F   UNL A   1      40.700  37.215  38.201  1.00  0.00    -0.200 F 
ATOM     81  F   UNL A   1      39.134  36.421  40.290  1.00  0.00    -0.200 F 
ENDBRANCH  47  71
BRANCH  59  82
ATOM     82  C   UNL A   1      43.686  28.654  35.253  1.00  0.00     0.064 A 
ATOM     83  C   UNL A   1      43.460  27.574  36.119  1.00  0.00     0.173 A 
ATOM     84  C   UNL A   1      45.012  29.066  35.051  1.00  0.00     0.173 A 
ATOM     85  F   UNL A   1      42.210  27.151  36.359  1.00  0.00    -0.203 F 
ATOM     86  C   UNL A   1      44.517  26.952  36.779  1.00  0.00     0.198 A 
ATOM     87  C   UNL A   1      46.070  28.419  35.684  1.00  0.00     0.198 A 
ATOM     88  F   UNL A   1      45.285  30.089  34.227  1.00  0.00    -0.203 F 
ATOM     89  F   UNL A   1      44.272  25.958  37.644  1.00  0.00    -0.200 F 
ATOM     90  C   UNL A   1      45.820  27.368  36.554  1.00  0.00     0.200 A 
ATOM     91  F   UNL A   1      47.330  28.811  35.452  1.00  0.00    -0.200 F 
ATOM     92  F   UNL A   1      46.837  26.762  37.181  1.00  0.00    -0.200 F 
ENDBRANCH  59  82
ENDBRANCH  33  34
ENDBRANCH  25  28
ENDBRANCH  23  24
ENDBRANCH  22  23
ENDBRANCH  21  22
ENDBRANCH   3  21
TORSDOF 17
ENDMDL
MODEL 2
REMARK VINA RESULT:     -11.0      6.439     11.770
REMARK SMILES CCCOCCO[C@H]1CC[C@@]([NH3+])(C(=O)NCCCNC(=O)c2ccc(-c3c4nc(c(-c5c(F)c(F)c(F)c(F)c5F)c5ccc([nH]5)c(-c5c(F)c(F)c(F)c(F)c5F)c5nc(c(-c6c(F)c(F)c(F)c(F)c6F)c6ccc3[nH]6)C=C5)C=C4)cc2)C1
REMARK SMILES IDX 13 1 14 2 15 3 11 5 8 6 9 7 85 8 10 9 7 10 6 11 5 12 4 13
REMARK SMILES IDX 3 14 2 15 1 16 12 17 16 21 17 22 18 23 19 24 20 25 21 27
REMARK SMILES IDX 22 28 23 29 84 30 24 31 83 32 25 33 26 34 27 35 77 36 28 37
REMARK SMILES IDX 82 38 76 39 78 40 29 41 81 42 75 43 74 44 30 46 62 47 42 48
REMARK SMILES IDX 61 49 43 50 46 51 60 52 79 53 44 54 45 55 59 57 80 58 47 59
REMARK SMILES IDX 31 60 32 61 40 62 33 63 34 64 38 65 41 66 35 67 36 68 39 69
REMARK SMILES IDX 37 70 63 71 64 72 72 73 65 74 66 75 70 76 73 77 67 78 68 79
REMARK SMILES IDX 71 80 69 81 48 82 49 83 57 84 50 85 51 86 55 87 58 88 52 89
REMARK SMILES IDX 53 90 56 91 54 92
REMARK H PARENT 15 4 12 18 12 19 12 20 19 26 78 45 46 56
REMARK Flexibility Score: inf
ROOT
ATOM      1  C   UNL A   1      35.746  22.499  26.089  1.00  0.00     0.281 C 
ATOM      2  O   UNL A   1      34.840  22.460  26.925  1.00  0.00    -0.268 OA
ATOM      3  N   UNL A   1      36.628  21.457  26.141  1.00  0.00    -0.351 N 
ATOM      4  H   UNL A   1      37.245  21.383  26.905  1.00  0.00     0.163 HD
ENDROOT
BRANCH   1   5
ATOM      5  C   UNL A   1      35.712  23.467  24.857  1.00  0.00     0.176 C 
ATOM      6  C   UNL A   1      33.515  23.288  23.774  1.00  0.00     0.125 C 
ATOM      7  C   UNL A   1      33.554  24.632  24.491  1.00  0.00     0.039 C 
ATOM      8  C   UNL A   1      34.987  22.895  23.623  1.00  0.00     0.111 C 
ATOM      9  C   UNL A   1      34.957  24.782  25.099  1.00  0.00     0.082 C 
BRANCH   6  10
ATOM     10  O   UNL A   1      32.860  22.288  24.540  1.00  0.00    -0.376 OA
BRANCH  10  11
ATOM     11  C   UNL A   1      32.886  20.964  24.002  1.00  0.00     0.189 C 
BRANCH  11  12
ATOM     12  C   UNL A   1      32.972  19.873  25.094  1.00  0.00     0.188 C 
BRANCH  12  13
ATOM     13  O   UNL A   1      32.191  18.692  24.976  1.00  0.00    -0.379 OA
BRANCH  13  14
ATOM     14  C   UNL A   1      32.648  17.505  25.600  1.00  0.00     0.160 C 
BRANCH  14  15
ATOM     15  C   UNL A   1      33.660  16.592  24.888  1.00  0.00     0.025 C 
ATOM     16  C   UNL A   1      33.976  16.691  23.413  1.00  0.00     0.006 C 
ENDBRANCH  14  15
ENDBRANCH  13  14
ENDBRANCH  12  13
ENDBRANCH  11  12
ENDBRANCH  10  11
ENDBRANCH   6  10
BRANCH   5  17
ATOM     17  N   UNL A   1      37.144  23.687  24.521  1.00  0.00    -0.345 N 
ATOM     18  H   UNL A   1      37.510  24.459  25.077  1.00  0.00     0.345 HD
ATOM     19  H   UNL A   1      37.229  23.913  23.529  1.00  0.00     0.345 HD
ATOM     20  H   UNL A   1      37.675  22.840  24.722  1.00  0.00     0.345 HD
ENDBRANCH   5  17
ENDBRANCH   1   5
BRANCH   3  21
ATOM     21  C   UNL A   1      36.675  20.456  25.090  1.00  0.00     0.118 C 
BRANCH  21  22
ATOM     22  C   UNL A   1      38.091  20.080  24.696  1.00  0.00     0.042 C 
BRANCH  22  23
ATOM     23  C   UNL A   1      39.114  20.324  25.796  1.00  0.00     0.118 C 
BRANCH  23  24
ATOM     24  N   UNL A   1      40.057  19.220  25.946  1.00  0.00    -0.352 N 
ATOM     25  C   UNL A   1      41.417  19.237  26.126  1.00  0.00     0.251 C 
ATOM     26  H   UNL A   1      39.654  18.322  25.912  1.00  0.00     0.163 HD
ATOM     27  O   UNL A   1      42.070  18.201  26.006  1.00  0.00    -0.269 OA
BRANCH  25  28
ATOM     28  C   UNL A   1      42.107  20.506  26.427  1.00  0.00     0.039 A 
ATOM     29  C   UNL A   1      42.619  21.271  25.377  1.00  0.00     0.014 A 
ATOM     30  C   UNL A   1      42.235  20.949  27.744  1.00  0.00     0.014 A 
ATOM     31  C   UNL A   1      43.168  22.527  25.643  1.00  0.00     0.010 A 
ATOM     32  C   UNL A   1      42.684  22.240  27.998  1.00  0.00     0.010 A 
ATOM     33  C   UNL A   1      43.150  23.046  26.950  1.00  0.00    -0.014 A 
BRANCH  33  34
ATOM     34  C   UNL A   1      43.588  24.436  27.234  1.00  0.00     0.031 A 
ATOM     35  C   UNL A   1      42.606  25.450  27.753  1.00  0.00     0.074 A 
ATOM     36  C   UNL A   1      44.854  24.802  26.950  1.00  0.00     0.049 A 
ATOM     37  N   UNL A   1      42.783  26.725  27.993  1.00  0.00    -0.248 NA
ATOM     38  C   UNL A   1      41.237  24.977  28.009  1.00  0.00     0.031 C 
ATOM     39  C   UNL A   1      45.881  23.922  26.389  1.00  0.00     0.029 A 
ATOM     40  N   UNL A   1      45.490  26.010  27.085  1.00  0.00    -0.354 N 
ATOM     41  C   UNL A   1      41.550  27.204  28.415  1.00  0.00     0.074 A 
ATOM     42  C   UNL A   1      40.618  26.101  28.339  1.00  0.00     0.031 C 
ATOM     43  C   UNL A   1      47.025  24.611  26.255  1.00  0.00     0.029 A 
ATOM     44  C   UNL A   1      46.802  25.990  26.674  1.00  0.00     0.049 A 
ATOM     45  H   UNL A   1      45.049  26.815  27.441  1.00  0.00     0.167 HD
ATOM     46  C   UNL A   1      41.232  28.446  28.852  1.00  0.00     0.037 A 
ATOM     47  C   UNL A   1      47.717  26.978  26.628  1.00  0.00     0.037 A 
ATOM     48  C   UNL A   1      42.169  29.534  28.940  1.00  0.00     0.049 A 
ATOM     49  C   UNL A   1      47.329  28.353  27.098  1.00  0.00     0.074 A 
ATOM     50  C   UNL A   1      41.963  30.813  29.429  1.00  0.00     0.029 A 
ATOM     51  N   UNL A   1      43.491  29.476  28.521  1.00  0.00    -0.354 N 
ATOM     52  N   UNL A   1      46.182  28.774  27.573  1.00  0.00    -0.248 NA
ATOM     53  C   UNL A   1      48.366  29.392  27.029  1.00  0.00     0.031 C 
ATOM     54  C   UNL A   1      43.140  31.545  29.248  1.00  0.00     0.029 A 
ATOM     55  C   UNL A   1      44.102  30.706  28.707  1.00  0.00     0.049 A 
ATOM     56  H   UNL A   1      43.929  28.678  28.146  1.00  0.00     0.167 HD
ATOM     57  C   UNL A   1      46.365  30.115  27.881  1.00  0.00     0.074 A 
ATOM     58  C   UNL A   1      47.741  30.432  27.561  1.00  0.00     0.031 C 
ATOM     59  C   UNL A   1      45.473  31.006  28.382  1.00  0.00     0.037 A 
BRANCH  46  60
ATOM     60  C   UNL A   1      39.811  28.695  29.270  1.00  0.00     0.064 A 
ATOM     61  C   UNL A   1      39.376  28.466  30.585  1.00  0.00     0.173 A 
ATOM     62  C   UNL A   1      38.879  29.209  28.354  1.00  0.00     0.173 A 
ATOM     63  F   UNL A   1      40.223  27.966  31.499  1.00  0.00    -0.203 F 
ATOM     64  C   UNL A   1      38.057  28.714  30.959  1.00  0.00     0.198 A 
ATOM     65  C   UNL A   1      37.571  29.487  28.741  1.00  0.00     0.198 A 
ATOM     66  F   UNL A   1      39.240  29.451  27.085  1.00  0.00    -0.203 F 
ATOM     67  F   UNL A   1      37.654  28.438  32.207  1.00  0.00    -0.200 F 
ATOM     68  C   UNL A   1      37.159  29.231  30.040  1.00  0.00     0.200 A 
ATOM     69  F   UNL A   1      36.707  30.003  27.856  1.00  0.00    -0.200 F 
ATOM     70  F   UNL A   1      35.894  29.479  30.405  1.00  0.00    -0.200 F 
ENDBRANCH  46  60
BRANCH  47  71
ATOM     71  C   UNL A   1      49.090  26.698  26.131  1.00  0.00     0.064 A 
ATOM     72  C   UNL A   1      49.450  26.984  24.806  1.00  0.00     0.173 A 
ATOM     73  C   UNL A   1      50.068  26.129  26.961  1.00  0.00     0.173 A 
ATOM     74  F   UNL A   1      48.545  27.510  23.966  1.00  0.00    -0.203 F 
ATOM     75  C   UNL A   1      50.724  26.690  24.324  1.00  0.00     0.198 A 
ATOM     76  C   UNL A   1      51.352  25.867  26.488  1.00  0.00     0.198 A 
ATOM     77  F   UNL A   1      49.780  25.841  28.238  1.00  0.00    -0.203 F 
ATOM     78  F   UNL A   1      51.022  26.925  23.039  1.00  0.00    -0.200 F 
ATOM     79  C   UNL A   1      51.676  26.137  25.167  1.00  0.00     0.200 A 
ATOM     80  F   UNL A   1      52.274  25.348  27.311  1.00  0.00    -0.200 F 
ATOM     81  F   UNL A   1      52.901  25.856  24.705  1.00  0.00    -0.200 F 
ENDBRANCH  47  71
BRANCH  59  82
ATOM     82  C   UNL A   1      45.964  32.402  28.635  1.00  0.00     0.064 A 
ATOM     83  C   UNL A   1      46.561  32.764  29.852  1.00  0.00     0.173 A 
ATOM     84  C   UNL A   1      45.873  33.381  27.634  1.00  0.00     0.173 A 
ATOM     85  F   UNL A   1      46.659  31.870  30.848  1.00  0.00    -0.203 F 
ATOM     86  C   UNL A   1      47.018  34.060  30.068  1.00  0.00     0.198 A 
ATOM     87  C   UNL A   1      46.364  34.667  27.839  1.00  0.00     0.198 A 
ATOM     88  F   UNL A   1      45.319  33.086  26.448  1.00  0.00    -0.203 F 
ATOM     89  F   UNL A   1      47.534  34.398  31.259  1.00  0.00    -0.200 F 
ATOM     90  C   UNL A   1      46.928  35.007  29.059  1.00  0.00     0.200 A 
ATOM     91  F   UNL A   1      46.293  35.575  26.857  1.00  0.00    -0.200 F 
ATOM     92  F   UNL A   1      47.379  36.253  29.264  1.00  0.00    -0.200 F 
ENDBRANCH  59  82
ENDBRANCH  33  34
ENDBRANCH  25  28
ENDBRANCH  23  24
ENDBRANCH  22  23
ENDBRANCH  21  22
ENDBRANCH   3  21
TORSDOF 17
ENDMDL
MODEL 3
REMARK VINA RESULT:     -10.9      0.615      7.600
REMARK SMILES CCCOCCO[C@H]1CC[C@@]([NH3+])(C(=O)NCCCNC(=O)c2ccc(-c3c4nc(c(-c5c(F)c(F)c(F)c(F)c5F)c5ccc([nH]5)c(-c5c(F)c(F)c(F)c(F)c5F)c5nc(c(-c6c(F)c(F)c(F)c(F)c6F)c6ccc3[nH]6)C=C5)C=C4)cc2)C1
REMARK SMILES IDX 13 1 14 2 15 3 11 5 8 6 9 7 85 8 10 9 7 10 6 11 5 12 4 13
REMARK SMILES IDX 3 14 2 15 1 16 12 17 16 21 17 22 18 23 19 24 20 25 21 27
REMARK SMILES IDX 22 28 23 29 84 30 24 31 83 32 25 33 26 34 27 35 77 36 28 37
REMARK SMILES IDX 82 38 76 39 78 40 29 41 81 42 75 43 74 44 30 46 62 47 42 48
REMARK SMILES IDX 61 49 43 50 46 51 60 52 79 53 44 54 45 55 59 57 80 58 47 59
REMARK SMILES IDX 31 60 32 61 40 62 33 63 34 64 38 65 41 66 35 67 36 68 39 69
REMARK SMILES IDX 37 70 63 71 64 72 72 73 65 74 66 75 70 76 73 77 67 78 68 79
REMARK SMILES IDX 71 80 69 81 48 82 49 83 57 84 50 85 51 86 55 87 58 88 52 89
REMARK SMILES IDX 53 90 56 91 54 92
REMARK H PARENT 15 4 12 18 12 19 12 20 19 26 78 45 46 56
REMARK Flexibility Score: inf
ROOT
ATOM      1  C   UNL A   1      33.222  29.210  25.388  1.00  0.00     0.281 C 
ATOM      2  O   UNL A   1      33.421  28.996  24.191  1.00  0.00    -0.268 OA
ATOM      3  N   UNL A   1      32.863  30.492  25.698  1.00  0.00    -0.351 N 
ATOM      4  H   UNL A   1      33.527  31.214  25.610  1.00  0.00     0.163 HD
ENDROOT
BRANCH   1   5
ATOM      5  C   UNL A   1      33.062  28.053  26.433  1.00  0.00     0.176 C 
ATOM      6  C   UNL A   1      31.225  26.589  25.712  1.00  0.00     0.125 C 
ATOM      7  C   UNL A   1      32.525  25.831  25.472  1.00  0.00     0.039 C 
ATOM      8  C   UNL A   1      31.598  27.669  26.731  1.00  0.00     0.111 C 
ATOM      9  C   UNL A   1      33.669  26.712  25.999  1.00  0.00     0.082 C 
BRANCH   6  10
ATOM     10  O   UNL A   1      30.748  27.227  24.537  1.00  0.00    -0.376 OA
BRANCH  10  11
ATOM     11  C   UNL A   1      29.688  26.564  23.845  1.00  0.00     0.189 C 
BRANCH  11  12
ATOM     12  C   UNL A   1      28.505  27.503  23.516  1.00  0.00     0.188 C 
BRANCH  12  13
ATOM     13  O   UNL A   1      28.747  28.736  22.853  1.00  0.00    -0.379 OA
BRANCH  13  14
ATOM     14  C   UNL A   1      27.683  29.664  22.727  1.00  0.00     0.160 C 
BRANCH  14  15
ATOM     15  C   UNL A   1      27.689  30.970  23.538  1.00  0.00     0.025 C 
ATOM     16  C   UNL A   1      28.570  32.153  23.205  1.00  0.00     0.006 C 
ENDBRANCH  14  15
ENDBRANCH  13  14
ENDBRANCH  12  13
ENDBRANCH  11  12
ENDBRANCH  10  11
ENDBRANCH   6  10
BRANCH   5  17
ATOM     17  N   UNL A   1      33.686  28.586  27.673  1.00  0.00    -0.345 N 
ATOM     18  H   UNL A   1      33.253  29.476  27.918  1.00  0.00     0.345 HD
ATOM     19  H   UNL A   1      34.685  28.726  27.517  1.00  0.00     0.345 HD
ATOM     20  H   UNL A   1      33.552  27.921  28.435  1.00  0.00     0.345 HD
ENDBRANCH   5  17
ENDBRANCH   1   5
BRANCH   3  21
ATOM     21  C   UNL A   1      31.522  30.809  26.153  1.00  0.00     0.118 C 
BRANCH  21  22
ATOM     22  C   UNL A   1      31.353  32.274  26.515  1.00  0.00     0.042 C 
BRANCH  22  23
ATOM     23  C   UNL A   1      32.506  32.835  27.333  1.00  0.00     0.118 C 
BRANCH  23  24
ATOM     24  N   UNL A   1      32.348  34.256  27.632  1.00  0.00    -0.352 N 
ATOM     25  C   UNL A   1      32.966  35.033  28.579  1.00  0.00     0.251 C 
ATOM     26  H   UNL A   1      31.696  34.729  27.067  1.00  0.00     0.163 HD
ATOM     27  O   UNL A   1      32.538  36.160  28.829  1.00  0.00    -0.269 OA
BRANCH  25  28
ATOM     28  C   UNL A   1      34.124  34.507  29.327  1.00  0.00     0.039 A 
ATOM     29  C   UNL A   1      33.919  33.917  30.577  1.00  0.00     0.014 A 
ATOM     30  C   UNL A   1      35.410  34.582  28.790  1.00  0.00     0.014 A 
ATOM     31  C   UNL A   1      34.991  33.314  31.238  1.00  0.00     0.010 A 
ATOM     32  C   UNL A   1      36.452  33.891  29.396  1.00  0.00     0.010 A 
ATOM     33  C   UNL A   1      36.254  33.244  30.624  1.00  0.00    -0.014 A 
BRANCH  33  34
ATOM     34  C   UNL A   1      37.368  32.478  31.235  1.00  0.00     0.031 A 
ATOM     35  C   UNL A   1      37.885  32.845  32.599  1.00  0.00     0.074 A 
ATOM     36  C   UNL A   1      37.965  31.499  30.526  1.00  0.00     0.049 A 
ATOM     37  N   UNL A   1      38.893  32.340  33.265  1.00  0.00    -0.248 NA
ATOM     38  C   UNL A   1      37.198  33.944  33.295  1.00  0.00     0.031 C 
ATOM     39  C   UNL A   1      37.591  31.091  29.170  1.00  0.00     0.029 A 
ATOM     40  N   UNL A   1      39.018  30.677  30.840  1.00  0.00    -0.354 N 
ATOM     41  C   UNL A   1      38.964  33.065  34.447  1.00  0.00     0.074 A 
ATOM     42  C   UNL A   1      37.942  34.085  34.382  1.00  0.00     0.031 C 
ATOM     43  C   UNL A   1      38.381  30.078  28.781  1.00  0.00     0.029 A 
ATOM     44  C   UNL A   1      39.347  29.796  29.838  1.00  0.00     0.049 A 
ATOM     45  H   UNL A   1      39.493  30.715  31.702  1.00  0.00     0.167 HD
ATOM     46  C   UNL A   1      39.793  32.879  35.503  1.00  0.00     0.037 A 
ATOM     47  C   UNL A   1      40.327  28.874  29.772  1.00  0.00     0.037 A 
ATOM     48  C   UNL A   1      40.797  31.851  35.567  1.00  0.00     0.049 A 
ATOM     49  C   UNL A   1      41.247  28.704  30.951  1.00  0.00     0.074 A 
ATOM     50  C   UNL A   1      41.644  31.537  36.616  1.00  0.00     0.029 A 
ATOM     51  N   UNL A   1      41.099  30.973  34.535  1.00  0.00    -0.354 N 
ATOM     52  N   UNL A   1      41.253  29.341  32.097  1.00  0.00    -0.248 NA
ATOM     53  C   UNL A   1      42.297  27.684  30.827  1.00  0.00     0.031 C 
ATOM     54  C   UNL A   1      42.499  30.513  36.197  1.00  0.00     0.029 A 
ATOM     55  C   UNL A   1      42.142  30.141  34.910  1.00  0.00     0.049 A 
ATOM     56  H   UNL A   1      40.639  30.946  33.665  1.00  0.00     0.167 HD
ATOM     57  C   UNL A   1      42.285  28.783  32.838  1.00  0.00     0.074 A 
ATOM     58  C   UNL A   1      42.870  27.741  32.022  1.00  0.00     0.031 C 
ATOM     59  C   UNL A   1      42.714  29.109  34.084  1.00  0.00     0.037 A 
BRANCH  46  60
ATOM     60  C   UNL A   1      39.646  33.806  36.676  1.00  0.00     0.064 A 
ATOM     61  C   UNL A   1      38.848  33.476  37.782  1.00  0.00     0.173 A 
ATOM     62  C   UNL A   1      40.346  35.022  36.714  1.00  0.00     0.173 A 
ATOM     63  F   UNL A   1      38.149  32.331  37.795  1.00  0.00    -0.203 F 
ATOM     64  C   UNL A   1      38.732  34.342  38.868  1.00  0.00     0.198 A 
ATOM     65  C   UNL A   1      40.255  35.869  37.816  1.00  0.00     0.198 A 
ATOM     66  F   UNL A   1      41.128  35.386  35.686  1.00  0.00    -0.203 F 
ATOM     67  F   UNL A   1      37.923  34.028  39.889  1.00  0.00    -0.200 F 
ATOM     68  C   UNL A   1      39.442  35.532  38.887  1.00  0.00     0.200 A 
ATOM     69  F   UNL A   1      40.954  37.011  37.840  1.00  0.00    -0.200 F 
ATOM     70  F   UNL A   1      39.339  36.358  39.937  1.00  0.00    -0.200 F 
ENDBRANCH  46  60
BRANCH  47  71
ATOM     71  C   UNL A   1      40.481  28.034  28.555  1.00  0.00     0.064 A 
ATOM     72  C   UNL A   1      39.866  26.777  28.463  1.00  0.00     0.173 A 
ATOM     73  C   UNL A   1      41.252  28.461  27.463  1.00  0.00     0.173 A 
ATOM     74  F   UNL A   1      39.135  26.314  29.488  1.00  0.00    -0.203 F 
ATOM     75  C   UNL A   1      40.037  25.970  27.340  1.00  0.00     0.198 A 
ATOM     76  C   UNL A   1      41.394  27.669  26.327  1.00  0.00     0.198 A 
ATOM     77  F   UNL A   1      41.857  29.657  27.496  1.00  0.00    -0.203 F 
ATOM     78  F   UNL A   1      39.482  24.752  27.303  1.00  0.00    -0.200 F 
ATOM     79  C   UNL A   1      40.796  26.419  26.270  1.00  0.00     0.200 A 
ATOM     80  F   UNL A   1      42.115  28.114  25.288  1.00  0.00    -0.200 F 
ATOM     81  F   UNL A   1      40.958  25.645  25.189  1.00  0.00    -0.200 F 
ENDBRANCH  47  71
BRANCH  59  82
ATOM     82  C   UNL A   1      43.855  28.312  34.647  1.00  0.00     0.064 A 
ATOM     83  C   UNL A   1      45.184  28.744  34.531  1.00  0.00     0.173 A 
ATOM     84  C   UNL A   1      43.612  27.119  35.345  1.00  0.00     0.173 A 
ATOM     85  F   UNL A   1      45.472  29.869  33.859  1.00  0.00    -0.203 F 
ATOM     86  C   UNL A   1      46.229  27.997  35.066  1.00  0.00     0.198 A 
ATOM     87  C   UNL A   1      44.656  26.392  35.911  1.00  0.00     0.198 A 
ATOM     88  F   UNL A   1      42.359  26.664  35.493  1.00  0.00    -0.203 F 
ATOM     89  F   UNL A   1      47.496  28.401  34.895  1.00  0.00    -0.200 F 
ATOM     90  C   UNL A   1      45.964  26.828  35.763  1.00  0.00     0.200 A 
ATOM     91  F   UNL A   1      44.396  25.272  36.599  1.00  0.00    -0.200 F 
ATOM     92  F   UNL A   1      46.971  26.114  36.287  1.00  0.00    -0.200 F 
ENDBRANCH  59  82
ENDBRANCH  33  34
ENDBRANCH  25  28
ENDBRANCH  23  24
ENDBRANCH  22  23
ENDBRANCH  21  22
ENDBRANCH   3  21
TORSDOF 17
ENDMDL
