MODEL 1
REMARK VINA RESULT:     -13.7      0.000      0.000
REMARK SMILES O=C(CCn1cc(/C=C\C(=O)c2ccc(F)cc2)c(-c2cccc(Cl)c2)n1)NCCCNC(=O)c1ccc(-c2c3nc(c(-c4c(F)c(F)c(F)c(F)c4F)c4ccc([nH]4)c(-c4c(F)c(F)c(F)c(F)c4F)c4nc(c(-c5c(F)c(F)c(F)c(F)c5F)c5ccc2[nH]5)C=C4)C=C3)cc1
REMARK SMILES IDX 1 1 2 2 28 3 3 5 4 6 5 7 6 8 27 9 7 10 19 11 8 12 9 13 10 14
REMARK SMILES IDX 11 15 12 16 13 17 18 18 14 19 17 20 15 21 16 22 20 23 21 24
REMARK SMILES IDX 26 25 22 26 24 27 23 28 25 29 29 30 30 31 31 32 32 33 33 34
REMARK SMILES IDX 34 36 35 37 36 38 97 39 37 40 96 41 38 42 39 43 40 44 90 45
REMARK SMILES IDX 41 46 95 47 89 48 91 49 42 50 94 51 88 52 87 53 43 55 75 56
REMARK SMILES IDX 55 57 74 58 56 59 59 60 73 61 92 62 57 63 58 64 72 66 93 67
REMARK SMILES IDX 60 68 44 69 45 70 53 71 46 72 47 73 51 74 54 75 48 76 49 77
REMARK SMILES IDX 52 78 50 79 76 80 77 81 85 82 78 83 79 84 83 85 86 86 80 87
REMARK SMILES IDX 81 88 84 89 82 90 61 91 62 92 70 93 63 94 64 95 68 96 71 97
REMARK SMILES IDX 65 98 66 99 69 100 67 101
REMARK H PARENT 28 4 32 35 91 54 59 65
REMARK Flexibility Score: inf
ROOT
ATOM      1  O   UNL A   1      37.860  20.628  25.131  1.00  0.00    -0.275 OA
ATOM      2  C   UNL A   1      38.102  21.808  25.375  1.00  0.00     0.221 C 
ATOM      3  N   UNL A   1      39.264  22.223  26.021  1.00  0.00    -0.356 N 
ATOM      4  H   UNL A   1      39.548  23.158  25.902  1.00  0.00     0.163 HD
ENDROOT
BRANCH   2   5
ATOM      5  C   UNL A   1      37.079  22.911  24.992  1.00  0.00     0.123 C 
BRANCH   5   6
ATOM      6  C   UNL A   1      35.829  23.024  25.944  1.00  0.00     0.154 C 
BRANCH   6   7
ATOM      7  N   UNL A   1      34.588  23.244  25.227  1.00  0.00    -0.271 N 
ATOM      8  C   UNL A   1      33.536  24.140  25.285  1.00  0.00     0.117 A 
ATOM      9  N   UNL A   1      34.335  22.258  24.412  1.00  0.00    -0.172 NA
ATOM     10  C   UNL A   1      32.484  23.569  24.569  1.00  0.00     0.021 A 
ATOM     11  C   UNL A   1      33.057  22.336  24.226  1.00  0.00     0.100 A 
BRANCH  10  12
ATOM     12  C   UNL A   1      31.144  24.058  24.260  1.00  0.00     0.016 C 
ATOM     13  C   UNL A   1      30.676  25.102  23.515  1.00  0.00     0.053 C 
BRANCH  13  14
ATOM     14  C   UNL A   1      31.303  26.182  22.648  1.00  0.00     0.185 C 
ATOM     15  O   UNL A   1      31.666  25.961  21.500  1.00  0.00    -0.289 OA
BRANCH  14  16
ATOM     16  C   UNL A   1      31.556  27.508  23.331  1.00  0.00     0.022 A 
ATOM     17  C   UNL A   1      33.279  27.268  23.871  1.00  0.00     0.015 A 
ATOM     18  C   UNL A   1      30.549  29.077  24.142  1.00  0.00     0.015 A 
ATOM     19  C   UNL A   1      33.940  28.331  25.114  1.00  0.00     0.040 A 
ATOM     20  C   UNL A   1      31.403  30.099  25.375  1.00  0.00     0.040 A 
ATOM     21  C   UNL A   1      33.030  29.668  25.825  1.00  0.00     0.123 A 
ATOM     22  F   UNL A   1      33.704  30.540  26.592  1.00  0.00    -0.207 F 
ENDBRANCH  14  16
ENDBRANCH  13  14
ENDBRANCH  10  12
BRANCH  11  23
ATOM     23  C   UNL A   1      32.424  21.206  23.659  1.00  0.00     0.004 A 
ATOM     24  C   UNL A   1      32.154  20.497  21.800  1.00  0.00     0.010 A 
ATOM     25  C   UNL A   1      32.603  19.953  24.987  1.00  0.00     0.031 A 
ATOM     26  C   UNL A   1      32.152  18.770  21.651  1.00  0.00     0.002 A 
ATOM     27  C   UNL A   1      32.651  18.261  24.562  1.00  0.00     0.041 A 
ATOM     28  C   UNL A   1      32.461  17.704  22.956  1.00  0.00     0.020 A 
ATOM     29  Cl  UNL A   1      32.984  17.064  25.750  1.00  0.00    -0.084 Cl
ENDBRANCH  11  23
ENDBRANCH   6   7
ENDBRANCH   5   6
ENDBRANCH   2   5
BRANCH   3  30
ATOM     30  C   UNL A   1      40.092  21.358  26.868  1.00  0.00     0.117 C 
BRANCH  30  31
ATOM     31  C   UNL A   1      41.271  20.641  26.179  1.00  0.00     0.042 C 
BRANCH  31  32
ATOM     32  C   UNL A   1      42.704  21.106  26.484  1.00  0.00     0.118 C 
BRANCH  32  33
ATOM     33  N   UNL A   1      43.351  22.167  25.715  1.00  0.00    -0.352 N 
ATOM     34  C   UNL A   1      43.159  23.563  25.685  1.00  0.00     0.251 C 
ATOM     35  H   UNL A   1      44.053  21.846  25.104  1.00  0.00     0.163 HD
ATOM     36  O   UNL A   1      43.906  24.202  24.943  1.00  0.00    -0.269 OA
BRANCH  34  37
ATOM     37  C   UNL A   1      42.238  24.344  26.631  1.00  0.00     0.039 A 
ATOM     38  C   UNL A   1      41.123  25.053  26.127  1.00  0.00     0.014 A 
ATOM     39  C   UNL A   1      42.602  24.679  27.921  1.00  0.00     0.014 A 
ATOM     40  C   UNL A   1      40.642  26.254  26.760  1.00  0.00     0.010 A 
ATOM     41  C   UNL A   1      42.254  25.941  28.446  1.00  0.00     0.010 A 
ATOM     42  C   UNL A   1      41.358  26.842  27.823  1.00  0.00    -0.014 A 
BRANCH  42  43
ATOM     43  C   UNL A   1      41.072  28.193  28.635  1.00  0.00     0.031 A 
ATOM     44  C   UNL A   1      42.145  29.005  28.020  1.00  0.00     0.074 A 
ATOM     45  C   UNL A   1      40.148  28.716  29.595  1.00  0.00     0.049 A 
ATOM     46  N   UNL A   1      43.339  28.918  28.518  1.00  0.00    -0.248 NA
ATOM     47  C   UNL A   1      42.169  29.417  26.596  1.00  0.00     0.031 C 
ATOM     48  C   UNL A   1      39.097  28.148  30.561  1.00  0.00     0.029 A 
ATOM     49  N   UNL A   1      39.796  30.038  29.871  1.00  0.00    -0.354 N 
ATOM     50  C   UNL A   1      44.088  29.724  27.703  1.00  0.00     0.074 A 
ATOM     51  C   UNL A   1      43.480  29.623  26.411  1.00  0.00     0.031 C 
ATOM     52  C   UNL A   1      38.048  28.950  30.823  1.00  0.00     0.029 A 
ATOM     53  C   UNL A   1      38.432  30.256  30.362  1.00  0.00     0.049 A 
ATOM     54  H   UNL A   1      40.429  30.782  29.743  1.00  0.00     0.167 HD
ATOM     55  C   UNL A   1      44.681  30.786  28.305  1.00  0.00     0.037 A 
ATOM     56  C   UNL A   1      37.904  31.318  31.062  1.00  0.00     0.037 A 
ATOM     57  C   UNL A   1      44.706  30.586  29.748  1.00  0.00     0.049 A 
ATOM     58  C   UNL A   1      39.085  32.082  31.560  1.00  0.00     0.074 A 
ATOM     59  C   UNL A   1      45.176  29.563  30.553  1.00  0.00     0.029 A 
ATOM     60  N   UNL A   1      43.697  31.200  30.455  1.00  0.00    -0.354 N 
ATOM     61  N   UNL A   1      39.856  31.605  32.508  1.00  0.00    -0.248 NA
ATOM     62  C   UNL A   1      39.734  32.900  30.539  1.00  0.00     0.031 C 
ATOM     63  C   UNL A   1      44.197  29.384  31.573  1.00  0.00     0.029 A 
ATOM     64  C   UNL A   1      43.273  30.424  31.507  1.00  0.00     0.049 A 
ATOM     65  H   UNL A   1      43.326  32.085  30.235  1.00  0.00     0.167 HD
ATOM     66  C   UNL A   1      41.136  31.644  31.966  1.00  0.00     0.074 A 
ATOM     67  C   UNL A   1      40.985  32.455  30.734  1.00  0.00     0.031 C 
ATOM     68  C   UNL A   1      42.080  30.695  32.292  1.00  0.00     0.037 A 
BRANCH  55  69
ATOM     69  C   UNL A   1      44.775  32.129  27.651  1.00  0.00     0.064 A 
ATOM     70  C   UNL A   1      43.871  33.203  27.836  1.00  0.00     0.173 A 
ATOM     71  C   UNL A   1      45.940  32.427  26.937  1.00  0.00     0.173 A 
ATOM     72  F   UNL A   1      42.811  33.126  28.647  1.00  0.00    -0.203 F 
ATOM     73  C   UNL A   1      44.078  34.457  27.274  1.00  0.00     0.198 A 
ATOM     74  C   UNL A   1      46.174  33.702  26.424  1.00  0.00     0.198 A 
ATOM     75  F   UNL A   1      46.890  31.495  26.778  1.00  0.00    -0.203 F 
ATOM     76  F   UNL A   1      43.172  35.426  27.471  1.00  0.00    -0.200 F 
ATOM     77  C   UNL A   1      45.235  34.710  26.575  1.00  0.00     0.200 A 
ATOM     78  F   UNL A   1      47.333  33.963  25.809  1.00  0.00    -0.200 F 
ATOM     79  F   UNL A   1      45.464  35.934  26.086  1.00  0.00    -0.200 F 
ENDBRANCH  55  69
BRANCH  56  80
ATOM     80  C   UNL A   1      36.573  31.947  30.747  1.00  0.00     0.064 A 
ATOM     81  C   UNL A   1      36.195  32.217  29.418  1.00  0.00     0.173 A 
ATOM     82  C   UNL A   1      35.719  32.474  31.739  1.00  0.00     0.173 A 
ATOM     83  F   UNL A   1      36.875  31.685  28.393  1.00  0.00    -0.203 F 
ATOM     84  C   UNL A   1      35.150  33.089  29.102  1.00  0.00     0.198 A 
ATOM     85  C   UNL A   1      34.651  33.332  31.420  1.00  0.00     0.198 A 
ATOM     86  F   UNL A   1      35.933  32.199  33.035  1.00  0.00    -0.203 F 
ATOM     87  F   UNL A   1      34.912  33.399  27.819  1.00  0.00    -0.200 F 
ATOM     88  C   UNL A   1      34.400  33.676  30.102  1.00  0.00     0.200 A 
ATOM     89  F   UNL A   1      33.902  33.873  32.393  1.00  0.00    -0.200 F 
ATOM     90  F   UNL A   1      33.458  34.580  29.797  1.00  0.00    -0.200 F 
ENDBRANCH  56  80
BRANCH  68  91
ATOM     91  C   UNL A   1      41.867  29.779  33.497  1.00  0.00     0.064 A 
ATOM     92  C   UNL A   1      42.254  30.240  34.753  1.00  0.00     0.173 A 
ATOM     93  C   UNL A   1      41.571  28.407  33.448  1.00  0.00     0.173 A 
ATOM     94  F   UNL A   1      42.706  31.495  34.877  1.00  0.00    -0.203 F 
ATOM     95  C   UNL A   1      42.293  29.399  35.874  1.00  0.00     0.198 A 
ATOM     96  C   UNL A   1      41.528  27.571  34.569  1.00  0.00     0.198 A 
ATOM     97  F   UNL A   1      41.486  27.799  32.283  1.00  0.00    -0.203 F 
ATOM     98  F   UNL A   1      42.781  29.869  37.029  1.00  0.00    -0.200 F 
ATOM     99  C   UNL A   1      41.898  28.073  35.792  1.00  0.00     0.200 A 
ATOM    100  F   UNL A   1      41.221  26.270  34.437  1.00  0.00    -0.200 F 
ATOM    101  F   UNL A   1      41.944  27.275  36.867  1.00  0.00    -0.200 F 
ENDBRANCH  68  91
ENDBRANCH  42  43
ENDBRANCH  34  37
ENDBRANCH  32  33
ENDBRANCH  31  32
ENDBRANCH  30  31
ENDBRANCH   3  30
TORSDOF 16
ENDMDL
MODEL 2
REMARK VINA RESULT:     -13.6      2.208      4.036
REMARK SMILES O=C(CCn1cc(/C=C\C(=O)c2ccc(F)cc2)c(-c2cccc(Cl)c2)n1)NCCCNC(=O)c1ccc(-c2c3nc(c(-c4c(F)c(F)c(F)c(F)c4F)c4ccc([nH]4)c(-c4c(F)c(F)c(F)c(F)c4F)c4nc(c(-c5c(F)c(F)c(F)c(F)c5F)c5ccc2[nH]5)C=C4)C=C3)cc1
REMARK SMILES IDX 1 1 2 2 28 3 3 5 4 6 5 7 6 8 27 9 7 10 19 11 8 12 9 13 10 14
REMARK SMILES IDX 11 15 12 16 13 17 18 18 14 19 17 20 15 21 16 22 20 23 21 24
REMARK SMILES IDX 26 25 22 26 24 27 23 28 25 29 29 30 30 31 31 32 32 33 33 34
REMARK SMILES IDX 34 36 35 37 36 38 97 39 37 40 96 41 38 42 39 43 40 44 90 45
REMARK SMILES IDX 41 46 95 47 89 48 91 49 42 50 94 51 88 52 87 53 43 55 75 56
REMARK SMILES IDX 55 57 74 58 56 59 59 60 73 61 92 62 57 63 58 64 72 66 93 67
REMARK SMILES IDX 60 68 44 69 45 70 53 71 46 72 47 73 51 74 54 75 48 76 49 77
REMARK SMILES IDX 52 78 50 79 76 80 77 81 85 82 78 83 79 84 83 85 86 86 80 87
REMARK SMILES IDX 81 88 84 89 82 90 61 91 62 92 70 93 63 94 64 95 68 96 71 97
REMARK SMILES IDX 65 98 66 99 69 100 67 101
REMARK H PARENT 28 4 32 35 91 54 59 65
REMARK Flexibility Score: inf
ROOT
ATOM      1  O   UNL A   1      39.860  20.074  25.896  1.00  0.00    -0.275 OA
ATOM      2  C   UNL A   1      39.510  21.234  26.100  1.00  0.00     0.221 C 
ATOM      3  N   UNL A   1      40.206  22.097  26.942  1.00  0.00    -0.356 N 
ATOM      4  H   UNL A   1      40.077  23.066  26.817  1.00  0.00     0.163 HD
ENDROOT
BRANCH   2   5
ATOM      5  C   UNL A   1      38.222  21.789  25.434  1.00  0.00     0.123 C 
BRANCH   5   6
ATOM      6  C   UNL A   1      37.675  23.131  26.051  1.00  0.00     0.154 C 
BRANCH   6   7
ATOM      7  N   UNL A   1      36.227  23.216  26.034  1.00  0.00    -0.271 N 
ATOM      8  C   UNL A   1      35.165  22.391  26.356  1.00  0.00     0.117 A 
ATOM      9  N   UNL A   1      35.828  24.299  25.427  1.00  0.00    -0.172 NA
ATOM     10  C   UNL A   1      34.035  22.938  25.749  1.00  0.00     0.021 A 
ATOM     11  C   UNL A   1      34.616  24.019  25.071  1.00  0.00     0.100 A 
BRANCH  10  12
ATOM     12  C   UNL A   1      32.634  22.528  25.762  1.00  0.00     0.016 C 
ATOM     13  C   UNL A   1      31.935  21.558  25.104  1.00  0.00     0.053 C 
BRANCH  13  14
ATOM     14  C   UNL A   1      32.280  20.454  24.118  1.00  0.00     0.185 C 
ATOM     15  O   UNL A   1      32.075  20.571  22.917  1.00  0.00    -0.289 OA
BRANCH  14  16
ATOM     16  C   UNL A   1      32.782  19.162  24.725  1.00  0.00     0.022 A 
ATOM     17  C   UNL A   1      34.579  19.413  24.577  1.00  0.00     0.015 A 
ATOM     18  C   UNL A   1      32.149  17.279  25.159  1.00  0.00     0.015 A 
ATOM     19  C   UNL A   1      35.651  18.018  24.722  1.00  0.00     0.040 A 
ATOM     20  C   UNL A   1      33.398  15.971  25.322  1.00  0.00     0.040 A 
ATOM     21  C   UNL A   1      35.071  16.387  25.068  1.00  0.00     0.123 A 
ATOM     22  F   UNL A   1      35.986  15.453  25.376  1.00  0.00    -0.207 F 
ENDBRANCH  14  16
ENDBRANCH  13  14
ENDBRANCH  10  12
BRANCH  11  23
ATOM     23  C   UNL A   1      34.025  24.860  24.101  1.00  0.00     0.004 A 
ATOM     24  C   UNL A   1      33.087  24.587  22.346  1.00  0.00     0.010 A 
ATOM     25  C   UNL A   1      33.455  26.280  25.113  1.00  0.00     0.031 A 
ATOM     26  C   UNL A   1      31.813  25.710  21.997  1.00  0.00     0.002 A 
ATOM     27  C   UNL A   1      32.085  27.217  24.573  1.00  0.00     0.041 A 
ATOM     28  C   UNL A   1      31.287  26.919  23.090  1.00  0.00     0.020 A 
ATOM     29  Cl  UNL A   1      31.412  28.447  25.567  1.00  0.00    -0.084 Cl
ENDBRANCH  11  23
ENDBRANCH   6   7
ENDBRANCH   5   6
ENDBRANCH   2   5
BRANCH   3  30
ATOM     30  C   UNL A   1      41.120  21.659  28.001  1.00  0.00     0.117 C 
BRANCH  30  31
ATOM     31  C   UNL A   1      42.595  21.452  27.602  1.00  0.00     0.042 C 
BRANCH  31  32
ATOM     32  C   UNL A   1      42.967  21.445  26.110  1.00  0.00     0.118 C 
BRANCH  32  33
ATOM     33  N   UNL A   1      43.694  22.551  25.491  1.00  0.00    -0.352 N 
ATOM     34  C   UNL A   1      43.548  23.949  25.591  1.00  0.00     0.251 C 
ATOM     35  H   UNL A   1      44.422  22.266  24.893  1.00  0.00     0.163 HD
ATOM     36  O   UNL A   1      44.359  24.630  24.961  1.00  0.00    -0.269 OA
BRANCH  34  37
ATOM     37  C   UNL A   1      42.595  24.668  26.555  1.00  0.00     0.039 A 
ATOM     38  C   UNL A   1      41.449  25.339  26.068  1.00  0.00     0.014 A 
ATOM     39  C   UNL A   1      42.946  24.989  27.851  1.00  0.00     0.014 A 
ATOM     40  C   UNL A   1      40.918  26.503  26.729  1.00  0.00     0.010 A 
ATOM     41  C   UNL A   1      42.544  26.222  28.406  1.00  0.00     0.010 A 
ATOM     42  C   UNL A   1      41.609  27.097  27.805  1.00  0.00    -0.014 A 
BRANCH  42  43
ATOM     43  C   UNL A   1      41.266  28.416  28.648  1.00  0.00     0.031 A 
ATOM     44  C   UNL A   1      42.333  29.273  28.087  1.00  0.00     0.074 A 
ATOM     45  C   UNL A   1      40.303  28.885  29.597  1.00  0.00     0.049 A 
ATOM     46  N   UNL A   1      43.515  29.201  28.615  1.00  0.00    -0.248 NA
ATOM     47  C   UNL A   1      42.385  29.728  26.677  1.00  0.00     0.031 C 
ATOM     48  C   UNL A   1      39.241  28.262  30.516  1.00  0.00     0.029 A 
ATOM     49  N   UNL A   1      39.909  30.189  29.901  1.00  0.00    -0.354 N 
ATOM     50  C   UNL A   1      44.264  30.049  27.845  1.00  0.00     0.074 A 
ATOM     51  C   UNL A   1      43.695  29.972  26.534  1.00  0.00     0.031 C 
ATOM     52  C   UNL A   1      38.164  29.028  30.771  1.00  0.00     0.029 A 
ATOM     53  C   UNL A   1      38.527  30.357  30.360  1.00  0.00     0.049 A 
ATOM     54  H   UNL A   1      40.525  30.953  29.813  1.00  0.00     0.167 HD
ATOM     55  C   UNL A   1      44.813  31.108  28.494  1.00  0.00     0.037 A 
ATOM     56  C   UNL A   1      37.952  31.384  31.076  1.00  0.00     0.037 A 
ATOM     57  C   UNL A   1      44.804  30.866  29.931  1.00  0.00     0.049 A 
ATOM     58  C   UNL A   1      39.098  32.162  31.630  1.00  0.00     0.074 A 
ATOM     59  C   UNL A   1      45.279  29.831  30.719  1.00  0.00     0.029 A 
ATOM     60  N   UNL A   1      43.760  31.432  30.628  1.00  0.00    -0.354 N 
ATOM     61  N   UNL A   1      39.856  31.676  32.584  1.00  0.00    -0.248 NA
ATOM     62  C   UNL A   1      39.754  33.028  30.651  1.00  0.00     0.031 C 
ATOM     63  C   UNL A   1      44.278  29.596  31.705  1.00  0.00     0.029 A 
ATOM     64  C   UNL A   1      43.328  30.613  31.644  1.00  0.00     0.049 A 
ATOM     65  H   UNL A   1      43.372  32.313  30.423  1.00  0.00     0.167 HD
ATOM     66  C   UNL A   1      41.149  31.764  32.079  1.00  0.00     0.074 A 
ATOM     67  C   UNL A   1      41.010  32.609  30.868  1.00  0.00     0.031 C 
ATOM     68  C   UNL A   1      42.108  30.831  32.403  1.00  0.00     0.037 A 
BRANCH  55  69
ATOM     69  C   UNL A   1      44.890  32.472  27.884  1.00  0.00     0.064 A 
ATOM     70  C   UNL A   1      43.879  33.462  27.944  1.00  0.00     0.173 A 
ATOM     71  C   UNL A   1      46.119  32.886  27.362  1.00  0.00     0.173 A 
ATOM     72  F   UNL A   1      42.718  33.274  28.581  1.00  0.00    -0.203 F 
ATOM     73  C   UNL A   1      44.060  34.744  27.439  1.00  0.00     0.198 A 
ATOM     74  C   UNL A   1      46.318  34.190  26.910  1.00  0.00     0.198 A 
ATOM     75  F   UNL A   1      47.160  32.040  27.337  1.00  0.00    -0.203 F 
ATOM     76  F   UNL A   1      43.055  35.629  27.509  1.00  0.00    -0.200 F 
ATOM     77  C   UNL A   1      45.284  35.111  26.930  1.00  0.00     0.200 A 
ATOM     78  F   UNL A   1      47.530  34.562  26.485  1.00  0.00    -0.200 F 
ATOM     79  F   UNL A   1      45.478  36.364  26.501  1.00  0.00    -0.200 F 
ENDBRANCH  55  69
BRANCH  56  80
ATOM     80  C   UNL A   1      36.614  31.988  30.743  1.00  0.00     0.064 A 
ATOM     81  C   UNL A   1      36.307  32.389  29.428  1.00  0.00     0.173 A 
ATOM     82  C   UNL A   1      35.675  32.365  31.727  1.00  0.00     0.173 A 
ATOM     83  F   UNL A   1      37.074  32.003  28.400  1.00  0.00    -0.203 F 
ATOM     84  C   UNL A   1      35.241  33.246  29.140  1.00  0.00     0.198 A 
ATOM     85  C   UNL A   1      34.589  33.209  31.432  1.00  0.00     0.198 A 
ATOM     86  F   UNL A   1      35.822  31.957  32.996  1.00  0.00    -0.203 F 
ATOM     87  F   UNL A   1      35.069  33.687  27.885  1.00  0.00    -0.200 F 
ATOM     88  C   UNL A   1      34.404  33.686  30.145  1.00  0.00     0.200 A 
ATOM     89  F   UNL A   1      33.755  33.606  32.405  1.00  0.00    -0.200 F 
ATOM     90  F   UNL A   1      33.439  34.578  29.878  1.00  0.00    -0.200 F 
ENDBRANCH  56  80
BRANCH  68  91
ATOM     91  C   UNL A   1      41.886  29.874  33.575  1.00  0.00     0.064 A 
ATOM     92  C   UNL A   1      42.244  30.300  34.852  1.00  0.00     0.173 A 
ATOM     93  C   UNL A   1      41.611  28.500  33.477  1.00  0.00     0.173 A 
ATOM     94  F   UNL A   1      42.676  31.556  35.024  1.00  0.00    -0.203 F 
ATOM     95  C   UNL A   1      42.276  29.423  35.946  1.00  0.00     0.198 A 
ATOM     96  C   UNL A   1      41.560  27.628  34.569  1.00  0.00     0.198 A 
ATOM     97  F   UNL A   1      41.556  27.928  32.291  1.00  0.00    -0.203 F 
ATOM     98  F   UNL A   1      42.736  29.862  37.123  1.00  0.00    -0.200 F 
ATOM     99  C   UNL A   1      41.901  28.096  35.814  1.00  0.00     0.200 A 
ATOM    100  F   UNL A   1      41.274  26.328  34.390  1.00  0.00    -0.200 F 
ATOM    101  F   UNL A   1      41.939  27.264  36.864  1.00  0.00    -0.200 F 
ENDBRANCH  68  91
ENDBRANCH  42  43
ENDBRANCH  34  37
ENDBRANCH  32  33
ENDBRANCH  31  32
ENDBRANCH  30  31
ENDBRANCH   3  30
TORSDOF 16
ENDMDL
MODEL 3
REMARK VINA RESULT:     -13.3      3.586      9.026
REMARK SMILES O=C(CCn1cc(/C=C\C(=O)c2ccc(F)cc2)c(-c2cccc(Cl)c2)n1)NCCCNC(=O)c1ccc(-c2c3nc(c(-c4c(F)c(F)c(F)c(F)c4F)c4ccc([nH]4)c(-c4c(F)c(F)c(F)c(F)c4F)c4nc(c(-c5c(F)c(F)c(F)c(F)c5F)c5ccc2[nH]5)C=C4)C=C3)cc1
REMARK SMILES IDX 1 1 2 2 28 3 3 5 4 6 5 7 6 8 27 9 7 10 19 11 8 12 9 13 10 14
REMARK SMILES IDX 11 15 12 16 13 17 18 18 14 19 17 20 15 21 16 22 20 23 21 24
REMARK SMILES IDX 26 25 22 26 24 27 23 28 25 29 29 30 30 31 31 32 32 33 33 34
REMARK SMILES IDX 34 36 35 37 36 38 97 39 37 40 96 41 38 42 39 43 40 44 90 45
REMARK SMILES IDX 41 46 95 47 89 48 91 49 42 50 94 51 88 52 87 53 43 55 75 56
REMARK SMILES IDX 55 57 74 58 56 59 59 60 73 61 92 62 57 63 58 64 72 66 93 67
REMARK SMILES IDX 60 68 44 69 45 70 53 71 46 72 47 73 51 74 54 75 48 76 49 77
REMARK SMILES IDX 52 78 50 79 76 80 77 81 85 82 78 83 79 84 83 85 86 86 80 87
REMARK SMILES IDX 81 88 84 89 82 90 61 91 62 92 70 93 63 94 64 95 68 96 71 97
REMARK SMILES IDX 65 98 66 99 69 100 67 101
REMARK H PARENT 28 4 32 35 91 54 59 65
REMARK Flexibility Score: inf
ROOT
ATOM      1  O   UNL A   1      35.282  31.168  28.939  1.00  0.00    -0.275 OA
ATOM      2  C   UNL A   1      34.602  31.695  28.061  1.00  0.00     0.221 C 
ATOM      3  N   UNL A   1      34.676  33.052  27.759  1.00  0.00    -0.356 N 
ATOM      4  H   UNL A   1      34.367  33.344  26.871  1.00  0.00     0.163 HD
ENDROOT
BRANCH   2   5
ATOM      5  C   UNL A   1      33.580  30.851  27.254  1.00  0.00     0.123 C 
BRANCH   5   6
ATOM      6  C   UNL A   1      33.743  29.290  27.392  1.00  0.00     0.154 C 
BRANCH   6   7
ATOM      7  N   UNL A   1      33.575  28.588  26.134  1.00  0.00    -0.271 N 
ATOM      8  C   UNL A   1      32.910  28.802  24.941  1.00  0.00     0.117 A 
ATOM      9  N   UNL A   1      34.065  27.381  26.202  1.00  0.00    -0.172 NA
ATOM     10  C   UNL A   1      32.846  27.569  24.292  1.00  0.00     0.021 A 
ATOM     11  C   UNL A   1      33.449  26.750  25.256  1.00  0.00     0.100 A 
BRANCH  10  12
ATOM     12  C   UNL A   1      32.297  27.185  22.996  1.00  0.00     0.016 C 
ATOM     13  C   UNL A   1      31.062  27.305  22.427  1.00  0.00     0.053 C 
BRANCH  13  14
ATOM     14  C   UNL A   1      29.733  27.916  22.842  1.00  0.00     0.185 C 
ATOM     15  O   UNL A   1      28.857  27.256  23.385  1.00  0.00    -0.289 OA
BRANCH  14  16
ATOM     16  C   UNL A   1      29.518  29.358  22.438  1.00  0.00     0.022 A 
ATOM     17  C   UNL A   1      30.055  30.203  23.958  1.00  0.00     0.015 A 
ATOM     18  C   UNL A   1      28.498  30.474  21.077  1.00  0.00     0.015 A 
ATOM     19  C   UNL A   1      29.591  31.887  24.209  1.00  0.00     0.040 A 
ATOM     20  C   UNL A   1      28.149  32.209  21.480  1.00  0.00     0.040 A 
ATOM     21  C   UNL A   1      28.677  32.824  23.023  1.00  0.00     0.123 A 
ATOM     22  F   UNL A   1      28.576  34.149  23.221  1.00  0.00    -0.207 F 
ENDBRANCH  14  16
ENDBRANCH  13  14
ENDBRANCH  10  12
BRANCH  11  23
ATOM     23  C   UNL A   1      33.510  25.337  25.286  1.00  0.00     0.004 A 
ATOM     24  C   UNL A   1      34.926  23.972  25.689  1.00  0.00     0.010 A 
ATOM     25  C   UNL A   1      31.792  24.884  25.744  1.00  0.00     0.031 A 
ATOM     26  C   UNL A   1      34.370  22.522  26.459  1.00  0.00     0.002 A 
ATOM     27  C   UNL A   1      31.503  23.386  26.593  1.00  0.00     0.041 A 
ATOM     28  C   UNL A   1      32.750  22.272  26.955  1.00  0.00     0.020 A 
ATOM     29  Cl  UNL A   1      29.938  22.999  27.189  1.00  0.00    -0.084 Cl
ENDBRANCH  11  23
ENDBRANCH   6   7
ENDBRANCH   5   6
ENDBRANCH   2   5
BRANCH   3  30
ATOM     30  C   UNL A   1      35.184  34.077  28.677  1.00  0.00     0.117 C 
BRANCH  30  31
ATOM     31  C   UNL A   1      34.202  34.594  29.748  1.00  0.00     0.042 C 
BRANCH  31  32
ATOM     32  C   UNL A   1      34.431  34.202  31.217  1.00  0.00     0.118 C 
BRANCH  32  33
ATOM     33  N   UNL A   1      35.625  34.618  31.950  1.00  0.00    -0.352 N 
ATOM     34  C   UNL A   1      36.901  34.036  32.081  1.00  0.00     0.251 C 
ATOM     35  H   UNL A   1      35.517  35.463  32.444  1.00  0.00     0.163 HD
ATOM     36  O   UNL A   1      37.723  34.664  32.751  1.00  0.00    -0.269 OA
BRANCH  34  37
ATOM     37  C   UNL A   1      37.389  32.801  31.311  1.00  0.00     0.039 A 
ATOM     38  C   UNL A   1      37.216  31.504  31.846  1.00  0.00     0.014 A 
ATOM     39  C   UNL A   1      38.287  32.881  30.264  1.00  0.00     0.014 A 
ATOM     40  C   UNL A   1      38.148  30.442  31.567  1.00  0.00     0.010 A 
ATOM     41  C   UNL A   1      39.295  31.905  30.124  1.00  0.00     0.010 A 
ATOM     42  C   UNL A   1      39.343  30.700  30.864  1.00  0.00    -0.014 A 
BRANCH  42  43
ATOM     43  C   UNL A   1      40.554  29.718  30.494  1.00  0.00     0.031 A 
ATOM     44  C   UNL A   1      41.002  29.453  31.878  1.00  0.00     0.074 A 
ATOM     45  C   UNL A   1      41.149  29.102  29.347  1.00  0.00     0.049 A 
ATOM     46  N   UNL A   1      41.814  30.301  32.430  1.00  0.00    -0.248 NA
ATOM     47  C   UNL A   1      40.208  28.712  32.887  1.00  0.00     0.031 C 
ATOM     48  C   UNL A   1      41.097  29.289  27.824  1.00  0.00     0.029 A 
ATOM     49  N   UNL A   1      41.928  27.948  29.255  1.00  0.00    -0.354 N 
ATOM     50  C   UNL A   1      41.979  29.811  33.698  1.00  0.00     0.074 A 
ATOM     51  C   UNL A   1      40.735  29.184  34.026  1.00  0.00     0.031 C 
ATOM     52  C   UNL A   1      41.289  28.176  27.090  1.00  0.00     0.029 A 
ATOM     53  C   UNL A   1      41.833  27.202  27.996  1.00  0.00     0.049 A 
ATOM     54  H   UNL A   1      42.509  27.651  29.993  1.00  0.00     0.167 HD
ATOM     55  C   UNL A   1      43.246  29.460  34.035  1.00  0.00     0.037 A 
ATOM     56  C   UNL A   1      42.703  26.289  27.442  1.00  0.00     0.037 A 
ATOM     57  C   UNL A   1      44.191  30.063  33.104  1.00  0.00     0.049 A 
ATOM     58  C   UNL A   1      43.976  26.453  28.202  1.00  0.00     0.074 A 
ATOM     59  C   UNL A   1      44.408  31.366  32.690  1.00  0.00     0.029 A 
ATOM     60  N   UNL A   1      44.619  29.255  32.075  1.00  0.00    -0.354 N 
ATOM     61  N   UNL A   1      44.722  27.523  28.060  1.00  0.00    -0.248 NA
ATOM     62  C   UNL A   1      43.958  25.839  29.527  1.00  0.00     0.031 C 
ATOM     63  C   UNL A   1      44.639  31.298  31.285  1.00  0.00     0.029 A 
ATOM     64  C   UNL A   1      44.776  29.964  30.908  1.00  0.00     0.049 A 
ATOM     65  H   UNL A   1      44.790  28.289  32.165  1.00  0.00     0.167 HD
ATOM     66  C   UNL A   1      44.886  28.004  29.355  1.00  0.00     0.074 A 
ATOM     67  C   UNL A   1      44.377  26.910  30.218  1.00  0.00     0.031 C 
ATOM     68  C   UNL A   1      44.995  29.354  29.607  1.00  0.00     0.037 A 
BRANCH  55  69
ATOM     69  C   UNL A   1      43.551  28.246  34.856  1.00  0.00     0.064 A 
ATOM     70  C   UNL A   1      43.856  28.238  36.238  1.00  0.00     0.173 A 
ATOM     71  C   UNL A   1      43.346  26.993  34.269  1.00  0.00     0.173 A 
ATOM     72  F   UNL A   1      43.897  29.352  36.977  1.00  0.00    -0.203 F 
ATOM     73  C   UNL A   1      44.029  27.062  36.957  1.00  0.00     0.198 A 
ATOM     74  C   UNL A   1      43.463  25.815  35.006  1.00  0.00     0.198 A 
ATOM     75  F   UNL A   1      42.976  26.903  32.983  1.00  0.00    -0.203 F 
ATOM     76  F   UNL A   1      44.338  27.124  38.261  1.00  0.00    -0.200 F 
ATOM     77  C   UNL A   1      43.823  25.849  36.343  1.00  0.00     0.200 A 
ATOM     78  F   UNL A   1      43.189  24.643  34.422  1.00  0.00    -0.200 F 
ATOM     79  F   UNL A   1      43.929  24.717  37.049  1.00  0.00    -0.200 F 
ENDBRANCH  55  69
BRANCH  56  80
ATOM     80  C   UNL A   1      42.264  24.993  26.815  1.00  0.00     0.064 A 
ATOM     81  C   UNL A   1      41.315  24.166  27.446  1.00  0.00     0.173 A 
ATOM     82  C   UNL A   1      42.897  24.435  25.683  1.00  0.00     0.173 A 
ATOM     83  F   UNL A   1      40.581  24.626  28.468  1.00  0.00    -0.203 F 
ATOM     84  C   UNL A   1      41.134  22.828  27.086  1.00  0.00     0.198 A 
ATOM     85  C   UNL A   1      42.697  23.094  25.306  1.00  0.00     0.198 A 
ATOM     86  F   UNL A   1      43.749  25.169  24.952  1.00  0.00    -0.203 F 
ATOM     87  F   UNL A   1      40.300  22.058  27.800  1.00  0.00    -0.200 F 
ATOM     88  C   UNL A   1      41.851  22.280  26.041  1.00  0.00     0.200 A 
ATOM     89  F   UNL A   1      43.368  22.575  24.267  1.00  0.00    -0.200 F 
ATOM     90  F   UNL A   1      41.741  20.974  25.758  1.00  0.00    -0.200 F 
ENDBRANCH  56  80
BRANCH  68  91
ATOM     91  C   UNL A   1      45.275  30.331  28.465  1.00  0.00     0.064 A 
ATOM     92  C   UNL A   1      46.597  30.530  28.076  1.00  0.00     0.173 A 
ATOM     93  C   UNL A   1      44.367  31.263  27.936  1.00  0.00     0.173 A 
ATOM     94  F   UNL A   1      47.563  29.795  28.644  1.00  0.00    -0.203 F 
ATOM     95  C   UNL A   1      46.966  31.554  27.192  1.00  0.00     0.198 A 
ATOM     96  C   UNL A   1      44.703  32.240  26.993  1.00  0.00     0.198 A 
ATOM     97  F   UNL A   1      43.160  31.365  28.454  1.00  0.00    -0.203 F 
ATOM     98  F   UNL A   1      48.263  31.769  26.944  1.00  0.00    -0.200 F 
ATOM     99  C   UNL A   1      46.017  32.388  26.623  1.00  0.00     0.200 A 
ATOM    100  F   UNL A   1      43.770  33.084  26.526  1.00  0.00    -0.200 F 
ATOM    101  F   UNL A   1      46.379  33.367  25.782  1.00  0.00    -0.200 F 
ENDBRANCH  68  91
ENDBRANCH  42  43
ENDBRANCH  34  37
ENDBRANCH  32  33
ENDBRANCH  31  32
ENDBRANCH  30  31
ENDBRANCH   3  30
TORSDOF 16
ENDMDL
