MODEL 1
REMARK VINA RESULT:     -12.8      0.000      0.000
REMARK SMILES O=C(NCCCNC(=O)c1ccc(Br)c(NC(=S)NC(=O)c2cccs2)c1)c1ccc(-c2c3nc(c(-c4c(F)c(F)c(F)c(F)c4F)c4ccc([nH]4)c(-c4c(F)c(F)c(F)c(F)c4F)c4nc(c(-c5c(F)c(F)c(F)c(F)c5F)c5ccc2[nH]5)C=C4)C=C3)cc1
REMARK SMILES IDX 6 1 5 2 4 3 3 4 1 5 2 6 28 8 29 9 90 10 30 11 89 12 31 13
REMARK SMILES IDX 32 14 33 15 83 16 34 17 88 18 82 19 84 20 35 21 87 22 81 23
REMARK SMILES IDX 80 24 36 26 68 27 48 28 67 29 49 30 52 31 66 32 85 33 50 34
REMARK SMILES IDX 51 35 65 37 86 38 53 39 37 40 38 41 46 42 39 43 40 44 44 45
REMARK SMILES IDX 47 46 41 47 42 48 45 49 43 50 69 51 70 52 78 53 71 54 72 55
REMARK SMILES IDX 76 56 79 57 73 58 74 59 77 60 75 61 54 62 55 63 63 64 56 65
REMARK SMILES IDX 57 66 61 67 64 68 58 69 59 70 62 71 60 72 7 73 8 74 9 76
REMARK SMILES IDX 10 77 11 78 27 79 12 80 15 81 13 82 14 83 16 84 17 86 18 87
REMARK SMILES IDX 19 88 20 89 21 91 22 92 23 93 26 94 24 95 25 96
REMARK H PARENT 3 7 84 25 52 36 7 75 16 85 19 90
REMARK Flexibility Score: inf
ROOT
ATOM      1  C   UNL A   1      36.863  20.644  25.078  1.00  0.00     0.118 C 
ENDROOT
BRANCH   1   2
ATOM      2  C   UNL A   1      38.122  19.813  24.883  1.00  0.00     0.042 C 
BRANCH   2   3
ATOM      3  C   UNL A   1      39.266  20.172  25.821  1.00  0.00     0.118 C 
BRANCH   3   4
ATOM      4  N   UNL A   1      40.283  19.129  25.925  1.00  0.00    -0.352 N 
ATOM      5  O   UNL A   1      42.342  18.210  26.004  1.00  0.00    -0.269 OA
ATOM      6  C   UNL A   1      41.643  19.212  26.113  1.00  0.00     0.251 C 
ATOM      7  H   UNL A   1      39.937  18.210  25.849  1.00  0.00     0.163 HD
BRANCH   6   8
ATOM      8  C   UNL A   1      42.266  20.518  26.399  1.00  0.00     0.039 A 
ATOM      9  C   UNL A   1      42.422  20.947  27.714  1.00  0.00     0.014 A 
ATOM     10  C   UNL A   1      42.668  21.339  25.342  1.00  0.00     0.014 A 
ATOM     11  C   UNL A   1      42.736  22.271  27.967  1.00  0.00     0.010 A 
ATOM     12  C   UNL A   1      43.130  22.631  25.609  1.00  0.00     0.010 A 
ATOM     13  C   UNL A   1      43.111  23.129  26.921  1.00  0.00    -0.014 A 
BRANCH  13  14
ATOM     14  C   UNL A   1      43.506  24.524  27.246  1.00  0.00     0.031 A 
ATOM     15  C   UNL A   1      44.894  25.031  26.964  1.00  0.00     0.074 A 
ATOM     16  C   UNL A   1      42.574  25.354  27.756  1.00  0.00     0.049 A 
ATOM     17  N   UNL A   1      45.389  26.230  27.149  1.00  0.00    -0.248 NA
ATOM     18  C   UNL A   1      45.860  24.068  26.412  1.00  0.00     0.031 C 
ATOM     19  C   UNL A   1      41.195  24.978  28.074  1.00  0.00     0.029 A 
ATOM     20  N   UNL A   1      42.632  26.688  28.071  1.00  0.00    -0.354 N 
ATOM     21  C   UNL A   1      46.721  26.160  26.764  1.00  0.00     0.074 A 
ATOM     22  C   UNL A   1      46.970  24.791  26.365  1.00  0.00     0.031 C 
ATOM     23  C   UNL A   1      40.520  26.063  28.473  1.00  0.00     0.029 A 
ATOM     24  C   UNL A   1      41.438  27.193  28.525  1.00  0.00     0.049 A 
ATOM     25  H   UNL A   1      43.448  27.229  27.980  1.00  0.00     0.167 HD
ATOM     26  C   UNL A   1      47.648  27.149  26.738  1.00  0.00     0.037 A 
ATOM     27  C   UNL A   1      41.120  28.425  28.959  1.00  0.00     0.037 A 
ATOM     28  C   UNL A   1      47.386  28.512  27.132  1.00  0.00     0.049 A 
ATOM     29  C   UNL A   1      42.182  29.487  28.965  1.00  0.00     0.074 A 
ATOM     30  C   UNL A   1      48.246  29.596  27.109  1.00  0.00     0.029 A 
ATOM     31  N   UNL A   1      46.177  28.974  27.634  1.00  0.00    -0.354 N 
ATOM     32  N   UNL A   1      43.427  29.417  28.561  1.00  0.00    -0.248 NA
ATOM     33  C   UNL A   1      41.791  30.802  29.486  1.00  0.00     0.031 C 
ATOM     34  C   UNL A   1      47.584  30.693  27.671  1.00  0.00     0.029 A 
ATOM     35  C   UNL A   1      46.282  30.319  27.957  1.00  0.00     0.049 A 
ATOM     36  H   UNL A   1      45.365  28.428  27.745  1.00  0.00     0.167 HD
ATOM     37  C   UNL A   1      43.957  30.687  28.740  1.00  0.00     0.074 A 
ATOM     38  C   UNL A   1      42.890  31.509  29.274  1.00  0.00     0.031 C 
ATOM     39  C   UNL A   1      45.211  31.132  28.481  1.00  0.00     0.037 A 
BRANCH  26  40
ATOM     40  C   UNL A   1      49.046  26.792  26.310  1.00  0.00     0.064 A 
ATOM     41  C   UNL A   1      49.491  26.968  24.991  1.00  0.00     0.173 A 
ATOM     42  C   UNL A   1      49.969  26.299  27.247  1.00  0.00     0.173 A 
ATOM     43  F   UNL A   1      48.654  27.428  24.048  1.00  0.00    -0.203 F 
ATOM     44  C   UNL A   1      50.791  26.629  24.620  1.00  0.00     0.198 A 
ATOM     45  C   UNL A   1      51.278  25.999  26.882  1.00  0.00     0.198 A 
ATOM     46  F   UNL A   1      49.603  26.118  28.526  1.00  0.00    -0.203 F 
ATOM     47  F   UNL A   1      51.174  26.749  23.340  1.00  0.00    -0.200 F 
ATOM     48  C   UNL A   1      51.685  26.154  25.567  1.00  0.00     0.200 A 
ATOM     49  F   UNL A   1      52.145  25.558  27.804  1.00  0.00    -0.200 F 
ATOM     50  F   UNL A   1      52.937  25.836  25.210  1.00  0.00    -0.200 F 
ENDBRANCH  26  40
BRANCH  27  51
ATOM     51  C   UNL A   1      39.739  28.715  29.430  1.00  0.00     0.064 A 
ATOM     52  C   UNL A   1      39.362  28.466  30.756  1.00  0.00     0.173 A 
ATOM     53  C   UNL A   1      38.767  29.236  28.563  1.00  0.00     0.173 A 
ATOM     54  F   UNL A   1      40.250  27.954  31.621  1.00  0.00    -0.203 F 
ATOM     55  C   UNL A   1      38.057  28.694  31.187  1.00  0.00     0.198 A 
ATOM     56  C   UNL A   1      37.475  29.502  29.005  1.00  0.00     0.198 A 
ATOM     57  F   UNL A   1      39.078  29.503  27.285  1.00  0.00    -0.203 F 
ATOM     58  F   UNL A   1      37.706  28.387  32.444  1.00  0.00    -0.200 F 
ATOM     59  C   UNL A   1      37.116  29.218  30.314  1.00  0.00     0.200 A 
ATOM     60  F   UNL A   1      36.577  30.030  28.163  1.00  0.00    -0.200 F 
ATOM     61  F   UNL A   1      35.862  29.439  30.729  1.00  0.00    -0.200 F 
ENDBRANCH  27  51
BRANCH  39  62
ATOM     62  C   UNL A   1      45.479  32.596  28.703  1.00  0.00     0.064 A 
ATOM     63  C   UNL A   1      45.235  33.561  27.716  1.00  0.00     0.173 A 
ATOM     64  C   UNL A   1      45.983  33.037  29.937  1.00  0.00     0.173 A 
ATOM     65  F   UNL A   1      44.765  33.196  26.513  1.00  0.00    -0.203 F 
ATOM     66  C   UNL A   1      45.530  34.905  27.937  1.00  0.00     0.198 A 
ATOM     67  C   UNL A   1      46.234  34.385  30.172  1.00  0.00     0.198 A 
ATOM     68  F   UNL A   1      46.226  32.159  30.923  1.00  0.00    -0.203 F 
ATOM     69  F   UNL A   1      45.362  35.797  26.952  1.00  0.00    -0.200 F 
ATOM     70  C   UNL A   1      46.022  35.316  29.167  1.00  0.00     0.200 A 
ATOM     71  F   UNL A   1      46.688  34.782  31.368  1.00  0.00    -0.200 F 
ATOM     72  F   UNL A   1      46.303  36.609  29.380  1.00  0.00    -0.200 F 
ENDBRANCH  39  62
ENDBRANCH  13  14
ENDBRANCH   6   8
ENDBRANCH   3   4
ENDBRANCH   2   3
ENDBRANCH   1   2
BRANCH   1  73
ATOM     73  N   UNL A   1      36.870  21.839  24.254  1.00  0.00    -0.352 N 
ATOM     74  C   UNL A   1      35.871  22.663  23.805  1.00  0.00     0.251 C 
ATOM     75  H   UNL A   1      37.770  22.110  23.960  1.00  0.00     0.163 HD
ATOM     76  O   UNL A   1      36.132  23.219  22.740  1.00  0.00    -0.269 OA
BRANCH  74  77
ATOM     77  C   UNL A   1      34.548  22.858  24.662  1.00  0.00     0.041 A 
ATOM     78  C   UNL A   1      33.475  21.402  24.453  1.00  0.00     0.015 A 
ATOM     79  C   UNL A   1      33.754  24.280  25.914  1.00  0.00     0.041 A 
ATOM     80  C   UNL A   1      31.904  21.426  25.291  1.00  0.00     0.018 A 
ATOM     81  C   UNL A   1      32.237  24.245  26.560  1.00  0.00     0.055 A 
ATOM     82  C   UNL A   1      31.331  22.802  26.282  1.00  0.00     0.041 A 
ATOM     83  Br  UNL A   1      29.557  22.714  26.941  1.00  0.00    -0.049 Br
BRANCH  81  84
ATOM     84  N   UNL A   1      31.913  25.549  26.988  1.00  0.00    -0.331 N 
ATOM     85  H   UNL A   1      32.174  25.764  27.912  1.00  0.00     0.169 HD
BRANCH  84  86
ATOM     86  C   UNL A   1      31.277  26.582  26.293  1.00  0.00     0.177 C 
ATOM     87  S   UNL A   1      31.831  28.139  26.613  1.00  0.00    -0.040 S 
BRANCH  86  88
ATOM     88  N   UNL A   1      30.211  26.493  25.307  1.00  0.00    -0.298 N 
ATOM     89  C   UNL A   1      29.621  26.633  23.892  1.00  0.00     0.267 C 
ATOM     90  H   UNL A   1      29.448  26.160  25.833  1.00  0.00     0.172 HD
ATOM     91  O   UNL A   1      28.397  26.548  23.782  1.00  0.00    -0.268 OA
BRANCH  89  92
ATOM     92  C   UNL A   1      30.562  26.834  22.690  1.00  0.00     0.092 A 
ATOM     93  C   UNL A   1      31.644  25.530  22.472  1.00  0.00     0.025 A 
ATOM     94  S   UNL A   1      31.566  28.917  22.808  1.00  0.00    -0.139 S 
ATOM     95  C   UNL A   1      33.467  25.990  22.827  1.00  0.00     0.012 A 
ATOM     96  C   UNL A   1      33.670  27.946  23.091  1.00  0.00     0.065 A 
ENDBRANCH  89  92
ENDBRANCH  86  88
ENDBRANCH  84  86
ENDBRANCH  81  84
ENDBRANCH  74  77
ENDBRANCH   1  73
TORSDOF 14
ENDMDL
MODEL 2
REMARK VINA RESULT:     -12.7      0.404      7.459
REMARK SMILES O=C(NCCCNC(=O)c1ccc(Br)c(NC(=S)NC(=O)c2cccs2)c1)c1ccc(-c2c3nc(c(-c4c(F)c(F)c(F)c(F)c4F)c4ccc([nH]4)c(-c4c(F)c(F)c(F)c(F)c4F)c4nc(c(-c5c(F)c(F)c(F)c(F)c5F)c5ccc2[nH]5)C=C4)C=C3)cc1
REMARK SMILES IDX 6 1 5 2 4 3 3 4 1 5 2 6 28 8 29 9 90 10 30 11 89 12 31 13
REMARK SMILES IDX 32 14 33 15 83 16 34 17 88 18 82 19 84 20 35 21 87 22 81 23
REMARK SMILES IDX 80 24 36 26 68 27 48 28 67 29 49 30 52 31 66 32 85 33 50 34
REMARK SMILES IDX 51 35 65 37 86 38 53 39 37 40 38 41 46 42 39 43 40 44 44 45
REMARK SMILES IDX 47 46 41 47 42 48 45 49 43 50 69 51 70 52 78 53 71 54 72 55
REMARK SMILES IDX 76 56 79 57 73 58 74 59 77 60 75 61 54 62 55 63 63 64 56 65
REMARK SMILES IDX 57 66 61 67 64 68 58 69 59 70 62 71 60 72 7 73 8 74 9 76
REMARK SMILES IDX 10 77 11 78 27 79 12 80 15 81 13 82 14 83 16 84 17 86 18 87
REMARK SMILES IDX 19 88 20 89 21 91 22 92 23 93 26 94 24 95 25 96
REMARK H PARENT 3 7 84 25 52 36 7 75 16 85 19 90
REMARK Flexibility Score: inf
ROOT
ATOM      1  C   UNL A   1      36.899  20.578  25.151  1.00  0.00     0.118 C 
ENDROOT
BRANCH   1   2
ATOM      2  C   UNL A   1      38.133  19.703  24.990  1.00  0.00     0.042 C 
BRANCH   2   3
ATOM      3  C   UNL A   1      39.339  20.159  25.801  1.00  0.00     0.118 C 
BRANCH   3   4
ATOM      4  N   UNL A   1      40.362  19.127  25.953  1.00  0.00    -0.352 N 
ATOM      5  O   UNL A   1      42.426  18.223  26.067  1.00  0.00    -0.269 OA
ATOM      6  C   UNL A   1      41.722  19.226  26.127  1.00  0.00     0.251 C 
ATOM      7  H   UNL A   1      40.020  18.204  25.927  1.00  0.00     0.163 HD
BRANCH   6   8
ATOM      8  C   UNL A   1      42.340  20.549  26.341  1.00  0.00     0.039 A 
ATOM      9  C   UNL A   1      42.436  21.078  27.624  1.00  0.00     0.014 A 
ATOM     10  C   UNL A   1      42.800  21.283  25.245  1.00  0.00     0.014 A 
ATOM     11  C   UNL A   1      42.747  22.418  27.788  1.00  0.00     0.010 A 
ATOM     12  C   UNL A   1      43.258  22.590  25.432  1.00  0.00     0.010 A 
ATOM     13  C   UNL A   1      43.178  23.190  26.699  1.00  0.00    -0.014 A 
BRANCH  13  14
ATOM     14  C   UNL A   1      43.567  24.604  26.933  1.00  0.00     0.031 A 
ATOM     15  C   UNL A   1      42.596  25.598  27.510  1.00  0.00     0.074 A 
ATOM     16  C   UNL A   1      44.835  24.977  26.664  1.00  0.00     0.049 A 
ATOM     17  N   UNL A   1      42.787  26.858  27.814  1.00  0.00    -0.248 NA
ATOM     18  C   UNL A   1      41.228  25.123  27.774  1.00  0.00     0.031 C 
ATOM     19  C   UNL A   1      45.867  24.103  26.100  1.00  0.00     0.029 A 
ATOM     20  N   UNL A   1      45.482  26.171  26.853  1.00  0.00    -0.354 N 
ATOM     21  C   UNL A   1      41.565  27.331  28.276  1.00  0.00     0.074 A 
ATOM     22  C   UNL A   1      40.628  26.232  28.183  1.00  0.00     0.031 C 
ATOM     23  C   UNL A   1      47.029  24.765  26.052  1.00  0.00     0.029 A 
ATOM     24  C   UNL A   1      46.808  26.135  26.496  1.00  0.00     0.049 A 
ATOM     25  H   UNL A   1      45.040  26.974  27.210  1.00  0.00     0.167 HD
ATOM     26  C   UNL A   1      41.259  28.566  28.743  1.00  0.00     0.037 A 
ATOM     27  C   UNL A   1      47.740  27.104  26.501  1.00  0.00     0.037 A 
ATOM     28  C   UNL A   1      42.204  29.652  28.838  1.00  0.00     0.049 A 
ATOM     29  C   UNL A   1      47.355  28.475  26.977  1.00  0.00     0.074 A 
ATOM     30  C   UNL A   1      42.001  30.930  29.330  1.00  0.00     0.029 A 
ATOM     31  N   UNL A   1      43.526  29.592  28.419  1.00  0.00    -0.354 N 
ATOM     32  N   UNL A   1      46.208  28.898  27.449  1.00  0.00    -0.248 NA
ATOM     33  C   UNL A   1      48.401  29.503  26.925  1.00  0.00     0.031 C 
ATOM     34  C   UNL A   1      43.175  31.666  29.135  1.00  0.00     0.029 A 
ATOM     35  C   UNL A   1      44.139  30.822  28.609  1.00  0.00     0.049 A 
ATOM     36  H   UNL A   1      43.964  28.795  28.042  1.00  0.00     0.167 HD
ATOM     37  C   UNL A   1      46.403  30.230  27.787  1.00  0.00     0.074 A 
ATOM     38  C   UNL A   1      47.785  30.536  27.481  1.00  0.00     0.031 C 
ATOM     39  C   UNL A   1      45.519  31.115  28.309  1.00  0.00     0.037 A 
BRANCH  26  40
ATOM     40  C   UNL A   1      39.834  28.830  29.150  1.00  0.00     0.064 A 
ATOM     41  C   UNL A   1      39.382  28.632  30.464  1.00  0.00     0.173 A 
ATOM     42  C   UNL A   1      38.911  29.326  28.214  1.00  0.00     0.173 A 
ATOM     43  F   UNL A   1      40.215  28.153  31.401  1.00  0.00    -0.203 F 
ATOM     44  C   UNL A   1      38.057  28.884  30.814  1.00  0.00     0.198 A 
ATOM     45  C   UNL A   1      37.599  29.614  28.577  1.00  0.00     0.198 A 
ATOM     46  F   UNL A   1      39.287  29.544  26.944  1.00  0.00    -0.203 F 
ATOM     47  F   UNL A   1      37.636  28.629  32.062  1.00  0.00    -0.200 F 
ATOM     48  C   UNL A   1      37.169  29.383  29.873  1.00  0.00     0.200 A 
ATOM     49  F   UNL A   1      36.749  30.114  27.669  1.00  0.00    -0.200 F 
ATOM     50  F   UNL A   1      35.898  29.632  30.215  1.00  0.00    -0.200 F 
ENDBRANCH  26  40
BRANCH  27  51
ATOM     51  C   UNL A   1      49.121  26.811  26.033  1.00  0.00     0.064 A 
ATOM     52  C   UNL A   1      49.490  27.022  24.698  1.00  0.00     0.173 A 
ATOM     53  C   UNL A   1      50.095  26.304  26.906  1.00  0.00     0.173 A 
ATOM     54  F   UNL A   1      48.592  27.492  23.820  1.00  0.00    -0.203 F 
ATOM     55  C   UNL A   1      50.770  26.705  24.247  1.00  0.00     0.198 A 
ATOM     56  C   UNL A   1      51.385  26.026  26.463  1.00  0.00     0.198 A 
ATOM     57  F   UNL A   1      49.798  26.092  28.197  1.00  0.00    -0.203 F 
ATOM     58  F   UNL A   1      51.077  26.858  22.951  1.00  0.00    -0.200 F 
ATOM     59  C   UNL A   1      51.718  26.214  25.131  1.00  0.00     0.200 A 
ATOM     60  F   UNL A   1      52.303  25.573  27.327  1.00  0.00    -0.200 F 
ATOM     61  F   UNL A   1      52.949  25.912  24.698  1.00  0.00    -0.200 F 
ENDBRANCH  27  51
BRANCH  39  62
ATOM     62  C   UNL A   1      46.041  32.485  28.650  1.00  0.00     0.064 A 
ATOM     63  C   UNL A   1      46.596  32.785  29.903  1.00  0.00     0.173 A 
ATOM     64  C   UNL A   1      45.990  33.513  27.696  1.00  0.00     0.173 A 
ATOM     65  F   UNL A   1      46.660  31.844  30.858  1.00  0.00    -0.203 F 
ATOM     66  C   UNL A   1      47.035  34.072  30.203  1.00  0.00     0.198 A 
ATOM     67  C   UNL A   1      46.471  34.787  27.983  1.00  0.00     0.198 A 
ATOM     68  F   UNL A   1      45.478  33.282  26.477  1.00  0.00    -0.203 F 
ATOM     69  F   UNL A   1      47.489  34.354  31.432  1.00  0.00    -0.200 F 
ATOM     70  C   UNL A   1      46.978  35.070  29.241  1.00  0.00     0.200 A 
ATOM     71  F   UNL A   1      46.434  35.742  27.044  1.00  0.00    -0.200 F 
ATOM     72  F   UNL A   1      47.403  36.307  29.530  1.00  0.00    -0.200 F 
ENDBRANCH  39  62
ENDBRANCH  13  14
ENDBRANCH   6   8
ENDBRANCH   3   4
ENDBRANCH   2   3
ENDBRANCH   1   2
BRANCH   1  73
ATOM     73  N   UNL A   1      36.923  21.717  24.252  1.00  0.00    -0.352 N 
ATOM     74  C   UNL A   1      35.935  22.530  23.758  1.00  0.00     0.251 C 
ATOM     75  H   UNL A   1      37.824  21.952  23.935  1.00  0.00     0.163 HD
ATOM     76  O   UNL A   1      36.199  23.012  22.658  1.00  0.00    -0.269 OA
BRANCH  74  77
ATOM     77  C   UNL A   1      34.624  22.804  24.610  1.00  0.00     0.041 A 
ATOM     78  C   UNL A   1      33.473  21.407  24.412  1.00  0.00     0.015 A 
ATOM     79  C   UNL A   1      33.906  24.280  25.847  1.00  0.00     0.041 A 
ATOM     80  C   UNL A   1      31.903  21.525  25.245  1.00  0.00     0.018 A 
ATOM     81  C   UNL A   1      32.388  24.333  26.490  1.00  0.00     0.055 A 
ATOM     82  C   UNL A   1      31.405  22.939  26.222  1.00  0.00     0.041 A 
ATOM     83  Br  UNL A   1      29.627  22.955  26.878  1.00  0.00    -0.049 Br
BRANCH  81  84
ATOM     84  N   UNL A   1      32.135  25.657  26.904  1.00  0.00    -0.331 N 
ATOM     85  H   UNL A   1      32.558  25.918  27.754  1.00  0.00     0.169 HD
BRANCH  84  86
ATOM     86  C   UNL A   1      31.371  26.653  26.289  1.00  0.00     0.177 C 
ATOM     87  S   UNL A   1      31.779  28.240  26.672  1.00  0.00    -0.040 S 
BRANCH  86  88
ATOM     88  N   UNL A   1      30.281  26.505  25.337  1.00  0.00    -0.298 N 
ATOM     89  C   UNL A   1      29.640  26.613  23.941  1.00  0.00     0.267 C 
ATOM     90  H   UNL A   1      29.556  26.129  25.886  1.00  0.00     0.172 HD
ATOM     91  O   UNL A   1      28.420  26.459  23.870  1.00  0.00    -0.268 OA
BRANCH  89  92
ATOM     92  C   UNL A   1      30.529  26.868  22.711  1.00  0.00     0.092 A 
ATOM     93  C   UNL A   1      31.608  25.580  22.396  1.00  0.00     0.025 A 
ATOM     94  S   UNL A   1      31.528  28.950  22.871  1.00  0.00    -0.139 S 
ATOM     95  C   UNL A   1      33.441  26.036  22.695  1.00  0.00     0.012 A 
ATOM     96  C   UNL A   1      33.646  27.981  23.028  1.00  0.00     0.065 A 
ENDBRANCH  89  92
ENDBRANCH  86  88
ENDBRANCH  84  86
ENDBRANCH  81  84
ENDBRANCH  74  77
ENDBRANCH   1  73
TORSDOF 14
ENDMDL
MODEL 3
REMARK VINA RESULT:     -12.7      4.638     10.124
REMARK SMILES O=C(NCCCNC(=O)c1ccc(Br)c(NC(=S)NC(=O)c2cccs2)c1)c1ccc(-c2c3nc(c(-c4c(F)c(F)c(F)c(F)c4F)c4ccc([nH]4)c(-c4c(F)c(F)c(F)c(F)c4F)c4nc(c(-c5c(F)c(F)c(F)c(F)c5F)c5ccc2[nH]5)C=C4)C=C3)cc1
REMARK SMILES IDX 6 1 5 2 4 3 3 4 1 5 2 6 28 8 29 9 90 10 30 11 89 12 31 13
REMARK SMILES IDX 32 14 33 15 83 16 34 17 88 18 82 19 84 20 35 21 87 22 81 23
REMARK SMILES IDX 80 24 36 26 68 27 48 28 67 29 49 30 52 31 66 32 85 33 50 34
REMARK SMILES IDX 51 35 65 37 86 38 53 39 37 40 38 41 46 42 39 43 40 44 44 45
REMARK SMILES IDX 47 46 41 47 42 48 45 49 43 50 69 51 70 52 78 53 71 54 72 55
REMARK SMILES IDX 76 56 79 57 73 58 74 59 77 60 75 61 54 62 55 63 63 64 56 65
REMARK SMILES IDX 57 66 61 67 64 68 58 69 59 70 62 71 60 72 7 73 8 74 9 76
REMARK SMILES IDX 10 77 11 78 27 79 12 80 15 81 13 82 14 83 16 84 17 86 18 87
REMARK SMILES IDX 19 88 20 89 21 91 22 92 23 93 26 94 24 95 25 96
REMARK H PARENT 3 7 84 25 52 36 7 75 16 85 19 90
REMARK Flexibility Score: inf
ROOT
ATOM      1  C   UNL A   1      33.489  28.805  22.784  1.00  0.00     0.118 C 
ENDROOT
BRANCH   1   2
ATOM      2  C   UNL A   1      34.077  29.327  24.086  1.00  0.00     0.042 C 
BRANCH   2   3
ATOM      3  C   UNL A   1      33.201  29.098  25.310  1.00  0.00     0.118 C 
BRANCH   3   4
ATOM      4  N   UNL A   1      32.722  30.335  25.923  1.00  0.00    -0.352 N 
ATOM      5  O   UNL A   1      32.590  32.017  27.421  1.00  0.00    -0.269 OA
ATOM      6  C   UNL A   1      33.243  31.095  26.943  1.00  0.00     0.251 C 
ATOM      7  H   UNL A   1      31.884  30.684  25.541  1.00  0.00     0.163 HD
BRANCH   6   8
ATOM      8  C   UNL A   1      34.573  30.771  27.494  1.00  0.00     0.039 A 
ATOM      9  C   UNL A   1      34.871  29.469  27.886  1.00  0.00     0.014 A 
ATOM     10  C   UNL A   1      35.522  31.783  27.652  1.00  0.00     0.014 A 
ATOM     11  C   UNL A   1      35.996  29.228  28.656  1.00  0.00     0.010 A 
ATOM     12  C   UNL A   1      36.729  31.504  28.299  1.00  0.00     0.010 A 
ATOM     13  C   UNL A   1      36.950  30.237  28.861  1.00  0.00    -0.014 A 
BRANCH  13  14
ATOM     14  C   UNL A   1      38.176  29.916  29.637  1.00  0.00     0.031 A 
ATOM     15  C   UNL A   1      38.372  30.427  31.038  1.00  0.00     0.074 A 
ATOM     16  C   UNL A   1      39.099  29.107  29.077  1.00  0.00     0.049 A 
ATOM     17  N   UNL A   1      39.363  30.205  31.867  1.00  0.00    -0.248 NA
ATOM     18  C   UNL A   1      37.327  31.308  31.583  1.00  0.00     0.031 C 
ATOM     19  C   UNL A   1      39.020  28.551  27.724  1.00  0.00     0.029 A 
ATOM     20  N   UNL A   1      40.264  28.589  29.579  1.00  0.00    -0.354 N 
ATOM     21  C   UNL A   1      39.076  30.937  33.012  1.00  0.00     0.074 A 
ATOM     22  C   UNL A   1      37.835  31.637  32.763  1.00  0.00     0.031 C 
ATOM     23  C   UNL A   1      40.051  27.719  27.528  1.00  0.00     0.029 A 
ATOM     24  C   UNL A   1      40.910  27.751  28.703  1.00  0.00     0.049 A 
ATOM     25  H   UNL A   1      40.604  28.796  30.479  1.00  0.00     0.167 HD
ATOM     26  C   UNL A   1      39.782  31.010  34.168  1.00  0.00     0.037 A 
ATOM     27  C   UNL A   1      42.079  27.097  28.821  1.00  0.00     0.037 A 
ATOM     28  C   UNL A   1      41.016  30.302  34.407  1.00  0.00     0.049 A 
ATOM     29  C   UNL A   1      42.862  27.238  30.096  1.00  0.00     0.074 A 
ATOM     30  C   UNL A   1      41.788  30.281  35.556  1.00  0.00     0.029 A 
ATOM     31  N   UNL A   1      41.665  29.503  33.477  1.00  0.00    -0.354 N 
ATOM     32  N   UNL A   1      42.560  27.900  31.185  1.00  0.00    -0.248 NA
ATOM     33  C   UNL A   1      44.148  26.534  30.155  1.00  0.00     0.031 C 
ATOM     34  C   UNL A   1      42.943  29.536  35.294  1.00  0.00     0.029 A 
ATOM     35  C   UNL A   1      42.847  29.013  34.015  1.00  0.00     0.049 A 
ATOM     36  H   UNL A   1      41.336  29.311  32.568  1.00  0.00     0.167 HD
ATOM     37  C   UNL A   1      43.597  27.662  32.075  1.00  0.00     0.074 A 
ATOM     38  C   UNL A   1      44.527  26.780  31.400  1.00  0.00     0.031 C 
ATOM     39  C   UNL A   1      43.762  28.127  33.338  1.00  0.00     0.037 A 
BRANCH  26  40
ATOM     40  C   UNL A   1      39.264  31.918  35.251  1.00  0.00     0.064 A 
ATOM     41  C   UNL A   1      39.519  33.298  35.255  1.00  0.00     0.173 A 
ATOM     42  C   UNL A   1      38.464  31.401  36.284  1.00  0.00     0.173 A 
ATOM     43  F   UNL A   1      40.282  33.849  34.298  1.00  0.00    -0.203 F 
ATOM     44  C   UNL A   1      39.026  34.116  36.270  1.00  0.00     0.198 A 
ATOM     45  C   UNL A   1      37.942  32.228  37.274  1.00  0.00     0.198 A 
ATOM     46  F   UNL A   1      38.179  30.090  36.328  1.00  0.00    -0.203 F 
ATOM     47  F   UNL A   1      39.335  35.421  36.285  1.00  0.00    -0.200 F 
ATOM     48  C   UNL A   1      38.232  33.583  37.273  1.00  0.00     0.200 A 
ATOM     49  F   UNL A   1      37.158  31.712  38.231  1.00  0.00    -0.200 F 
ATOM     50  F   UNL A   1      37.753  34.373  38.243  1.00  0.00    -0.200 F 
ENDBRANCH  26  40
BRANCH  27  51
ATOM     51  C   UNL A   1      42.580  26.258  27.700  1.00  0.00     0.064 A 
ATOM     52  C   UNL A   1      43.494  26.771  26.768  1.00  0.00     0.173 A 
ATOM     53  C   UNL A   1      42.148  24.934  27.528  1.00  0.00     0.173 A 
ATOM     54  F   UNL A   1      43.926  28.035  26.879  1.00  0.00    -0.203 F 
ATOM     55  C   UNL A   1      43.928  26.002  25.691  1.00  0.00     0.198 A 
ATOM     56  C   UNL A   1      42.616  24.155  26.475  1.00  0.00     0.198 A 
ATOM     57  F   UNL A   1      41.282  24.391  28.397  1.00  0.00    -0.203 F 
ATOM     58  F   UNL A   1      44.753  26.538  24.780  1.00  0.00    -0.200 F 
ATOM     59  C   UNL A   1      43.495  24.693  25.549  1.00  0.00     0.200 A 
ATOM     60  F   UNL A   1      42.210  22.883  26.355  1.00  0.00    -0.200 F 
ATOM     61  F   UNL A   1      43.915  23.954  24.513  1.00  0.00    -0.200 F 
ENDBRANCH  27  51
BRANCH  39  62
ATOM     62  C   UNL A   1      44.961  27.632  34.101  1.00  0.00     0.064 A 
ATOM     63  C   UNL A   1      44.928  26.458  34.867  1.00  0.00     0.173 A 
ATOM     64  C   UNL A   1      46.167  28.348  34.053  1.00  0.00     0.173 A 
ATOM     65  F   UNL A   1      43.799  25.740  34.958  1.00  0.00    -0.203 F 
ATOM     66  C   UNL A   1      46.043  26.045  35.594  1.00  0.00     0.198 A 
ATOM     67  C   UNL A   1      47.293  27.909  34.744  1.00  0.00     0.198 A 
ATOM     68  F   UNL A   1      46.260  29.474  33.329  1.00  0.00    -0.203 F 
ATOM     69  F   UNL A   1      45.964  24.963  36.380  1.00  0.00    -0.200 F 
ATOM     70  C   UNL A   1      47.225  26.767  35.527  1.00  0.00     0.200 A 
ATOM     71  F   UNL A   1      48.439  28.596  34.660  1.00  0.00    -0.200 F 
ATOM     72  F   UNL A   1      48.297  26.367  36.224  1.00  0.00    -0.200 F 
ENDBRANCH  39  62
ENDBRANCH  13  14
ENDBRANCH   6   8
ENDBRANCH   3   4
ENDBRANCH   2   3
ENDBRANCH   1   2
BRANCH   1  73
ATOM     73  N   UNL A   1      32.097  29.187  22.628  1.00  0.00    -0.352 N 
ATOM     74  C   UNL A   1      30.942  28.458  22.510  1.00  0.00     0.251 C 
ATOM     75  H   UNL A   1      31.955  30.161  22.605  1.00  0.00     0.163 HD
ATOM     76  O   UNL A   1      30.061  29.031  21.873  1.00  0.00    -0.269 OA
BRANCH  74  77
ATOM     77  C   UNL A   1      30.823  27.031  23.198  1.00  0.00     0.041 A 
ATOM     78  C   UNL A   1      30.395  27.243  24.955  1.00  0.00     0.015 A 
ATOM     79  C   UNL A   1      31.016  25.063  22.639  1.00  0.00     0.041 A 
ATOM     80  C   UNL A   1      30.259  25.765  25.940  1.00  0.00     0.018 A 
ATOM     81  C   UNL A   1      30.967  23.771  23.662  1.00  0.00     0.055 A 
ATOM     82  C   UNL A   1      30.549  24.119  25.301  1.00  0.00     0.041 A 
ATOM     83  Br  UNL A   1      30.533  22.692  26.546  1.00  0.00    -0.049 Br
BRANCH  81  84
ATOM     84  N   UNL A   1      31.552  22.669  23.004  1.00  0.00    -0.331 N 
ATOM     85  H   UNL A   1      31.055  22.336  22.222  1.00  0.00     0.169 HD
BRANCH  84  86
ATOM     86  C   UNL A   1      32.732  21.981  23.296  1.00  0.00     0.177 C 
ATOM     87  S   UNL A   1      32.549  20.418  23.895  1.00  0.00    -0.040 S 
BRANCH  86  88
ATOM     88  N   UNL A   1      34.109  22.424  23.130  1.00  0.00    -0.298 N 
ATOM     89  C   UNL A   1      35.511  22.801  23.641  1.00  0.00     0.267 C 
ATOM     90  H   UNL A   1      34.185  22.551  22.157  1.00  0.00     0.172 HD
ATOM     91  O   UNL A   1      36.268  23.357  22.845  1.00  0.00    -0.268 OA
BRANCH  89  92
ATOM     92  C   UNL A   1      35.919  22.445  25.082  1.00  0.00     0.092 A 
ATOM     93  C   UNL A   1      36.467  23.799  25.968  1.00  0.00     0.025 A 
ATOM     94  S   UNL A   1      37.369  20.641  25.075  1.00  0.00    -0.139 S 
ATOM     95  C   UNL A   1      38.333  23.731  26.381  1.00  0.00     0.012 A 
ATOM     96  C   UNL A   1      39.102  21.962  25.913  1.00  0.00     0.065 A 
ENDBRANCH  89  92
ENDBRANCH  86  88
ENDBRANCH  84  86
ENDBRANCH  81  84
ENDBRANCH  74  77
ENDBRANCH   1  73
TORSDOF 14
ENDMDL
