MODEL 1
REMARK VINA RESULT:     -12.2      0.000      0.000
REMARK SMILES CO[C@H]1C[C@@H](C(=O)NCCCNC(=O)c2ccc(-c3c4nc(c(-c5c(F)c(F)c(F)c(F)c5F)c5ccc([nH]5)c(-c5c(F)c(F)c(F)c(F)c5F)c5nc(c(-c6c(F)c(F)c(F)c(F)c6F)c6ccc3[nH]6)C=C5)C=C4)cc2)N(C(=O)c2cscc2C)C1
REMARK SMILES IDX 10 1 9 2 8 3 6 4 7 5 5 7 3 8 4 9 87 10 78 11 2 12 1 13 79 14
REMARK SMILES IDX 80 15 81 16 82 17 85 18 83 19 84 20 86 21 11 22 12 23 13 24
REMARK SMILES IDX 14 26 15 27 16 28 77 29 17 30 76 31 18 32 19 33 20 34 70 35
REMARK SMILES IDX 21 36 75 37 69 38 71 39 22 40 74 41 68 42 67 43 23 45 55 46
REMARK SMILES IDX 35 47 54 48 36 49 39 50 53 51 72 52 37 53 38 54 52 56 73 57
REMARK SMILES IDX 40 58 24 59 25 60 33 61 26 62 27 63 31 64 34 65 28 66 29 67
REMARK SMILES IDX 32 68 30 69 56 70 57 71 65 72 58 73 59 74 63 75 66 76 60 77
REMARK SMILES IDX 61 78 64 79 62 80 41 81 42 82 50 83 43 84 44 85 48 86 51 87
REMARK SMILES IDX 45 88 46 89 49 90 47 91
REMARK H PARENT 8 6 12 25 71 44 39 55
REMARK Flexibility Score: inf
ROOT
ATOM      1  C   UNL A   1      31.405  32.520  26.499  1.00  0.00     0.042 C 
ENDROOT
BRANCH   1   2
ATOM      2  C   UNL A   1      31.281  31.000  26.460  1.00  0.00     0.117 C 
BRANCH   2   3
ATOM      3  N   UNL A   1      32.353  30.364  25.714  1.00  0.00    -0.354 N 
ATOM      4  C   UNL A   1      32.353  29.197  25.000  1.00  0.00     0.242 C 
ATOM      5  O   UNL A   1      33.326  28.963  24.281  1.00  0.00    -0.273 OA
ATOM      6  H   UNL A   1      33.211  30.847  25.722  1.00  0.00     0.163 HD
BRANCH   4   7
ATOM      7  C   UNL A   1      31.146  28.249  25.085  1.00  0.00     0.177 C 
ATOM      8  C   UNL A   1      30.477  26.097  25.932  1.00  0.00     0.139 C 
ATOM      9  C   UNL A   1      31.391  27.273  26.247  1.00  0.00     0.069 C 
ATOM     10  C   UNL A   1      30.571  26.010  24.409  1.00  0.00     0.152 C 
ATOM     11  N   UNL A   1      30.878  27.357  23.945  1.00  0.00    -0.324 N 
BRANCH   8  12
ATOM     12  O   UNL A   1      30.912  24.878  26.522  1.00  0.00    -0.380 OA
ATOM     13  C   UNL A   1      32.321  24.698  26.484  1.00  0.00     0.195 C 
ENDBRANCH   8  12
BRANCH  11  14
ATOM     14  C   UNL A   1      30.460  27.737  22.677  1.00  0.00     0.255 C 
ATOM     15  O   UNL A   1      30.835  27.150  21.665  1.00  0.00    -0.269 OA
BRANCH  14  16
ATOM     16  C   UNL A   1      29.589  28.907  22.562  1.00  0.00     0.053 A 
ATOM     17  C   UNL A   1      30.006  30.081  21.958  1.00  0.00     0.079 A 
ATOM     18  C   UNL A   1      28.182  28.967  22.896  1.00  0.00    -0.028 A 
ATOM     19  S   UNL A   1      28.778  31.262  21.873  1.00  0.00    -0.151 S 
ATOM     20  C   UNL A   1      27.642  30.201  22.575  1.00  0.00     0.069 A 
ATOM     21  C   UNL A   1      27.391  27.854  23.502  1.00  0.00     0.046 C 
ENDBRANCH  14  16
ENDBRANCH  11  14
ENDBRANCH   4   7
ENDBRANCH   2   3
ENDBRANCH   1   2
BRANCH   1  22
ATOM     22  C   UNL A   1      32.632  33.031  27.255  1.00  0.00     0.118 C 
BRANCH  22  23
ATOM     23  N   UNL A   1      32.498  34.418  27.674  1.00  0.00    -0.352 N 
ATOM     24  C   UNL A   1      33.138  35.108  28.669  1.00  0.00     0.251 C 
ATOM     25  H   UNL A   1      31.843  34.943  27.161  1.00  0.00     0.163 HD
ATOM     26  O   UNL A   1      32.777  36.254  28.926  1.00  0.00    -0.269 OA
BRANCH  24  27
ATOM     27  C   UNL A   1      34.239  34.503  29.452  1.00  0.00     0.039 A 
ATOM     28  C   UNL A   1      35.530  34.557  28.913  1.00  0.00     0.014 A 
ATOM     29  C   UNL A   1      34.013  33.813  30.648  1.00  0.00     0.014 A 
ATOM     30  C   UNL A   1      36.597  33.952  29.581  1.00  0.00     0.010 A 
ATOM     31  C   UNL A   1      35.084  33.230  31.330  1.00  0.00     0.010 A 
ATOM     32  C   UNL A   1      36.379  33.289  30.797  1.00  0.00    -0.014 A 
BRANCH  32  33
ATOM     33  C   UNL A   1      37.502  32.629  31.500  1.00  0.00     0.031 A 
ATOM     34  C   UNL A   1      38.258  31.517  30.835  1.00  0.00     0.074 A 
ATOM     35  C   UNL A   1      37.824  33.011  32.748  1.00  0.00     0.049 A 
ATOM     36  N   UNL A   1      39.222  30.773  31.315  1.00  0.00    -0.248 NA
ATOM     37  C   UNL A   1      37.871  31.189  29.455  1.00  0.00     0.031 C 
ATOM     38  C   UNL A   1      37.149  34.061  33.512  1.00  0.00     0.029 A 
ATOM     39  N   UNL A   1      38.801  32.554  33.594  1.00  0.00    -0.354 N 
ATOM     40  C   UNL A   1      39.528  29.862  30.313  1.00  0.00     0.074 A 
ATOM     41  C   UNL A   1      38.662  30.157  29.191  1.00  0.00     0.031 C 
ATOM     42  C   UNL A   1      37.739  34.174  34.714  1.00  0.00     0.029 A 
ATOM     43  C   UNL A   1      38.826  33.201  34.804  1.00  0.00     0.049 A 
ATOM     44  H   UNL A   1      39.426  31.831  33.357  1.00  0.00     0.167 HD
ATOM     45  C   UNL A   1      40.442  28.864  30.335  1.00  0.00     0.037 A 
ATOM     46  C   UNL A   1      39.638  33.031  35.863  1.00  0.00     0.037 A 
ATOM     47  C   UNL A   1      41.327  28.584  31.432  1.00  0.00     0.049 A 
ATOM     48  C   UNL A   1      40.730  32.004  35.807  1.00  0.00     0.074 A 
ATOM     49  C   UNL A   1      42.265  27.573  31.555  1.00  0.00     0.029 A 
ATOM     50  N   UNL A   1      41.399  29.340  32.591  1.00  0.00    -0.354 N 
ATOM     51  N   UNL A   1      40.995  31.135  34.864  1.00  0.00    -0.248 NA
ATOM     52  C   UNL A   1      41.643  31.943  36.958  1.00  0.00     0.031 C 
ATOM     53  C   UNL A   1      42.914  27.724  32.788  1.00  0.00     0.029 A 
ATOM     54  C   UNL A   1      42.381  28.834  33.424  1.00  0.00     0.049 A 
ATOM     55  H   UNL A   1      40.834  30.121  32.791  1.00  0.00     0.167 HD
ATOM     56  C   UNL A   1      42.102  30.426  35.302  1.00  0.00     0.074 A 
ATOM     57  C   UNL A   1      42.470  30.972  36.592  1.00  0.00     0.031 C 
ATOM     58  C   UNL A   1      42.748  29.404  34.692  1.00  0.00     0.037 A 
BRANCH  45  59
ATOM     59  C   UNL A   1      40.509  27.981  29.132  1.00  0.00     0.064 A 
ATOM     60  C   UNL A   1      39.717  26.829  29.028  1.00  0.00     0.173 A 
ATOM     61  C   UNL A   1      41.360  28.301  28.065  1.00  0.00     0.173 A 
ATOM     62  F   UNL A   1      38.902  26.480  30.034  1.00  0.00    -0.203 F 
ATOM     63  C   UNL A   1      39.781  26.023  27.897  1.00  0.00     0.198 A 
ATOM     64  C   UNL A   1      41.415  27.496  26.931  1.00  0.00     0.198 A 
ATOM     65  F   UNL A   1      42.140  29.391  28.126  1.00  0.00    -0.203 F 
ATOM     66  F   UNL A   1      39.031  24.914  27.822  1.00  0.00    -0.200 F 
ATOM     67  C   UNL A   1      40.627  26.357  26.849  1.00  0.00     0.200 A 
ATOM     68  F   UNL A   1      42.235  27.818  25.920  1.00  0.00    -0.200 F 
ATOM     69  F   UNL A   1      40.690  25.576  25.761  1.00  0.00    -0.200 F 
ENDBRANCH  45  59
BRANCH  46  70
ATOM     70  C   UNL A   1      39.460  33.883  37.059  1.00  0.00     0.064 A 
ATOM     71  C   UNL A   1      40.015  35.168  37.108  1.00  0.00     0.173 A 
ATOM     72  C   UNL A   1      38.716  33.439  38.157  1.00  0.00     0.173 A 
ATOM     73  F   UNL A   1      40.746  35.622  36.080  1.00  0.00    -0.203 F 
ATOM     74  C   UNL A   1      39.832  35.982  38.223  1.00  0.00     0.198 A 
ATOM     75  C   UNL A   1      38.527  34.257  39.268  1.00  0.00     0.198 A 
ATOM     76  F   UNL A   1      38.169  32.215  38.146  1.00  0.00    -0.203 F 
ATOM     77  F   UNL A   1      40.382  37.203  38.256  1.00  0.00    -0.200 F 
ATOM     78  C   UNL A   1      39.086  35.527  39.301  1.00  0.00     0.200 A 
ATOM     79  F   UNL A   1      37.805  33.816  40.307  1.00  0.00    -0.200 F 
ATOM     80  F   UNL A   1      38.909  36.311  40.372  1.00  0.00    -0.200 F 
ENDBRANCH  46  70
BRANCH  58  81
ATOM     81  C   UNL A   1      43.925  28.824  35.403  1.00  0.00     0.064 A 
ATOM     82  C   UNL A   1      45.224  29.279  35.140  1.00  0.00     0.173 A 
ATOM     83  C   UNL A   1      43.752  27.829  36.376  1.00  0.00     0.173 A 
ATOM     84  F   UNL A   1      45.433  30.221  34.209  1.00  0.00    -0.203 F 
ATOM     85  C   UNL A   1      46.314  28.754  35.827  1.00  0.00     0.198 A 
ATOM     86  C   UNL A   1      44.844  27.309  37.063  1.00  0.00     0.198 A 
ATOM     87  F   UNL A   1      42.526  27.360  36.650  1.00  0.00    -0.203 F 
ATOM     88  F   UNL A   1      47.551  29.192  35.555  1.00  0.00    -0.200 F 
ATOM     89  C   UNL A   1      46.124  27.772  36.789  1.00  0.00     0.200 A 
ATOM     90  F   UNL A   1      44.661  26.356  37.987  1.00  0.00    -0.200 F 
ATOM     91  F   UNL A   1      47.175  27.264  37.447  1.00  0.00    -0.200 F 
ENDBRANCH  58  81
ENDBRANCH  32  33
ENDBRANCH  24  27
ENDBRANCH  22  23
ENDBRANCH   1  22
TORSDOF 13
ENDMDL
MODEL 2
REMARK VINA RESULT:     -12.2      0.976      7.355
REMARK SMILES CO[C@H]1C[C@@H](C(=O)NCCCNC(=O)c2ccc(-c3c4nc(c(-c5c(F)c(F)c(F)c(F)c5F)c5ccc([nH]5)c(-c5c(F)c(F)c(F)c(F)c5F)c5nc(c(-c6c(F)c(F)c(F)c(F)c6F)c6ccc3[nH]6)C=C5)C=C4)cc2)N(C(=O)c2cscc2C)C1
REMARK SMILES IDX 10 1 9 2 8 3 6 4 7 5 5 7 3 8 4 9 87 10 78 11 2 12 1 13 79 14
REMARK SMILES IDX 80 15 81 16 82 17 85 18 83 19 84 20 86 21 11 22 12 23 13 24
REMARK SMILES IDX 14 26 15 27 16 28 77 29 17 30 76 31 18 32 19 33 20 34 70 35
REMARK SMILES IDX 21 36 75 37 69 38 71 39 22 40 74 41 68 42 67 43 23 45 55 46
REMARK SMILES IDX 35 47 54 48 36 49 39 50 53 51 72 52 37 53 38 54 52 56 73 57
REMARK SMILES IDX 40 58 24 59 25 60 33 61 26 62 27 63 31 64 34 65 28 66 29 67
REMARK SMILES IDX 32 68 30 69 56 70 57 71 65 72 58 73 59 74 63 75 66 76 60 77
REMARK SMILES IDX 61 78 64 79 62 80 41 81 42 82 50 83 43 84 44 85 48 86 51 87
REMARK SMILES IDX 45 88 46 89 49 90 47 91
REMARK H PARENT 8 6 12 25 71 44 39 55
REMARK Flexibility Score: inf
ROOT
ATOM      1  C   UNL A   1      31.074  31.961  26.528  1.00  0.00     0.042 C 
ENDROOT
BRANCH   1   2
ATOM      2  C   UNL A   1      31.076  30.954  25.381  1.00  0.00     0.117 C 
BRANCH   2   3
ATOM      3  N   UNL A   1      32.250  30.099  25.382  1.00  0.00    -0.354 N 
ATOM      4  C   UNL A   1      32.350  28.747  25.201  1.00  0.00     0.242 C 
ATOM      5  O   UNL A   1      33.476  28.271  25.040  1.00  0.00    -0.273 OA
ATOM      6  H   UNL A   1      33.104  30.564  25.534  1.00  0.00     0.163 HD
BRANCH   4   7
ATOM      7  C   UNL A   1      31.080  27.883  25.167  1.00  0.00     0.177 C 
ATOM      8  C   UNL A   1      30.221  25.739  25.849  1.00  0.00     0.139 C 
ATOM      9  C   UNL A   1      31.194  26.829  26.280  1.00  0.00     0.069 C 
ATOM     10  C   UNL A   1      30.393  25.732  24.331  1.00  0.00     0.152 C 
ATOM     11  N   UNL A   1      30.815  27.077  23.964  1.00  0.00    -0.324 N 
BRANCH   8  12
ATOM     12  O   UNL A   1      30.539  24.461  26.386  1.00  0.00    -0.380 OA
ATOM     13  C   UNL A   1      31.867  24.367  26.883  1.00  0.00     0.195 C 
ENDBRANCH   8  12
BRANCH  11  14
ATOM     14  C   UNL A   1      30.495  27.556  22.701  1.00  0.00     0.255 C 
ATOM     15  O   UNL A   1      30.949  27.050  21.678  1.00  0.00    -0.269 OA
BRANCH  14  16
ATOM     16  C   UNL A   1      29.629  28.733  22.611  1.00  0.00     0.053 A 
ATOM     17  C   UNL A   1      30.043  29.909  22.008  1.00  0.00     0.079 A 
ATOM     18  C   UNL A   1      28.230  28.799  22.972  1.00  0.00    -0.028 A 
ATOM     19  S   UNL A   1      28.822  31.098  21.955  1.00  0.00    -0.151 S 
ATOM     20  C   UNL A   1      27.692  30.039  22.670  1.00  0.00     0.069 A 
ATOM     21  C   UNL A   1      27.442  27.688  23.585  1.00  0.00     0.046 C 
ENDBRANCH  14  16
ENDBRANCH  11  14
ENDBRANCH   4   7
ENDBRANCH   2   3
ENDBRANCH   1   2
BRANCH   1  22
ATOM     22  C   UNL A   1      32.458  32.492  26.900  1.00  0.00     0.118 C 
BRANCH  22  23
ATOM     23  N   UNL A   1      32.418  33.841  27.440  1.00  0.00    -0.352 N 
ATOM     24  C   UNL A   1      33.216  34.446  28.375  1.00  0.00     0.251 C 
ATOM     25  H   UNL A   1      31.703  34.411  27.076  1.00  0.00     0.163 HD
ATOM     26  O   UNL A   1      32.922  35.571  28.772  1.00  0.00    -0.269 OA
BRANCH  24  27
ATOM     27  C   UNL A   1      34.411  33.772  28.930  1.00  0.00     0.039 A 
ATOM     28  C   UNL A   1      34.210  32.653  29.747  1.00  0.00     0.014 A 
ATOM     29  C   UNL A   1      35.705  34.268  28.737  1.00  0.00     0.014 A 
ATOM     30  C   UNL A   1      35.298  32.013  30.343  1.00  0.00     0.010 A 
ATOM     31  C   UNL A   1      36.797  33.612  29.312  1.00  0.00     0.010 A 
ATOM     32  C   UNL A   1      36.599  32.487  30.124  1.00  0.00    -0.014 A 
BRANCH  32  33
ATOM     33  C   UNL A   1      37.755  31.825  30.770  1.00  0.00     0.031 A 
ATOM     34  C   UNL A   1      38.142  32.184  32.174  1.00  0.00     0.074 A 
ATOM     35  C   UNL A   1      38.473  30.919  30.083  1.00  0.00     0.049 A 
ATOM     36  N   UNL A   1      39.161  31.766  32.881  1.00  0.00    -0.248 NA
ATOM     37  C   UNL A   1      37.280  33.151  32.869  1.00  0.00     0.031 C 
ATOM     38  C   UNL A   1      38.213  30.503  28.705  1.00  0.00     0.029 A 
ATOM     39  N   UNL A   1      39.572  30.188  30.454  1.00  0.00    -0.354 N 
ATOM     40  C   UNL A   1      39.087  32.449  34.087  1.00  0.00     0.074 A 
ATOM     41  C   UNL A   1      37.914  33.295  34.025  1.00  0.00     0.031 C 
ATOM     42  C   UNL A   1      39.125  29.582  28.348  1.00  0.00     0.029 A 
ATOM     43  C   UNL A   1      40.033  29.352  29.470  1.00  0.00     0.049 A 
ATOM     44  H   UNL A   1      39.991  30.257  31.342  1.00  0.00     0.167 HD
ATOM     45  C   UNL A   1      39.929  32.382  35.144  1.00  0.00     0.037 A 
ATOM     46  C   UNL A   1      41.068  28.493  29.475  1.00  0.00     0.037 A 
ATOM     47  C   UNL A   1      41.077  31.522  35.226  1.00  0.00     0.049 A 
ATOM     48  C   UNL A   1      41.906  28.342  30.709  1.00  0.00     0.074 A 
ATOM     49  C   UNL A   1      42.007  31.409  36.246  1.00  0.00     0.029 A 
ATOM     50  N   UNL A   1      41.438  30.605  34.253  1.00  0.00    -0.354 N 
ATOM     51  N   UNL A   1      41.839  29.009  31.835  1.00  0.00    -0.248 NA
ATOM     52  C   UNL A   1      42.954  27.313  30.679  1.00  0.00     0.031 C 
ATOM     53  C   UNL A   1      42.927  30.413  35.893  1.00  0.00     0.029 A 
ATOM     54  C   UNL A   1      42.562  29.904  34.658  1.00  0.00     0.049 A 
ATOM     55  H   UNL A   1      40.966  30.471  33.400  1.00  0.00     0.167 HD
ATOM     56  C   UNL A   1      42.831  28.482  32.647  1.00  0.00     0.074 A 
ATOM     57  C   UNL A   1      43.480  27.431  31.892  1.00  0.00     0.031 C 
ATOM     58  C   UNL A   1      43.179  28.847  33.904  1.00  0.00     0.037 A 
BRANCH  45  59
ATOM     59  C   UNL A   1      39.645  33.292  36.295  1.00  0.00     0.064 A 
ATOM     60  C   UNL A   1      38.807  32.896  37.346  1.00  0.00     0.173 A 
ATOM     61  C   UNL A   1      40.233  34.563  36.354  1.00  0.00     0.173 A 
ATOM     62  F   UNL A   1      38.213  31.694  37.318  1.00  0.00    -0.203 F 
ATOM     63  C   UNL A   1      38.561  33.749  38.417  1.00  0.00     0.198 A 
ATOM     64  C   UNL A   1      39.991  35.410  37.432  1.00  0.00     0.198 A 
ATOM     65  F   UNL A   1      41.036  34.983  35.366  1.00  0.00    -0.203 F 
ATOM     66  F   UNL A   1      37.741  33.363  39.405  1.00  0.00    -0.200 F 
ATOM     67  C   UNL A   1      39.154  35.003  38.461  1.00  0.00     0.200 A 
ATOM     68  F   UNL A   1      40.561  36.622  37.472  1.00  0.00    -0.200 F 
ATOM     69  F   UNL A   1      38.912  35.824  39.492  1.00  0.00    -0.200 F 
ENDBRANCH  45  59
BRANCH  46  70
ATOM     70  C   UNL A   1      41.346  27.683  28.268  1.00  0.00     0.064 A 
ATOM     71  C   UNL A   1      42.260  28.126  27.306  1.00  0.00     0.173 A 
ATOM     72  C   UNL A   1      40.723  26.445  28.071  1.00  0.00     0.173 A 
ATOM     73  F   UNL A   1      42.866  29.313  27.454  1.00  0.00    -0.203 F 
ATOM     74  C   UNL A   1      42.542  27.357  26.180  1.00  0.00     0.198 A 
ATOM     75  C   UNL A   1      41.010  25.673  26.949  1.00  0.00     0.198 A 
ATOM     76  F   UNL A   1      39.841  25.987  28.971  1.00  0.00    -0.203 F 
ATOM     77  F   UNL A   1      43.410  27.806  25.264  1.00  0.00    -0.200 F 
ATOM     78  C   UNL A   1      41.918  26.130  26.004  1.00  0.00     0.200 A 
ATOM     79  F   UNL A   1      40.409  24.488  26.781  1.00  0.00    -0.200 F 
ATOM     80  F   UNL A   1      42.190  25.389  24.921  1.00  0.00    -0.200 F 
ENDBRANCH  46  70
BRANCH  58  81
ATOM     81  C   UNL A   1      44.298  28.095  34.544  1.00  0.00     0.064 A 
ATOM     82  C   UNL A   1      45.624  28.532  34.424  1.00  0.00     0.173 A 
ATOM     83  C   UNL A   1      44.041  26.948  35.309  1.00  0.00     0.173 A 
ATOM     84  F   UNL A   1      45.912  29.618  33.692  1.00  0.00    -0.203 F 
ATOM     85  C   UNL A   1      46.659  27.843  35.047  1.00  0.00     0.198 A 
ATOM     86  C   UNL A   1      45.079  26.263  35.933  1.00  0.00     0.198 A 
ATOM     87  F   UNL A   1      42.787  26.492  35.440  1.00  0.00    -0.203 F 
ATOM     88  F   UNL A   1      47.923  28.267  34.911  1.00  0.00    -0.200 F 
ATOM     89  C   UNL A   1      46.387  26.710  35.802  1.00  0.00     0.200 A 
ATOM     90  F   UNL A   1      44.817  25.166  36.656  1.00  0.00    -0.200 F 
ATOM     91  F   UNL A   1      47.386  26.044  36.397  1.00  0.00    -0.200 F 
ENDBRANCH  58  81
ENDBRANCH  32  33
ENDBRANCH  24  27
ENDBRANCH  22  23
ENDBRANCH   1  22
TORSDOF 13
ENDMDL
MODEL 3
REMARK VINA RESULT:     -12.1      0.793      1.867
REMARK SMILES CO[C@H]1C[C@@H](C(=O)NCCCNC(=O)c2ccc(-c3c4nc(c(-c5c(F)c(F)c(F)c(F)c5F)c5ccc([nH]5)c(-c5c(F)c(F)c(F)c(F)c5F)c5nc(c(-c6c(F)c(F)c(F)c(F)c6F)c6ccc3[nH]6)C=C5)C=C4)cc2)N(C(=O)c2cscc2C)C1
REMARK SMILES IDX 10 1 9 2 8 3 6 4 7 5 5 7 3 8 4 9 87 10 78 11 2 12 1 13 79 14
REMARK SMILES IDX 80 15 81 16 82 17 85 18 83 19 84 20 86 21 11 22 12 23 13 24
REMARK SMILES IDX 14 26 15 27 16 28 77 29 17 30 76 31 18 32 19 33 20 34 70 35
REMARK SMILES IDX 21 36 75 37 69 38 71 39 22 40 74 41 68 42 67 43 23 45 55 46
REMARK SMILES IDX 35 47 54 48 36 49 39 50 53 51 72 52 37 53 38 54 52 56 73 57
REMARK SMILES IDX 40 58 24 59 25 60 33 61 26 62 27 63 31 64 34 65 28 66 29 67
REMARK SMILES IDX 32 68 30 69 56 70 57 71 65 72 58 73 59 74 63 75 66 76 60 77
REMARK SMILES IDX 61 78 64 79 62 80 41 81 42 82 50 83 43 84 44 85 48 86 51 87
REMARK SMILES IDX 45 88 46 89 49 90 47 91
REMARK H PARENT 8 6 12 25 71 44 39 55
REMARK Flexibility Score: inf
ROOT
ATOM      1  C   UNL A   1      31.084  31.878  26.538  1.00  0.00     0.042 C 
ENDROOT
BRANCH   1   2
ATOM      2  C   UNL A   1      31.172  30.850  25.414  1.00  0.00     0.117 C 
BRANCH   2   3
ATOM      3  N   UNL A   1      32.442  30.144  25.391  1.00  0.00    -0.354 N 
ATOM      4  C   UNL A   1      32.699  28.805  25.286  1.00  0.00     0.242 C 
ATOM      5  O   UNL A   1      33.864  28.458  25.083  1.00  0.00    -0.273 OA
ATOM      6  H   UNL A   1      33.239  30.718  25.460  1.00  0.00     0.163 HD
BRANCH   4   7
ATOM      7  C   UNL A   1      31.546  27.794  25.385  1.00  0.00     0.177 C 
ATOM      8  C   UNL A   1      30.977  25.645  26.310  1.00  0.00     0.139 C 
ATOM      9  C   UNL A   1      31.816  26.884  26.594  1.00  0.00     0.069 C 
ATOM     10  C   UNL A   1      31.114  25.499  24.795  1.00  0.00     0.152 C 
ATOM     11  N   UNL A   1      31.356  26.840  24.279  1.00  0.00    -0.324 N 
BRANCH   8  12
ATOM     12  O   UNL A   1      31.465  24.478  26.962  1.00  0.00    -0.380 OA
ATOM     13  C   UNL A   1      30.842  23.279  26.523  1.00  0.00     0.195 C 
ENDBRANCH   8  12
BRANCH  11  14
ATOM     14  C   UNL A   1      30.950  27.143  22.987  1.00  0.00     0.255 C 
ATOM     15  O   UNL A   1      31.423  26.574  22.006  1.00  0.00    -0.269 OA
BRANCH  14  16
ATOM     16  C   UNL A   1      29.965  28.209  22.807  1.00  0.00     0.053 A 
ATOM     17  C   UNL A   1      30.268  29.391  22.151  1.00  0.00     0.079 A 
ATOM     18  C   UNL A   1      28.555  28.139  23.125  1.00  0.00    -0.028 A 
ATOM     19  S   UNL A   1      28.926  30.433  21.998  1.00  0.00    -0.151 S 
ATOM     20  C   UNL A   1      27.895  29.294  22.739  1.00  0.00     0.069 A 
ATOM     21  C   UNL A   1      27.873  26.980  23.776  1.00  0.00     0.046 C 
ENDBRANCH  14  16
ENDBRANCH  11  14
ENDBRANCH   4   7
ENDBRANCH   2   3
ENDBRANCH   1   2
BRANCH   1  22
ATOM     22  C   UNL A   1      32.422  32.516  26.912  1.00  0.00     0.118 C 
BRANCH  22  23
ATOM     23  N   UNL A   1      32.276  33.865  27.436  1.00  0.00    -0.352 N 
ATOM     24  C   UNL A   1      33.004  34.529  28.388  1.00  0.00     0.251 C 
ATOM     25  H   UNL A   1      31.536  34.382  27.045  1.00  0.00     0.163 HD
ATOM     26  O   UNL A   1      32.623  35.635  28.763  1.00  0.00    -0.269 OA
BRANCH  24  27
ATOM     27  C   UNL A   1      34.223  33.941  28.986  1.00  0.00     0.039 A 
ATOM     28  C   UNL A   1      34.061  32.918  29.929  1.00  0.00     0.014 A 
ATOM     29  C   UNL A   1      35.503  34.431  28.706  1.00  0.00     0.014 A 
ATOM     30  C   UNL A   1      35.173  32.366  30.566  1.00  0.00     0.010 A 
ATOM     31  C   UNL A   1      36.619  33.862  29.324  1.00  0.00     0.010 A 
ATOM     32  C   UNL A   1      36.460  32.832  30.263  1.00  0.00    -0.014 A 
BRANCH  32  33
ATOM     33  C   UNL A   1      37.643  32.266  30.950  1.00  0.00     0.031 A 
ATOM     34  C   UNL A   1      38.480  31.221  30.273  1.00  0.00     0.074 A 
ATOM     35  C   UNL A   1      37.948  32.671  32.195  1.00  0.00     0.049 A 
ATOM     36  N   UNL A   1      39.508  30.559  30.738  1.00  0.00    -0.248 NA
ATOM     37  C   UNL A   1      38.104  30.865  28.896  1.00  0.00     0.031 C 
ATOM     38  C   UNL A   1      37.197  33.660  32.970  1.00  0.00     0.029 A 
ATOM     39  N   UNL A   1      38.970  32.296  33.028  1.00  0.00    -0.354 N 
ATOM     40  C   UNL A   1      39.876  29.679  29.731  1.00  0.00     0.074 A 
ATOM     41  C   UNL A   1      38.974  29.903  28.620  1.00  0.00     0.031 C 
ATOM     42  C   UNL A   1      37.791  33.819  34.165  1.00  0.00     0.029 A 
ATOM     43  C   UNL A   1      38.955  32.940  34.239  1.00  0.00     0.049 A 
ATOM     44  H   UNL A   1      39.649  31.627  32.781  1.00  0.00     0.167 HD
ATOM     45  C   UNL A   1      40.869  28.760  29.738  1.00  0.00     0.037 A 
ATOM     46  C   UNL A   1      39.792  32.836  35.287  1.00  0.00     0.037 A 
ATOM     47  C   UNL A   1      41.788  28.553  30.823  1.00  0.00     0.049 A 
ATOM     48  C   UNL A   1      40.965  31.904  35.215  1.00  0.00     0.074 A 
ATOM     49  C   UNL A   1      42.808  27.622  30.932  1.00  0.00     0.029 A 
ATOM     50  N   UNL A   1      41.812  29.310  31.983  1.00  0.00    -0.354 N 
ATOM     51  N   UNL A   1      41.289  31.061  34.266  1.00  0.00    -0.248 NA
ATOM     52  C   UNL A   1      41.894  31.916  36.354  1.00  0.00     0.031 C 
ATOM     53  C   UNL A   1      43.458  27.825  32.157  1.00  0.00     0.029 A 
ATOM     54  C   UNL A   1      42.843  28.885  32.803  1.00  0.00     0.049 A 
ATOM     55  H   UNL A   1      41.187  30.041  32.193  1.00  0.00     0.167 HD
ATOM     56  C   UNL A   1      42.456  30.445  34.689  1.00  0.00     0.074 A 
ATOM     57  C   UNL A   1      42.794  31.018  35.975  1.00  0.00     0.031 C 
ATOM     58  C   UNL A   1      43.177  29.481  34.067  1.00  0.00     0.037 A 
BRANCH  45  59
ATOM     59  C   UNL A   1      40.994  27.888  28.531  1.00  0.00     0.064 A 
ATOM     60  C   UNL A   1      40.300  26.674  28.436  1.00  0.00     0.173 A 
ATOM     61  C   UNL A   1      41.801  28.280  27.454  1.00  0.00     0.173 A 
ATOM     62  F   UNL A   1      39.532  26.256  29.451  1.00  0.00    -0.203 F 
ATOM     63  C   UNL A   1      40.417  25.877  27.301  1.00  0.00     0.198 A 
ATOM     64  C   UNL A   1      41.909  27.484  26.318  1.00  0.00     0.198 A 
ATOM     65  F   UNL A   1      42.487  29.431  27.508  1.00  0.00    -0.203 F 
ATOM     66  F   UNL A   1      39.762  24.709  27.233  1.00  0.00    -0.200 F 
ATOM     67  C   UNL A   1      41.218  26.283  26.243  1.00  0.00     0.200 A 
ATOM     68  F   UNL A   1      42.684  27.875  25.297  1.00  0.00    -0.200 F 
ATOM     69  F   UNL A   1      41.332  25.512  25.153  1.00  0.00    -0.200 F 
ENDBRANCH  45  59
BRANCH  46  70
ATOM     70  C   UNL A   1      39.560  33.669  36.487  1.00  0.00     0.064 A 
ATOM     71  C   UNL A   1      38.810  33.178  37.563  1.00  0.00     0.173 A 
ATOM     72  C   UNL A   1      40.102  34.955  36.589  1.00  0.00     0.173 A 
ATOM     73  F   UNL A   1      38.263  31.955  37.495  1.00  0.00    -0.203 F 
ATOM     74  C   UNL A   1      38.608  33.950  38.704  1.00  0.00     0.198 A 
ATOM     75  C   UNL A   1      39.906  35.723  37.733  1.00  0.00     0.198 A 
ATOM     76  F   UNL A   1      40.826  35.459  35.579  1.00  0.00    -0.203 F 
ATOM     77  F   UNL A   1      37.876  33.466  39.716  1.00  0.00    -0.200 F 
ATOM     78  C   UNL A   1      39.158  35.220  38.789  1.00  0.00     0.200 A 
ATOM     79  F   UNL A   1      40.439  36.949  37.815  1.00  0.00    -0.200 F 
ATOM     80  F   UNL A   1      38.965  35.962  39.888  1.00  0.00    -0.200 F 
ENDBRANCH  46  70
BRANCH  58  81
ATOM     81  C   UNL A   1      44.408  29.000  34.763  1.00  0.00     0.064 A 
ATOM     82  C   UNL A   1      44.356  27.923  35.658  1.00  0.00     0.173 A 
ATOM     83  C   UNL A   1      45.650  29.597  34.509  1.00  0.00     0.173 A 
ATOM     84  F   UNL A   1      43.185  27.333  35.936  1.00  0.00    -0.203 F 
ATOM     85  C   UNL A   1      45.511  27.461  36.282  1.00  0.00     0.198 A 
ATOM     86  C   UNL A   1      46.804  29.129  35.132  1.00  0.00     0.198 A 
ATOM     87  F   UNL A   1      45.740  30.636  33.666  1.00  0.00    -0.203 F 
ATOM     88  F   UNL A   1      45.442  26.438  37.145  1.00  0.00    -0.200 F 
ATOM     89  C   UNL A   1      46.733  28.062  36.017  1.00  0.00     0.200 A 
ATOM     90  F   UNL A   1      47.983  29.714  34.882  1.00  0.00    -0.200 F 
ATOM     91  F   UNL A   1      47.844  27.619  36.621  1.00  0.00    -0.200 F 
ENDBRANCH  58  81
ENDBRANCH  32  33
ENDBRANCH  24  27
ENDBRANCH  22  23
ENDBRANCH   1  22
TORSDOF 13
ENDMDL
