MODEL 1
REMARK VINA RESULT:     -10.5      0.000      0.000
REMARK SMILES O=C(Cc1ccc2c(c1)NC(=O)CO2)NCCCNC(=O)c1ccc(-c2c3nc(c(-c4c(F)c(F)c(F)c(F)c4F)c4ccc([nH]4)c(-c4c(F)c(F)c(F)c(F)c4F)c4nc(c(-c5c(F)c(F)c(F)c(F)c5F)c5ccc2[nH]5)C=C4)C=C3)cc1
REMARK SMILES IDX 17 1 16 2 15 3 1 4 2 5 3 7 4 8 5 9 9 10 6 11 8 12 7 13 10 14
REMARK SMILES IDX 14 15 11 16 13 18 12 19 18 20 19 21 20 22 21 24 22 25 23 26
REMARK SMILES IDX 84 27 24 28 83 29 25 30 26 31 27 32 77 33 28 34 82 35 76 36
REMARK SMILES IDX 78 37 29 38 81 39 75 40 74 41 30 43 62 44 42 45 61 46 43 47
REMARK SMILES IDX 46 48 60 49 79 50 44 51 45 52 59 54 80 55 47 56 31 57 32 58
REMARK SMILES IDX 40 59 33 60 34 61 38 62 41 63 35 64 36 65 39 66 37 67 63 68
REMARK SMILES IDX 64 69 72 70 65 71 66 72 70 73 73 74 67 75 68 76 71 77 69 78
REMARK SMILES IDX 48 79 49 80 57 81 50 82 51 83 55 84 58 85 52 86 53 87 56 88
REMARK SMILES IDX 54 89
REMARK H PARENT 15 6 10 17 19 23 78 42 46 53
REMARK Flexibility Score: inf
ROOT
ATOM      1  C   UNL A   1      44.166  18.973  24.709  1.00  0.00     0.042 C 
ENDROOT
BRANCH   1   2
ATOM      2  C   UNL A   1      45.642  19.270  24.922  1.00  0.00     0.117 C 
BRANCH   2   3
ATOM      3  N   UNL A   1      46.059  20.514  24.309  1.00  0.00    -0.356 N 
ATOM      4  O   UNL A   1      45.697  21.835  26.152  1.00  0.00    -0.275 OA
ATOM      5  C   UNL A   1      46.133  21.699  25.013  1.00  0.00     0.224 C 
ATOM      6  H   UNL A   1      46.299  20.516  23.354  1.00  0.00     0.163 HD
BRANCH   5   7
ATOM      7  C   UNL A   1      46.796  22.842  24.258  1.00  0.00     0.135 C 
BRANCH   7   8
ATOM      8  C   UNL A   1      46.321  24.235  24.628  1.00  0.00    -0.036 A 
ATOM      9  C   UNL A   1      47.271  25.193  25.018  1.00  0.00     0.008 A 
ATOM     10  C   UNL A   1      44.971  24.620  24.565  1.00  0.00     0.034 A 
ATOM     11  C   UNL A   1      46.877  26.484  25.384  1.00  0.00     0.049 A 
ATOM     12  C   UNL A   1      44.578  25.896  24.973  1.00  0.00     0.084 A 
ATOM     13  C   UNL A   1      45.528  26.828  25.385  1.00  0.00     0.143 A 
ATOM     14  N   UNL A   1      43.224  26.227  24.959  1.00  0.00    -0.320 N 
ATOM     15  O   UNL A   1      45.222  28.108  25.755  1.00  0.00    -0.482 OA
ATOM     16  C   UNL A   1      42.779  27.428  25.435  1.00  0.00     0.262 C 
ATOM     17  H   UNL A   1      42.575  25.582  24.599  1.00  0.00     0.170 HD
ATOM     18  C   UNL A   1      43.851  28.322  26.055  1.00  0.00     0.329 C 
ATOM     19  O   UNL A   1      41.585  27.717  25.420  1.00  0.00    -0.271 OA
ENDBRANCH   7   8
ENDBRANCH   5   7
ENDBRANCH   2   3
ENDBRANCH   1   2
BRANCH   1  20
ATOM     20  C   UNL A   1      43.416  18.567  25.974  1.00  0.00     0.118 C 
BRANCH  20  21
ATOM     21  N   UNL A   1      41.971  18.725  25.873  1.00  0.00    -0.352 N 
ATOM     22  C   UNL A   1      41.179  19.786  26.244  1.00  0.00     0.251 C 
ATOM     23  H   UNL A   1      41.491  17.959  25.480  1.00  0.00     0.163 HD
ATOM     24  O   UNL A   1      39.957  19.695  26.182  1.00  0.00    -0.269 OA
BRANCH  22  25
ATOM     25  C   UNL A   1      41.798  21.027  26.757  1.00  0.00     0.039 A 
ATOM     26  C   UNL A   1      42.008  22.091  25.876  1.00  0.00     0.014 A 
ATOM     27  C   UNL A   1      42.143  21.151  28.105  1.00  0.00     0.014 A 
ATOM     28  C   UNL A   1      42.475  23.314  26.364  1.00  0.00     0.010 A 
ATOM     29  C   UNL A   1      42.541  22.388  28.602  1.00  0.00     0.010 A 
ATOM     30  C   UNL A   1      42.696  23.486  27.740  1.00  0.00    -0.014 A 
BRANCH  30  31
ATOM     31  C   UNL A   1      43.062  24.806  28.316  1.00  0.00     0.031 A 
ATOM     32  C   UNL A   1      42.002  25.844  28.549  1.00  0.00     0.074 A 
ATOM     33  C   UNL A   1      44.358  25.106  28.525  1.00  0.00     0.049 A 
ATOM     34  N   UNL A   1      42.133  27.102  28.882  1.00  0.00    -0.248 NA
ATOM     35  C   UNL A   1      40.608  25.415  28.351  1.00  0.00     0.031 C 
ATOM     36  C   UNL A   1      45.485  24.198  28.305  1.00  0.00     0.029 A 
ATOM     37  N   UNL A   1      44.950  26.272  28.947  1.00  0.00    -0.354 N 
ATOM     38  C   UNL A   1      40.847  27.622  28.909  1.00  0.00     0.074 A 
ATOM     39  C   UNL A   1      39.950  26.553  28.522  1.00  0.00     0.031 C 
ATOM     40  C   UNL A   1      46.629  24.836  28.599  1.00  0.00     0.029 A 
ATOM     41  C   UNL A   1      46.322  26.211  28.983  1.00  0.00     0.049 A 
ATOM     42  H   UNL A   1      44.440  27.075  29.197  1.00  0.00     0.167 HD
ATOM     43  C   UNL A   1      40.449  28.873  29.241  1.00  0.00     0.037 A 
ATOM     44  C   UNL A   1      47.232  27.161  29.272  1.00  0.00     0.037 A 
ATOM     45  C   UNL A   1      41.338  29.924  29.657  1.00  0.00     0.049 A 
ATOM     46  C   UNL A   1      46.763  28.545  29.633  1.00  0.00     0.074 A 
ATOM     47  C   UNL A   1      41.025  31.208  30.068  1.00  0.00     0.029 A 
ATOM     48  N   UNL A   1      42.720  29.811  29.716  1.00  0.00    -0.354 N 
ATOM     49  N   UNL A   1      45.540  29.011  29.701  1.00  0.00    -0.248 NA
ATOM     50  C   UNL A   1      47.801  29.534  29.957  1.00  0.00     0.031 C 
ATOM     51  C   UNL A   1      42.218  31.884  30.341  1.00  0.00     0.029 A 
ATOM     52  C   UNL A   1      43.273  31.008  30.143  1.00  0.00     0.049 A 
ATOM     53  H   UNL A   1      43.230  29.001  29.488  1.00  0.00     0.167 HD
ATOM     54  C   UNL A   1      45.659  30.334  30.107  1.00  0.00     0.074 A 
ATOM     55  C   UNL A   1      47.073  30.596  30.273  1.00  0.00     0.031 C 
ATOM     56  C   UNL A   1      44.681  31.246  30.326  1.00  0.00     0.037 A 
BRANCH  43  57
ATOM     57  C   UNL A   1      38.981  29.176  29.167  1.00  0.00     0.064 A 
ATOM     58  C   UNL A   1      38.176  29.192  30.316  1.00  0.00     0.173 A 
ATOM     59  C   UNL A   1      38.381  29.495  27.940  1.00  0.00     0.173 A 
ATOM     60  F   UNL A   1      38.699  28.882  31.511  1.00  0.00    -0.203 F 
ATOM     61  C   UNL A   1      36.818  29.490  30.234  1.00  0.00     0.198 A 
ATOM     62  C   UNL A   1      37.029  29.820  27.866  1.00  0.00     0.198 A 
ATOM     63  F   UNL A   1      39.108  29.500  26.812  1.00  0.00    -0.203 F 
ATOM     64  F   UNL A   1      36.058  29.452  31.337  1.00  0.00    -0.200 F 
ATOM     65  C   UNL A   1      36.248  29.810  29.011  1.00  0.00     0.200 A 
ATOM     66  F   UNL A   1      36.482  30.143  26.685  1.00  0.00    -0.200 F 
ATOM     67  F   UNL A   1      34.942  30.103  28.935  1.00  0.00    -0.200 F 
ENDBRANCH  43  57
BRANCH  44  68
ATOM     68  C   UNL A   1      48.680  26.833  29.248  1.00  0.00     0.064 A 
ATOM     69  C   UNL A   1      49.269  26.108  30.293  1.00  0.00     0.173 A 
ATOM     70  C   UNL A   1      49.504  27.233  28.186  1.00  0.00     0.173 A 
ATOM     71  F   UNL A   1      48.525  25.723  31.341  1.00  0.00    -0.203 F 
ATOM     72  C   UNL A   1      50.630  25.811  30.287  1.00  0.00     0.198 A 
ATOM     73  C   UNL A   1      50.860  26.913  28.168  1.00  0.00     0.198 A 
ATOM     74  F   UNL A   1      48.987  27.925  27.159  1.00  0.00    -0.203 F 
ATOM     75  F   UNL A   1      51.175  25.154  31.319  1.00  0.00    -0.200 F 
ATOM     76  C   UNL A   1      51.423  26.209  29.221  1.00  0.00     0.200 A 
ATOM     77  F   UNL A   1      51.620  27.288  27.130  1.00  0.00    -0.200 F 
ATOM     78  F   UNL A   1      52.731  25.920  29.213  1.00  0.00    -0.200 F 
ENDBRANCH  44  68
BRANCH  56  79
ATOM     79  C   UNL A   1      45.096  32.600  30.819  1.00  0.00     0.064 A 
ATOM     80  C   UNL A   1      45.254  32.871  32.185  1.00  0.00     0.173 A 
ATOM     81  C   UNL A   1      45.400  33.621  29.904  1.00  0.00     0.173 A 
ATOM     82  F   UNL A   1      44.961  31.932  33.097  1.00  0.00    -0.203 F 
ATOM     83  C   UNL A   1      45.690  34.120  32.619  1.00  0.00     0.198 A 
ATOM     84  C   UNL A   1      45.860  34.859  30.341  1.00  0.00     0.198 A 
ATOM     85  F   UNL A   1      45.269  33.407  28.586  1.00  0.00    -0.203 F 
ATOM     86  F   UNL A   1      45.804  34.369  33.931  1.00  0.00    -0.200 F 
ATOM     87  C   UNL A   1      46.001  35.109  31.697  1.00  0.00     0.200 A 
ATOM     88  F   UNL A   1      46.172  35.809  29.448  1.00  0.00    -0.200 F 
ATOM     89  F   UNL A   1      46.434  36.306  32.118  1.00  0.00    -0.200 F 
ENDBRANCH  56  79
ENDBRANCH  30  31
ENDBRANCH  22  25
ENDBRANCH  20  21
ENDBRANCH   1  20
TORSDOF 11
ENDMDL
MODEL 2
REMARK VINA RESULT:     -10.2      4.160      9.901
REMARK SMILES O=C(Cc1ccc2c(c1)NC(=O)CO2)NCCCNC(=O)c1ccc(-c2c3nc(c(-c4c(F)c(F)c(F)c(F)c4F)c4ccc([nH]4)c(-c4c(F)c(F)c(F)c(F)c4F)c4nc(c(-c5c(F)c(F)c(F)c(F)c5F)c5ccc2[nH]5)C=C4)C=C3)cc1
REMARK SMILES IDX 17 1 16 2 15 3 1 4 2 5 3 7 4 8 5 9 9 10 6 11 8 12 7 13 10 14
REMARK SMILES IDX 14 15 11 16 13 18 12 19 18 20 19 21 20 22 21 24 22 25 23 26
REMARK SMILES IDX 84 27 24 28 83 29 25 30 26 31 27 32 77 33 28 34 82 35 76 36
REMARK SMILES IDX 78 37 29 38 81 39 75 40 74 41 30 43 62 44 42 45 61 46 43 47
REMARK SMILES IDX 46 48 60 49 79 50 44 51 45 52 59 54 80 55 47 56 31 57 32 58
REMARK SMILES IDX 40 59 33 60 34 61 38 62 41 63 35 64 36 65 39 66 37 67 63 68
REMARK SMILES IDX 64 69 72 70 65 71 66 72 70 73 73 74 67 75 68 76 71 77 69 78
REMARK SMILES IDX 48 79 49 80 57 81 50 82 51 83 55 84 58 85 52 86 53 87 56 88
REMARK SMILES IDX 54 89
REMARK H PARENT 15 6 10 17 19 23 78 42 46 53
REMARK Flexibility Score: inf
ROOT
ATOM      1  C   UNL A   1      34.250  34.444  28.277  1.00  0.00     0.042 C 
ENDROOT
BRANCH   1   2
ATOM      2  C   UNL A   1      33.594  34.615  29.638  1.00  0.00     0.117 C 
BRANCH   2   3
ATOM      3  N   UNL A   1      34.516  35.087  30.651  1.00  0.00    -0.356 N 
ATOM      4  O   UNL A   1      33.310  34.335  32.455  1.00  0.00    -0.275 OA
ATOM      5  C   UNL A   1      34.336  34.828  31.996  1.00  0.00     0.224 C 
ATOM      6  H   UNL A   1      35.301  35.611  30.372  1.00  0.00     0.163 HD
BRANCH   5   7
ATOM      7  C   UNL A   1      35.514  35.216  32.876  1.00  0.00     0.135 C 
BRANCH   7   8
ATOM      8  C   UNL A   1      36.503  34.103  33.175  1.00  0.00    -0.036 A 
ATOM      9  C   UNL A   1      37.787  34.443  33.632  1.00  0.00     0.008 A 
ATOM     10  C   UNL A   1      36.177  32.743  33.049  1.00  0.00     0.034 A 
ATOM     11  C   UNL A   1      38.735  33.451  33.903  1.00  0.00     0.049 A 
ATOM     12  C   UNL A   1      37.140  31.759  33.279  1.00  0.00     0.084 A 
ATOM     13  C   UNL A   1      38.419  32.110  33.704  1.00  0.00     0.143 A 
ATOM     14  N   UNL A   1      36.805  30.420  33.083  1.00  0.00    -0.320 N 
ATOM     15  O   UNL A   1      39.398  31.201  33.991  1.00  0.00    -0.482 OA
ATOM     16  C   UNL A   1      37.734  29.426  33.206  1.00  0.00     0.262 C 
ATOM     17  H   UNL A   1      35.878  30.186  32.852  1.00  0.00     0.170 HD
ATOM     18  C   UNL A   1      39.162  29.898  33.477  1.00  0.00     0.329 C 
ATOM     19  O   UNL A   1      37.435  28.247  33.033  1.00  0.00    -0.271 OA
ENDBRANCH   7   8
ENDBRANCH   5   7
ENDBRANCH   2   3
ENDBRANCH   1   2
BRANCH   1  20
ATOM     20  C   UNL A   1      34.933  33.095  28.072  1.00  0.00     0.118 C 
BRANCH  20  21
ATOM     21  N   UNL A   1      34.006  32.011  27.774  1.00  0.00    -0.352 N 
ATOM     22  C   UNL A   1      34.239  30.658  27.692  1.00  0.00     0.251 C 
ATOM     23  H   UNL A   1      33.075  32.287  27.606  1.00  0.00     0.163 HD
ATOM     24  O   UNL A   1      33.349  29.899  27.320  1.00  0.00    -0.269 OA
BRANCH  22  25
ATOM     25  C   UNL A   1      35.576  30.118  28.017  1.00  0.00     0.039 A 
ATOM     26  C   UNL A   1      36.549  30.075  27.015  1.00  0.00     0.014 A 
ATOM     27  C   UNL A   1      35.878  29.683  29.310  1.00  0.00     0.014 A 
ATOM     28  C   UNL A   1      37.854  29.686  27.331  1.00  0.00     0.010 A 
ATOM     29  C   UNL A   1      37.191  29.363  29.639  1.00  0.00     0.010 A 
ATOM     30  C   UNL A   1      38.196  29.376  28.657  1.00  0.00    -0.014 A 
BRANCH  30  31
ATOM     31  C   UNL A   1      39.597  29.089  29.058  1.00  0.00     0.031 A 
ATOM     32  C   UNL A   1      40.393  30.124  29.801  1.00  0.00     0.074 A 
ATOM     33  C   UNL A   1      40.184  27.945  28.659  1.00  0.00     0.049 A 
ATOM     34  N   UNL A   1      41.668  30.137  30.092  1.00  0.00    -0.248 NA
ATOM     35  C   UNL A   1      39.660  31.319  30.249  1.00  0.00     0.031 C 
ATOM     36  C   UNL A   1      39.530  26.876  27.904  1.00  0.00     0.029 A 
ATOM     37  N   UNL A   1      41.476  27.501  28.813  1.00  0.00    -0.354 N 
ATOM     38  C   UNL A   1      41.897  31.347  30.733  1.00  0.00     0.074 A 
ATOM     39  C   UNL A   1      40.636  32.059  30.756  1.00  0.00     0.031 C 
ATOM     40  C   UNL A   1      40.420  25.897  27.665  1.00  0.00     0.029 A 
ATOM     41  C   UNL A   1      41.716  26.290  28.209  1.00  0.00     0.049 A 
ATOM     42  H   UNL A   1      42.163  28.002  29.307  1.00  0.00     0.167 HD
ATOM     43  C   UNL A   1      43.050  31.814  31.267  1.00  0.00     0.037 A 
ATOM     44  C   UNL A   1      42.858  25.585  28.089  1.00  0.00     0.037 A 
ATOM     45  C   UNL A   1      44.293  31.091  31.274  1.00  0.00     0.049 A 
ATOM     46  C   UNL A   1      44.126  26.129  28.687  1.00  0.00     0.074 A 
ATOM     47  C   UNL A   1      45.502  31.456  31.841  1.00  0.00     0.029 A 
ATOM     48  N   UNL A   1      44.487  29.851  30.683  1.00  0.00    -0.354 N 
ATOM     49  N   UNL A   1      44.320  27.254  29.333  1.00  0.00    -0.248 NA
ATOM     50  C   UNL A   1      45.336  25.307  28.541  1.00  0.00     0.031 C 
ATOM     51  C   UNL A   1      46.437  30.454  31.563  1.00  0.00     0.029 A 
ATOM     52  C   UNL A   1      45.800  29.444  30.860  1.00  0.00     0.049 A 
ATOM     53  H   UNL A   1      43.795  29.336  30.209  1.00  0.00     0.167 HD
ATOM     54  C   UNL A   1      45.659  27.258  29.698  1.00  0.00     0.074 A 
ATOM     55  C   UNL A   1      46.232  26.024  29.204  1.00  0.00     0.031 C 
ATOM     56  C   UNL A   1      46.349  28.201  30.384  1.00  0.00     0.037 A 
BRANCH  43  57
ATOM     57  C   UNL A   1      43.022  33.178  31.893  1.00  0.00     0.064 A 
ATOM     58  C   UNL A   1      43.331  34.331  31.157  1.00  0.00     0.173 A 
ATOM     59  C   UNL A   1      42.643  33.337  33.234  1.00  0.00     0.173 A 
ATOM     60  F   UNL A   1      43.712  34.231  29.874  1.00  0.00    -0.203 F 
ATOM     61  C   UNL A   1      43.287  35.591  31.748  1.00  0.00     0.198 A 
ATOM     62  C   UNL A   1      42.573  34.601  33.814  1.00  0.00     0.198 A 
ATOM     63  F   UNL A   1      42.332  32.266  33.982  1.00  0.00    -0.203 F 
ATOM     64  F   UNL A   1      43.632  36.674  31.038  1.00  0.00    -0.200 F 
ATOM     65  C   UNL A   1      42.901  35.725  33.073  1.00  0.00     0.200 A 
ATOM     66  F   UNL A   1      42.187  34.731  35.092  1.00  0.00    -0.200 F 
ATOM     67  F   UNL A   1      42.854  36.940  33.638  1.00  0.00    -0.200 F 
ENDBRANCH  43  57
BRANCH  44  68
ATOM     68  C   UNL A   1      42.851  24.278  27.384  1.00  0.00     0.064 A 
ATOM     69  C   UNL A   1      42.539  23.096  28.070  1.00  0.00     0.173 A 
ATOM     70  C   UNL A   1      43.153  24.180  26.018  1.00  0.00     0.173 A 
ATOM     71  F   UNL A   1      42.265  23.136  29.382  1.00  0.00    -0.203 F 
ATOM     72  C   UNL A   1      42.547  21.863  27.420  1.00  0.00     0.198 A 
ATOM     73  C   UNL A   1      43.136  22.950  25.364  1.00  0.00     0.198 A 
ATOM     74  F   UNL A   1      43.454  25.284  25.317  1.00  0.00    -0.203 F 
ATOM     75  F   UNL A   1      42.287  20.744  28.109  1.00  0.00    -0.200 F 
ATOM     76  C   UNL A   1      42.840  21.792  26.067  1.00  0.00     0.200 A 
ATOM     77  F   UNL A   1      43.407  22.888  24.053  1.00  0.00    -0.200 F 
ATOM     78  F   UNL A   1      42.845  20.608  25.442  1.00  0.00    -0.200 F 
ENDBRANCH  44  68
BRANCH  56  79
ATOM     79  C   UNL A   1      47.790  27.919  30.691  1.00  0.00     0.064 A 
ATOM     80  C   UNL A   1      48.175  27.236  31.853  1.00  0.00     0.173 A 
ATOM     81  C   UNL A   1      48.790  28.281  29.775  1.00  0.00     0.173 A 
ATOM     82  F   UNL A   1      47.257  26.883  32.764  1.00  0.00    -0.203 F 
ATOM     83  C   UNL A   1      49.514  26.937  32.093  1.00  0.00     0.198 A 
ATOM     84  C   UNL A   1      50.123  27.958  30.007  1.00  0.00     0.198 A 
ATOM     85  F   UNL A   1      48.469  28.931  28.646  1.00  0.00    -0.203 F 
ATOM     86  F   UNL A   1      49.866  26.312  33.226  1.00  0.00    -0.200 F 
ATOM     87  C   UNL A   1      50.485  27.290  31.167  1.00  0.00     0.200 A 
ATOM     88  F   UNL A   1      51.058  28.289  29.106  1.00  0.00    -0.200 F 
ATOM     89  F   UNL A   1      51.771  26.989  31.395  1.00  0.00    -0.200 F 
ENDBRANCH  56  79
ENDBRANCH  30  31
ENDBRANCH  22  25
ENDBRANCH  20  21
ENDBRANCH   1  20
TORSDOF 11
ENDMDL
MODEL 3
REMARK VINA RESULT:     -10.1      6.331     11.947
REMARK SMILES O=C(Cc1ccc2c(c1)NC(=O)CO2)NCCCNC(=O)c1ccc(-c2c3nc(c(-c4c(F)c(F)c(F)c(F)c4F)c4ccc([nH]4)c(-c4c(F)c(F)c(F)c(F)c4F)c4nc(c(-c5c(F)c(F)c(F)c(F)c5F)c5ccc2[nH]5)C=C4)C=C3)cc1
REMARK SMILES IDX 17 1 16 2 15 3 1 4 2 5 3 7 4 8 5 9 9 10 6 11 8 12 7 13 10 14
REMARK SMILES IDX 14 15 11 16 13 18 12 19 18 20 19 21 20 22 21 24 22 25 23 26
REMARK SMILES IDX 84 27 24 28 83 29 25 30 26 31 27 32 77 33 28 34 82 35 76 36
REMARK SMILES IDX 78 37 29 38 81 39 75 40 74 41 30 43 62 44 42 45 61 46 43 47
REMARK SMILES IDX 46 48 60 49 79 50 44 51 45 52 59 54 80 55 47 56 31 57 32 58
REMARK SMILES IDX 40 59 33 60 34 61 38 62 41 63 35 64 36 65 39 66 37 67 63 68
REMARK SMILES IDX 64 69 72 70 65 71 66 72 70 73 73 74 67 75 68 76 71 77 69 78
REMARK SMILES IDX 48 79 49 80 57 81 50 82 51 83 55 84 58 85 52 86 53 87 56 88
REMARK SMILES IDX 54 89
REMARK H PARENT 15 6 10 17 19 23 78 42 46 53
REMARK Flexibility Score: inf
ROOT
ATOM      1  C   UNL A   1      33.522  34.761  28.895  1.00  0.00     0.042 C 
ENDROOT
BRANCH   1   2
ATOM      2  C   UNL A   1      34.552  33.729  29.327  1.00  0.00     0.117 C 
BRANCH   2   3
ATOM      3  N   UNL A   1      35.870  34.298  29.521  1.00  0.00    -0.356 N 
ATOM      4  O   UNL A   1      37.030  32.589  28.517  1.00  0.00    -0.275 OA
ATOM      5  C   UNL A   1      37.013  33.710  29.016  1.00  0.00     0.224 C 
ATOM      6  H   UNL A   1      35.955  35.135  30.033  1.00  0.00     0.163 HD
BRANCH   5   7
ATOM      7  C   UNL A   1      38.266  34.564  29.136  1.00  0.00     0.135 C 
BRANCH   7   8
ATOM      8  C   UNL A   1      39.203  34.196  30.273  1.00  0.00    -0.036 A 
ATOM      9  C   UNL A   1      38.968  34.741  31.546  1.00  0.00     0.008 A 
ATOM     10  C   UNL A   1      40.277  33.305  30.115  1.00  0.00     0.034 A 
ATOM     11  C   UNL A   1      39.816  34.443  32.618  1.00  0.00     0.049 A 
ATOM     12  C   UNL A   1      41.145  33.046  31.177  1.00  0.00     0.084 A 
ATOM     13  C   UNL A   1      40.919  33.615  32.428  1.00  0.00     0.143 A 
ATOM     14  N   UNL A   1      42.240  32.207  30.972  1.00  0.00    -0.320 N 
ATOM     15  O   UNL A   1      41.699  33.372  33.523  1.00  0.00    -0.482 OA
ATOM     16  C   UNL A   1      43.169  31.994  31.950  1.00  0.00     0.262 C 
ATOM     17  H   UNL A   1      42.344  31.758  30.103  1.00  0.00     0.170 HD
ATOM     18  C   UNL A   1      42.967  32.805  33.229  1.00  0.00     0.329 C 
ATOM     19  O   UNL A   1      44.132  31.254  31.766  1.00  0.00    -0.271 OA
ENDBRANCH   7   8
ENDBRANCH   5   7
ENDBRANCH   2   3
ENDBRANCH   1   2
BRANCH   1  20
ATOM     20  C   UNL A   1      33.623  36.095  29.626  1.00  0.00     0.118 C 
BRANCH  20  21
ATOM     21  N   UNL A   1      32.551  36.316  30.590  1.00  0.00    -0.352 N 
ATOM     22  C   UNL A   1      32.439  35.881  31.889  1.00  0.00     0.251 C 
ATOM     23  H   UNL A   1      31.796  36.857  30.261  1.00  0.00     0.163 HD
ATOM     24  O   UNL A   1      31.404  36.077  32.519  1.00  0.00    -0.269 OA
BRANCH  22  25
ATOM     25  C   UNL A   1      33.554  35.141  32.519  1.00  0.00     0.039 A 
ATOM     26  C   UNL A   1      33.356  33.808  32.890  1.00  0.00     0.014 A 
ATOM     27  C   UNL A   1      34.795  35.749  32.717  1.00  0.00     0.014 A 
ATOM     28  C   UNL A   1      34.430  33.055  33.371  1.00  0.00     0.010 A 
ATOM     29  C   UNL A   1      35.880  34.980  33.129  1.00  0.00     0.010 A 
ATOM     30  C   UNL A   1      35.712  33.623  33.445  1.00  0.00    -0.014 A 
BRANCH  30  31
ATOM     31  C   UNL A   1      36.904  32.819  33.822  1.00  0.00     0.031 A 
ATOM     32  C   UNL A   1      37.661  33.142  35.077  1.00  0.00     0.074 A 
ATOM     33  C   UNL A   1      37.364  31.873  32.980  1.00  0.00     0.049 A 
ATOM     34  N   UNL A   1      38.811  32.677  35.495  1.00  0.00    -0.248 NA
ATOM     35  C   UNL A   1      37.059  34.147  35.968  1.00  0.00     0.031 C 
ATOM     36  C   UNL A   1      36.738  31.489  31.714  1.00  0.00     0.029 A 
ATOM     37  N   UNL A   1      38.483  31.079  33.052  1.00  0.00    -0.354 N 
ATOM     38  C   UNL A   1      39.082  33.348  36.679  1.00  0.00     0.074 A 
ATOM     39  C   UNL A   1      37.996  34.280  36.896  1.00  0.00     0.031 C 
ATOM     40  C   UNL A   1      37.477  30.529  31.132  1.00  0.00     0.029 A 
ATOM     41  C   UNL A   1      38.650  30.264  31.959  1.00  0.00     0.049 A 
ATOM     42  H   UNL A   1      39.105  31.093  33.814  1.00  0.00     0.167 HD
ATOM     43  C   UNL A   1      40.134  33.189  37.517  1.00  0.00     0.037 A 
ATOM     44  C   UNL A   1      39.647  29.415  31.647  1.00  0.00     0.037 A 
ATOM     45  C   UNL A   1      41.195  32.238  37.317  1.00  0.00     0.049 A 
ATOM     46  C   UNL A   1      40.807  29.261  32.593  1.00  0.00     0.074 A 
ATOM     47  C   UNL A   1      42.274  31.963  38.139  1.00  0.00     0.029 A 
ATOM     48  N   UNL A   1      41.309  31.404  36.214  1.00  0.00    -0.354 N 
ATOM     49  N   UNL A   1      41.029  29.866  33.734  1.00  0.00    -0.248 NA
ATOM     50  C   UNL A   1      41.856  28.305  32.208  1.00  0.00     0.031 C 
ATOM     51  C   UNL A   1      43.061  30.989  37.516  1.00  0.00     0.029 A 
ATOM     52  C   UNL A   1      42.449  30.625  36.328  1.00  0.00     0.049 A 
ATOM     53  H   UNL A   1      40.674  31.372  35.463  1.00  0.00     0.167 HD
ATOM     54  C   UNL A   1      42.220  29.342  34.218  1.00  0.00     0.074 A 
ATOM     55  C   UNL A   1      42.674  28.368  33.249  1.00  0.00     0.031 C 
ATOM     56  C   UNL A   1      42.875  29.642  35.366  1.00  0.00     0.037 A 
BRANCH  43  57
ATOM     57  C   UNL A   1      40.190  34.065  38.733  1.00  0.00     0.064 A 
ATOM     58  C   UNL A   1      39.624  33.667  39.953  1.00  0.00     0.173 A 
ATOM     59  C   UNL A   1      40.854  35.300  38.690  1.00  0.00     0.173 A 
ATOM     60  F   UNL A   1      38.968  32.501  40.044  1.00  0.00    -0.203 F 
ATOM     61  C   UNL A   1      39.697  34.486  41.078  1.00  0.00     0.198 A 
ATOM     62  C   UNL A   1      40.950  36.104  39.823  1.00  0.00     0.198 A 
ATOM     63  F   UNL A   1      41.418  35.726  37.548  1.00  0.00    -0.203 F 
ATOM     64  F   UNL A   1      39.109  34.106  42.220  1.00  0.00    -0.200 F 
ATOM     65  C   UNL A   1      40.366  35.699  41.013  1.00  0.00     0.200 A 
ATOM     66  F   UNL A   1      41.608  37.270  39.763  1.00  0.00    -0.200 F 
ATOM     67  F   UNL A   1      40.441  36.482  42.098  1.00  0.00    -0.200 F 
ENDBRANCH  43  57
BRANCH  44  68
ATOM     68  C   UNL A   1      39.587  28.631  30.387  1.00  0.00     0.064 A 
ATOM     69  C   UNL A   1      40.011  29.190  29.173  1.00  0.00     0.173 A 
ATOM     70  C   UNL A   1      39.107  27.313  30.367  1.00  0.00     0.173 A 
ATOM     71  F   UNL A   1      40.457  30.454  29.140  1.00  0.00    -0.203 F 
ATOM     72  C   UNL A   1      39.942  28.467  27.984  1.00  0.00     0.198 A 
ATOM     73  C   UNL A   1      39.063  26.582  29.181  1.00  0.00     0.198 A 
ATOM     74  F   UNL A   1      38.694  26.732  31.503  1.00  0.00    -0.203 F 
ATOM     75  F   UNL A   1      40.314  29.041  26.832  1.00  0.00    -0.200 F 
ATOM     76  C   UNL A   1      39.473  27.162  27.990  1.00  0.00     0.200 A 
ATOM     77  F   UNL A   1      38.621  25.317  29.193  1.00  0.00    -0.200 F 
ATOM     78  F   UNL A   1      39.409  26.466  26.847  1.00  0.00    -0.200 F 
ENDBRANCH  44  68
BRANCH  56  79
ATOM     79  C   UNL A   1      44.127  28.874  35.669  1.00  0.00     0.064 A 
ATOM     80  C   UNL A   1      45.394  29.360  35.314  1.00  0.00     0.173 A 
ATOM     81  C   UNL A   1      44.059  27.667  36.382  1.00  0.00     0.173 A 
ATOM     82  F   UNL A   1      45.508  30.501  34.619  1.00  0.00    -0.203 F 
ATOM     83  C   UNL A   1      46.547  28.657  35.651  1.00  0.00     0.198 A 
ATOM     84  C   UNL A   1      45.216  26.982  36.740  1.00  0.00     0.198 A 
ATOM     85  F   UNL A   1      42.870  27.166  36.749  1.00  0.00    -0.203 F 
ATOM     86  F   UNL A   1      47.747  29.121  35.275  1.00  0.00    -0.200 F 
ATOM     87  C   UNL A   1      46.458  27.474  36.372  1.00  0.00     0.200 A 
ATOM     88  F   UNL A   1      45.128  25.846  37.446  1.00  0.00    -0.200 F 
ATOM     89  F   UNL A   1      47.571  26.807  36.706  1.00  0.00    -0.200 F 
ENDBRANCH  56  79
ENDBRANCH  30  31
ENDBRANCH  22  25
ENDBRANCH  20  21
ENDBRANCH   1  20
TORSDOF 11
ENDMDL
