MODEL 1
REMARK VINA RESULT:     -12.8      0.000      0.000
REMARK SMILES O=C(C[NH+]1CCN(c2nccc(N3CCCCC3)n2)CC1)NCCCNC(=O)c1ccc(-c2c3nc(c(-c4c(F)c(F)c(F)c(F)c4F)c4ccc([nH]4)c(-c4c(F)c(F)c(F)c(F)c4F)c4nc(c(-c5c(F)c(F)c(F)c(F)c5F)c5ccc2[nH]5)C=C4)C=C3)cc1
REMARK SMILES IDX 23 1 22 2 1 3 2 4 3 6 4 7 5 8 21 9 6 11 20 12 7 13 8 14 9 15
REMARK SMILES IDX 19 16 10 17 12 18 11 19 13 20 14 21 18 22 15 23 17 24 16 25
REMARK SMILES IDX 24 26 25 27 26 28 27 29 28 31 29 32 30 33 91 34 31 35 90 36
REMARK SMILES IDX 32 37 33 38 34 39 84 40 35 41 89 42 83 43 85 44 36 45 88 46
REMARK SMILES IDX 82 47 81 48 37 50 69 51 49 52 68 53 50 54 53 55 67 56 86 57
REMARK SMILES IDX 51 58 52 59 66 61 87 62 54 63 38 64 39 65 47 66 40 67 41 68
REMARK SMILES IDX 45 69 48 70 42 71 43 72 46 73 44 74 70 75 71 76 79 77 72 78
REMARK SMILES IDX 73 79 77 80 80 81 74 82 75 83 78 84 76 85 55 86 56 87 64 88
REMARK SMILES IDX 57 89 58 90 62 91 65 92 59 93 60 94 63 95 61 96
REMARK H PARENT 22 5 4 10 26 30 85 49 53 60
REMARK Flexibility Score: inf
ROOT
ATOM      1  C   UNL A   1      31.304  30.966  26.454  1.00  0.00     0.118 C 
ENDROOT
BRANCH   1   2
ATOM      2  N   UNL A   1      31.711  30.394  25.188  1.00  0.00    -0.351 N 
ATOM      3  O   UNL A   1      33.669  29.493  25.981  1.00  0.00    -0.269 OA
ATOM      4  C   UNL A   1      32.832  29.587  25.091  1.00  0.00     0.275 C 
ATOM      5  H   UNL A   1      31.180  30.581  24.381  1.00  0.00     0.163 HD
BRANCH   4   6
ATOM      6  C   UNL A   1      32.844  28.745  23.809  1.00  0.00     0.363 C 
BRANCH   6   7
ATOM      7  N   UNL A   1      31.644  27.897  23.638  1.00  0.00    -0.324 N 
ATOM      8  C   UNL A   1      31.590  27.039  22.430  1.00  0.00     0.284 C 
ATOM      9  C   UNL A   1      31.391  27.058  24.835  1.00  0.00     0.284 C 
ATOM     10  H   UNL A   1      30.909  28.592  23.504  1.00  0.00     0.348 HD
ATOM     11  C   UNL A   1      32.463  25.765  22.462  1.00  0.00     0.181 C 
ATOM     12  C   UNL A   1      32.267  25.782  24.944  1.00  0.00     0.181 C 
ATOM     13  N   UNL A   1      32.223  25.042  23.694  1.00  0.00    -0.329 N 
BRANCH  13  14
ATOM     14  C   UNL A   1      32.610  23.728  23.726  1.00  0.00     0.227 A 
ATOM     15  N   UNL A   1      31.825  22.795  23.164  1.00  0.00    -0.221 NA
ATOM     16  N   UNL A   1      33.718  23.455  24.425  1.00  0.00    -0.196 NA
ATOM     17  C   UNL A   1      32.209  21.519  23.337  1.00  0.00     0.119 A 
ATOM     18  C   UNL A   1      34.060  22.172  24.608  1.00  0.00     0.134 A 
ATOM     19  C   UNL A   1      33.328  21.151  24.040  1.00  0.00     0.067 A 
BRANCH  18  20
ATOM     20  N   UNL A   1      35.102  21.868  25.467  1.00  0.00    -0.356 N 
ATOM     21  C   UNL A   1      35.636  22.957  26.282  1.00  0.00     0.118 C 
ATOM     22  C   UNL A   1      35.989  20.763  25.127  1.00  0.00     0.118 C 
ATOM     23  C   UNL A   1      36.958  23.478  25.729  1.00  0.00     0.022 C 
ATOM     24  C   UNL A   1      37.310  21.289  24.559  1.00  0.00     0.022 C 
ATOM     25  C   UNL A   1      37.935  22.332  25.484  1.00  0.00     0.004 C 
ENDBRANCH  18  20
ENDBRANCH  13  14
ENDBRANCH   6   7
ENDBRANCH   4   6
ENDBRANCH   1   2
BRANCH   1  26
ATOM     26  C   UNL A   1      31.414  32.485  26.476  1.00  0.00     0.042 C 
BRANCH  26  27
ATOM     27  C   UNL A   1      32.519  33.044  27.371  1.00  0.00     0.118 C 
BRANCH  27  28
ATOM     28  N   UNL A   1      32.314  34.427  27.768  1.00  0.00    -0.352 N 
ATOM     29  C   UNL A   1      32.992  35.182  28.695  1.00  0.00     0.251 C 
ATOM     30  H   UNL A   1      31.582  34.892  27.304  1.00  0.00     0.163 HD
ATOM     31  O   UNL A   1      32.619  36.326  28.949  1.00  0.00    -0.269 OA
BRANCH  29  32
ATOM     32  C   UNL A   1      34.152  34.622  29.429  1.00  0.00     0.039 A 
ATOM     33  C   UNL A   1      33.942  34.110  30.713  1.00  0.00     0.014 A 
ATOM     34  C   UNL A   1      35.437  34.609  28.880  1.00  0.00     0.014 A 
ATOM     35  C   UNL A   1      35.001  33.524  31.413  1.00  0.00     0.010 A 
ATOM     36  C   UNL A   1      36.474  33.954  29.547  1.00  0.00     0.010 A 
ATOM     37  C   UNL A   1      36.268  33.403  30.820  1.00  0.00    -0.014 A 
BRANCH  37  38
ATOM     38  C   UNL A   1      37.370  32.689  31.522  1.00  0.00     0.031 A 
ATOM     39  C   UNL A   1      38.052  31.509  30.886  1.00  0.00     0.074 A 
ATOM     40  C   UNL A   1      37.737  33.085  32.758  1.00  0.00     0.049 A 
ATOM     41  N   UNL A   1      39.027  30.765  31.350  1.00  0.00    -0.248 NA
ATOM     42  C   UNL A   1      37.562  31.094  29.563  1.00  0.00     0.031 C 
ATOM     43  C   UNL A   1      37.124  34.180  33.510  1.00  0.00     0.029 A 
ATOM     44  N   UNL A   1      38.714  32.610  33.601  1.00  0.00    -0.354 N 
ATOM     45  C   UNL A   1      39.260  29.796  30.383  1.00  0.00     0.074 A 
ATOM     46  C   UNL A   1      38.286  30.007  29.333  1.00  0.00     0.031 C 
ATOM     47  C   UNL A   1      37.757  34.316  34.686  1.00  0.00     0.029 A 
ATOM     48  C   UNL A   1      38.794  33.293  34.790  1.00  0.00     0.049 A 
ATOM     49  H   UNL A   1      39.298  31.852  33.374  1.00  0.00     0.167 HD
ATOM     50  C   UNL A   1      40.214  28.834  30.357  1.00  0.00     0.037 A 
ATOM     51  C   UNL A   1      39.610  33.117  35.847  1.00  0.00     0.037 A 
ATOM     52  C   UNL A   1      41.191  28.631  31.397  1.00  0.00     0.049 A 
ATOM     53  C   UNL A   1      40.651  32.031  35.801  1.00  0.00     0.074 A 
ATOM     54  C   UNL A   1      42.230  27.718  31.437  1.00  0.00     0.029 A 
ATOM     55  N   UNL A   1      41.243  29.345  32.585  1.00  0.00    -0.354 N 
ATOM     56  N   UNL A   1      40.913  31.174  34.844  1.00  0.00    -0.248 NA
ATOM     57  C   UNL A   1      41.518  31.895  36.980  1.00  0.00     0.031 C 
ATOM     58  C   UNL A   1      42.874  27.838  32.674  1.00  0.00     0.029 A 
ATOM     59  C   UNL A   1      42.279  28.872  33.378  1.00  0.00     0.049 A 
ATOM     60  H   UNL A   1      40.633  30.078  32.830  1.00  0.00     0.167 HD
ATOM     61  C   UNL A   1      41.992  30.420  35.291  1.00  0.00     0.074 A 
ATOM     62  C   UNL A   1      42.347  30.936  36.596  1.00  0.00     0.031 C 
ATOM     63  C   UNL A   1      42.629  29.395  34.675  1.00  0.00     0.037 A 
BRANCH  50  64
ATOM     64  C   UNL A   1      40.253  27.923  29.162  1.00  0.00     0.064 A 
ATOM     65  C   UNL A   1      39.531  26.719  29.129  1.00  0.00     0.173 A 
ATOM     66  C   UNL A   1      40.985  28.276  28.018  1.00  0.00     0.173 A 
ATOM     67  F   UNL A   1      38.821  26.327  30.198  1.00  0.00    -0.203 F 
ATOM     68  C   UNL A   1      39.568  25.890  28.010  1.00  0.00     0.198 A 
ATOM     69  C   UNL A   1      40.992  27.462  26.889  1.00  0.00     0.198 A 
ATOM     70  F   UNL A   1      41.688  29.419  27.991  1.00  0.00    -0.203 F 
ATOM     71  F   UNL A   1      38.915  24.720  28.024  1.00  0.00    -0.200 F 
ATOM     72  C   UNL A   1      40.291  26.265  26.889  1.00  0.00     0.200 A 
ATOM     73  F   UNL A   1      41.678  27.834  25.800  1.00  0.00    -0.200 F 
ATOM     74  F   UNL A   1      40.319  25.469  25.810  1.00  0.00    -0.200 F 
ENDBRANCH  50  64
BRANCH  51  75
ATOM     75  C   UNL A   1      39.494  34.006  37.035  1.00  0.00     0.064 A 
ATOM     76  C   UNL A   1      40.116  35.263  37.061  1.00  0.00     0.173 A 
ATOM     77  C   UNL A   1      38.776  33.613  38.173  1.00  0.00     0.173 A 
ATOM     78  F   UNL A   1      40.833  35.677  36.006  1.00  0.00    -0.203 F 
ATOM     79  C   UNL A   1      40.046  36.079  38.188  1.00  0.00     0.198 A 
ATOM     80  C   UNL A   1      38.678  34.444  39.287  1.00  0.00     0.198 A 
ATOM     81  F   UNL A   1      38.158  32.422  38.200  1.00  0.00    -0.203 F 
ATOM     82  F   UNL A   1      40.697  37.250  38.205  1.00  0.00    -0.200 F 
ATOM     83  C   UNL A   1      39.322  35.671  39.298  1.00  0.00     0.200 A 
ATOM     84  F   UNL A   1      37.964  34.053  40.352  1.00  0.00    -0.200 F 
ATOM     85  F   UNL A   1      39.253  36.458  40.381  1.00  0.00    -0.200 F 
ENDBRANCH  51  75
BRANCH  63  86
ATOM     86  C   UNL A   1      43.805  28.787  35.385  1.00  0.00     0.064 A 
ATOM     87  C   UNL A   1      43.653  27.751  36.320  1.00  0.00     0.173 A 
ATOM     88  C   UNL A   1      45.108  29.232  35.111  1.00  0.00     0.173 A 
ATOM     89  F   UNL A   1      42.429  27.296  36.630  1.00  0.00    -0.203 F 
ATOM     90  C   UNL A   1      44.755  27.210  36.979  1.00  0.00     0.198 A 
ATOM     91  C   UNL A   1      46.211  28.664  35.743  1.00  0.00     0.198 A 
ATOM     92  F   UNL A   1      45.314  30.213  34.220  1.00  0.00    -0.203 F 
ATOM     93  F   UNL A   1      44.577  26.264  37.912  1.00  0.00    -0.200 F 
ATOM     94  C   UNL A   1      46.032  27.662  36.685  1.00  0.00     0.200 A 
ATOM     95  F   UNL A   1      47.446  29.090  35.445  1.00  0.00    -0.200 F 
ATOM     96  F   UNL A   1      47.091  27.138  37.317  1.00  0.00    -0.200 F 
ENDBRANCH  63  86
ENDBRANCH  37  38
ENDBRANCH  29  32
ENDBRANCH  27  28
ENDBRANCH  26  27
ENDBRANCH   1  26
TORSDOF 13
ENDMDL
MODEL 2
REMARK VINA RESULT:     -12.8      0.704      7.340
REMARK SMILES O=C(C[NH+]1CCN(c2nccc(N3CCCCC3)n2)CC1)NCCCNC(=O)c1ccc(-c2c3nc(c(-c4c(F)c(F)c(F)c(F)c4F)c4ccc([nH]4)c(-c4c(F)c(F)c(F)c(F)c4F)c4nc(c(-c5c(F)c(F)c(F)c(F)c5F)c5ccc2[nH]5)C=C4)C=C3)cc1
REMARK SMILES IDX 23 1 22 2 1 3 2 4 3 6 4 7 5 8 21 9 6 11 20 12 7 13 8 14 9 15
REMARK SMILES IDX 19 16 10 17 12 18 11 19 13 20 14 21 18 22 15 23 17 24 16 25
REMARK SMILES IDX 24 26 25 27 26 28 27 29 28 31 29 32 30 33 91 34 31 35 90 36
REMARK SMILES IDX 32 37 33 38 34 39 84 40 35 41 89 42 83 43 85 44 36 45 88 46
REMARK SMILES IDX 82 47 81 48 37 50 69 51 49 52 68 53 50 54 53 55 67 56 86 57
REMARK SMILES IDX 51 58 52 59 66 61 87 62 54 63 38 64 39 65 47 66 40 67 41 68
REMARK SMILES IDX 45 69 48 70 42 71 43 72 46 73 44 74 70 75 71 76 79 77 72 78
REMARK SMILES IDX 73 79 77 80 80 81 74 82 75 83 78 84 76 85 55 86 56 87 64 88
REMARK SMILES IDX 57 89 58 90 62 91 65 92 59 93 60 94 63 95 61 96
REMARK H PARENT 22 5 4 10 26 30 85 49 53 60
REMARK Flexibility Score: inf
ROOT
ATOM      1  C   UNL A   1      31.405  30.700  26.394  1.00  0.00     0.118 C 
ENDROOT
BRANCH   1   2
ATOM      2  N   UNL A   1      31.715  30.252  25.054  1.00  0.00    -0.351 N 
ATOM      3  O   UNL A   1      33.588  29.065  25.654  1.00  0.00    -0.269 OA
ATOM      4  C   UNL A   1      32.741  29.354  24.815  1.00  0.00     0.275 C 
ATOM      5  H   UNL A   1      31.185  30.592  24.297  1.00  0.00     0.163 HD
BRANCH   4   6
ATOM      6  C   UNL A   1      32.630  28.681  23.441  1.00  0.00     0.363 C 
BRANCH   6   7
ATOM      7  N   UNL A   1      31.468  27.776  23.309  1.00  0.00    -0.324 N 
ATOM      8  C   UNL A   1      31.461  26.849  22.152  1.00  0.00     0.284 C 
ATOM      9  C   UNL A   1      31.238  26.996  24.550  1.00  0.00     0.284 C 
ATOM     10  H   UNL A   1      30.707  28.431  23.131  1.00  0.00     0.348 HD
ATOM     11  C   UNL A   1      32.386  25.617  22.263  1.00  0.00     0.181 C 
ATOM     12  C   UNL A   1      32.165  25.766  24.738  1.00  0.00     0.181 C 
ATOM     13  N   UNL A   1      32.164  24.956  23.533  1.00  0.00    -0.329 N 
BRANCH  13  14
ATOM     14  C   UNL A   1      32.604  23.663  23.643  1.00  0.00     0.227 A 
ATOM     15  N   UNL A   1      31.865  22.667  23.126  1.00  0.00    -0.221 NA
ATOM     16  N   UNL A   1      33.714  23.476  24.366  1.00  0.00    -0.196 NA
ATOM     17  C   UNL A   1      32.299  21.420  23.374  1.00  0.00     0.119 A 
ATOM     18  C   UNL A   1      34.106  22.220  24.624  1.00  0.00     0.134 A 
ATOM     19  C   UNL A   1      33.424  21.139  24.108  1.00  0.00     0.067 A 
BRANCH  18  20
ATOM     20  N   UNL A   1      35.150  22.008  25.509  1.00  0.00    -0.356 N 
ATOM     21  C   UNL A   1      35.736  23.187  26.145  1.00  0.00     0.118 C 
ATOM     22  C   UNL A   1      35.988  20.831  25.332  1.00  0.00     0.118 C 
ATOM     23  C   UNL A   1      37.069  23.565  25.505  1.00  0.00     0.022 C 
ATOM     24  C   UNL A   1      37.319  21.212  24.677  1.00  0.00     0.022 C 
ATOM     25  C   UNL A   1      37.998  22.358  25.428  1.00  0.00     0.004 C 
ENDBRANCH  18  20
ENDBRANCH  13  14
ENDBRANCH   6   7
ENDBRANCH   4   6
ENDBRANCH   1   2
BRANCH   1  26
ATOM     26  C   UNL A   1      31.325  32.217  26.505  1.00  0.00     0.042 C 
BRANCH  26  27
ATOM     27  C   UNL A   1      32.556  32.890  27.111  1.00  0.00     0.118 C 
BRANCH  27  28
ATOM     28  N   UNL A   1      32.308  34.232  27.612  1.00  0.00    -0.352 N 
ATOM     29  C   UNL A   1      32.979  34.944  28.578  1.00  0.00     0.251 C 
ATOM     30  H   UNL A   1      31.548  34.700  27.198  1.00  0.00     0.163 HD
ATOM     31  O   UNL A   1      32.568  36.051  28.922  1.00  0.00    -0.269 OA
BRANCH  29  32
ATOM     32  C   UNL A   1      34.175  34.378  29.244  1.00  0.00     0.039 A 
ATOM     33  C   UNL A   1      33.994  33.614  30.401  1.00  0.00     0.014 A 
ATOM     34  C   UNL A   1      35.466  34.603  28.760  1.00  0.00     0.014 A 
ATOM     35  C   UNL A   1      35.093  33.019  31.025  1.00  0.00     0.010 A 
ATOM     36  C   UNL A   1      36.553  33.945  29.338  1.00  0.00     0.010 A 
ATOM     37  C   UNL A   1      36.380  33.144  30.477  1.00  0.00    -0.014 A 
BRANCH  37  38
ATOM     38  C   UNL A   1      37.537  32.429  31.081  1.00  0.00     0.031 A 
ATOM     39  C   UNL A   1      38.039  32.793  32.451  1.00  0.00     0.074 A 
ATOM     40  C   UNL A   1      38.165  31.466  30.375  1.00  0.00     0.049 A 
ATOM     41  N   UNL A   1      39.035  32.281  33.133  1.00  0.00    -0.248 NA
ATOM     42  C   UNL A   1      37.347  33.893  33.140  1.00  0.00     0.031 C 
ATOM     43  C   UNL A   1      37.813  31.050  29.016  1.00  0.00     0.029 A 
ATOM     44  N   UNL A   1      39.231  30.662  30.702  1.00  0.00    -0.354 N 
ATOM     45  C   UNL A   1      39.090  32.997  34.322  1.00  0.00     0.074 A 
ATOM     46  C   UNL A   1      38.068  34.019  34.245  1.00  0.00     0.031 C 
ATOM     47  C   UNL A   1      38.624  30.050  28.638  1.00  0.00     0.029 A 
ATOM     48  C   UNL A   1      39.578  29.778  29.709  1.00  0.00     0.049 A 
ATOM     49  H   UNL A   1      39.701  30.716  31.564  1.00  0.00     0.167 HD
ATOM     50  C   UNL A   1      39.899  32.805  35.392  1.00  0.00     0.037 A 
ATOM     51  C   UNL A   1      40.557  28.853  29.665  1.00  0.00     0.037 A 
ATOM     52  C   UNL A   1      40.909  31.780  35.473  1.00  0.00     0.049 A 
ATOM     53  C   UNL A   1      41.453  28.670  30.860  1.00  0.00     0.074 A 
ATOM     54  C   UNL A   1      41.742  31.472  36.534  1.00  0.00     0.029 A 
ATOM     55  N   UNL A   1      41.230  30.901  34.448  1.00  0.00    -0.354 N 
ATOM     56  N   UNL A   1      41.441  29.301  32.009  1.00  0.00    -0.248 NA
ATOM     57  C   UNL A   1      42.494  27.638  30.754  1.00  0.00     0.031 C 
ATOM     58  C   UNL A   1      42.608  30.449  36.132  1.00  0.00     0.029 A 
ATOM     59  C   UNL A   1      42.269  30.071  34.843  1.00  0.00     0.049 A 
ATOM     60  H   UNL A   1      40.786  30.872  33.570  1.00  0.00     0.167 HD
ATOM     61  C   UNL A   1      42.447  28.722  32.773  1.00  0.00     0.074 A 
ATOM     62  C   UNL A   1      43.035  27.677  31.962  1.00  0.00     0.031 C 
ATOM     63  C   UNL A   1      42.846  29.030  34.031  1.00  0.00     0.037 A 
BRANCH  50  64
ATOM     64  C   UNL A   1      39.728  33.724  36.569  1.00  0.00     0.064 A 
ATOM     65  C   UNL A   1      38.876  33.403  37.637  1.00  0.00     0.173 A 
ATOM     66  C   UNL A   1      40.457  34.920  36.652  1.00  0.00     0.173 A 
ATOM     67  F   UNL A   1      38.148  32.276  37.606  1.00  0.00    -0.203 F 
ATOM     68  C   UNL A   1      38.736  34.259  38.727  1.00  0.00     0.198 A 
ATOM     69  C   UNL A   1      40.340  35.758  37.759  1.00  0.00     0.198 A 
ATOM     70  F   UNL A   1      41.292  35.274  35.663  1.00  0.00    -0.203 F 
ATOM     71  F   UNL A   1      37.874  33.957  39.708  1.00  0.00    -0.200 F 
ATOM     72  C   UNL A   1      39.473  35.432  38.791  1.00  0.00     0.200 A 
ATOM     73  F   UNL A   1      41.066  36.882  37.826  1.00  0.00    -0.200 F 
ATOM     74  F   UNL A   1      39.343  36.251  39.844  1.00  0.00    -0.200 F 
ENDBRANCH  50  64
BRANCH  51  75
ATOM     75  C   UNL A   1      40.728  28.007  28.452  1.00  0.00     0.064 A 
ATOM     76  C   UNL A   1      40.116  26.748  28.357  1.00  0.00     0.173 A 
ATOM     77  C   UNL A   1      41.516  28.430  27.373  1.00  0.00     0.173 A 
ATOM     78  F   UNL A   1      39.370  26.288  29.372  1.00  0.00    -0.203 F 
ATOM     79  C   UNL A   1      40.310  25.935  27.242  1.00  0.00     0.198 A 
ATOM     80  C   UNL A   1      41.682  27.631  26.244  1.00  0.00     0.198 A 
ATOM     81  F   UNL A   1      42.120  29.628  27.410  1.00  0.00    -0.203 F 
ATOM     82  F   UNL A   1      39.761  24.714  27.203  1.00  0.00    -0.200 F 
ATOM     83  C   UNL A   1      41.088  26.379  26.184  1.00  0.00     0.200 A 
ATOM     84  F   UNL A   1      42.421  28.071  25.216  1.00  0.00    -0.200 F 
ATOM     85  F   UNL A   1      41.272  25.598  25.111  1.00  0.00    -0.200 F 
ENDBRANCH  51  75
BRANCH  63  86
ATOM     86  C   UNL A   1      43.946  28.198  34.629  1.00  0.00     0.064 A 
ATOM     87  C   UNL A   1      45.292  28.591  34.565  1.00  0.00     0.173 A 
ATOM     88  C   UNL A   1      43.648  26.999  35.295  1.00  0.00     0.173 A 
ATOM     89  F   UNL A   1      45.635  29.721  33.928  1.00  0.00    -0.203 F 
ATOM     90  C   UNL A   1      46.299  27.799  35.113  1.00  0.00     0.198 A 
ATOM     91  C   UNL A   1      44.652  26.228  35.875  1.00  0.00     0.198 A 
ATOM     92  F   UNL A   1      42.378  26.579  35.395  1.00  0.00    -0.203 F 
ATOM     93  F   UNL A   1      47.581  28.166  34.985  1.00  0.00    -0.200 F 
ATOM     94  C   UNL A   1      45.977  26.623  35.772  1.00  0.00     0.200 A 
ATOM     95  F   UNL A   1      44.338  25.100  36.527  1.00  0.00    -0.200 F 
ATOM     96  F   UNL A   1      46.946  25.865  36.302  1.00  0.00    -0.200 F 
ENDBRANCH  63  86
ENDBRANCH  37  38
ENDBRANCH  29  32
ENDBRANCH  27  28
ENDBRANCH  26  27
ENDBRANCH   1  26
TORSDOF 13
ENDMDL
MODEL 3
REMARK VINA RESULT:     -12.7      5.666     11.357
REMARK SMILES O=C(C[NH+]1CCN(c2nccc(N3CCCCC3)n2)CC1)NCCCNC(=O)c1ccc(-c2c3nc(c(-c4c(F)c(F)c(F)c(F)c4F)c4ccc([nH]4)c(-c4c(F)c(F)c(F)c(F)c4F)c4nc(c(-c5c(F)c(F)c(F)c(F)c5F)c5ccc2[nH]5)C=C4)C=C3)cc1
REMARK SMILES IDX 23 1 22 2 1 3 2 4 3 6 4 7 5 8 21 9 6 11 20 12 7 13 8 14 9 15
REMARK SMILES IDX 19 16 10 17 12 18 11 19 13 20 14 21 18 22 15 23 17 24 16 25
REMARK SMILES IDX 24 26 25 27 26 28 27 29 28 31 29 32 30 33 91 34 31 35 90 36
REMARK SMILES IDX 32 37 33 38 34 39 84 40 35 41 89 42 83 43 85 44 36 45 88 46
REMARK SMILES IDX 82 47 81 48 37 50 69 51 49 52 68 53 50 54 53 55 67 56 86 57
REMARK SMILES IDX 51 58 52 59 66 61 87 62 54 63 38 64 39 65 47 66 40 67 41 68
REMARK SMILES IDX 45 69 48 70 42 71 43 72 46 73 44 74 70 75 71 76 79 77 72 78
REMARK SMILES IDX 73 79 77 80 80 81 74 82 75 83 78 84 76 85 55 86 56 87 64 88
REMARK SMILES IDX 57 89 58 90 62 91 65 92 59 93 60 94 63 95 61 96
REMARK H PARENT 22 5 4 10 26 30 85 49 53 60
REMARK Flexibility Score: inf
ROOT
ATOM      1  C   UNL A   1      37.197  20.546  24.618  1.00  0.00     0.118 C 
ENDROOT
BRANCH   1   2
ATOM      2  N   UNL A   1      35.956  20.548  25.363  1.00  0.00    -0.351 N 
ATOM      3  O   UNL A   1      36.168  22.703  26.128  1.00  0.00    -0.269 OA
ATOM      4  C   UNL A   1      35.484  21.698  25.972  1.00  0.00     0.275 C 
ATOM      5  H   UNL A   1      35.436  19.715  25.437  1.00  0.00     0.163 HD
BRANCH   4   6
ATOM      6  C   UNL A   1      33.992  21.614  26.318  1.00  0.00     0.363 C 
BRANCH   6   7
ATOM      7  N   UNL A   1      33.103  21.597  25.136  1.00  0.00    -0.324 N 
ATOM      8  C   UNL A   1      31.657  21.825  25.374  1.00  0.00     0.284 C 
ATOM      9  C   UNL A   1      33.569  22.536  24.086  1.00  0.00     0.284 C 
ATOM     10  H   UNL A   1      33.173  20.627  24.830  1.00  0.00     0.348 HD
ATOM     11  C   UNL A   1      31.235  23.284  25.649  1.00  0.00     0.181 C 
ATOM     12  C   UNL A   1      33.209  24.027  24.326  1.00  0.00     0.181 C 
ATOM     13  N   UNL A   1      31.795  24.151  24.632  1.00  0.00    -0.329 N 
BRANCH  13  14
ATOM     14  C   UNL A   1      31.228  25.392  24.496  1.00  0.00     0.227 A 
ATOM     15  N   UNL A   1      30.034  25.509  23.892  1.00  0.00    -0.221 NA
ATOM     16  N   UNL A   1      31.974  26.429  24.891  1.00  0.00    -0.196 NA
ATOM     17  C   UNL A   1      29.596  26.763  23.690  1.00  0.00     0.119 A 
ATOM     18  C   UNL A   1      31.527  27.669  24.648  1.00  0.00     0.134 A 
ATOM     19  C   UNL A   1      30.298  27.882  24.061  1.00  0.00     0.067 A 
BRANCH  18  20
ATOM     20  N   UNL A   1      32.361  28.747  24.895  1.00  0.00    -0.356 N 
ATOM     21  C   UNL A   1      33.744  28.451  25.263  1.00  0.00     0.118 C 
ATOM     22  C   UNL A   1      31.772  29.991  25.370  1.00  0.00     0.118 C 
ATOM     23  C   UNL A   1      33.975  28.620  26.762  1.00  0.00     0.022 C 
ATOM     24  C   UNL A   1      31.993  30.151  26.877  1.00  0.00     0.022 C 
ATOM     25  C   UNL A   1      33.467  29.976  27.242  1.00  0.00     0.004 C 
ENDBRANCH  18  20
ENDBRANCH  13  14
ENDBRANCH   6   7
ENDBRANCH   4   6
ENDBRANCH   1   2
BRANCH   1  26
ATOM     26  C   UNL A   1      38.134  19.422  25.038  1.00  0.00     0.042 C 
BRANCH  26  27
ATOM     27  C   UNL A   1      39.353  19.860  25.848  1.00  0.00     0.118 C 
BRANCH  27  28
ATOM     28  N   UNL A   1      40.423  18.877  25.883  1.00  0.00    -0.352 N 
ATOM     29  C   UNL A   1      41.769  19.054  26.098  1.00  0.00     0.251 C 
ATOM     30  H   UNL A   1      40.142  17.946  25.730  1.00  0.00     0.163 HD
ATOM     31  O   UNL A   1      42.537  18.098  26.014  1.00  0.00    -0.269 OA
BRANCH  29  32
ATOM     32  C   UNL A   1      42.320  20.398  26.394  1.00  0.00     0.039 A 
ATOM     33  C   UNL A   1      42.911  21.118  25.352  1.00  0.00     0.014 A 
ATOM     34  C   UNL A   1      42.278  20.948  27.678  1.00  0.00     0.014 A 
ATOM     35  C   UNL A   1      43.392  22.410  25.580  1.00  0.00     0.010 A 
ATOM     36  C   UNL A   1      42.687  22.266  27.886  1.00  0.00     0.010 A 
ATOM     37  C   UNL A   1      43.248  23.013  26.840  1.00  0.00    -0.014 A 
BRANCH  37  38
ATOM     38  C   UNL A   1      43.666  24.425  27.060  1.00  0.00     0.031 A 
ATOM     39  C   UNL A   1      42.675  25.461  27.515  1.00  0.00     0.074 A 
ATOM     40  C   UNL A   1      44.942  24.786  26.814  1.00  0.00     0.049 A 
ATOM     41  N   UNL A   1      42.859  26.737  27.754  1.00  0.00    -0.248 NA
ATOM     42  C   UNL A   1      41.287  25.013  27.706  1.00  0.00     0.031 C 
ATOM     43  C   UNL A   1      45.991  23.893  26.319  1.00  0.00     0.029 A 
ATOM     44  N   UNL A   1      45.575  25.999  26.944  1.00  0.00    -0.354 N 
ATOM     45  C   UNL A   1      41.617  27.240  28.116  1.00  0.00     0.074 A 
ATOM     46  C   UNL A   1      40.673  26.148  28.008  1.00  0.00     0.031 C 
ATOM     47  C   UNL A   1      47.141  24.578  26.219  1.00  0.00     0.029 A 
ATOM     48  C   UNL A   1      46.905  25.967  26.604  1.00  0.00     0.049 A 
ATOM     49  H   UNL A   1      45.117  26.814  27.251  1.00  0.00     0.167 HD
ATOM     50  C   UNL A   1      41.294  28.490  28.528  1.00  0.00     0.037 A 
ATOM     51  C   UNL A   1      47.832  26.944  26.600  1.00  0.00     0.037 A 
ATOM     52  C   UNL A   1      42.236  29.575  28.647  1.00  0.00     0.049 A 
ATOM     53  C   UNL A   1      47.444  28.328  27.046  1.00  0.00     0.074 A 
ATOM     54  C   UNL A   1      42.015  30.862  29.105  1.00  0.00     0.029 A 
ATOM     55  N   UNL A   1      43.576  29.502  28.296  1.00  0.00    -0.354 N 
ATOM     56  N   UNL A   1      46.283  28.770  27.463  1.00  0.00    -0.248 NA
ATOM     57  C   UNL A   1      48.502  29.349  27.029  1.00  0.00     0.031 C 
ATOM     58  C   UNL A   1      43.206  31.585  28.975  1.00  0.00     0.029 A 
ATOM     59  C   UNL A   1      44.187  30.731  28.500  1.00  0.00     0.049 A 
ATOM     60  H   UNL A   1      44.027  28.697  27.951  1.00  0.00     0.167 HD
ATOM     61  C   UNL A   1      46.477  30.107  27.789  1.00  0.00     0.074 A 
ATOM     62  C   UNL A   1      47.873  30.397  27.538  1.00  0.00     0.031 C 
ATOM     63  C   UNL A   1      45.579  31.010  28.252  1.00  0.00     0.037 A 
BRANCH  50  64
ATOM     64  C   UNL A   1      39.858  28.758  28.884  1.00  0.00     0.064 A 
ATOM     65  C   UNL A   1      39.372  28.561  30.185  1.00  0.00     0.173 A 
ATOM     66  C   UNL A   1      38.967  29.259  27.922  1.00  0.00     0.173 A 
ATOM     67  F   UNL A   1      40.177  28.075  31.142  1.00  0.00    -0.203 F 
ATOM     68  C   UNL A   1      38.041  28.824  30.502  1.00  0.00     0.198 A 
ATOM     69  C   UNL A   1      37.646  29.553  28.251  1.00  0.00     0.198 A 
ATOM     70  F   UNL A   1      39.379  29.473  26.663  1.00  0.00    -0.203 F 
ATOM     71  F   UNL A   1      37.587  28.576  31.738  1.00  0.00    -0.200 F 
ATOM     72  C   UNL A   1      37.181  29.327  29.538  1.00  0.00     0.200 A 
ATOM     73  F   UNL A   1      36.822  30.055  27.321  1.00  0.00    -0.200 F 
ATOM     74  F   UNL A   1      35.903  29.587  29.847  1.00  0.00    -0.200 F 
ENDBRANCH  50  64
BRANCH  51  75
ATOM     75  C   UNL A   1      49.229  26.646  26.180  1.00  0.00     0.064 A 
ATOM     76  C   UNL A   1      50.174  26.173  27.102  1.00  0.00     0.173 A 
ATOM     77  C   UNL A   1      49.651  26.842  24.858  1.00  0.00     0.173 A 
ATOM     78  F   UNL A   1      49.826  25.989  28.384  1.00  0.00    -0.203 F 
ATOM     79  C   UNL A   1      51.494  25.934  26.723  1.00  0.00     0.198 A 
ATOM     80  C   UNL A   1      50.962  26.571  24.472  1.00  0.00     0.198 A 
ATOM     81  F   UNL A   1      48.785  27.288  23.935  1.00  0.00    -0.203 F 
ATOM     82  F   UNL A   1      52.389  25.537  27.637  1.00  0.00    -0.200 F 
ATOM     83  C   UNL A   1      51.885  26.128  25.407  1.00  0.00     0.200 A 
ATOM     84  F   UNL A   1      51.332  26.743  23.196  1.00  0.00    -0.200 F 
ATOM     85  F   UNL A   1      53.153  25.896  25.042  1.00  0.00    -0.200 F 
ENDBRANCH  51  75
BRANCH  63  86
ATOM     86  C   UNL A   1      46.086  32.391  28.561  1.00  0.00     0.064 A 
ATOM     87  C   UNL A   1      46.071  33.418  27.604  1.00  0.00     0.173 A 
ATOM     88  C   UNL A   1      46.575  32.698  29.840  1.00  0.00     0.173 A 
ATOM     89  F   UNL A   1      45.627  33.176  26.362  1.00  0.00    -0.203 F 
ATOM     90  C   UNL A   1      46.559  34.688  27.906  1.00  0.00     0.198 A 
ATOM     91  C   UNL A   1      47.028  33.978  30.151  1.00  0.00     0.198 A 
ATOM     92  F   UNL A   1      46.605  31.758  30.796  1.00  0.00    -0.203 F 
ATOM     93  F   UNL A   1      46.591  35.634  26.957  1.00  0.00    -0.200 F 
ATOM     94  C   UNL A   1      47.030  34.968  29.179  1.00  0.00     0.200 A 
ATOM     95  F   UNL A   1      47.466  34.251  31.387  1.00  0.00    -0.200 F 
ATOM     96  F   UNL A   1      47.495  36.191  29.469  1.00  0.00    -0.200 F 
ENDBRANCH  63  86
ENDBRANCH  37  38
ENDBRANCH  29  32
ENDBRANCH  27  28
ENDBRANCH  26  27
ENDBRANCH   1  26
TORSDOF 13
ENDMDL
