MODEL 1
REMARK VINA RESULT:     -12.6      0.000      0.000
REMARK SMILES O=CN1CCN(S(=O)(=O)c2ccc(C(=O)NCCCNC(=O)c3ccc(-c4c5nc(c(-c6c(F)c(F)c(F)c(F)c6F)c6ccc([nH]6)c(-c6c(F)c(F)c(F)c(F)c6F)c6nc(c(-c7c(F)c(F)c(F)c(F)c7F)c7ccc4[nH]7)C=C6)C=C5)cc3)cc2)CC1
REMARK SMILES IDX 18 1 17 2 16 3 14 4 15 5 13 7 10 8 11 9 87 10 12 11 86 12
REMARK SMILES IDX 7 13 8 14 9 15 6 16 1 17 2 18 3 19 4 20 89 21 5 22 88 23
REMARK SMILES IDX 19 24 20 25 21 26 22 28 23 29 24 30 85 31 25 32 84 33 26 34
REMARK SMILES IDX 27 35 28 36 78 37 29 38 83 39 77 40 79 41 30 42 82 43 76 44
REMARK SMILES IDX 75 45 31 47 63 48 43 49 62 50 44 51 47 52 61 53 80 54 45 55
REMARK SMILES IDX 46 56 60 58 81 59 48 60 32 61 33 62 41 63 34 64 35 65 39 66
REMARK SMILES IDX 42 67 36 68 37 69 40 70 38 71 64 72 65 73 73 74 66 75 67 76
REMARK SMILES IDX 71 77 74 78 68 79 69 80 72 81 70 82 49 83 50 84 58 85 51 86
REMARK SMILES IDX 52 87 56 88 59 89 53 90 54 91 57 92 55 93
REMARK H PARENT 16 6 20 27 79 46 47 57
REMARK Flexibility Score: inf
ROOT
ATOM      1  C   UNL A   1      31.403  32.153  26.773  1.00  0.00     0.042 C 
ENDROOT
BRANCH   1   2
ATOM      2  C   UNL A   1      31.590  30.705  26.325  1.00  0.00     0.118 C 
BRANCH   2   3
ATOM      3  N   UNL A   1      31.033  30.465  25.005  1.00  0.00    -0.352 N 
ATOM      4  C   UNL A   1      31.001  29.327  24.237  1.00  0.00     0.251 C 
ATOM      5  O   UNL A   1      30.321  29.321  23.214  1.00  0.00    -0.269 OA
ATOM      6  H   UNL A   1      30.606  31.249  24.592  1.00  0.00     0.163 HD
BRANCH   4   7
ATOM      7  C   UNL A   1      31.740  28.099  24.622  1.00  0.00     0.039 A 
ATOM      8  C   UNL A   1      33.019  25.718  25.344  1.00  0.00     0.082 A 
ATOM      9  C   UNL A   1      31.726  25.972  25.806  1.00  0.00     0.022 A 
ATOM     10  C   UNL A   1      33.651  26.619  24.479  1.00  0.00     0.022 A 
ATOM     11  C   UNL A   1      31.089  27.163  25.440  1.00  0.00     0.015 A 
ATOM     12  C   UNL A   1      33.010  27.804  24.119  1.00  0.00     0.015 A 
BRANCH   8  13
ATOM     13  S   UNL A   1      33.818  24.173  25.710  1.00  0.00     0.243 S 
ATOM     14  O   UNL A   1      33.136  23.597  26.852  1.00  0.00    -0.207 OA
ATOM     15  O   UNL A   1      35.243  24.406  25.752  1.00  0.00    -0.207 OA
BRANCH  13  16
ATOM     16  N   UNL A   1      33.501  23.192  24.349  1.00  0.00    -0.194 NA
ATOM     17  O   UNL A   1      32.153  18.410  25.375  1.00  0.00    -0.279 OA
ATOM     18  C   UNL A   1      33.204  19.009  25.185  1.00  0.00     0.340 C 
ATOM     19  N   UNL A   1      33.328  20.371  25.029  1.00  0.00    -0.343 N 
ATOM     20  C   UNL A   1      34.638  21.019  24.948  1.00  0.00     0.136 C 
ATOM     21  C   UNL A   1      32.164  21.235  25.210  1.00  0.00     0.136 C 
ATOM     22  C   UNL A   1      34.627  22.248  24.022  1.00  0.00     0.124 C 
ATOM     23  C   UNL A   1      32.199  22.455  24.284  1.00  0.00     0.124 C 
ENDBRANCH  13  16
ENDBRANCH   8  13
ENDBRANCH   4   7
ENDBRANCH   2   3
ENDBRANCH   1   2
BRANCH   1  24
ATOM     24  C   UNL A   1      32.706  32.929  26.949  1.00  0.00     0.118 C 
BRANCH  24  25
ATOM     25  N   UNL A   1      32.504  34.204  27.618  1.00  0.00    -0.352 N 
ATOM     26  C   UNL A   1      33.062  34.706  28.764  1.00  0.00     0.251 C 
ATOM     27  H   UNL A   1      31.860  34.804  27.176  1.00  0.00     0.163 HD
ATOM     28  O   UNL A   1      32.596  35.734  29.252  1.00  0.00    -0.269 OA
BRANCH  26  29
ATOM     29  C   UNL A   1      34.207  34.040  29.431  1.00  0.00     0.039 A 
ATOM     30  C   UNL A   1      35.502  34.403  29.040  1.00  0.00     0.014 A 
ATOM     31  C   UNL A   1      34.032  33.012  30.362  1.00  0.00     0.014 A 
ATOM     32  C   UNL A   1      36.610  33.759  29.594  1.00  0.00     0.010 A 
ATOM     33  C   UNL A   1      35.141  32.412  30.963  1.00  0.00     0.010 A 
ATOM     34  C   UNL A   1      36.440  32.766  30.570  1.00  0.00    -0.014 A 
BRANCH  34  35
ATOM     35  C   UNL A   1      37.616  32.069  31.156  1.00  0.00     0.031 A 
ATOM     36  C   UNL A   1      38.082  32.406  32.546  1.00  0.00     0.074 A 
ATOM     37  C   UNL A   1      38.280  31.153  30.427  1.00  0.00     0.049 A 
ATOM     38  N   UNL A   1      39.091  31.914  33.224  1.00  0.00    -0.248 NA
ATOM     39  C   UNL A   1      37.331  33.446  33.264  1.00  0.00     0.031 C 
ATOM     40  C   UNL A   1      37.953  30.767  29.054  1.00  0.00     0.029 A 
ATOM     41  N   UNL A   1      39.369  30.378  30.740  1.00  0.00    -0.354 N 
ATOM     42  C   UNL A   1      39.105  32.598  34.433  1.00  0.00     0.074 A 
ATOM     43  C   UNL A   1      38.032  33.567  34.383  1.00  0.00     0.031 C 
ATOM     44  C   UNL A   1      38.806  29.811  28.651  1.00  0.00     0.029 A 
ATOM     45  C   UNL A   1      39.755  29.536  29.726  1.00  0.00     0.049 A 
ATOM     46  H   UNL A   1      39.831  30.423  31.608  1.00  0.00     0.167 HD
ATOM     47  C   UNL A   1      39.925  32.419  35.496  1.00  0.00     0.037 A 
ATOM     48  C   UNL A   1      40.758  28.639  29.673  1.00  0.00     0.037 A 
ATOM     49  C   UNL A   1      40.964  31.425  35.564  1.00  0.00     0.049 A 
ATOM     50  C   UNL A   1      41.643  28.449  30.876  1.00  0.00     0.074 A 
ATOM     51  C   UNL A   1      41.791  31.111  36.628  1.00  0.00     0.029 A 
ATOM     52  N   UNL A   1      41.315  30.582  34.520  1.00  0.00    -0.354 N 
ATOM     53  N   UNL A   1      41.596  29.048  32.040  1.00  0.00    -0.248 NA
ATOM     54  C   UNL A   1      42.717  27.453  30.755  1.00  0.00     0.031 C 
ATOM     55  C   UNL A   1      42.670  30.103  36.216  1.00  0.00     0.029 A 
ATOM     56  C   UNL A   1      42.364  29.763  34.909  1.00  0.00     0.049 A 
ATOM     57  H   UNL A   1      40.885  30.567  33.636  1.00  0.00     0.167 HD
ATOM     58  C   UNL A   1      42.611  28.484  32.800  1.00  0.00     0.074 A 
ATOM     59  C   UNL A   1      43.251  27.485  31.968  1.00  0.00     0.031 C 
ATOM     60  C   UNL A   1      42.982  28.768  34.071  1.00  0.00     0.037 A 
BRANCH  47  61
ATOM     61  C   UNL A   1      39.729  33.315  36.683  1.00  0.00     0.064 A 
ATOM     62  C   UNL A   1      38.830  32.990  37.711  1.00  0.00     0.173 A 
ATOM     63  C   UNL A   1      40.483  34.492  36.818  1.00  0.00     0.173 A 
ATOM     64  F   UNL A   1      38.079  31.883  37.624  1.00  0.00    -0.203 F 
ATOM     65  C   UNL A   1      38.674  33.823  38.815  1.00  0.00     0.198 A 
ATOM     66  C   UNL A   1      40.344  35.308  37.938  1.00  0.00     0.198 A 
ATOM     67  F   UNL A   1      41.362  34.844  35.868  1.00  0.00    -0.203 F 
ATOM     68  F   UNL A   1      37.778  33.515  39.763  1.00  0.00    -0.200 F 
ATOM     69  C   UNL A   1      39.435  34.977  38.932  1.00  0.00     0.200 A 
ATOM     70  F   UNL A   1      41.088  36.416  38.054  1.00  0.00    -0.200 F 
ATOM     71  F   UNL A   1      39.289  35.773  39.999  1.00  0.00    -0.200 F 
ENDBRANCH  47  61
BRANCH  48  72
ATOM     72  C   UNL A   1      40.957  27.820  28.451  1.00  0.00     0.064 A 
ATOM     73  C   UNL A   1      41.783  28.273  27.412  1.00  0.00     0.173 A 
ATOM     74  C   UNL A   1      40.327  26.578  28.291  1.00  0.00     0.173 A 
ATOM     75  F   UNL A   1      42.390  29.464  27.512  1.00  0.00    -0.203 F 
ATOM     76  C   UNL A   1      41.955  27.523  26.251  1.00  0.00     0.198 A 
ATOM     77  C   UNL A   1      40.519  25.818  27.139  1.00  0.00     0.198 A 
ATOM     78  F   UNL A   1      39.529  26.100  29.257  1.00  0.00    -0.203 F 
ATOM     79  F   UNL A   1      42.717  27.998  25.256  1.00  0.00    -0.200 F 
ATOM     80  C   UNL A   1      41.327  26.294  26.118  1.00  0.00     0.200 A 
ATOM     81  F   UNL A   1      39.919  24.626  27.018  1.00  0.00    -0.200 F 
ATOM     82  F   UNL A   1      41.495  25.573  25.001  1.00  0.00    -0.200 F 
ENDBRANCH  48  72
BRANCH  60  83
ATOM     83  C   UNL A   1      44.111  27.971  34.652  1.00  0.00     0.064 A 
ATOM     84  C   UNL A   1      43.890  26.745  35.294  1.00  0.00     0.173 A 
ATOM     85  C   UNL A   1      45.434  28.423  34.533  1.00  0.00     0.173 A 
ATOM     86  F   UNL A   1      42.641  26.280  35.447  1.00  0.00    -0.203 F 
ATOM     87  C   UNL A   1      44.950  26.009  35.816  1.00  0.00     0.198 A 
ATOM     88  C   UNL A   1      46.495  27.672  35.033  1.00  0.00     0.198 A 
ATOM     89  F   UNL A   1      45.699  29.588  33.922  1.00  0.00    -0.203 F 
ATOM     90  F   UNL A   1      44.712  24.860  36.464  1.00  0.00    -0.200 F 
ATOM     91  C   UNL A   1      46.251  26.469  35.679  1.00  0.00     0.200 A 
ATOM     92  F   UNL A   1      47.752  28.113  34.891  1.00  0.00    -0.200 F 
ATOM     93  F   UNL A   1      47.271  25.758  36.178  1.00  0.00    -0.200 F 
ENDBRANCH  60  83
ENDBRANCH  34  35
ENDBRANCH  26  29
ENDBRANCH  24  25
ENDBRANCH   1  24
TORSDOF 12
ENDMDL
MODEL 2
REMARK VINA RESULT:     -12.6      0.135      1.955
REMARK SMILES O=CN1CCN(S(=O)(=O)c2ccc(C(=O)NCCCNC(=O)c3ccc(-c4c5nc(c(-c6c(F)c(F)c(F)c(F)c6F)c6ccc([nH]6)c(-c6c(F)c(F)c(F)c(F)c6F)c6nc(c(-c7c(F)c(F)c(F)c(F)c7F)c7ccc4[nH]7)C=C6)C=C5)cc3)cc2)CC1
REMARK SMILES IDX 18 1 17 2 16 3 14 4 15 5 13 7 10 8 11 9 87 10 12 11 86 12
REMARK SMILES IDX 7 13 8 14 9 15 6 16 1 17 2 18 3 19 4 20 89 21 5 22 88 23
REMARK SMILES IDX 19 24 20 25 21 26 22 28 23 29 24 30 85 31 25 32 84 33 26 34
REMARK SMILES IDX 27 35 28 36 78 37 29 38 83 39 77 40 79 41 30 42 82 43 76 44
REMARK SMILES IDX 75 45 31 47 63 48 43 49 62 50 44 51 47 52 61 53 80 54 45 55
REMARK SMILES IDX 46 56 60 58 81 59 48 60 32 61 33 62 41 63 34 64 35 65 39 66
REMARK SMILES IDX 42 67 36 68 37 69 40 70 38 71 64 72 65 73 73 74 66 75 67 76
REMARK SMILES IDX 71 77 74 78 68 79 69 80 72 81 70 82 49 83 50 84 58 85 51 86
REMARK SMILES IDX 52 87 56 88 59 89 53 90 54 91 57 92 55 93
REMARK H PARENT 16 6 20 27 79 46 47 57
REMARK Flexibility Score: inf
ROOT
ATOM      1  C   UNL A   1      31.491  32.131  26.776  1.00  0.00     0.042 C 
ENDROOT
BRANCH   1   2
ATOM      2  C   UNL A   1      31.719  30.696  26.302  1.00  0.00     0.118 C 
BRANCH   2   3
ATOM      3  N   UNL A   1      31.095  30.440  25.015  1.00  0.00    -0.352 N 
ATOM      4  C   UNL A   1      30.996  29.285  24.280  1.00  0.00     0.251 C 
ATOM      5  O   UNL A   1      30.270  29.273  23.289  1.00  0.00    -0.269 OA
ATOM      6  H   UNL A   1      30.672  31.226  24.601  1.00  0.00     0.163 HD
BRANCH   4   7
ATOM      7  C   UNL A   1      31.716  28.045  24.663  1.00  0.00     0.039 A 
ATOM      8  C   UNL A   1      32.962  25.644  25.379  1.00  0.00     0.082 A 
ATOM      9  C   UNL A   1      31.657  25.896  25.806  1.00  0.00     0.022 A 
ATOM     10  C   UNL A   1      33.624  26.558  24.550  1.00  0.00     0.022 A 
ATOM     11  C   UNL A   1      31.037  27.098  25.444  1.00  0.00     0.015 A 
ATOM     12  C   UNL A   1      33.000  27.753  24.193  1.00  0.00     0.015 A 
BRANCH   8  13
ATOM     13  S   UNL A   1      33.741  24.088  25.739  1.00  0.00     0.243 S 
ATOM     14  O   UNL A   1      33.040  23.508  26.868  1.00  0.00    -0.207 OA
ATOM     15  O   UNL A   1      35.167  24.306  25.800  1.00  0.00    -0.207 OA
BRANCH  13  16
ATOM     16  N   UNL A   1      33.430  23.123  24.365  1.00  0.00    -0.194 NA
ATOM     17  O   UNL A   1      32.047  18.338  25.331  1.00  0.00    -0.279 OA
ATOM     18  C   UNL A   1      33.102  18.933  25.156  1.00  0.00     0.340 C 
ATOM     19  N   UNL A   1      33.235  20.296  25.015  1.00  0.00    -0.343 N 
ATOM     20  C   UNL A   1      34.550  20.937  24.952  1.00  0.00     0.136 C 
ATOM     21  C   UNL A   1      32.075  21.164  25.195  1.00  0.00     0.136 C 
ATOM     22  C   UNL A   1      34.554  22.176  24.038  1.00  0.00     0.124 C 
ATOM     23  C   UNL A   1      32.125  22.394  24.282  1.00  0.00     0.124 C 
ENDBRANCH  13  16
ENDBRANCH   8  13
ENDBRANCH   4   7
ENDBRANCH   2   3
ENDBRANCH   1   2
BRANCH   1  24
ATOM     24  C   UNL A   1      32.767  32.957  26.913  1.00  0.00     0.118 C 
BRANCH  24  25
ATOM     25  N   UNL A   1      32.540  34.210  27.615  1.00  0.00    -0.352 N 
ATOM     26  C   UNL A   1      33.089  34.693  28.774  1.00  0.00     0.251 C 
ATOM     27  H   UNL A   1      31.885  34.809  27.187  1.00  0.00     0.163 HD
ATOM     28  O   UNL A   1      32.604  35.699  29.287  1.00  0.00    -0.269 OA
BRANCH  26  29
ATOM     29  C   UNL A   1      34.246  34.032  29.425  1.00  0.00     0.039 A 
ATOM     30  C   UNL A   1      35.534  34.424  29.038  1.00  0.00     0.014 A 
ATOM     31  C   UNL A   1      34.089  32.981  30.334  1.00  0.00     0.014 A 
ATOM     32  C   UNL A   1      36.654  33.786  29.577  1.00  0.00     0.010 A 
ATOM     33  C   UNL A   1      35.209  32.387  30.920  1.00  0.00     0.010 A 
ATOM     34  C   UNL A   1      36.502  32.770  30.532  1.00  0.00    -0.014 A 
BRANCH  34  35
ATOM     35  C   UNL A   1      37.690  32.080  31.100  1.00  0.00     0.031 A 
ATOM     36  C   UNL A   1      38.177  32.421  32.483  1.00  0.00     0.074 A 
ATOM     37  C   UNL A   1      38.347  31.165  30.363  1.00  0.00     0.049 A 
ATOM     38  N   UNL A   1      39.198  31.936  33.145  1.00  0.00    -0.248 NA
ATOM     39  C   UNL A   1      37.431  33.460  33.210  1.00  0.00     0.031 C 
ATOM     40  C   UNL A   1      38.000  30.775  28.996  1.00  0.00     0.029 A 
ATOM     41  N   UNL A   1      39.445  30.396  30.660  1.00  0.00    -0.354 N 
ATOM     42  C   UNL A   1      39.228  32.622  34.352  1.00  0.00     0.074 A 
ATOM     43  C   UNL A   1      38.150  33.586  34.317  1.00  0.00     0.031 C 
ATOM     44  C   UNL A   1      38.852  29.822  28.582  1.00  0.00     0.029 A 
ATOM     45  C   UNL A   1      39.819  29.553  29.642  1.00  0.00     0.049 A 
ATOM     46  H   UNL A   1      39.920  30.445  31.521  1.00  0.00     0.167 HD
ATOM     47  C   UNL A   1      40.065  32.449  35.403  1.00  0.00     0.037 A 
ATOM     48  C   UNL A   1      40.824  28.661  29.575  1.00  0.00     0.037 A 
ATOM     49  C   UNL A   1      41.109  31.460  35.456  1.00  0.00     0.049 A 
ATOM     50  C   UNL A   1      41.729  28.478  30.764  1.00  0.00     0.074 A 
ATOM     51  C   UNL A   1      41.955  31.152  36.508  1.00  0.00     0.029 A 
ATOM     52  N   UNL A   1      41.448  30.617  34.409  1.00  0.00    -0.354 N 
ATOM     53  N   UNL A   1      41.697  29.079  31.928  1.00  0.00    -0.248 NA
ATOM     54  C   UNL A   1      42.806  27.487  30.628  1.00  0.00     0.031 C 
ATOM     55  C   UNL A   1      42.832  30.148  36.085  1.00  0.00     0.029 A 
ATOM     56  C   UNL A   1      42.507  29.803  34.783  1.00  0.00     0.049 A 
ATOM     57  H   UNL A   1      41.004  30.598  33.531  1.00  0.00     0.167 HD
ATOM     58  C   UNL A   1      42.727  28.521  32.673  1.00  0.00     0.074 A 
ATOM     59  C   UNL A   1      43.359  27.524  31.833  1.00  0.00     0.031 C 
ATOM     60  C   UNL A   1      43.117  28.810  33.938  1.00  0.00     0.037 A 
BRANCH  47  61
ATOM     61  C   UNL A   1      39.884  33.346  36.591  1.00  0.00     0.064 A 
ATOM     62  C   UNL A   1      40.603  34.544  36.727  1.00  0.00     0.173 A 
ATOM     63  C   UNL A   1      38.945  33.028  37.586  1.00  0.00     0.173 A 
ATOM     64  F   UNL A   1      41.518  34.887  35.809  1.00  0.00    -0.203 F 
ATOM     65  C   UNL A   1      40.408  35.376  37.826  1.00  0.00     0.198 A 
ATOM     66  C   UNL A   1      38.734  33.876  38.670  1.00  0.00     0.198 A 
ATOM     67  F   UNL A   1      38.226  31.899  37.500  1.00  0.00    -0.203 F 
ATOM     68  F   UNL A   1      41.137  36.493  37.956  1.00  0.00    -0.200 F 
ATOM     69  C   UNL A   1      39.470  35.045  38.793  1.00  0.00     0.200 A 
ATOM     70  F   UNL A   1      37.820  33.561  39.597  1.00  0.00    -0.200 F 
ATOM     71  F   UNL A   1      39.279  35.851  39.847  1.00  0.00    -0.200 F 
ENDBRANCH  47  61
BRANCH  48  72
ATOM     72  C   UNL A   1      41.009  27.841  28.351  1.00  0.00     0.064 A 
ATOM     73  C   UNL A   1      40.371  26.599  28.218  1.00  0.00     0.173 A 
ATOM     74  C   UNL A   1      41.825  28.273  27.297  1.00  0.00     0.173 A 
ATOM     75  F   UNL A   1      39.598  26.135  29.210  1.00  0.00    -0.203 F 
ATOM     76  C   UNL A   1      40.559  25.812  27.085  1.00  0.00     0.198 A 
ATOM     77  C   UNL A   1      41.992  27.496  26.153  1.00  0.00     0.198 A 
ATOM     78  F   UNL A   1      42.453  29.455  27.375  1.00  0.00    -0.203 F 
ATOM     79  F   UNL A   1      39.972  24.610  27.001  1.00  0.00    -0.200 F 
ATOM     80  C   UNL A   1      41.366  26.263  26.051  1.00  0.00     0.200 A 
ATOM     81  F   UNL A   1      42.764  27.939  25.151  1.00  0.00    -0.200 F 
ATOM     82  F   UNL A   1      41.545  25.506  24.960  1.00  0.00    -0.200 F 
ENDBRANCH  48  72
BRANCH  60  83
ATOM     83  C   UNL A   1      44.259  28.019  34.502  1.00  0.00     0.064 A 
ATOM     84  C   UNL A   1      45.581  28.478  34.418  1.00  0.00     0.173 A 
ATOM     85  C   UNL A   1      44.023  26.805  35.165  1.00  0.00     0.173 A 
ATOM     86  F   UNL A   1      45.857  29.624  33.779  1.00  0.00    -0.203 F 
ATOM     87  C   UNL A   1      46.630  27.739  34.958  1.00  0.00     0.198 A 
ATOM     88  C   UNL A   1      45.071  26.081  35.727  1.00  0.00     0.198 A 
ATOM     89  F   UNL A   1      42.775  26.326  35.276  1.00  0.00    -0.203 F 
ATOM     90  F   UNL A   1      47.891  28.175  34.829  1.00  0.00    -0.200 F 
ATOM     91  C   UNL A   1      46.374  26.546  35.618  1.00  0.00     0.200 A 
ATOM     92  F   UNL A   1      44.822  24.934  36.373  1.00  0.00    -0.200 F 
ATOM     93  F   UNL A   1      47.384  25.838  36.141  1.00  0.00    -0.200 F 
ENDBRANCH  60  83
ENDBRANCH  34  35
ENDBRANCH  26  29
ENDBRANCH  24  25
ENDBRANCH   1  24
TORSDOF 12
ENDMDL
MODEL 3
REMARK VINA RESULT:     -12.6      5.259      9.949
REMARK SMILES O=CN1CCN(S(=O)(=O)c2ccc(C(=O)NCCCNC(=O)c3ccc(-c4c5nc(c(-c6c(F)c(F)c(F)c(F)c6F)c6ccc([nH]6)c(-c6c(F)c(F)c(F)c(F)c6F)c6nc(c(-c7c(F)c(F)c(F)c(F)c7F)c7ccc4[nH]7)C=C6)C=C5)cc3)cc2)CC1
REMARK SMILES IDX 18 1 17 2 16 3 14 4 15 5 13 7 10 8 11 9 87 10 12 11 86 12
REMARK SMILES IDX 7 13 8 14 9 15 6 16 1 17 2 18 3 19 4 20 89 21 5 22 88 23
REMARK SMILES IDX 19 24 20 25 21 26 22 28 23 29 24 30 85 31 25 32 84 33 26 34
REMARK SMILES IDX 27 35 28 36 78 37 29 38 83 39 77 40 79 41 30 42 82 43 76 44
REMARK SMILES IDX 75 45 31 47 63 48 43 49 62 50 44 51 47 52 61 53 80 54 45 55
REMARK SMILES IDX 46 56 60 58 81 59 48 60 32 61 33 62 41 63 34 64 35 65 39 66
REMARK SMILES IDX 42 67 36 68 37 69 40 70 38 71 64 72 65 73 73 74 66 75 67 76
REMARK SMILES IDX 71 77 74 78 68 79 69 80 72 81 70 82 49 83 50 84 58 85 51 86
REMARK SMILES IDX 52 87 56 88 59 89 53 90 54 91 57 92 55 93
REMARK H PARENT 16 6 20 27 79 46 47 57
REMARK Flexibility Score: inf
ROOT
ATOM      1  C   UNL A   1      38.291  19.649  24.971  1.00  0.00     0.042 C 
ENDROOT
BRANCH   1   2
ATOM      2  C   UNL A   1      37.153  20.662  24.860  1.00  0.00     0.118 C 
BRANCH   2   3
ATOM      3  N   UNL A   1      35.851  20.043  25.049  1.00  0.00    -0.352 N 
ATOM      4  C   UNL A   1      34.587  20.571  24.967  1.00  0.00     0.251 C 
ATOM      5  O   UNL A   1      33.623  19.809  25.003  1.00  0.00    -0.269 OA
ATOM      6  H   UNL A   1      35.882  19.086  25.273  1.00  0.00     0.163 HD
BRANCH   4   7
ATOM      7  C   UNL A   1      34.351  22.027  24.807  1.00  0.00     0.039 A 
ATOM      8  C   UNL A   1      33.823  24.746  24.411  1.00  0.00     0.082 A 
ATOM      9  C   UNL A   1      33.810  23.876  23.318  1.00  0.00     0.022 A 
ATOM     10  C   UNL A   1      34.041  24.256  25.703  1.00  0.00     0.022 A 
ATOM     11  C   UNL A   1      34.073  22.517  23.521  1.00  0.00     0.015 A 
ATOM     12  C   UNL A   1      34.302  22.899  25.898  1.00  0.00     0.015 A 
BRANCH   8  13
ATOM     13  S   UNL A   1      33.398  26.458  24.202  1.00  0.00     0.243 S 
ATOM     14  O   UNL A   1      33.655  26.799  22.815  1.00  0.00    -0.207 OA
ATOM     15  O   UNL A   1      34.026  27.208  25.264  1.00  0.00    -0.207 OA
BRANCH  13  16
ATOM     16  N   UNL A   1      31.712  26.519  24.463  1.00  0.00    -0.194 NA
ATOM     17  O   UNL A   1      29.153  29.703  21.453  1.00  0.00    -0.279 OA
ATOM     18  C   UNL A   1      29.716  29.775  22.538  1.00  0.00     0.340 C 
ATOM     19  N   UNL A   1      30.460  28.772  23.118  1.00  0.00    -0.343 N 
ATOM     20  C   UNL A   1      31.216  28.992  24.351  1.00  0.00     0.136 C 
ATOM     21  C   UNL A   1      30.731  27.543  22.376  1.00  0.00     0.136 C 
ATOM     22  C   UNL A   1      31.274  27.734  25.236  1.00  0.00     0.124 C 
ATOM     23  C   UNL A   1      30.798  26.317  23.293  1.00  0.00     0.124 C 
ENDBRANCH  13  16
ENDBRANCH   8  13
ENDBRANCH   4   7
ENDBRANCH   2   3
ENDBRANCH   1   2
BRANCH   1  24
ATOM     24  C   UNL A   1      39.255  19.914  26.126  1.00  0.00     0.118 C 
BRANCH  24  25
ATOM     25  N   UNL A   1      40.398  19.016  26.107  1.00  0.00    -0.352 N 
ATOM     26  C   UNL A   1      41.741  19.286  26.086  1.00  0.00     0.251 C 
ATOM     27  H   UNL A   1      40.169  18.058  26.110  1.00  0.00     0.163 HD
ATOM     28  O   UNL A   1      42.529  18.365  25.877  1.00  0.00    -0.269 OA
BRANCH  26  29
ATOM     29  C   UNL A   1      42.266  20.655  26.304  1.00  0.00     0.039 A 
ATOM     30  C   UNL A   1      42.427  21.099  27.623  1.00  0.00     0.014 A 
ATOM     31  C   UNL A   1      42.517  21.534  25.247  1.00  0.00     0.014 A 
ATOM     32  C   UNL A   1      42.858  22.402  27.879  1.00  0.00     0.010 A 
ATOM     33  C   UNL A   1      43.009  22.817  25.501  1.00  0.00     0.010 A 
ATOM     34  C   UNL A   1      43.165  23.270  26.820  1.00  0.00    -0.014 A 
BRANCH  34  35
ATOM     35  C   UNL A   1      43.613  24.662  27.085  1.00  0.00     0.031 A 
ATOM     36  C   UNL A   1      42.641  25.685  27.607  1.00  0.00     0.074 A 
ATOM     37  C   UNL A   1      44.888  25.013  26.832  1.00  0.00     0.049 A 
ATOM     38  N   UNL A   1      42.841  26.950  27.890  1.00  0.00    -0.248 NA
ATOM     39  C   UNL A   1      41.257  25.237  27.821  1.00  0.00     0.031 C 
ATOM     40  C   UNL A   1      45.915  24.125  26.287  1.00  0.00     0.029 A 
ATOM     41  N   UNL A   1      45.537  26.211  26.999  1.00  0.00    -0.354 N 
ATOM     42  C   UNL A   1      41.609  27.447  28.293  1.00  0.00     0.074 A 
ATOM     43  C   UNL A   1      40.658  26.364  28.180  1.00  0.00     0.031 C 
ATOM     44  C   UNL A   1      47.072  24.801  26.189  1.00  0.00     0.029 A 
ATOM     45  C   UNL A   1      46.862  26.174  26.639  1.00  0.00     0.049 A 
ATOM     46  H   UNL A   1      45.095  27.020  27.345  1.00  0.00     0.167 HD
ATOM     47  C   UNL A   1      41.303  28.691  28.738  1.00  0.00     0.037 A 
ATOM     48  C   UNL A   1      47.801  27.138  26.673  1.00  0.00     0.037 A 
ATOM     49  C   UNL A   1      42.258  29.756  28.892  1.00  0.00     0.049 A 
ATOM     50  C   UNL A   1      47.437  28.505  27.186  1.00  0.00     0.074 A 
ATOM     51  C   UNL A   1      42.062  31.023  29.413  1.00  0.00     0.029 A 
ATOM     52  N   UNL A   1      43.594  29.675  28.527  1.00  0.00    -0.354 N 
ATOM     53  N   UNL A   1      46.286  28.940  27.637  1.00  0.00    -0.248 NA
ATOM     54  C   UNL A   1      48.508  29.513  27.200  1.00  0.00     0.031 C 
ATOM     55  C   UNL A   1      43.269  31.724  29.328  1.00  0.00     0.029 A 
ATOM     56  C   UNL A   1      44.228  30.880  28.791  1.00  0.00     0.049 A 
ATOM     57  H   UNL A   1      44.027  28.882  28.139  1.00  0.00     0.167 HD
ATOM     58  C   UNL A   1      46.499  30.259  28.014  1.00  0.00     0.074 A 
ATOM     59  C   UNL A   1      47.893  30.551  27.751  1.00  0.00     0.031 C 
ATOM     60  C   UNL A   1      45.618  31.149  28.531  1.00  0.00     0.037 A 
BRANCH  47  61
ATOM     61  C   UNL A   1      39.874  28.968  29.097  1.00  0.00     0.064 A 
ATOM     62  C   UNL A   1      38.945  29.404  28.140  1.00  0.00     0.173 A 
ATOM     63  C   UNL A   1      39.415  28.751  30.406  1.00  0.00     0.173 A 
ATOM     64  F   UNL A   1      39.336  29.635  26.878  1.00  0.00    -0.203 F 
ATOM     65  C   UNL A   1      37.617  29.637  28.485  1.00  0.00     0.198 A 
ATOM     66  C   UNL A   1      38.080  28.961  30.741  1.00  0.00     0.198 A 
ATOM     67  F   UNL A   1      40.261  28.328  31.357  1.00  0.00    -0.203 F 
ATOM     68  F   UNL A   1      36.757  30.095  27.564  1.00  0.00    -0.200 F 
ATOM     69  C   UNL A   1      37.184  29.410  29.783  1.00  0.00     0.200 A 
ATOM     70  F   UNL A   1      37.660  28.729  31.993  1.00  0.00    -0.200 F 
ATOM     71  F   UNL A   1      35.903  29.628  30.112  1.00  0.00    -0.200 F 
ENDBRANCH  47  61
BRANCH  48  72
ATOM     72  C   UNL A   1      49.190  26.837  26.242  1.00  0.00     0.064 A 
ATOM     73  C   UNL A   1      49.581  27.017  24.908  1.00  0.00     0.173 A 
ATOM     74  C   UNL A   1      50.149  26.360  27.147  1.00  0.00     0.173 A 
ATOM     75  F   UNL A   1      48.692  27.450  24.003  1.00  0.00    -0.203 F 
ATOM     76  C   UNL A   1      50.875  26.712  24.491  1.00  0.00     0.198 A 
ATOM     77  C   UNL A   1      51.449  26.079  26.734  1.00  0.00     0.198 A 
ATOM     78  F   UNL A   1      49.824  26.175  28.435  1.00  0.00    -0.203 F 
ATOM     79  F   UNL A   1      51.211  26.853  23.201  1.00  0.00    -0.200 F 
ATOM     80  C   UNL A   1      51.809  26.248  25.405  1.00  0.00     0.200 A 
ATOM     81  F   UNL A   1      52.353  25.642  27.621  1.00  0.00    -0.200 F 
ATOM     82  F   UNL A   1      53.053  25.957  25.003  1.00  0.00    -0.200 F 
ENDBRANCH  48  72
BRANCH  60  83
ATOM     83  C   UNL A   1      46.141  32.512  28.873  1.00  0.00     0.064 A 
ATOM     84  C   UNL A   1      46.693  32.792  30.131  1.00  0.00     0.173 A 
ATOM     85  C   UNL A   1      46.121  33.540  27.918  1.00  0.00     0.173 A 
ATOM     86  F   UNL A   1      46.718  31.846  31.082  1.00  0.00    -0.203 F 
ATOM     87  C   UNL A   1      47.186  34.059  30.429  1.00  0.00     0.198 A 
ATOM     88  C   UNL A   1      46.640  34.799  28.211  1.00  0.00     0.198 A 
ATOM     89  F   UNL A   1      45.608  33.321  26.698  1.00  0.00    -0.203 F 
ATOM     90  F   UNL A   1      47.670  34.317  31.652  1.00  0.00    -0.200 F 
ATOM     91  C   UNL A   1      47.166  35.058  29.468  1.00  0.00     0.200 A 
ATOM     92  F   UNL A   1      46.629  35.761  27.278  1.00  0.00    -0.200 F 
ATOM     93  F   UNL A   1      47.646  36.276  29.755  1.00  0.00    -0.200 F 
ENDBRANCH  60  83
ENDBRANCH  34  35
ENDBRANCH  26  29
ENDBRANCH  24  25
ENDBRANCH   1  24
TORSDOF 12
ENDMDL
