MODEL 1
REMARK VINA RESULT:     -12.1      0.000      0.000
REMARK SMILES COc1ccccc1CC(=O)NC[C@H]1CC[C@H](C(=O)NCCCNC(=O)c2ccc(-c3c4nc(c(-c5c(F)c(F)c(F)c(F)c5F)c5ccc([nH]5)c(-c5c(F)c(F)c(F)c(F)c5F)c5nc(c(-c6c(F)c(F)c(F)c(F)c6F)c6ccc3[nH]6)C=C5)C=C4)cc2)O1
REMARK SMILES IDX 18 1 19 2 20 3 17 5 14 6 15 7 90 8 16 9 13 10 12 11 10 12
REMARK SMILES IDX 11 13 9 15 8 16 3 17 4 18 5 19 7 20 6 21 2 22 1 23 21 24
REMARK SMILES IDX 22 25 23 26 24 27 25 28 26 30 27 31 28 32 89 33 29 34 88 35
REMARK SMILES IDX 30 36 31 37 32 38 82 39 33 40 87 41 81 42 83 43 34 44 86 45
REMARK SMILES IDX 80 46 79 47 35 49 67 50 47 51 66 52 48 53 51 54 65 55 84 56
REMARK SMILES IDX 49 57 50 58 64 60 85 61 52 62 36 63 37 64 45 65 38 66 39 67
REMARK SMILES IDX 43 68 46 69 40 70 41 71 44 72 42 73 68 74 69 75 77 76 70 77
REMARK SMILES IDX 71 78 75 79 78 80 72 81 73 82 76 83 74 84 53 85 54 86 62 87
REMARK SMILES IDX 55 88 56 89 60 90 63 91 57 92 58 93 61 94 59 95
REMARK H PARENT 20 4 12 14 24 29 83 48 51 59
REMARK Flexibility Score: inf
ROOT
ATOM      1  C   UNL A   1      33.421  29.269  26.237  1.00  0.00     0.249 C 
ATOM      2  O   UNL A   1      34.601  29.108  26.565  1.00  0.00    -0.272 OA
ATOM      3  N   UNL A   1      32.874  30.496  26.468  1.00  0.00    -0.354 N 
ATOM      4  H   UNL A   1      33.491  31.162  26.851  1.00  0.00     0.163 HD
ENDROOT
BRANCH   1   5
ATOM      5  C   UNL A   1      32.595  28.102  25.660  1.00  0.00     0.207 C 
ATOM      6  C   UNL A   1      32.028  25.945  26.389  1.00  0.00     0.138 C 
ATOM      7  C   UNL A   1      33.231  25.792  25.477  1.00  0.00     0.037 C 
ATOM      8  O   UNL A   1      31.855  27.345  26.610  1.00  0.00    -0.363 OA
ATOM      9  C   UNL A   1      33.420  27.139  24.828  1.00  0.00     0.045 C 
BRANCH   6  10
ATOM     10  C   UNL A   1      30.715  25.335  25.870  1.00  0.00     0.147 C 
BRANCH  10  11
ATOM     11  N   UNL A   1      30.160  24.420  26.867  1.00  0.00    -0.353 N 
ATOM     12  C   UNL A   1      30.008  23.065  26.828  1.00  0.00     0.224 C 
ATOM     13  O   UNL A   1      29.308  22.538  27.696  1.00  0.00    -0.275 OA
ATOM     14  H   UNL A   1      29.847  24.848  27.696  1.00  0.00     0.163 HD
BRANCH  12  15
ATOM     15  C   UNL A   1      30.758  22.235  25.810  1.00  0.00     0.139 C 
BRANCH  15  16
ATOM     16  C   UNL A   1      32.252  22.159  26.001  1.00  0.00     0.003 A 
ATOM     17  C   UNL A   1      33.175  21.785  25.009  1.00  0.00     0.122 A 
ATOM     18  C   UNL A   1      34.541  21.704  25.327  1.00  0.00     0.047 A 
ATOM     19  C   UNL A   1      35.007  21.992  26.609  1.00  0.00     0.004 A 
ATOM     20  C   UNL A   1      32.749  22.475  27.286  1.00  0.00     0.008 A 
ATOM     21  C   UNL A   1      34.108  22.379  27.591  1.00  0.00     0.001 A 
BRANCH  17  22
ATOM     22  O   UNL A   1      32.890  21.297  23.761  1.00  0.00    -0.496 OA
ATOM     23  C   UNL A   1      32.467  22.215  22.766  1.00  0.00     0.278 C 
ENDBRANCH  17  22
ENDBRANCH  15  16
ENDBRANCH  12  15
ENDBRANCH  10  11
ENDBRANCH   6  10
ENDBRANCH   1   5
BRANCH   3  24
ATOM     24  C   UNL A   1      31.525  30.973  26.240  1.00  0.00     0.117 C 
BRANCH  24  25
ATOM     25  C   UNL A   1      31.378  32.437  26.631  1.00  0.00     0.042 C 
BRANCH  25  26
ATOM     26  C   UNL A   1      32.663  33.011  27.213  1.00  0.00     0.118 C 
BRANCH  26  27
ATOM     27  N   UNL A   1      32.477  34.377  27.691  1.00  0.00    -0.352 N 
ATOM     28  C   UNL A   1      33.050  35.030  28.750  1.00  0.00     0.251 C 
ATOM     29  H   UNL A   1      31.838  34.913  27.168  1.00  0.00     0.163 HD
ATOM     30  O   UNL A   1      32.593  36.104  29.126  1.00  0.00    -0.269 OA
BRANCH  28  31
ATOM     31  C   UNL A   1      34.213  34.443  29.448  1.00  0.00     0.039 A 
ATOM     32  C   UNL A   1      34.002  33.751  30.644  1.00  0.00     0.014 A 
ATOM     33  C   UNL A   1      35.508  34.606  28.950  1.00  0.00     0.014 A 
ATOM     34  C   UNL A   1      35.085  33.178  31.312  1.00  0.00     0.010 A 
ATOM     35  C   UNL A   1      36.574  33.966  29.572  1.00  0.00     0.010 A 
ATOM     36  C   UNL A   1      36.374  33.257  30.765  1.00  0.00    -0.014 A 
BRANCH  36  37
ATOM     37  C   UNL A   1      37.537  32.624  31.434  1.00  0.00     0.031 A 
ATOM     38  C   UNL A   1      38.248  31.476  30.775  1.00  0.00     0.074 A 
ATOM     39  C   UNL A   1      37.899  33.035  32.664  1.00  0.00     0.049 A 
ATOM     40  N   UNL A   1      39.221  30.730  31.234  1.00  0.00    -0.248 NA
ATOM     41  C   UNL A   1      37.784  31.096  29.430  1.00  0.00     0.031 C 
ATOM     42  C   UNL A   1      37.251  34.104  33.424  1.00  0.00     0.029 A 
ATOM     43  N   UNL A   1      38.893  32.590  33.498  1.00  0.00    -0.354 N 
ATOM     44  C   UNL A   1      39.466  29.783  30.248  1.00  0.00     0.074 A 
ATOM     45  C   UNL A   1      38.510  30.015  29.188  1.00  0.00     0.031 C 
ATOM     46  C   UNL A   1      37.875  34.246  34.604  1.00  0.00     0.029 A 
ATOM     47  C   UNL A   1      38.940  33.254  34.699  1.00  0.00     0.049 A 
ATOM     48  H   UNL A   1      39.514  31.865  33.258  1.00  0.00     0.167 HD
ATOM     49  C   UNL A   1      40.420  28.821  30.221  1.00  0.00     0.037 A 
ATOM     50  C   UNL A   1      39.749  33.074  35.761  1.00  0.00     0.037 A 
ATOM     51  C   UNL A   1      41.391  28.621  31.264  1.00  0.00     0.049 A 
ATOM     52  C   UNL A   1      40.808  32.007  35.700  1.00  0.00     0.074 A 
ATOM     53  C   UNL A   1      42.442  27.722  31.304  1.00  0.00     0.029 A 
ATOM     54  N   UNL A   1      41.428  29.335  32.453  1.00  0.00    -0.354 N 
ATOM     55  N   UNL A   1      41.076  31.161  34.734  1.00  0.00    -0.248 NA
ATOM     56  C   UNL A   1      41.682  31.876  36.873  1.00  0.00     0.031 C 
ATOM     57  C   UNL A   1      43.091  27.864  32.536  1.00  0.00     0.029 A 
ATOM     58  C   UNL A   1      42.473  28.883  33.243  1.00  0.00     0.049 A 
ATOM     59  H   UNL A   1      40.805  30.056  32.699  1.00  0.00     0.167 HD
ATOM     60  C   UNL A   1      42.163  30.417  35.170  1.00  0.00     0.074 A 
ATOM     61  C   UNL A   1      42.515  30.921  36.481  1.00  0.00     0.031 C 
ATOM     62  C   UNL A   1      42.811  29.406  34.542  1.00  0.00     0.037 A 
BRANCH  49  63
ATOM     63  C   UNL A   1      40.462  27.917  29.024  1.00  0.00     0.064 A 
ATOM     64  C   UNL A   1      39.721  26.727  28.974  1.00  0.00     0.173 A 
ATOM     65  C   UNL A   1      41.226  28.262  27.899  1.00  0.00     0.173 A 
ATOM     66  F   UNL A   1      38.983  26.345  30.028  1.00  0.00    -0.203 F 
ATOM     67  C   UNL A   1      39.766  25.900  27.853  1.00  0.00     0.198 A 
ATOM     68  C   UNL A   1      41.246  27.449  26.769  1.00  0.00     0.198 A 
ATOM     69  F   UNL A   1      41.950  29.391  27.892  1.00  0.00    -0.203 F 
ATOM     70  F   UNL A   1      39.088  24.744  27.847  1.00  0.00    -0.200 F 
ATOM     71  C   UNL A   1      40.522  26.266  26.749  1.00  0.00     0.200 A 
ATOM     72  F   UNL A   1      41.966  27.809  25.698  1.00  0.00    -0.200 F 
ATOM     73  F   UNL A   1      40.558  25.474  25.669  1.00  0.00    -0.200 F 
ENDBRANCH  49  63
BRANCH  50  74
ATOM     74  C   UNL A   1      39.604  33.940  36.959  1.00  0.00     0.064 A 
ATOM     75  C   UNL A   1      38.831  33.530  38.053  1.00  0.00     0.173 A 
ATOM     76  C   UNL A   1      40.235  35.190  37.038  1.00  0.00     0.173 A 
ATOM     77  F   UNL A   1      38.193  32.350  38.016  1.00  0.00    -0.203 F 
ATOM     78  C   UNL A   1      38.677  34.345  39.173  1.00  0.00     0.198 A 
ATOM     79  C   UNL A   1      40.103  35.993  38.168  1.00  0.00     0.198 A 
ATOM     80  F   UNL A   1      40.993  35.627  36.021  1.00  0.00    -0.203 F 
ATOM     81  F   UNL A   1      37.896  33.946  40.186  1.00  0.00    -0.200 F 
ATOM     82  C   UNL A   1      39.317  35.573  39.232  1.00  0.00     0.200 A 
ATOM     83  F   UNL A   1      40.737  37.172  38.229  1.00  0.00    -0.200 F 
ATOM     84  F   UNL A   1      39.174  36.355  40.310  1.00  0.00    -0.200 F 
ENDBRANCH  50  74
BRANCH  62  85
ATOM     85  C   UNL A   1      43.987  28.801  35.250  1.00  0.00     0.064 A 
ATOM     86  C   UNL A   1      45.282  29.319  35.098  1.00  0.00     0.173 A 
ATOM     87  C   UNL A   1      43.809  27.716  36.123  1.00  0.00     0.173 A 
ATOM     88  F   UNL A   1      45.506  30.344  34.262  1.00  0.00    -0.203 F 
ATOM     89  C   UNL A   1      46.359  28.757  35.778  1.00  0.00     0.198 A 
ATOM     90  C   UNL A   1      44.883  27.177  36.823  1.00  0.00     0.198 A 
ATOM     91  F   UNL A   1      42.589  27.191  36.306  1.00  0.00    -0.203 F 
ATOM     92  F   UNL A   1      47.595  29.238  35.584  1.00  0.00    -0.200 F 
ATOM     93  C   UNL A   1      46.159  27.693  36.645  1.00  0.00     0.200 A 
ATOM     94  F   UNL A   1      44.686  26.159  37.670  1.00  0.00    -0.200 F 
ATOM     95  F   UNL A   1      47.196  27.159  37.303  1.00  0.00    -0.200 F 
ENDBRANCH  62  85
ENDBRANCH  36  37
ENDBRANCH  28  31
ENDBRANCH  26  27
ENDBRANCH  25  26
ENDBRANCH  24  25
ENDBRANCH   3  24
TORSDOF 15
ENDMDL
MODEL 2
REMARK VINA RESULT:     -12.0      0.339      1.629
REMARK SMILES COc1ccccc1CC(=O)NC[C@H]1CC[C@H](C(=O)NCCCNC(=O)c2ccc(-c3c4nc(c(-c5c(F)c(F)c(F)c(F)c5F)c5ccc([nH]5)c(-c5c(F)c(F)c(F)c(F)c5F)c5nc(c(-c6c(F)c(F)c(F)c(F)c6F)c6ccc3[nH]6)C=C5)C=C4)cc2)O1
REMARK SMILES IDX 18 1 19 2 20 3 17 5 14 6 15 7 90 8 16 9 13 10 12 11 10 12
REMARK SMILES IDX 11 13 9 15 8 16 3 17 4 18 5 19 7 20 6 21 2 22 1 23 21 24
REMARK SMILES IDX 22 25 23 26 24 27 25 28 26 30 27 31 28 32 89 33 29 34 88 35
REMARK SMILES IDX 30 36 31 37 32 38 82 39 33 40 87 41 81 42 83 43 34 44 86 45
REMARK SMILES IDX 80 46 79 47 35 49 67 50 47 51 66 52 48 53 51 54 65 55 84 56
REMARK SMILES IDX 49 57 50 58 64 60 85 61 52 62 36 63 37 64 45 65 38 66 39 67
REMARK SMILES IDX 43 68 46 69 40 70 41 71 44 72 42 73 68 74 69 75 77 76 70 77
REMARK SMILES IDX 71 78 75 79 78 80 72 81 73 82 76 83 74 84 53 85 54 86 62 87
REMARK SMILES IDX 55 88 56 89 60 90 63 91 57 92 58 93 61 94 59 95
REMARK H PARENT 20 4 12 14 24 29 83 48 51 59
REMARK Flexibility Score: inf
ROOT
ATOM      1  C   UNL A   1      33.442  29.337  26.379  1.00  0.00     0.249 C 
ATOM      2  O   UNL A   1      34.601  29.166  26.776  1.00  0.00    -0.272 OA
ATOM      3  N   UNL A   1      32.899  30.573  26.562  1.00  0.00    -0.354 N 
ATOM      4  H   UNL A   1      33.502  31.237  26.970  1.00  0.00     0.163 HD
ENDROOT
BRANCH   1   5
ATOM      5  C   UNL A   1      32.635  28.171  25.773  1.00  0.00     0.207 C 
ATOM      6  C   UNL A   1      32.085  25.996  26.457  1.00  0.00     0.138 C 
ATOM      7  C   UNL A   1      33.298  25.871  25.556  1.00  0.00     0.037 C 
ATOM      8  O   UNL A   1      31.894  27.389  26.701  1.00  0.00    -0.363 OA
ATOM      9  C   UNL A   1      33.480  27.232  24.933  1.00  0.00     0.045 C 
BRANCH   6  10
ATOM     10  C   UNL A   1      30.783  25.381  25.913  1.00  0.00     0.147 C 
BRANCH  10  11
ATOM     11  N   UNL A   1      30.222  24.452  26.893  1.00  0.00    -0.353 N 
ATOM     12  C   UNL A   1      30.017  23.106  26.812  1.00  0.00     0.224 C 
ATOM     13  O   UNL A   1      29.321  22.574  27.680  1.00  0.00    -0.275 OA
ATOM     14  H   UNL A   1      29.948  24.862  27.745  1.00  0.00     0.163 HD
BRANCH  12  15
ATOM     15  C   UNL A   1      30.707  22.285  25.744  1.00  0.00     0.139 C 
BRANCH  15  16
ATOM     16  C   UNL A   1      32.173  22.013  25.974  1.00  0.00     0.003 A 
ATOM     17  C   UNL A   1      33.005  21.285  25.107  1.00  0.00     0.122 A 
ATOM     18  C   UNL A   1      34.346  21.057  25.460  1.00  0.00     0.047 A 
ATOM     19  C   UNL A   1      34.875  21.541  26.656  1.00  0.00     0.004 A 
ATOM     20  C   UNL A   1      32.737  22.520  27.167  1.00  0.00     0.008 A 
ATOM     21  C   UNL A   1      34.068  22.275  27.511  1.00  0.00     0.001 A 
BRANCH  17  22
ATOM     22  O   UNL A   1      32.622  20.587  23.993  1.00  0.00    -0.496 OA
ATOM     23  C   UNL A   1      32.805  19.180  23.991  1.00  0.00     0.278 C 
ENDBRANCH  17  22
ENDBRANCH  15  16
ENDBRANCH  12  15
ENDBRANCH  10  11
ENDBRANCH   6  10
ENDBRANCH   1   5
BRANCH   3  24
ATOM     24  C   UNL A   1      31.571  31.063  26.252  1.00  0.00     0.117 C 
BRANCH  24  25
ATOM     25  C   UNL A   1      31.378  32.493  26.737  1.00  0.00     0.042 C 
BRANCH  25  26
ATOM     26  C   UNL A   1      32.678  33.119  27.222  1.00  0.00     0.118 C 
BRANCH  26  27
ATOM     27  N   UNL A   1      32.469  34.468  27.738  1.00  0.00    -0.352 N 
ATOM     28  C   UNL A   1      33.022  35.097  28.822  1.00  0.00     0.251 C 
ATOM     29  H   UNL A   1      31.828  35.011  27.225  1.00  0.00     0.163 HD
ATOM     30  O   UNL A   1      32.546  36.153  29.225  1.00  0.00    -0.269 OA
BRANCH  28  31
ATOM     31  C   UNL A   1      34.185  34.504  29.515  1.00  0.00     0.039 A 
ATOM     32  C   UNL A   1      33.975  33.805  30.707  1.00  0.00     0.014 A 
ATOM     33  C   UNL A   1      35.480  34.669  29.016  1.00  0.00     0.014 A 
ATOM     34  C   UNL A   1      35.058  33.228  31.371  1.00  0.00     0.010 A 
ATOM     35  C   UNL A   1      36.546  34.024  29.633  1.00  0.00     0.010 A 
ATOM     36  C   UNL A   1      36.347  33.308  30.822  1.00  0.00    -0.014 A 
BRANCH  36  37
ATOM     37  C   UNL A   1      37.510  32.669  31.486  1.00  0.00     0.031 A 
ATOM     38  C   UNL A   1      38.213  31.519  30.823  1.00  0.00     0.074 A 
ATOM     39  C   UNL A   1      37.879  33.079  32.714  1.00  0.00     0.049 A 
ATOM     40  N   UNL A   1      39.184  30.768  31.278  1.00  0.00    -0.248 NA
ATOM     41  C   UNL A   1      37.741  31.140  29.481  1.00  0.00     0.031 C 
ATOM     42  C   UNL A   1      37.239  34.151  33.477  1.00  0.00     0.029 A 
ATOM     43  N   UNL A   1      38.875  32.629  33.543  1.00  0.00    -0.354 N 
ATOM     44  C   UNL A   1      39.420  29.820  30.291  1.00  0.00     0.074 A 
ATOM     45  C   UNL A   1      38.461  30.056  29.235  1.00  0.00     0.031 C 
ATOM     46  C   UNL A   1      37.870  34.290  34.654  1.00  0.00     0.029 A 
ATOM     47  C   UNL A   1      38.931  33.293  34.744  1.00  0.00     0.049 A 
ATOM     48  H   UNL A   1      39.492  31.901  33.301  1.00  0.00     0.167 HD
ATOM     49  C   UNL A   1      40.370  28.854  30.260  1.00  0.00     0.037 A 
ATOM     50  C   UNL A   1      39.744  33.110  35.803  1.00  0.00     0.037 A 
ATOM     51  C   UNL A   1      41.345  28.650  31.298  1.00  0.00     0.049 A 
ATOM     52  C   UNL A   1      40.798  32.038  35.736  1.00  0.00     0.074 A 
ATOM     53  C   UNL A   1      42.392  27.746  31.334  1.00  0.00     0.029 A 
ATOM     54  N   UNL A   1      41.391  29.364  32.487  1.00  0.00    -0.354 N 
ATOM     55  N   UNL A   1      41.058  31.191  34.769  1.00  0.00    -0.248 NA
ATOM     56  C   UNL A   1      41.677  31.903  36.905  1.00  0.00     0.031 C 
ATOM     57  C   UNL A   1      43.047  27.885  32.562  1.00  0.00     0.029 A 
ATOM     58  C   UNL A   1      42.437  28.907  33.272  1.00  0.00     0.049 A 
ATOM     59  H   UNL A   1      40.772  30.087  32.736  1.00  0.00     0.167 HD
ATOM     60  C   UNL A   1      42.143  30.442  35.200  1.00  0.00     0.074 A 
ATOM     61  C   UNL A   1      42.504  30.944  36.510  1.00  0.00     0.031 C 
ATOM     62  C   UNL A   1      42.784  29.428  34.570  1.00  0.00     0.037 A 
BRANCH  49  63
ATOM     63  C   UNL A   1      40.403  27.950  29.063  1.00  0.00     0.064 A 
ATOM     64  C   UNL A   1      39.644  26.770  29.010  1.00  0.00     0.173 A 
ATOM     65  C   UNL A   1      41.175  28.283  27.940  1.00  0.00     0.173 A 
ATOM     66  F   UNL A   1      38.898  26.399  30.061  1.00  0.00    -0.203 F 
ATOM     67  C   UNL A   1      39.680  25.944  27.889  1.00  0.00     0.198 A 
ATOM     68  C   UNL A   1      41.186  27.471  26.810  1.00  0.00     0.198 A 
ATOM     69  F   UNL A   1      41.916  29.402  27.936  1.00  0.00    -0.203 F 
ATOM     70  F   UNL A   1      38.986  24.797  27.881  1.00  0.00    -0.200 F 
ATOM     71  C   UNL A   1      40.445  26.299  26.787  1.00  0.00     0.200 A 
ATOM     72  F   UNL A   1      41.915  27.821  25.741  1.00  0.00    -0.200 F 
ATOM     73  F   UNL A   1      40.473  25.506  25.707  1.00  0.00    -0.200 F 
ENDBRANCH  49  63
BRANCH  50  74
ATOM     74  C   UNL A   1      39.608  33.976  37.001  1.00  0.00     0.064 A 
ATOM     75  C   UNL A   1      40.247  35.222  37.064  1.00  0.00     0.173 A 
ATOM     76  C   UNL A   1      38.836  33.583  38.104  1.00  0.00     0.173 A 
ATOM     77  F   UNL A   1      41.011  35.634  36.040  1.00  0.00    -0.203 F 
ATOM     78  C   UNL A   1      40.138  36.032  38.192  1.00  0.00     0.198 A 
ATOM     79  C   UNL A   1      38.705  34.405  39.221  1.00  0.00     0.198 A 
ATOM     80  F   UNL A   1      38.198  32.403  38.092  1.00  0.00    -0.203 F 
ATOM     81  F   UNL A   1      40.795  37.198  38.242  1.00  0.00    -0.200 F 
ATOM     82  C   UNL A   1      39.363  35.626  39.267  1.00  0.00     0.200 A 
ATOM     83  F   UNL A   1      37.942  34.016  40.251  1.00  0.00    -0.200 F 
ATOM     84  F   UNL A   1      39.253  36.407  40.350  1.00  0.00    -0.200 F 
ENDBRANCH  50  74
BRANCH  62  85
ATOM     85  C   UNL A   1      43.960  28.818  35.272  1.00  0.00     0.064 A 
ATOM     86  C   UNL A   1      43.813  27.724  36.138  1.00  0.00     0.173 A 
ATOM     87  C   UNL A   1      45.256  29.306  35.041  1.00  0.00     0.173 A 
ATOM     88  F   UNL A   1      42.594  27.231  36.402  1.00  0.00    -0.203 F 
ATOM     89  C   UNL A   1      44.918  27.157  36.765  1.00  0.00     0.198 A 
ATOM     90  C   UNL A   1      46.361  28.718  35.648  1.00  0.00     0.198 A 
ATOM     91  F   UNL A   1      45.448  30.345  34.217  1.00  0.00    -0.203 F 
ATOM     92  F   UNL A   1      44.751  26.142  37.624  1.00  0.00    -0.200 F 
ATOM     93  C   UNL A   1      46.191  27.648  36.515  1.00  0.00     0.200 A 
ATOM     94  F   UNL A   1      47.591  29.185  35.395  1.00  0.00    -0.200 F 
ATOM     95  F   UNL A   1      47.254  27.096  37.115  1.00  0.00    -0.200 F 
ENDBRANCH  62  85
ENDBRANCH  36  37
ENDBRANCH  28  31
ENDBRANCH  26  27
ENDBRANCH  25  26
ENDBRANCH  24  25
ENDBRANCH   3  24
TORSDOF 15
ENDMDL
MODEL 3
REMARK VINA RESULT:     -12.0      5.492     10.698
REMARK SMILES COc1ccccc1CC(=O)NC[C@H]1CC[C@H](C(=O)NCCCNC(=O)c2ccc(-c3c4nc(c(-c5c(F)c(F)c(F)c(F)c5F)c5ccc([nH]5)c(-c5c(F)c(F)c(F)c(F)c5F)c5nc(c(-c6c(F)c(F)c(F)c(F)c6F)c6ccc3[nH]6)C=C5)C=C4)cc2)O1
REMARK SMILES IDX 18 1 19 2 20 3 17 5 14 6 15 7 90 8 16 9 13 10 12 11 10 12
REMARK SMILES IDX 11 13 9 15 8 16 3 17 4 18 5 19 7 20 6 21 2 22 1 23 21 24
REMARK SMILES IDX 22 25 23 26 24 27 25 28 26 30 27 31 28 32 89 33 29 34 88 35
REMARK SMILES IDX 30 36 31 37 32 38 82 39 33 40 87 41 81 42 83 43 34 44 86 45
REMARK SMILES IDX 80 46 79 47 35 49 67 50 47 51 66 52 48 53 51 54 65 55 84 56
REMARK SMILES IDX 49 57 50 58 64 60 85 61 52 62 36 63 37 64 45 65 38 66 39 67
REMARK SMILES IDX 43 68 46 69 40 70 41 71 44 72 42 73 68 74 69 75 77 76 70 77
REMARK SMILES IDX 71 78 75 79 78 80 72 81 73 82 76 83 74 84 53 85 54 86 62 87
REMARK SMILES IDX 55 88 56 89 60 90 63 91 57 92 58 93 61 94 59 95
REMARK H PARENT 20 4 12 14 24 29 83 48 51 59
REMARK Flexibility Score: inf
ROOT
ATOM      1  C   UNL A   1      36.467  22.479  25.653  1.00  0.00     0.249 C 
ATOM      2  O   UNL A   1      36.976  23.514  26.100  1.00  0.00    -0.272 OA
ATOM      3  N   UNL A   1      37.317  21.484  25.270  1.00  0.00    -0.354 N 
ATOM      4  H   UNL A   1      38.273  21.672  25.419  1.00  0.00     0.163 HD
ENDROOT
BRANCH   1   5
ATOM      5  C   UNL A   1      34.940  22.363  25.473  1.00  0.00     0.207 C 
ATOM      6  C   UNL A   1      33.109  23.780  25.849  1.00  0.00     0.138 C 
ATOM      7  C   UNL A   1      33.222  22.885  27.069  1.00  0.00     0.037 C 
ATOM      8  O   UNL A   1      34.278  23.553  25.063  1.00  0.00    -0.363 OA
ATOM      9  C   UNL A   1      34.232  21.828  26.703  1.00  0.00     0.045 C 
BRANCH   6  10
ATOM     10  C   UNL A   1      31.853  23.574  24.984  1.00  0.00     0.147 C 
BRANCH  10  11
ATOM     11  N   UNL A   1      30.655  23.895  25.758  1.00  0.00    -0.353 N 
ATOM     12  C   UNL A   1      30.067  25.099  26.009  1.00  0.00     0.224 C 
ATOM     13  O   UNL A   1      29.190  25.144  26.876  1.00  0.00    -0.275 OA
ATOM     14  H   UNL A   1      30.201  23.120  26.162  1.00  0.00     0.163 HD
BRANCH  12  15
ATOM     15  C   UNL A   1      30.414  26.314  25.177  1.00  0.00     0.139 C 
BRANCH  15  16
ATOM     16  C   UNL A   1      31.567  27.144  25.683  1.00  0.00     0.003 A 
ATOM     17  C   UNL A   1      32.776  27.350  24.997  1.00  0.00     0.122 A 
ATOM     18  C   UNL A   1      33.797  28.105  25.599  1.00  0.00     0.047 A 
ATOM     19  C   UNL A   1      33.638  28.660  26.868  1.00  0.00     0.004 A 
ATOM     20  C   UNL A   1      31.416  27.741  26.956  1.00  0.00     0.008 A 
ATOM     21  C   UNL A   1      32.443  28.478  27.548  1.00  0.00     0.001 A 
BRANCH  17  22
ATOM     22  O   UNL A   1      33.179  26.741  23.838  1.00  0.00    -0.496 OA
ATOM     23  C   UNL A   1      33.372  27.552  22.690  1.00  0.00     0.278 C 
ENDBRANCH  17  22
ENDBRANCH  15  16
ENDBRANCH  12  15
ENDBRANCH  10  11
ENDBRANCH   6  10
ENDBRANCH   1   5
BRANCH   3  24
ATOM     24  C   UNL A   1      37.034  20.194  24.675  1.00  0.00     0.117 C 
BRANCH  24  25
ATOM     25  C   UNL A   1      38.122  19.181  25.000  1.00  0.00     0.042 C 
BRANCH  25  26
ATOM     26  C   UNL A   1      39.232  19.778  25.855  1.00  0.00     0.118 C 
BRANCH  26  27
ATOM     27  N   UNL A   1      40.411  18.920  25.887  1.00  0.00    -0.352 N 
ATOM     28  C   UNL A   1      41.738  19.241  26.005  1.00  0.00     0.251 C 
ATOM     29  H   UNL A   1      40.223  17.956  25.813  1.00  0.00     0.163 HD
ATOM     30  O   UNL A   1      42.594  18.393  25.781  1.00  0.00    -0.269 OA
BRANCH  28  31
ATOM     31  C   UNL A   1      42.142  20.609  26.392  1.00  0.00     0.039 A 
ATOM     32  C   UNL A   1      42.182  20.940  27.750  1.00  0.00     0.014 A 
ATOM     33  C   UNL A   1      42.441  21.571  25.424  1.00  0.00     0.014 A 
ATOM     34  C   UNL A   1      42.573  22.223  28.136  1.00  0.00     0.010 A 
ATOM     35  C   UNL A   1      42.909  22.821  25.814  1.00  0.00     0.010 A 
ATOM     36  C   UNL A   1      42.968  23.163  27.172  1.00  0.00    -0.014 A 
BRANCH  36  37
ATOM     37  C   UNL A   1      43.425  24.520  27.559  1.00  0.00     0.031 A 
ATOM     38  C   UNL A   1      42.420  25.572  27.931  1.00  0.00     0.074 A 
ATOM     39  C   UNL A   1      44.737  24.819  27.500  1.00  0.00     0.049 A 
ATOM     40  N   UNL A   1      42.609  26.838  28.206  1.00  0.00    -0.248 NA
ATOM     41  C   UNL A   1      41.009  25.155  27.969  1.00  0.00     0.031 C 
ATOM     42  C   UNL A   1      45.799  23.894  27.104  1.00  0.00     0.029 A 
ATOM     43  N   UNL A   1      45.398  25.992  27.760  1.00  0.00    -0.354 N 
ATOM     44  C   UNL A   1      41.344  27.369  28.425  1.00  0.00     0.074 A 
ATOM     45  C   UNL A   1      40.392  26.303  28.203  1.00  0.00     0.031 C 
ATOM     46  C   UNL A   1      46.980  24.529  27.164  1.00  0.00     0.029 A 
ATOM     47  C   UNL A   1      46.755  25.913  27.566  1.00  0.00     0.049 A 
ATOM     48  H   UNL A   1      44.943  26.813  28.057  1.00  0.00     0.167 HD
ATOM     49  C   UNL A   1      41.011  28.627  28.801  1.00  0.00     0.037 A 
ATOM     50  C   UNL A   1      47.708  26.856  27.690  1.00  0.00     0.037 A 
ATOM     51  C   UNL A   1      41.968  29.671  29.057  1.00  0.00     0.049 A 
ATOM     52  C   UNL A   1      47.312  28.242  28.122  1.00  0.00     0.074 A 
ATOM     53  C   UNL A   1      41.740  30.958  29.508  1.00  0.00     0.029 A 
ATOM     54  N   UNL A   1      43.338  29.544  28.881  1.00  0.00    -0.354 N 
ATOM     55  N   UNL A   1      46.119  28.715  28.394  1.00  0.00    -0.248 NA
ATOM     56  C   UNL A   1      48.395  29.223  28.273  1.00  0.00     0.031 C 
ATOM     57  C   UNL A   1      42.969  31.624  29.567  1.00  0.00     0.029 A 
ATOM     58  C   UNL A   1      43.967  30.737  29.197  1.00  0.00     0.049 A 
ATOM     59  H   UNL A   1      43.795  28.727  28.577  1.00  0.00     0.167 HD
ATOM     60  C   UNL A   1      46.310  30.036  28.771  1.00  0.00     0.074 A 
ATOM     61  C   UNL A   1      47.735  30.287  28.709  1.00  0.00     0.031 C 
ATOM     62  C   UNL A   1      45.389  30.961  29.136  1.00  0.00     0.037 A 
BRANCH  49  63
ATOM     63  C   UNL A   1      39.552  28.940  28.965  1.00  0.00     0.064 A 
ATOM     64  C   UNL A   1      38.921  28.871  30.217  1.00  0.00     0.173 A 
ATOM     65  C   UNL A   1      38.784  29.347  27.865  1.00  0.00     0.173 A 
ATOM     66  F   UNL A   1      39.608  28.476  31.299  1.00  0.00    -0.203 F 
ATOM     67  C   UNL A   1      37.567  29.171  30.355  1.00  0.00     0.198 A 
ATOM     68  C   UNL A   1      37.438  29.674  28.011  1.00  0.00     0.198 A 
ATOM     69  F   UNL A   1      39.338  29.434  26.646  1.00  0.00    -0.203 F 
ATOM     70  F   UNL A   1      36.974  29.051  31.551  1.00  0.00    -0.200 F 
ATOM     71  C   UNL A   1      36.830  29.579  29.253  1.00  0.00     0.200 A 
ATOM     72  F   UNL A   1      36.730  30.082  26.949  1.00  0.00    -0.200 F 
ATOM     73  F   UNL A   1      35.529  29.875  29.389  1.00  0.00    -0.200 F 
ENDBRANCH  49  63
BRANCH  50  74
ATOM     74  C   UNL A   1      49.129  26.514  27.428  1.00  0.00     0.064 A 
ATOM     75  C   UNL A   1      50.020  26.280  28.484  1.00  0.00     0.173 A 
ATOM     76  C   UNL A   1      49.626  26.409  26.120  1.00  0.00     0.173 A 
ATOM     77  F   UNL A   1      49.595  26.386  29.752  1.00  0.00    -0.203 F 
ATOM     78  C   UNL A   1      51.358  25.975  28.245  1.00  0.00     0.198 A 
ATOM     79  C   UNL A   1      50.958  26.078  25.881  1.00  0.00     0.198 A 
ATOM     80  F   UNL A   1      48.814  26.616  25.073  1.00  0.00    -0.203 F 
ATOM     81  F   UNL A   1      52.197  25.800  29.274  1.00  0.00    -0.200 F 
ATOM     82  C   UNL A   1      51.825  25.869  26.943  1.00  0.00     0.200 A 
ATOM     83  F   UNL A   1      51.401  25.960  24.622  1.00  0.00    -0.200 F 
ATOM     84  F   UNL A   1      53.110  25.571  26.713  1.00  0.00    -0.200 F 
ENDBRANCH  50  74
BRANCH  62  85
ATOM     85  C   UNL A   1      45.896  32.317  29.528  1.00  0.00     0.064 A 
ATOM     86  C   UNL A   1      46.345  32.585  30.830  1.00  0.00     0.173 A 
ATOM     87  C   UNL A   1      45.972  33.348  28.579  1.00  0.00     0.173 A 
ATOM     88  F   UNL A   1      46.278  31.637  31.777  1.00  0.00    -0.203 F 
ATOM     89  C   UNL A   1      46.831  33.844  31.172  1.00  0.00     0.198 A 
ATOM     90  C   UNL A   1      46.486  34.596  28.917  1.00  0.00     0.198 A 
ATOM     91  F   UNL A   1      45.561  33.138  27.320  1.00  0.00    -0.203 F 
ATOM     92  F   UNL A   1      47.213  34.092  32.432  1.00  0.00    -0.200 F 
ATOM     93  C   UNL A   1      46.908  34.846  30.215  1.00  0.00     0.200 A 
ATOM     94  F   UNL A   1      46.572  35.558  27.989  1.00  0.00    -0.200 F 
ATOM     95  F   UNL A   1      47.383  36.054  30.545  1.00  0.00    -0.200 F 
ENDBRANCH  62  85
ENDBRANCH  36  37
ENDBRANCH  28  31
ENDBRANCH  26  27
ENDBRANCH  25  26
ENDBRANCH  24  25
ENDBRANCH   3  24
TORSDOF 15
ENDMDL
