MODEL 1
REMARK VINA RESULT:     -13.3      0.000      0.000
REMARK SMILES CCc1cccc2c3c([nH]c12)[C@](CC)(CC(=O)NCCCNC(=O)c1ccc(-c2c4nc(c(-c5c(F)c(F)c(F)c(F)c5F)c5ccc([nH]5)c(-c5c(F)c(F)c(F)c(F)c5F)c5nc(c(-c6c(F)c(F)c(F)c(F)c6F)c6ccc2[nH]6)C=C5)C=C4)cc1)OCC3
REMARK SMILES IDX 20 1 19 2 18 3 16 4 17 5 15 7 12 8 3 9 4 10 11 11 5 12 7 13
REMARK SMILES IDX 10 14 6 15 8 16 9 17 90 19 89 20 88 21 2 22 1 23 13 24 14 25
REMARK SMILES IDX 21 26 22 27 23 28 24 30 25 31 26 32 87 33 27 34 86 35 28 36
REMARK SMILES IDX 29 37 30 38 80 39 31 40 85 41 79 42 81 43 32 44 84 45 78 46
REMARK SMILES IDX 77 47 33 49 65 50 45 51 64 52 46 53 49 54 63 55 82 56 47 57
REMARK SMILES IDX 48 58 62 60 83 61 50 62 34 63 35 64 43 65 36 66 37 67 41 68
REMARK SMILES IDX 44 69 38 70 39 71 42 72 40 73 66 74 67 75 75 76 68 77 69 78
REMARK SMILES IDX 73 79 76 80 70 81 71 82 74 83 72 84 51 85 52 86 60 87 53 88
REMARK SMILES IDX 54 89 58 90 61 91 55 92 56 93 59 94 57 95
REMARK H PARENT 18 6 10 18 22 29 81 48 49 59
REMARK Flexibility Score: inf
ROOT
ATOM      1  C   UNL A   1      38.583  21.937  26.126  1.00  0.00     0.042 C 
ENDROOT
BRANCH   1   2
ATOM      2  C   UNL A   1      37.813  23.213  25.725  1.00  0.00     0.117 C 
BRANCH   2   3
ATOM      3  N   UNL A   1      37.403  23.288  24.324  1.00  0.00    -0.356 N 
ATOM      4  C   UNL A   1      36.338  22.774  23.635  1.00  0.00     0.223 C 
ATOM      5  O   UNL A   1      36.315  22.953  22.416  1.00  0.00    -0.275 OA
ATOM      6  H   UNL A   1      38.017  23.814  23.762  1.00  0.00     0.163 HD
BRANCH   4   7
ATOM      7  C   UNL A   1      35.200  22.078  24.348  1.00  0.00     0.142 C 
BRANCH   7   8
ATOM      8  C   UNL A   1      33.850  22.810  24.557  1.00  0.00     0.117 C 
ATOM      9  C   UNL A   1      33.784  27.833  25.385  1.00  0.00    -0.024 A 
ATOM     10  C   UNL A   1      33.518  28.913  24.502  1.00  0.00     0.006 A 
ATOM     11  C   UNL A   1      33.859  26.554  24.786  1.00  0.00     0.049 A 
ATOM     12  C   UNL A   1      33.312  28.745  23.137  1.00  0.00     0.001 A 
ATOM     13  C   UNL A   1      33.578  26.369  23.428  1.00  0.00     0.003 A 
ATOM     14  N   UNL A   1      34.143  25.291  25.291  1.00  0.00    -0.356 N 
ATOM     15  C   UNL A   1      33.319  27.469  22.594  1.00  0.00     0.010 A 
ATOM     16  C   UNL A   1      33.490  24.979  23.217  1.00  0.00    -0.014 A 
ATOM     17  C   UNL A   1      33.890  24.314  24.354  1.00  0.00     0.052 A 
ATOM     18  H   UNL A   1      34.481  25.117  26.200  1.00  0.00     0.166 HD
ATOM     19  C   UNL A   1      32.900  24.290  22.064  1.00  0.00     0.066 C 
ATOM     20  C   UNL A   1      32.827  22.795  22.324  1.00  0.00     0.166 C 
ATOM     21  O   UNL A   1      32.799  22.330  23.681  1.00  0.00    -0.368 OA
BRANCH   9  22
ATOM     22  C   UNL A   1      33.885  28.195  26.852  1.00  0.00     0.034 C 
ATOM     23  C   UNL A   1      34.806  29.332  27.252  1.00  0.00     0.009 C 
ENDBRANCH   9  22
BRANCH   8  24
ATOM     24  C   UNL A   1      33.336  22.493  26.002  1.00  0.00     0.039 C 
ATOM     25  C   UNL A   1      34.394  21.985  26.984  1.00  0.00     0.007 C 
ENDBRANCH   8  24
ENDBRANCH   7   8
ENDBRANCH   4   7
ENDBRANCH   2   3
ENDBRANCH   1   2
BRANCH   1  26
ATOM     26  C   UNL A   1      39.937  22.145  26.812  1.00  0.00     0.118 C 
BRANCH  26  27
ATOM     27  N   UNL A   1      41.057  22.356  25.931  1.00  0.00    -0.352 N 
ATOM     28  C   UNL A   1      41.999  23.339  25.840  1.00  0.00     0.251 C 
ATOM     29  H   UNL A   1      41.164  21.646  25.257  1.00  0.00     0.163 HD
ATOM     30  O   UNL A   1      42.932  23.148  25.053  1.00  0.00    -0.269 OA
BRANCH  28  31
ATOM     31  C   UNL A   1      41.920  24.639  26.549  1.00  0.00     0.039 A 
ATOM     32  C   UNL A   1      42.585  24.974  27.731  1.00  0.00     0.014 A 
ATOM     33  C   UNL A   1      41.111  25.605  25.929  1.00  0.00     0.014 A 
ATOM     34  C   UNL A   1      42.348  26.204  28.339  1.00  0.00     0.010 A 
ATOM     35  C   UNL A   1      40.905  26.848  26.509  1.00  0.00     0.010 A 
ATOM     36  C   UNL A   1      41.484  27.129  27.743  1.00  0.00    -0.014 A 
BRANCH  36  37
ATOM     37  C   UNL A   1      41.318  28.439  28.372  1.00  0.00     0.031 A 
ATOM     38  C   UNL A   1      42.409  29.413  28.078  1.00  0.00     0.074 A 
ATOM     39  C   UNL A   1      40.215  28.805  29.057  1.00  0.00     0.049 A 
ATOM     40  N   UNL A   1      43.208  29.995  28.913  1.00  0.00    -0.248 NA
ATOM     41  C   UNL A   1      42.713  29.699  26.666  1.00  0.00     0.031 C 
ATOM     42  C   UNL A   1      38.957  28.066  29.199  1.00  0.00     0.029 A 
ATOM     43  N   UNL A   1      39.954  29.976  29.708  1.00  0.00    -0.354 N 
ATOM     44  C   UNL A   1      44.007  30.849  28.155  1.00  0.00     0.074 A 
ATOM     45  C   UNL A   1      43.751  30.530  26.776  1.00  0.00     0.031 C 
ATOM     46  C   UNL A   1      38.006  28.886  29.699  1.00  0.00     0.029 A 
ATOM     47  C   UNL A   1      38.619  30.155  30.052  1.00  0.00     0.049 A 
ATOM     48  H   UNL A   1      40.652  30.639  29.916  1.00  0.00     0.167 HD
ATOM     49  C   UNL A   1      44.654  31.902  28.726  1.00  0.00     0.037 A 
ATOM     50  C   UNL A   1      38.050  31.276  30.561  1.00  0.00     0.037 A 
ATOM     51  C   UNL A   1      44.784  31.722  30.147  1.00  0.00     0.049 A 
ATOM     52  C   UNL A   1      39.134  32.086  31.159  1.00  0.00     0.074 A 
ATOM     53  C   UNL A   1      45.435  30.826  30.971  1.00  0.00     0.029 A 
ATOM     54  N   UNL A   1      43.888  32.384  30.945  1.00  0.00    -0.354 N 
ATOM     55  N   UNL A   1      39.806  31.739  32.221  1.00  0.00    -0.248 NA
ATOM     56  C   UNL A   1      39.741  33.125  30.344  1.00  0.00     0.031 C 
ATOM     57  C   UNL A   1      44.591  30.686  32.111  1.00  0.00     0.029 A 
ATOM     58  C   UNL A   1      43.496  31.536  31.942  1.00  0.00     0.049 A 
ATOM     59  H   UNL A   1      43.579  33.311  30.820  1.00  0.00     0.167 HD
ATOM     60  C   UNL A   1      41.093  32.188  31.978  1.00  0.00     0.074 A 
ATOM     61  C   UNL A   1      40.963  33.138  30.878  1.00  0.00     0.031 C 
ATOM     62  C   UNL A   1      42.166  31.531  32.505  1.00  0.00     0.037 A 
BRANCH  49  63
ATOM     63  C   UNL A   1      44.799  33.267  28.084  1.00  0.00     0.064 A 
ATOM     64  C   UNL A   1      46.092  33.753  27.791  1.00  0.00     0.173 A 
ATOM     65  C   UNL A   1      43.771  34.234  28.056  1.00  0.00     0.173 A 
ATOM     66  F   UNL A   1      47.152  32.929  27.801  1.00  0.00    -0.203 F 
ATOM     67  C   UNL A   1      46.345  35.113  27.587  1.00  0.00     0.198 A 
ATOM     68  C   UNL A   1      44.021  35.583  27.801  1.00  0.00     0.198 A 
ATOM     69  F   UNL A   1      42.508  33.944  28.383  1.00  0.00    -0.203 F 
ATOM     70  F   UNL A   1      47.607  35.542  27.454  1.00  0.00    -0.200 F 
ATOM     71  C   UNL A   1      45.310  36.028  27.603  1.00  0.00     0.200 A 
ATOM     72  F   UNL A   1      43.006  36.458  27.840  1.00  0.00    -0.200 F 
ATOM     73  F   UNL A   1      45.557  37.339  27.480  1.00  0.00    -0.200 F 
ENDBRANCH  49  63
BRANCH  50  74
ATOM     74  C   UNL A   1      36.696  31.830  30.321  1.00  0.00     0.064 A 
ATOM     75  C   UNL A   1      35.863  32.202  31.391  1.00  0.00     0.173 A 
ATOM     76  C   UNL A   1      36.311  32.283  29.046  1.00  0.00     0.173 A 
ATOM     77  F   UNL A   1      36.178  31.850  32.646  1.00  0.00    -0.203 F 
ATOM     78  C   UNL A   1      34.735  33.007  31.200  1.00  0.00     0.198 A 
ATOM     79  C   UNL A   1      35.183  33.083  28.854  1.00  0.00     0.198 A 
ATOM     80  F   UNL A   1      37.079  32.045  27.973  1.00  0.00    -0.203 F 
ATOM     81  F   UNL A   1      34.005  33.401  32.254  1.00  0.00    -0.200 F 
ATOM     82  C   UNL A   1      34.403  33.458  29.933  1.00  0.00     0.200 A 
ATOM     83  F   UNL A   1      34.895  33.543  27.629  1.00  0.00    -0.200 F 
ATOM     84  F   UNL A   1      33.364  34.285  29.757  1.00  0.00    -0.200 F 
ENDBRANCH  50  74
BRANCH  62  85
ATOM     85  C   UNL A   1      41.912  30.540  33.604  1.00  0.00     0.064 A 
ATOM     86  C   UNL A   1      41.602  29.186  33.387  1.00  0.00     0.173 A 
ATOM     87  C   UNL A   1      42.166  30.944  34.922  1.00  0.00     0.173 A 
ATOM     88  F   UNL A   1      41.427  28.706  32.150  1.00  0.00    -0.203 F 
ATOM     89  C   UNL A   1      41.532  28.285  34.449  1.00  0.00     0.198 A 
ATOM     90  C   UNL A   1      42.132  30.035  35.973  1.00  0.00     0.198 A 
ATOM     91  F   UNL A   1      42.513  32.215  35.179  1.00  0.00    -0.203 F 
ATOM     92  F   UNL A   1      41.239  26.997  34.219  1.00  0.00    -0.200 F 
ATOM     93  C   UNL A   1      41.812  28.707  35.738  1.00  0.00     0.200 A 
ATOM     94  F   UNL A   1      42.449  30.438  37.212  1.00  0.00    -0.200 F 
ATOM     95  F   UNL A   1      41.803  27.829  36.751  1.00  0.00    -0.200 F 
ENDBRANCH  62  85
ENDBRANCH  36  37
ENDBRANCH  28  31
ENDBRANCH  26  27
ENDBRANCH   1  26
TORSDOF 13
ENDMDL
MODEL 2
REMARK VINA RESULT:     -13.1      3.651      8.926
REMARK SMILES CCc1cccc2c3c([nH]c12)[C@](CC)(CC(=O)NCCCNC(=O)c1ccc(-c2c4nc(c(-c5c(F)c(F)c(F)c(F)c5F)c5ccc([nH]5)c(-c5c(F)c(F)c(F)c(F)c5F)c5nc(c(-c6c(F)c(F)c(F)c(F)c6F)c6ccc2[nH]6)C=C5)C=C4)cc1)OCC3
REMARK SMILES IDX 20 1 19 2 18 3 16 4 17 5 15 7 12 8 3 9 4 10 11 11 5 12 7 13
REMARK SMILES IDX 10 14 6 15 8 16 9 17 90 19 89 20 88 21 2 22 1 23 13 24 14 25
REMARK SMILES IDX 21 26 22 27 23 28 24 30 25 31 26 32 87 33 27 34 86 35 28 36
REMARK SMILES IDX 29 37 30 38 80 39 31 40 85 41 79 42 81 43 32 44 84 45 78 46
REMARK SMILES IDX 77 47 33 49 65 50 45 51 64 52 46 53 49 54 63 55 82 56 47 57
REMARK SMILES IDX 48 58 62 60 83 61 50 62 34 63 35 64 43 65 36 66 37 67 41 68
REMARK SMILES IDX 44 69 38 70 39 71 42 72 40 73 66 74 67 75 75 76 68 77 69 78
REMARK SMILES IDX 73 79 76 80 70 81 71 82 74 83 72 84 51 85 52 86 60 87 53 88
REMARK SMILES IDX 54 89 58 90 61 91 55 92 56 93 59 94 57 95
REMARK H PARENT 18 6 10 18 22 29 81 48 49 59
REMARK Flexibility Score: inf
ROOT
ATOM      1  C   UNL A   1      33.959  31.157  27.342  1.00  0.00     0.042 C 
ENDROOT
BRANCH   1   2
ATOM      2  C   UNL A   1      34.234  29.639  27.333  1.00  0.00     0.117 C 
BRANCH   2   3
ATOM      3  N   UNL A   1      33.161  28.800  27.862  1.00  0.00    -0.356 N 
ATOM      4  C   UNL A   1      32.022  28.281  27.306  1.00  0.00     0.223 C 
ATOM      5  O   UNL A   1      31.261  27.664  28.053  1.00  0.00    -0.275 OA
ATOM      6  H   UNL A   1      33.279  28.560  28.809  1.00  0.00     0.163 HD
BRANCH   4   7
ATOM      7  C   UNL A   1      31.744  28.399  25.824  1.00  0.00     0.142 C 
BRANCH   7   8
ATOM      8  C   UNL A   1      31.870  27.155  24.908  1.00  0.00     0.117 C 
ATOM      9  C   UNL A   1      35.289  23.540  25.988  1.00  0.00    -0.024 A 
ATOM     10  C   UNL A   1      35.134  22.281  26.625  1.00  0.00     0.006 A 
ATOM     11  C   UNL A   1      34.142  24.367  25.976  1.00  0.00     0.049 A 
ATOM     12  C   UNL A   1      33.934  21.853  27.182  1.00  0.00     0.001 A 
ATOM     13  C   UNL A   1      32.913  23.915  26.466  1.00  0.00     0.003 A 
ATOM     14  N   UNL A   1      33.913  25.656  25.507  1.00  0.00    -0.356 N 
ATOM     15  C   UNL A   1      32.808  22.659  27.087  1.00  0.00     0.010 A 
ATOM     16  C   UNL A   1      31.945  24.861  26.076  1.00  0.00    -0.014 A 
ATOM     17  C   UNL A   1      32.570  25.960  25.531  1.00  0.00     0.052 A 
ATOM     18  H   UNL A   1      34.618  26.271  25.199  1.00  0.00     0.166 HD
ATOM     19  C   UNL A   1      30.489  24.688  26.056  1.00  0.00     0.066 C 
ATOM     20  C   UNL A   1      29.826  25.876  25.379  1.00  0.00     0.166 C 
ATOM     21  O   UNL A   1      30.590  26.654  24.446  1.00  0.00    -0.368 OA
BRANCH   9  22
ATOM     22  C   UNL A   1      36.642  23.793  25.355  1.00  0.00     0.034 C 
ATOM     23  C   UNL A   1      37.841  23.969  26.265  1.00  0.00     0.009 C 
ENDBRANCH   9  22
BRANCH   8  24
ATOM     24  C   UNL A   1      32.624  27.578  23.602  1.00  0.00     0.039 C 
ATOM     25  C   UNL A   1      33.495  28.831  23.718  1.00  0.00     0.007 C 
ENDBRANCH   8  24
ENDBRANCH   7   8
ENDBRANCH   4   7
ENDBRANCH   2   3
ENDBRANCH   1   2
BRANCH   1  26
ATOM     26  C   UNL A   1      34.932  32.021  28.151  1.00  0.00     0.118 C 
BRANCH  26  27
ATOM     27  N   UNL A   1      34.670  32.100  29.564  1.00  0.00    -0.352 N 
ATOM     28  C   UNL A   1      35.420  31.820  30.669  1.00  0.00     0.251 C 
ATOM     29  H   UNL A   1      33.764  32.423  29.777  1.00  0.00     0.163 HD
ATOM     30  O   UNL A   1      34.946  32.141  31.764  1.00  0.00    -0.269 OA
BRANCH  28  31
ATOM     31  C   UNL A   1      36.706  31.082  30.640  1.00  0.00     0.039 A 
ATOM     32  C   UNL A   1      37.981  31.648  30.701  1.00  0.00     0.014 A 
ATOM     33  C   UNL A   1      36.587  29.685  30.567  1.00  0.00     0.014 A 
ATOM     34  C   UNL A   1      39.110  30.841  30.571  1.00  0.00     0.010 A 
ATOM     35  C   UNL A   1      37.709  28.873  30.480  1.00  0.00     0.010 A 
ATOM     36  C   UNL A   1      38.971  29.456  30.429  1.00  0.00    -0.014 A 
BRANCH  36  37
ATOM     37  C   UNL A   1      40.179  28.634  30.371  1.00  0.00     0.031 A 
ATOM     38  C   UNL A   1      40.878  28.460  31.677  1.00  0.00     0.074 A 
ATOM     39  C   UNL A   1      40.578  27.969  29.267  1.00  0.00     0.049 A 
ATOM     40  N   UNL A   1      42.084  28.806  31.991  1.00  0.00    -0.248 NA
ATOM     41  C   UNL A   1      40.100  27.922  32.806  1.00  0.00     0.031 C 
ATOM     42  C   UNL A   1      39.859  27.819  27.997  1.00  0.00     0.029 A 
ATOM     43  N   UNL A   1      41.690  27.200  29.078  1.00  0.00    -0.354 N 
ATOM     44  C   UNL A   1      42.280  28.381  33.304  1.00  0.00     0.074 A 
ATOM     45  C   UNL A   1      40.994  27.966  33.796  1.00  0.00     0.031 C 
ATOM     46  C   UNL A   1      40.442  26.847  27.261  1.00  0.00     0.029 A 
ATOM     47  C   UNL A   1      41.653  26.412  27.934  1.00  0.00     0.049 A 
ATOM     48  H   UNL A   1      42.452  27.202  29.701  1.00  0.00     0.167 HD
ATOM     49  C   UNL A   1      43.533  28.201  33.807  1.00  0.00     0.037 A 
ATOM     50  C   UNL A   1      42.538  25.447  27.578  1.00  0.00     0.037 A 
ATOM     51  C   UNL A   1      44.511  28.919  33.035  1.00  0.00     0.049 A 
ATOM     52  C   UNL A   1      43.793  25.709  28.317  1.00  0.00     0.074 A 
ATOM     53  C   UNL A   1      44.770  30.247  32.764  1.00  0.00     0.029 A 
ATOM     54  N   UNL A   1      45.233  28.200  32.119  1.00  0.00    -0.354 N 
ATOM     55  N   UNL A   1      44.566  26.737  28.103  1.00  0.00    -0.248 NA
ATOM     56  C   UNL A   1      44.003  25.016  29.577  1.00  0.00     0.031 C 
ATOM     57  C   UNL A   1      45.274  30.264  31.431  1.00  0.00     0.029 A 
ATOM     58  C   UNL A   1      45.338  28.945  30.978  1.00  0.00     0.049 A 
ATOM     59  H   UNL A   1      45.610  27.301  32.259  1.00  0.00     0.167 HD
ATOM     60  C   UNL A   1      45.043  27.077  29.358  1.00  0.00     0.074 A 
ATOM     61  C   UNL A   1      44.769  25.915  30.198  1.00  0.00     0.031 C 
ATOM     62  C   UNL A   1      45.354  28.373  29.652  1.00  0.00     0.037 A 
BRANCH  49  63
ATOM     63  C   UNL A   1      43.929  27.063  34.727  1.00  0.00     0.064 A 
ATOM     64  C   UNL A   1      44.523  27.363  35.972  1.00  0.00     0.173 A 
ATOM     65  C   UNL A   1      44.059  25.722  34.306  1.00  0.00     0.173 A 
ATOM     66  F   UNL A   1      44.477  28.609  36.470  1.00  0.00    -0.203 F 
ATOM     67  C   UNL A   1      45.270  26.420  36.685  1.00  0.00     0.198 A 
ATOM     68  C   UNL A   1      44.763  24.771  35.045  1.00  0.00     0.198 A 
ATOM     69  F   UNL A   1      43.615  25.300  33.117  1.00  0.00    -0.203 F 
ATOM     70  F   UNL A   1      45.932  26.793  37.789  1.00  0.00    -0.200 F 
ATOM     71  C   UNL A   1      45.398  25.128  36.215  1.00  0.00     0.200 A 
ATOM     72  F   UNL A   1      44.891  23.527  34.562  1.00  0.00    -0.200 F 
ATOM     73  F   UNL A   1      46.171  24.242  36.856  1.00  0.00    -0.200 F 
ENDBRANCH  49  63
BRANCH  50  74
ATOM     74  C   UNL A   1      42.293  24.165  26.874  1.00  0.00     0.064 A 
ATOM     75  C   UNL A   1      43.170  23.706  25.875  1.00  0.00     0.173 A 
ATOM     76  C   UNL A   1      41.371  23.227  27.373  1.00  0.00     0.173 A 
ATOM     77  F   UNL A   1      44.111  24.521  25.376  1.00  0.00    -0.203 F 
ATOM     78  C   UNL A   1      43.146  22.380  25.428  1.00  0.00     0.198 A 
ATOM     79  C   UNL A   1      41.343  21.906  26.923  1.00  0.00     0.198 A 
ATOM     80  F   UNL A   1      40.543  23.547  28.379  1.00  0.00    -0.203 F 
ATOM     81  F   UNL A   1      44.044  21.961  24.525  1.00  0.00    -0.200 F 
ATOM     82  C   UNL A   1      42.241  21.478  25.962  1.00  0.00     0.200 A 
ATOM     83  F   UNL A   1      40.489  21.033  27.475  1.00  0.00    -0.200 F 
ATOM     84  F   UNL A   1      42.262  20.192  25.586  1.00  0.00    -0.200 F 
ENDBRANCH  50  74
BRANCH  62  85
ATOM     85  C   UNL A   1      45.488  29.339  28.511  1.00  0.00     0.064 A 
ATOM     86  C   UNL A   1      44.418  30.071  27.970  1.00  0.00     0.173 A 
ATOM     87  C   UNL A   1      46.781  29.659  28.073  1.00  0.00     0.173 A 
ATOM     88  F   UNL A   1      43.164  29.882  28.397  1.00  0.00    -0.203 F 
ATOM     89  C   UNL A   1      44.636  31.066  27.017  1.00  0.00     0.198 A 
ATOM     90  C   UNL A   1      46.997  30.677  27.151  1.00  0.00     0.198 A 
ATOM     91  F   UNL A   1      47.842  29.022  28.592  1.00  0.00    -0.203 F 
ATOM     92  F   UNL A   1      43.600  31.756  26.517  1.00  0.00    -0.200 F 
ATOM     93  C   UNL A   1      45.926  31.377  26.620  1.00  0.00     0.200 A 
ATOM     94  F   UNL A   1      48.250  31.005  26.804  1.00  0.00    -0.200 F 
ATOM     95  F   UNL A   1      46.141  32.374  25.749  1.00  0.00    -0.200 F 
ENDBRANCH  62  85
ENDBRANCH  36  37
ENDBRANCH  28  31
ENDBRANCH  26  27
ENDBRANCH   1  26
TORSDOF 13
ENDMDL
MODEL 3
REMARK VINA RESULT:     -12.6      1.206      1.912
REMARK SMILES CCc1cccc2c3c([nH]c12)[C@](CC)(CC(=O)NCCCNC(=O)c1ccc(-c2c4nc(c(-c5c(F)c(F)c(F)c(F)c5F)c5ccc([nH]5)c(-c5c(F)c(F)c(F)c(F)c5F)c5nc(c(-c6c(F)c(F)c(F)c(F)c6F)c6ccc2[nH]6)C=C5)C=C4)cc1)OCC3
REMARK SMILES IDX 20 1 19 2 18 3 16 4 17 5 15 7 12 8 3 9 4 10 11 11 5 12 7 13
REMARK SMILES IDX 10 14 6 15 8 16 9 17 90 19 89 20 88 21 2 22 1 23 13 24 14 25
REMARK SMILES IDX 21 26 22 27 23 28 24 30 25 31 26 32 87 33 27 34 86 35 28 36
REMARK SMILES IDX 29 37 30 38 80 39 31 40 85 41 79 42 81 43 32 44 84 45 78 46
REMARK SMILES IDX 77 47 33 49 65 50 45 51 64 52 46 53 49 54 63 55 82 56 47 57
REMARK SMILES IDX 48 58 62 60 83 61 50 62 34 63 35 64 43 65 36 66 37 67 41 68
REMARK SMILES IDX 44 69 38 70 39 71 42 72 40 73 66 74 67 75 75 76 68 77 69 78
REMARK SMILES IDX 73 79 76 80 70 81 71 82 74 83 72 84 51 85 52 86 60 87 53 88
REMARK SMILES IDX 54 89 58 90 61 91 55 92 56 93 59 94 57 95
REMARK H PARENT 18 6 10 18 22 29 81 48 49 59
REMARK Flexibility Score: inf
ROOT
ATOM      1  C   UNL A   1      37.565  21.376  24.822  1.00  0.00     0.042 C 
ENDROOT
BRANCH   1   2
ATOM      2  C   UNL A   1      36.232  20.806  25.351  1.00  0.00     0.117 C 
BRANCH   2   3
ATOM      3  N   UNL A   1      35.662  21.501  26.502  1.00  0.00    -0.356 N 
ATOM      4  C   UNL A   1      34.404  21.959  26.786  1.00  0.00     0.223 C 
ATOM      5  O   UNL A   1      34.256  22.590  27.835  1.00  0.00    -0.275 OA
ATOM      6  H   UNL A   1      36.314  21.675  27.220  1.00  0.00     0.163 HD
BRANCH   4   7
ATOM      7  C   UNL A   1      33.229  21.646  25.887  1.00  0.00     0.142 C 
BRANCH   7   8
ATOM      8  C   UNL A   1      32.172  22.736  25.580  1.00  0.00     0.117 C 
ATOM      9  C   UNL A   1      33.480  27.655  25.715  1.00  0.00    -0.024 A 
ATOM     10  C   UNL A   1      33.802  28.556  24.665  1.00  0.00     0.006 A 
ATOM     11  C   UNL A   1      33.299  26.306  25.331  1.00  0.00     0.049 A 
ATOM     12  C   UNL A   1      33.907  28.166  23.335  1.00  0.00     0.001 A 
ATOM     13  C   UNL A   1      33.330  25.920  23.988  1.00  0.00     0.003 A 
ATOM     14  N   UNL A   1      33.033  25.147  26.053  1.00  0.00    -0.356 N 
ATOM     15  C   UNL A   1      33.651  26.849  22.983  1.00  0.00     0.010 A 
ATOM     16  C   UNL A   1      32.866  24.591  23.934  1.00  0.00    -0.014 A 
ATOM     17  C   UNL A   1      32.733  24.098  25.213  1.00  0.00     0.052 A 
ATOM     18  H   UNL A   1      33.056  25.085  27.036  1.00  0.00     0.166 HD
ATOM     19  C   UNL A   1      32.403  23.857  22.752  1.00  0.00     0.066 C 
ATOM     20  C   UNL A   1      31.800  22.524  23.161  1.00  0.00     0.166 C 
ATOM     21  O   UNL A   1      31.282  22.380  24.492  1.00  0.00    -0.368 OA
BRANCH   9  22
ATOM     22  C   UNL A   1      33.313  28.277  27.085  1.00  0.00     0.034 C 
ATOM     23  C   UNL A   1      31.909  28.451  27.631  1.00  0.00     0.009 C 
ENDBRANCH   9  22
BRANCH   8  24
ATOM     24  C   UNL A   1      31.234  22.878  26.827  1.00  0.00     0.039 C 
ATOM     25  C   UNL A   1      29.883  23.548  26.564  1.00  0.00     0.007 C 
ENDBRANCH   8  24
ENDBRANCH   7   8
ENDBRANCH   4   7
ENDBRANCH   2   3
ENDBRANCH   1   2
BRANCH   1  26
ATOM     26  C   UNL A   1      38.330  22.310  25.766  1.00  0.00     0.118 C 
BRANCH  26  27
ATOM     27  N   UNL A   1      39.734  22.030  25.919  1.00  0.00    -0.352 N 
ATOM     28  C   UNL A   1      40.756  22.697  26.528  1.00  0.00     0.251 C 
ATOM     29  H   UNL A   1      40.014  21.186  25.497  1.00  0.00     0.163 HD
ATOM     30  O   UNL A   1      41.839  22.108  26.610  1.00  0.00    -0.269 OA
BRANCH  28  31
ATOM     31  C   UNL A   1      40.671  24.099  27.006  1.00  0.00     0.039 A 
ATOM     32  C   UNL A   1      39.840  25.095  26.489  1.00  0.00     0.014 A 
ATOM     33  C   UNL A   1      41.502  24.405  28.095  1.00  0.00     0.014 A 
ATOM     34  C   UNL A   1      39.929  26.398  26.975  1.00  0.00     0.010 A 
ATOM     35  C   UNL A   1      41.563  25.692  28.611  1.00  0.00     0.010 A 
ATOM     36  C   UNL A   1      40.813  26.702  28.016  1.00  0.00    -0.014 A 
BRANCH  36  37
ATOM     37  C   UNL A   1      40.825  28.063  28.550  1.00  0.00     0.031 A 
ATOM     38  C   UNL A   1      41.927  28.926  28.032  1.00  0.00     0.074 A 
ATOM     39  C   UNL A   1      39.855  28.564  29.344  1.00  0.00     0.049 A 
ATOM     40  N   UNL A   1      42.871  29.503  28.701  1.00  0.00    -0.248 NA
ATOM     41  C   UNL A   1      42.049  29.083  26.573  1.00  0.00     0.031 C 
ATOM     42  C   UNL A   1      38.583  27.937  29.714  1.00  0.00     0.029 A 
ATOM     43  N   UNL A   1      39.767  29.796  29.924  1.00  0.00    -0.354 N 
ATOM     44  C   UNL A   1      43.612  30.234  27.774  1.00  0.00     0.074 A 
ATOM     45  C   UNL A   1      43.145  29.836  26.473  1.00  0.00     0.031 C 
ATOM     46  C   UNL A   1      37.769  28.863  30.267  1.00  0.00     0.029 A 
ATOM     47  C   UNL A   1      38.509  30.102  30.428  1.00  0.00     0.049 A 
ATOM     48  H   UNL A   1      40.530  30.416  29.980  1.00  0.00     0.167 HD
ATOM     49  C   UNL A   1      44.402  31.273  28.163  1.00  0.00     0.037 A 
ATOM     50  C   UNL A   1      38.092  31.299  30.913  1.00  0.00     0.037 A 
ATOM     51  C   UNL A   1      44.717  31.188  29.564  1.00  0.00     0.049 A 
ATOM     52  C   UNL A   1      39.301  32.064  31.290  1.00  0.00     0.074 A 
ATOM     53  C   UNL A   1      45.416  30.308  30.364  1.00  0.00     0.029 A 
ATOM     54  N   UNL A   1      43.987  31.975  30.416  1.00  0.00    -0.354 N 
ATOM     55  N   UNL A   1      40.090  31.744  32.278  1.00  0.00    -0.248 NA
ATOM     56  C   UNL A   1      39.856  32.990  30.318  1.00  0.00     0.031 C 
ATOM     57  C   UNL A   1      44.731  30.317  31.616  1.00  0.00     0.029 A 
ATOM     58  C   UNL A   1      43.683  31.235  31.524  1.00  0.00     0.049 A 
ATOM     59  H   UNL A   1      43.727  32.911  30.258  1.00  0.00     0.167 HD
ATOM     60  C   UNL A   1      41.358  32.073  31.828  1.00  0.00     0.074 A 
ATOM     61  C   UNL A   1      41.140  32.948  30.680  1.00  0.00     0.031 C 
ATOM     62  C   UNL A   1      42.448  31.375  32.260  1.00  0.00     0.037 A 
BRANCH  49  63
ATOM     63  C   UNL A   1      44.547  32.572  27.396  1.00  0.00     0.064 A 
ATOM     64  C   UNL A   1      45.715  32.791  26.634  1.00  0.00     0.173 A 
ATOM     65  C   UNL A   1      43.763  33.719  27.641  1.00  0.00     0.173 A 
ATOM     66  F   UNL A   1      46.547  31.778  26.349  1.00  0.00    -0.203 F 
ATOM     67  C   UNL A   1      46.114  34.072  26.240  1.00  0.00     0.198 A 
ATOM     68  C   UNL A   1      44.139  34.989  27.201  1.00  0.00     0.198 A 
ATOM     69  F   UNL A   1      42.668  33.687  28.408  1.00  0.00    -0.203 F 
ATOM     70  F   UNL A   1      47.301  34.245  25.644  1.00  0.00    -0.200 F 
ATOM     71  C   UNL A   1      45.330  35.171  26.533  1.00  0.00     0.200 A 
ATOM     72  F   UNL A   1      43.374  36.045  27.512  1.00  0.00    -0.200 F 
ATOM     73  F   UNL A   1      45.743  36.407  26.220  1.00  0.00    -0.200 F 
ENDBRANCH  49  63
BRANCH  50  74
ATOM     74  C   UNL A   1      36.758  31.937  30.812  1.00  0.00     0.064 A 
ATOM     75  C   UNL A   1      35.942  32.101  31.946  1.00  0.00     0.173 A 
ATOM     76  C   UNL A   1      36.386  32.666  29.667  1.00  0.00     0.173 A 
ATOM     77  F   UNL A   1      36.249  31.478  33.093  1.00  0.00    -0.203 F 
ATOM     78  C   UNL A   1      34.843  32.967  31.943  1.00  0.00     0.198 A 
ATOM     79  C   UNL A   1      35.286  33.526  29.663  1.00  0.00     0.198 A 
ATOM     80  F   UNL A   1      37.141  32.636  28.559  1.00  0.00    -0.203 F 
ATOM     81  F   UNL A   1      34.132  33.150  33.065  1.00  0.00    -0.200 F 
ATOM     82  C   UNL A   1      34.524  33.688  30.805  1.00  0.00     0.200 A 
ATOM     83  F   UNL A   1      35.011  34.248  28.567  1.00  0.00    -0.200 F 
ATOM     84  F   UNL A   1      33.514  34.570  30.821  1.00  0.00    -0.200 F 
ENDBRANCH  50  74
BRANCH  62  85
ATOM     85  C   UNL A   1      42.284  30.490  33.461  1.00  0.00     0.064 A 
ATOM     86  C   UNL A   1      42.318  30.950  34.789  1.00  0.00     0.173 A 
ATOM     87  C   UNL A   1      41.906  29.157  33.247  1.00  0.00     0.173 A 
ATOM     88  F   UNL A   1      42.590  32.231  35.070  1.00  0.00    -0.203 F 
ATOM     89  C   UNL A   1      42.004  30.104  35.852  1.00  0.00     0.198 A 
ATOM     90  C   UNL A   1      41.558  28.327  34.307  1.00  0.00     0.198 A 
ATOM     91  F   UNL A   1      41.812  28.679  31.995  1.00  0.00    -0.203 F 
ATOM     92  F   UNL A   1      42.038  30.566  37.111  1.00  0.00    -0.200 F 
ATOM     93  C   UNL A   1      41.611  28.799  35.609  1.00  0.00     0.200 A 
ATOM     94  F   UNL A   1      41.134  27.079  34.063  1.00  0.00    -0.200 F 
ATOM     95  F   UNL A   1      41.252  28.003  36.626  1.00  0.00    -0.200 F 
ENDBRANCH  62  85
ENDBRANCH  36  37
ENDBRANCH  28  31
ENDBRANCH  26  27
ENDBRANCH   1  26
TORSDOF 13
ENDMDL
