MODEL 1
REMARK VINA RESULT:     -12.6      0.000      0.000
REMARK SMILES COc1cc(NC(=O)[C@@H]2CC=CC[C@H]2C(=O)NCCCNC(=O)c2ccc(-c3c4nc(c(-c5c(F)c(F)c(F)c(F)c5F)c5ccc([nH]5)c(-c5c(F)c(F)c(F)c(F)c5F)c5nc(c(-c6c(F)c(F)c(F)c(F)c6F)c6ccc3[nH]6)C=C5)C=C4)cc2)c(OC)cc1Cl
REMARK SMILES IDX 18 1 17 2 15 3 16 4 14 6 9 7 10 8 11 9 13 10 12 11 7 12 6 13
REMARK SMILES IDX 8 15 5 16 3 17 4 18 91 19 90 20 92 21 87 22 2 23 1 24 88 25
REMARK SMILES IDX 89 26 19 27 20 28 21 29 22 30 23 32 24 33 25 34 86 35 26 36
REMARK SMILES IDX 85 37 27 38 28 39 29 40 79 41 30 42 84 43 78 44 80 45 31 46
REMARK SMILES IDX 83 47 77 48 76 49 32 51 64 52 44 53 63 54 45 55 48 56 62 57
REMARK SMILES IDX 81 58 46 59 47 60 61 62 82 63 49 64 33 65 34 66 42 67 35 68
REMARK SMILES IDX 36 69 40 70 43 71 37 72 38 73 41 74 39 75 65 76 66 77 74 78
REMARK SMILES IDX 67 79 68 80 72 81 75 82 69 83 70 84 73 85 71 86 50 87 51 88
REMARK SMILES IDX 59 89 52 90 53 91 57 92 60 93 54 94 55 95 58 96 56 97
REMARK H PARENT 17 5 6 14 21 31 80 50 48 61
REMARK Flexibility Score: inf
ROOT
ATOM      1  C   UNL A   1      36.673  20.424  24.905  1.00  0.00     0.117 C 
ENDROOT
BRANCH   1   2
ATOM      2  N   UNL A   1      36.815  21.841  24.613  1.00  0.00    -0.356 N 
ATOM      3  C   UNL A   1      35.836  22.545  23.980  1.00  0.00     0.224 C 
ATOM      4  O   UNL A   1      36.039  22.854  22.805  1.00  0.00    -0.275 OA
ATOM      5  H   UNL A   1      37.642  22.304  24.880  1.00  0.00     0.163 HD
BRANCH   3   6
ATOM      6  C   UNL A   1      34.598  23.011  24.746  1.00  0.00     0.095 C 
ATOM      7  C   UNL A   1      33.394  22.136  24.367  1.00  0.00     0.095 C 
ATOM      8  C   UNL A   1      32.329  21.973  25.483  1.00  0.00     0.041 C 
ATOM      9  C   UNL A   1      32.666  22.437  26.859  1.00  0.00    -0.030 C 
ATOM     10  C   UNL A   1      34.820  23.473  26.194  1.00  0.00     0.041 C 
ATOM     11  C   UNL A   1      33.768  23.114  27.175  1.00  0.00    -0.030 C 
BRANCH   7  12
ATOM     12  C   UNL A   1      32.590  22.364  23.038  1.00  0.00     0.228 C 
ATOM     13  N   UNL A   1      32.259  23.507  22.380  1.00  0.00    -0.323 N 
ATOM     14  H   UNL A   1      31.889  23.311  21.488  1.00  0.00     0.170 HD
ATOM     15  O   UNL A   1      32.314  21.337  22.384  1.00  0.00    -0.274 OA
BRANCH  13  16
ATOM     16  C   UNL A   1      32.300  24.892  22.621  1.00  0.00     0.087 A 
ATOM     17  C   UNL A   1      32.322  26.716  24.176  1.00  0.00     0.139 A 
ATOM     18  C   UNL A   1      31.813  25.483  23.776  1.00  0.00     0.078 A 
ATOM     19  C   UNL A   1      33.044  27.491  23.272  1.00  0.00     0.086 A 
ATOM     20  C   UNL A   1      33.262  27.023  21.975  1.00  0.00     0.073 A 
ATOM     21  Cl  UNL A   1      33.708  29.015  23.733  1.00  0.00    -0.080 Cl
ATOM     22  C   UNL A   1      32.915  25.708  21.648  1.00  0.00     0.144 A 
BRANCH  17  23
ATOM     23  O   UNL A   1      32.420  26.950  25.528  1.00  0.00    -0.495 OA
ATOM     24  C   UNL A   1      31.618  26.088  26.319  1.00  0.00     0.278 C 
ENDBRANCH  17  23
BRANCH  22  25
ATOM     25  O   UNL A   1      33.194  25.100  20.447  1.00  0.00    -0.495 OA
ATOM     26  C   UNL A   1      32.399  25.479  19.330  1.00  0.00     0.278 C 
ENDBRANCH  22  25
ENDBRANCH  13  16
ENDBRANCH   7  12
ENDBRANCH   3   6
ENDBRANCH   1   2
BRANCH   1  27
ATOM     27  C   UNL A   1      37.993  19.666  24.791  1.00  0.00     0.042 C 
BRANCH  27  28
ATOM     28  C   UNL A   1      39.071  20.135  25.760  1.00  0.00     0.118 C 
BRANCH  28  29
ATOM     29  N   UNL A   1      40.130  19.150  25.935  1.00  0.00    -0.352 N 
ATOM     30  C   UNL A   1      41.475  19.328  26.106  1.00  0.00     0.251 C 
ATOM     31  H   UNL A   1      39.832  18.212  25.929  1.00  0.00     0.163 HD
ATOM     32  O   UNL A   1      42.245  18.374  25.992  1.00  0.00    -0.269 OA
BRANCH  30  33
ATOM     33  C   UNL A   1      42.007  20.669  26.408  1.00  0.00     0.039 A 
ATOM     34  C   UNL A   1      42.265  21.549  25.355  1.00  0.00     0.014 A 
ATOM     35  C   UNL A   1      42.276  21.046  27.726  1.00  0.00     0.014 A 
ATOM     36  C   UNL A   1      42.742  22.831  25.631  1.00  0.00     0.010 A 
ATOM     37  C   UNL A   1      42.666  22.348  28.006  1.00  0.00     0.010 A 
ATOM     38  C   UNL A   1      42.918  23.247  26.961  1.00  0.00    -0.014 A 
BRANCH  38  39
ATOM     39  C   UNL A   1      43.401  24.611  27.278  1.00  0.00     0.031 A 
ATOM     40  C   UNL A   1      42.453  25.625  27.854  1.00  0.00     0.074 A 
ATOM     41  C   UNL A   1      44.671  24.953  26.988  1.00  0.00     0.049 A 
ATOM     42  N   UNL A   1      42.660  26.885  28.139  1.00  0.00    -0.248 NA
ATOM     43  C   UNL A   1      41.077  25.171  28.112  1.00  0.00     0.031 C 
ATOM     44  C   UNL A   1      45.664  24.071  26.373  1.00  0.00     0.029 A 
ATOM     45  N   UNL A   1      45.340  26.136  27.164  1.00  0.00    -0.354 N 
ATOM     46  C   UNL A   1      41.440  27.375  28.586  1.00  0.00     0.074 A 
ATOM     47  C   UNL A   1      40.485  26.295  28.487  1.00  0.00     0.031 C 
ATOM     48  C   UNL A   1      46.822  24.736  26.243  1.00  0.00     0.029 A 
ATOM     49  C   UNL A   1      46.645  26.098  26.739  1.00  0.00     0.049 A 
ATOM     50  H   UNL A   1      44.925  26.937  27.558  1.00  0.00     0.167 HD
ATOM     51  C   UNL A   1      41.151  28.609  29.061  1.00  0.00     0.037 A 
ATOM     52  C   UNL A   1      47.589  27.058  26.749  1.00  0.00     0.037 A 
ATOM     53  C   UNL A   1      42.116  29.668  29.197  1.00  0.00     0.049 A 
ATOM     54  C   UNL A   1      47.250  28.409  27.315  1.00  0.00     0.074 A 
ATOM     55  C   UNL A   1      41.944  30.931  29.732  1.00  0.00     0.029 A 
ATOM     56  N   UNL A   1      43.441  29.579  28.793  1.00  0.00    -0.354 N 
ATOM     57  N   UNL A   1      46.113  28.840  27.804  1.00  0.00    -0.248 NA
ATOM     58  C   UNL A   1      48.331  29.403  27.342  1.00  0.00     0.031 C 
ATOM     59  C   UNL A   1      43.156  31.620  29.623  1.00  0.00     0.029 A 
ATOM     60  C   UNL A   1      44.094  30.771  29.056  1.00  0.00     0.049 A 
ATOM     61  H   UNL A   1      43.854  28.787  28.381  1.00  0.00     0.167 HD
ATOM     62  C   UNL A   1      46.345  30.144  28.216  1.00  0.00     0.074 A 
ATOM     63  C   UNL A   1      47.738  30.429  27.936  1.00  0.00     0.031 C 
ATOM     64  C   UNL A   1      45.484  31.028  28.775  1.00  0.00     0.037 A 
BRANCH  51  65
ATOM     65  C   UNL A   1      39.735  28.877  29.479  1.00  0.00     0.064 A 
ATOM     66  C   UNL A   1      38.787  29.386  28.576  1.00  0.00     0.173 A 
ATOM     67  C   UNL A   1      39.312  28.598  30.787  1.00  0.00     0.173 A 
ATOM     68  F   UNL A   1      39.145  29.684  27.318  1.00  0.00    -0.203 F 
ATOM     69  C   UNL A   1      37.477  29.633  28.977  1.00  0.00     0.198 A 
ATOM     70  C   UNL A   1      37.994  28.819  31.176  1.00  0.00     0.198 A 
ATOM     71  F   UNL A   1      40.177  28.107  31.686  1.00  0.00    -0.203 F 
ATOM     72  F   UNL A   1      36.603  30.166  28.113  1.00  0.00    -0.200 F 
ATOM     73  C   UNL A   1      37.079  29.344  30.274  1.00  0.00     0.200 A 
ATOM     74  F   UNL A   1      37.608  28.529  32.426  1.00  0.00    -0.200 F 
ATOM     75  F   UNL A   1      35.817  29.577  30.657  1.00  0.00    -0.200 F 
ENDBRANCH  51  65
BRANCH  52  76
ATOM     76  C   UNL A   1      48.953  26.759  26.244  1.00  0.00     0.064 A 
ATOM     77  C   UNL A   1      49.308  27.054  24.921  1.00  0.00     0.173 A 
ATOM     78  C   UNL A   1      49.928  26.181  27.070  1.00  0.00     0.173 A 
ATOM     79  F   UNL A   1      48.403  27.591  24.090  1.00  0.00    -0.203 F 
ATOM     80  C   UNL A   1      50.581  26.765  24.437  1.00  0.00     0.198 A 
ATOM     81  C   UNL A   1      51.209  25.915  26.592  1.00  0.00     0.198 A 
ATOM     82  F   UNL A   1      49.638  25.887  28.347  1.00  0.00    -0.203 F 
ATOM     83  F   UNL A   1      50.882  27.021  23.156  1.00  0.00    -0.200 F 
ATOM     84  C   UNL A   1      51.533  26.201  25.274  1.00  0.00     0.200 A 
ATOM     85  F   UNL A   1      52.129  25.382  27.406  1.00  0.00    -0.200 F 
ATOM     86  F   UNL A   1      52.758  25.927  24.808  1.00  0.00    -0.200 F 
ENDBRANCH  52  76
BRANCH  64  87
ATOM     87  C   UNL A   1      46.030  32.374  29.148  1.00  0.00     0.064 A 
ATOM     88  C   UNL A   1      45.985  33.455  28.256  1.00  0.00     0.173 A 
ATOM     89  C   UNL A   1      46.572  32.592  30.423  1.00  0.00     0.173 A 
ATOM     90  F   UNL A   1      45.491  33.291  27.019  1.00  0.00    -0.203 F 
ATOM     91  C   UNL A   1      46.484  34.702  28.621  1.00  0.00     0.198 A 
ATOM     92  C   UNL A   1      47.045  33.846  30.793  1.00  0.00     0.198 A 
ATOM     93  F   UNL A   1      46.631  31.589  31.313  1.00  0.00    -0.203 F 
ATOM     94  F   UNL A   1      46.472  35.711  27.739  1.00  0.00    -0.200 F 
ATOM     95  C   UNL A   1      47.007  34.898  29.890  1.00  0.00     0.200 A 
ATOM     96  F   UNL A   1      47.540  34.038  32.024  1.00  0.00    -0.200 F 
ATOM     97  F   UNL A   1      47.483  36.101  30.242  1.00  0.00    -0.200 F 
ENDBRANCH  64  87
ENDBRANCH  38  39
ENDBRANCH  30  33
ENDBRANCH  28  29
ENDBRANCH  27  28
ENDBRANCH   1  27
TORSDOF 14
ENDMDL
MODEL 2
REMARK VINA RESULT:     -12.5      5.432     10.780
REMARK SMILES COc1cc(NC(=O)[C@@H]2CC=CC[C@H]2C(=O)NCCCNC(=O)c2ccc(-c3c4nc(c(-c5c(F)c(F)c(F)c(F)c5F)c5ccc([nH]5)c(-c5c(F)c(F)c(F)c(F)c5F)c5nc(c(-c6c(F)c(F)c(F)c(F)c6F)c6ccc3[nH]6)C=C5)C=C4)cc2)c(OC)cc1Cl
REMARK SMILES IDX 18 1 17 2 15 3 16 4 14 6 9 7 10 8 11 9 13 10 12 11 7 12 6 13
REMARK SMILES IDX 8 15 5 16 3 17 4 18 91 19 90 20 92 21 87 22 2 23 1 24 88 25
REMARK SMILES IDX 89 26 19 27 20 28 21 29 22 30 23 32 24 33 25 34 86 35 26 36
REMARK SMILES IDX 85 37 27 38 28 39 29 40 79 41 30 42 84 43 78 44 80 45 31 46
REMARK SMILES IDX 83 47 77 48 76 49 32 51 64 52 44 53 63 54 45 55 48 56 62 57
REMARK SMILES IDX 81 58 46 59 47 60 61 62 82 63 49 64 33 65 34 66 42 67 35 68
REMARK SMILES IDX 36 69 40 70 43 71 37 72 38 73 41 74 39 75 65 76 66 77 74 78
REMARK SMILES IDX 67 79 68 80 72 81 75 82 69 83 70 84 73 85 71 86 50 87 51 88
REMARK SMILES IDX 59 89 52 90 53 91 57 92 60 93 54 94 55 95 58 96 56 97
REMARK H PARENT 17 5 6 14 21 31 80 50 48 61
REMARK Flexibility Score: inf
ROOT
ATOM      1  C   UNL A   1      31.464  30.745  26.024  1.00  0.00     0.117 C 
ENDROOT
BRANCH   1   2
ATOM      2  N   UNL A   1      32.076  29.661  26.774  1.00  0.00    -0.356 N 
ATOM      3  C   UNL A   1      31.720  28.361  26.579  1.00  0.00     0.224 C 
ATOM      4  O   UNL A   1      31.032  27.831  27.452  1.00  0.00    -0.275 OA
ATOM      5  H   UNL A   1      32.767  29.871  27.443  1.00  0.00     0.163 HD
BRANCH   3   6
ATOM      6  C   UNL A   1      32.250  27.585  25.372  1.00  0.00     0.095 C 
ATOM      7  C   UNL A   1      31.132  27.417  24.332  1.00  0.00     0.095 C 
ATOM      8  C   UNL A   1      31.617  27.331  22.861  1.00  0.00     0.041 C 
ATOM      9  C   UNL A   1      33.038  27.668  22.562  1.00  0.00    -0.030 C 
ATOM     10  C   UNL A   1      33.695  27.884  24.945  1.00  0.00     0.041 C 
ATOM     11  C   UNL A   1      33.967  27.903  23.487  1.00  0.00    -0.030 C 
BRANCH   7  12
ATOM     12  C   UNL A   1      30.020  26.318  24.481  1.00  0.00     0.228 C 
ATOM     13  N   UNL A   1      30.078  25.050  24.967  1.00  0.00    -0.323 N 
ATOM     14  H   UNL A   1      29.177  24.668  25.076  1.00  0.00     0.170 HD
ATOM     15  O   UNL A   1      28.852  26.689  24.247  1.00  0.00    -0.274 OA
BRANCH  13  16
ATOM     16  C   UNL A   1      31.070  24.133  25.358  1.00  0.00     0.087 A 
ATOM     17  C   UNL A   1      33.336  23.361  25.221  1.00  0.00     0.139 A 
ATOM     18  C   UNL A   1      32.191  23.844  24.594  1.00  0.00     0.078 A 
ATOM     19  C   UNL A   1      33.254  22.860  26.518  1.00  0.00     0.086 A 
ATOM     20  C   UNL A   1      32.027  22.854  27.184  1.00  0.00     0.073 A 
ATOM     21  Cl  UNL A   1      34.652  22.270  27.338  1.00  0.00    -0.080 Cl
ATOM     22  C   UNL A   1      30.932  23.516  26.620  1.00  0.00     0.144 A 
BRANCH  17  23
ATOM     23  O   UNL A   1      34.550  23.737  24.696  1.00  0.00    -0.495 OA
ATOM     24  C   UNL A   1      34.476  24.202  23.358  1.00  0.00     0.278 C 
ENDBRANCH  17  23
BRANCH  22  25
ATOM     25  O   UNL A   1      29.715  23.684  27.237  1.00  0.00    -0.495 OA
ATOM     26  C   UNL A   1      28.963  22.509  27.514  1.00  0.00     0.278 C 
ENDBRANCH  22  25
ENDBRANCH  13  16
ENDBRANCH   7  12
ENDBRANCH   3   6
ENDBRANCH   1   2
BRANCH   1  27
ATOM     27  C   UNL A   1      31.336  32.027  26.843  1.00  0.00     0.042 C 
BRANCH  27  28
ATOM     28  C   UNL A   1      32.666  32.693  27.176  1.00  0.00     0.118 C 
BRANCH  28  29
ATOM     29  N   UNL A   1      32.507  34.088  27.565  1.00  0.00    -0.352 N 
ATOM     30  C   UNL A   1      33.095  34.787  28.583  1.00  0.00     0.251 C 
ATOM     31  H   UNL A   1      31.881  34.606  27.011  1.00  0.00     0.163 HD
ATOM     32  O   UNL A   1      32.655  35.890  28.909  1.00  0.00    -0.269 OA
BRANCH  30  33
ATOM     33  C   UNL A   1      34.244  34.213  29.303  1.00  0.00     0.039 A 
ATOM     34  C   UNL A   1      34.010  33.384  30.402  1.00  0.00     0.014 A 
ATOM     35  C   UNL A   1      35.551  34.513  28.910  1.00  0.00     0.014 A 
ATOM     36  C   UNL A   1      35.090  32.811  31.074  1.00  0.00     0.010 A 
ATOM     37  C   UNL A   1      36.620  33.874  29.523  1.00  0.00     0.010 A 
ATOM     38  C   UNL A   1      36.401  33.030  30.621  1.00  0.00    -0.014 A 
BRANCH  38  39
ATOM     39  C   UNL A   1      37.561  32.413  31.304  1.00  0.00     0.031 A 
ATOM     40  C   UNL A   1      38.299  31.279  30.649  1.00  0.00     0.074 A 
ATOM     41  C   UNL A   1      37.907  32.830  32.537  1.00  0.00     0.049 A 
ATOM     42  N   UNL A   1      39.294  30.563  31.107  1.00  0.00    -0.248 NA
ATOM     43  C   UNL A   1      37.833  30.872  29.314  1.00  0.00     0.031 C 
ATOM     44  C   UNL A   1      37.226  33.881  33.296  1.00  0.00     0.029 A 
ATOM     45  N   UNL A   1      38.910  32.413  33.372  1.00  0.00    -0.354 N 
ATOM     46  C   UNL A   1      39.556  29.614  30.129  1.00  0.00     0.074 A 
ATOM     47  C   UNL A   1      38.585  29.807  29.076  1.00  0.00     0.031 C 
ATOM     48  C   UNL A   1      37.846  34.042  34.475  1.00  0.00     0.029 A 
ATOM     49  C   UNL A   1      38.947  33.088  34.567  1.00  0.00     0.049 A 
ATOM     50  H   UNL A   1      39.545  31.698  33.137  1.00  0.00     0.167 HD
ATOM     51  C   UNL A   1      40.535  28.680  30.103  1.00  0.00     0.037 A 
ATOM     52  C   UNL A   1      39.779  32.948  35.617  1.00  0.00     0.037 A 
ATOM     53  C   UNL A   1      41.525  28.520  31.134  1.00  0.00     0.049 A 
ATOM     54  C   UNL A   1      40.880  31.927  35.546  1.00  0.00     0.074 A 
ATOM     55  C   UNL A   1      42.602  27.653  31.172  1.00  0.00     0.029 A 
ATOM     56  N   UNL A   1      41.555  29.251  32.314  1.00  0.00    -0.354 N 
ATOM     57  N   UNL A   1      41.165  31.083  34.584  1.00  0.00    -0.248 NA
ATOM     58  C   UNL A   1      41.783  31.849  36.701  1.00  0.00     0.031 C 
ATOM     59  C   UNL A   1      43.267  27.837  32.389  1.00  0.00     0.029 A 
ATOM     60  C   UNL A   1      42.627  28.845  33.092  1.00  0.00     0.049 A 
ATOM     61  H   UNL A   1      40.911  29.952  32.561  1.00  0.00     0.167 HD
ATOM     62  C   UNL A   1      42.290  30.390  35.007  1.00  0.00     0.074 A 
ATOM     63  C   UNL A   1      42.647  30.925  36.305  1.00  0.00     0.031 C 
ATOM     64  C   UNL A   1      42.967  29.399  34.378  1.00  0.00     0.037 A 
BRANCH  51  65
ATOM     65  C   UNL A   1      40.590  27.767  28.913  1.00  0.00     0.064 A 
ATOM     66  C   UNL A   1      41.432  28.033  27.821  1.00  0.00     0.173 A 
ATOM     67  C   UNL A   1      39.812  26.600  28.873  1.00  0.00     0.173 A 
ATOM     68  F   UNL A   1      42.184  29.144  27.804  1.00  0.00    -0.203 F 
ATOM     69  C   UNL A   1      41.471  27.180  26.722  1.00  0.00     0.198 A 
ATOM     70  C   UNL A   1      39.876  25.734  27.785  1.00  0.00     0.198 A 
ATOM     71  F   UNL A   1      38.994  26.298  29.892  1.00  0.00    -0.203 F 
ATOM     72  F   UNL A   1      42.245  27.480  25.671  1.00  0.00    -0.200 F 
ATOM     73  C   UNL A   1      40.698  26.028  26.707  1.00  0.00     0.200 A 
ATOM     74  F   UNL A   1      39.137  24.617  27.776  1.00  0.00    -0.200 F 
ATOM     75  F   UNL A   1      40.741  25.205  25.651  1.00  0.00    -0.200 F 
ENDBRANCH  51  65
BRANCH  52  76
ATOM     76  C   UNL A   1      39.623  33.826  36.804  1.00  0.00     0.064 A 
ATOM     77  C   UNL A   1      40.256  35.075  36.861  1.00  0.00     0.173 A 
ATOM     78  C   UNL A   1      38.837  33.441  37.900  1.00  0.00     0.173 A 
ATOM     79  F   UNL A   1      41.032  35.477  35.843  1.00  0.00    -0.203 F 
ATOM     80  C   UNL A   1      40.125  35.898  37.977  1.00  0.00     0.198 A 
ATOM     81  C   UNL A   1      38.686  34.275  39.005  1.00  0.00     0.198 A 
ATOM     82  F   UNL A   1      38.205  32.258  37.890  1.00  0.00    -0.203 F 
ATOM     83  F   UNL A   1      40.774  37.070  38.021  1.00  0.00    -0.200 F 
ATOM     84  C   UNL A   1      39.336  35.501  39.046  1.00  0.00     0.200 A 
ATOM     85  F   UNL A   1      37.913  33.894  40.031  1.00  0.00    -0.200 F 
ATOM     86  F   UNL A   1      39.207  36.294  40.116  1.00  0.00    -0.200 F 
ENDBRANCH  52  76
BRANCH  64  87
ATOM     87  C   UNL A   1      44.178  28.850  35.072  1.00  0.00     0.064 A 
ATOM     88  C   UNL A   1      44.090  27.755  35.943  1.00  0.00     0.173 A 
ATOM     89  C   UNL A   1      45.444  29.405  34.833  1.00  0.00     0.173 A 
ATOM     90  F   UNL A   1      42.898  27.202  36.215  1.00  0.00    -0.203 F 
ATOM     91  C   UNL A   1      45.225  27.249  36.570  1.00  0.00     0.198 A 
ATOM     92  C   UNL A   1      46.580  28.879  35.440  1.00  0.00     0.198 A 
ATOM     93  F   UNL A   1      45.579  30.449  34.002  1.00  0.00    -0.203 F 
ATOM     94  F   UNL A   1      45.114  26.231  37.433  1.00  0.00    -0.200 F 
ATOM     95  C   UNL A   1      46.469  27.806  36.313  1.00  0.00     0.200 A 
ATOM     96  F   UNL A   1      47.783  29.411  35.183  1.00  0.00    -0.200 F 
ATOM     97  F   UNL A   1      47.562  27.315  36.913  1.00  0.00    -0.200 F 
ENDBRANCH  64  87
ENDBRANCH  38  39
ENDBRANCH  30  33
ENDBRANCH  28  29
ENDBRANCH  27  28
ENDBRANCH   1  27
TORSDOF 14
ENDMDL
MODEL 3
REMARK VINA RESULT:     -12.5      5.249      9.392
REMARK SMILES COc1cc(NC(=O)[C@@H]2CC=CC[C@H]2C(=O)NCCCNC(=O)c2ccc(-c3c4nc(c(-c5c(F)c(F)c(F)c(F)c5F)c5ccc([nH]5)c(-c5c(F)c(F)c(F)c(F)c5F)c5nc(c(-c6c(F)c(F)c(F)c(F)c6F)c6ccc3[nH]6)C=C5)C=C4)cc2)c(OC)cc1Cl
REMARK SMILES IDX 18 1 17 2 15 3 16 4 14 6 9 7 10 8 11 9 13 10 12 11 7 12 6 13
REMARK SMILES IDX 8 15 5 16 3 17 4 18 91 19 90 20 92 21 87 22 2 23 1 24 88 25
REMARK SMILES IDX 89 26 19 27 20 28 21 29 22 30 23 32 24 33 25 34 86 35 26 36
REMARK SMILES IDX 85 37 27 38 28 39 29 40 79 41 30 42 84 43 78 44 80 45 31 46
REMARK SMILES IDX 83 47 77 48 76 49 32 51 64 52 44 53 63 54 45 55 48 56 62 57
REMARK SMILES IDX 81 58 46 59 47 60 61 62 82 63 49 64 33 65 34 66 42 67 35 68
REMARK SMILES IDX 36 69 40 70 43 71 37 72 38 73 41 74 39 75 65 76 66 77 74 78
REMARK SMILES IDX 67 79 68 80 72 81 75 82 69 83 70 84 73 85 71 86 50 87 51 88
REMARK SMILES IDX 59 89 52 90 53 91 57 92 60 93 54 94 55 95 58 96 56 97
REMARK H PARENT 17 5 6 14 21 31 80 50 48 61
REMARK Flexibility Score: inf
ROOT
ATOM      1  C   UNL A   1      31.238  30.719  25.843  1.00  0.00     0.117 C 
ENDROOT
BRANCH   1   2
ATOM      2  N   UNL A   1      31.995  29.742  26.609  1.00  0.00    -0.356 N 
ATOM      3  C   UNL A   1      31.750  28.406  26.510  1.00  0.00     0.224 C 
ATOM      4  O   UNL A   1      31.172  27.871  27.457  1.00  0.00    -0.275 OA
ATOM      5  H   UNL A   1      32.704  30.055  27.215  1.00  0.00     0.163 HD
BRANCH   3   6
ATOM      6  C   UNL A   1      32.273  27.609  25.314  1.00  0.00     0.095 C 
ATOM      7  C   UNL A   1      31.150  27.425  24.283  1.00  0.00     0.095 C 
ATOM      8  C   UNL A   1      31.628  27.312  22.811  1.00  0.00     0.041 C 
ATOM      9  C   UNL A   1      33.049  27.642  22.500  1.00  0.00    -0.030 C 
ATOM     10  C   UNL A   1      33.717  27.898  24.876  1.00  0.00     0.041 C 
ATOM     11  C   UNL A   1      33.982  27.891  23.416  1.00  0.00    -0.030 C 
BRANCH   7  12
ATOM     12  C   UNL A   1      30.038  26.330  24.456  1.00  0.00     0.228 C 
ATOM     13  N   UNL A   1      30.099  25.066  24.953  1.00  0.00    -0.323 N 
ATOM     14  H   UNL A   1      29.197  24.688  25.077  1.00  0.00     0.170 HD
ATOM     15  O   UNL A   1      28.867  26.702  24.234  1.00  0.00    -0.274 OA
BRANCH  13  16
ATOM     16  C   UNL A   1      31.093  24.150  25.339  1.00  0.00     0.087 A 
ATOM     17  C   UNL A   1      33.358  23.379  25.191  1.00  0.00     0.139 A 
ATOM     18  C   UNL A   1      32.209  23.862  24.569  1.00  0.00     0.078 A 
ATOM     19  C   UNL A   1      33.284  22.879  26.488  1.00  0.00     0.086 A 
ATOM     20  C   UNL A   1      32.060  22.873  27.161  1.00  0.00     0.073 A 
ATOM     21  Cl  UNL A   1      34.686  22.290  27.301  1.00  0.00    -0.080 Cl
ATOM     22  C   UNL A   1      30.962  23.534  26.602  1.00  0.00     0.144 A 
BRANCH  17  23
ATOM     23  O   UNL A   1      34.569  23.755  24.659  1.00  0.00    -0.495 OA
ATOM     24  C   UNL A   1      34.951  23.006  23.517  1.00  0.00     0.278 C 
ENDBRANCH  17  23
BRANCH  22  25
ATOM     25  O   UNL A   1      29.748  23.702  27.226  1.00  0.00    -0.495 OA
ATOM     26  C   UNL A   1      28.994  22.527  27.500  1.00  0.00     0.278 C 
ENDBRANCH  22  25
ENDBRANCH  13  16
ENDBRANCH   7  12
ENDBRANCH   3   6
ENDBRANCH   1   2
BRANCH   1  27
ATOM     27  C   UNL A   1      31.153  32.074  26.542  1.00  0.00     0.042 C 
BRANCH  27  28
ATOM     28  C   UNL A   1      32.475  32.568  27.116  1.00  0.00     0.118 C 
BRANCH  28  29
ATOM     29  N   UNL A   1      32.420  33.967  27.518  1.00  0.00    -0.352 N 
ATOM     30  C   UNL A   1      33.102  34.624  28.504  1.00  0.00     0.251 C 
ATOM     31  H   UNL A   1      31.795  34.524  27.001  1.00  0.00     0.163 HD
ATOM     32  O   UNL A   1      32.747  35.749  28.857  1.00  0.00    -0.269 OA
BRANCH  30  33
ATOM     33  C   UNL A   1      34.254  33.979  29.158  1.00  0.00     0.039 A 
ATOM     34  C   UNL A   1      34.023  33.038  30.163  1.00  0.00     0.014 A 
ATOM     35  C   UNL A   1      35.559  34.322  28.797  1.00  0.00     0.014 A 
ATOM     36  C   UNL A   1      35.105  32.399  30.770  1.00  0.00     0.010 A 
ATOM     37  C   UNL A   1      36.631  33.623  29.337  1.00  0.00     0.010 A 
ATOM     38  C   UNL A   1      36.415  32.668  30.340  1.00  0.00    -0.014 A 
BRANCH  38  39
ATOM     39  C   UNL A   1      37.577  31.984  30.953  1.00  0.00     0.031 A 
ATOM     40  C   UNL A   1      38.035  32.376  32.329  1.00  0.00     0.074 A 
ATOM     41  C   UNL A   1      38.255  31.060  30.246  1.00  0.00     0.049 A 
ATOM     42  N   UNL A   1      39.064  31.947  33.014  1.00  0.00    -0.248 NA
ATOM     43  C   UNL A   1      37.250  33.415  33.016  1.00  0.00     0.031 C 
ATOM     44  C   UNL A   1      37.939  30.642  28.879  1.00  0.00     0.029 A 
ATOM     45  N   UNL A   1      39.356  30.313  30.576  1.00  0.00    -0.354 N 
ATOM     46  C   UNL A   1      39.061  32.677  34.195  1.00  0.00     0.074 A 
ATOM     47  C   UNL A   1      37.962  33.612  34.116  1.00  0.00     0.031 C 
ATOM     48  C   UNL A   1      38.812  29.697  28.496  1.00  0.00     0.029 A 
ATOM     49  C   UNL A   1      39.764  29.465  29.578  1.00  0.00     0.049 A 
ATOM     50  H   UNL A   1      39.810  30.378  31.448  1.00  0.00     0.167 HD
ATOM     51  C   UNL A   1      39.888  32.559  35.260  1.00  0.00     0.037 A 
ATOM     52  C   UNL A   1      40.794  28.598  29.543  1.00  0.00     0.037 A 
ATOM     53  C   UNL A   1      40.955  31.598  35.351  1.00  0.00     0.049 A 
ATOM     54  C   UNL A   1      41.674  28.461  30.754  1.00  0.00     0.074 A 
ATOM     55  C   UNL A   1      41.805  31.347  36.412  1.00  0.00     0.029 A 
ATOM     56  N   UNL A   1      41.313  30.725  34.333  1.00  0.00    -0.354 N 
ATOM     57  N   UNL A   1      41.619  29.104  31.895  1.00  0.00    -0.248 NA
ATOM     58  C   UNL A   1      42.754  27.469  30.676  1.00  0.00     0.031 C 
ATOM     59  C   UNL A   1      42.700  30.343  36.027  1.00  0.00     0.029 A 
ATOM     60  C   UNL A   1      42.382  29.942  34.739  1.00  0.00     0.049 A 
ATOM     61  H   UNL A   1      40.875  30.670  33.454  1.00  0.00     0.167 HD
ATOM     62  C   UNL A   1      42.637  28.581  32.678  1.00  0.00     0.074 A 
ATOM     63  C   UNL A   1      43.286  27.555  31.887  1.00  0.00     0.031 C 
ATOM     64  C   UNL A   1      43.005  28.920  33.937  1.00  0.00     0.037 A 
BRANCH  51  65
ATOM     65  C   UNL A   1      39.663  33.486  36.418  1.00  0.00     0.064 A 
ATOM     66  C   UNL A   1      38.833  33.130  37.493  1.00  0.00     0.173 A 
ATOM     67  C   UNL A   1      40.302  34.734  36.467  1.00  0.00     0.173 A 
ATOM     68  F   UNL A   1      38.187  31.954  37.487  1.00  0.00    -0.203 F 
ATOM     69  C   UNL A   1      38.630  34.001  38.560  1.00  0.00     0.198 A 
ATOM     70  C   UNL A   1      40.118  35.590  37.550  1.00  0.00     0.198 A 
ATOM     71  F   UNL A   1      41.107  35.121  35.468  1.00  0.00    -0.203 F 
ATOM     72  F   UNL A   1      37.795  33.659  39.552  1.00  0.00    -0.200 F 
ATOM     73  C   UNL A   1      39.277  35.227  38.591  1.00  0.00     0.200 A 
ATOM     74  F   UNL A   1      40.752  36.770  37.584  1.00  0.00    -0.200 F 
ATOM     75  F   UNL A   1      39.084  36.062  39.621  1.00  0.00    -0.200 F 
ENDBRANCH  51  65
BRANCH  52  76
ATOM     76  C   UNL A   1      41.018  27.764  28.335  1.00  0.00     0.064 A 
ATOM     77  C   UNL A   1      41.830  28.223  27.289  1.00  0.00     0.173 A 
ATOM     78  C   UNL A   1      40.435  26.496  28.203  1.00  0.00     0.173 A 
ATOM     79  F   UNL A   1      42.394  29.437  27.363  1.00  0.00    -0.203 F 
ATOM     80  C   UNL A   1      42.035  27.453  26.146  1.00  0.00     0.198 A 
ATOM     81  C   UNL A   1      40.661  25.715  27.071  1.00  0.00     0.198 A 
ATOM     82  F   UNL A   1      39.656  26.010  29.181  1.00  0.00    -0.203 F 
ATOM     83  F   UNL A   1      42.784  27.932  25.144  1.00  0.00    -0.200 F 
ATOM     84  C   UNL A   1      41.455  26.197  26.041  1.00  0.00     0.200 A 
ATOM     85  F   UNL A   1      40.110  24.498  26.978  1.00  0.00    -0.200 F 
ATOM     86  F   UNL A   1      41.656  25.455  24.944  1.00  0.00    -0.200 F 
ENDBRANCH  52  76
BRANCH  64  87
ATOM     87  C   UNL A   1      44.141  28.155  34.548  1.00  0.00     0.064 A 
ATOM     88  C   UNL A   1      45.461  28.622  34.478  1.00  0.00     0.173 A 
ATOM     89  C   UNL A   1      43.898  26.959  35.240  1.00  0.00     0.173 A 
ATOM     90  F   UNL A   1      45.743  29.752  33.812  1.00  0.00    -0.203 F 
ATOM     91  C   UNL A   1      46.502  27.907  35.062  1.00  0.00     0.198 A 
ATOM     92  C   UNL A   1      44.938  26.262  35.846  1.00  0.00     0.198 A 
ATOM     93  F   UNL A   1      42.651  26.476  35.340  1.00  0.00    -0.203 F 
ATOM     94  F   UNL A   1      47.763  28.347  34.946  1.00  0.00    -0.200 F 
ATOM     95  C   UNL A   1      46.240  26.732  35.750  1.00  0.00     0.200 A 
ATOM     96  F   UNL A   1      44.683  25.132  36.520  1.00  0.00    -0.200 F 
ATOM     97  F   UNL A   1      47.243  26.046  36.316  1.00  0.00    -0.200 F 
ENDBRANCH  64  87
ENDBRANCH  38  39
ENDBRANCH  30  33
ENDBRANCH  28  29
ENDBRANCH  27  28
ENDBRANCH   1  27
TORSDOF 14
ENDMDL
