MODEL 1
REMARK VINA RESULT:     -10.0      0.000      0.000
REMARK SMILES CC1(C)S[C@H](c2ccc(-c3ccccc3)o2)[NH2+][C@H]1C(=O)NCCCNC(=O)c1ccc(-c2c3nc(c(-c4c(F)c(F)c(F)c(F)c4F)c4ccc([nH]4)c(-c4c(F)c(F)c(F)c(F)c4F)c4nc(c(-c5c(F)c(F)c(F)c(F)c5F)c5ccc2[nH]5)C=C4)C=C3)cc1
REMARK SMILES IDX 23 1 22 2 21 3 19 4 20 5 18 7 1 8 2 9 3 10 4 11 5 12 17 13
REMARK SMILES IDX 6 16 7 17 16 18 8 19 9 20 10 21 11 22 15 23 12 24 14 25
REMARK SMILES IDX 13 26 24 27 25 28 26 29 27 31 28 32 29 33 90 34 30 35 89 36
REMARK SMILES IDX 31 37 32 38 33 39 83 40 34 41 88 42 82 43 84 44 35 45 87 46
REMARK SMILES IDX 81 47 80 48 36 50 68 51 48 52 67 53 49 54 52 55 66 56 85 57
REMARK SMILES IDX 50 58 51 59 65 61 86 62 53 63 37 64 38 65 46 66 39 67 40 68
REMARK SMILES IDX 44 69 47 70 41 71 42 72 45 73 43 74 69 75 70 76 78 77 71 78
REMARK SMILES IDX 72 79 76 80 79 81 73 82 74 83 77 84 75 85 54 86 55 87 63 88
REMARK SMILES IDX 56 89 57 90 61 91 64 92 58 93 59 94 62 95 60 96
REMARK H PARENT 21 6 17 14 17 15 25 30 84 49 52 60
REMARK Flexibility Score: inf
ROOT
ATOM      1  C   UNL A   1      32.996  29.020  23.781  1.00  0.00     0.042 C 
ENDROOT
BRANCH   1   2
ATOM      2  C   UNL A   1      33.779  27.940  23.034  1.00  0.00     0.118 C 
BRANCH   2   3
ATOM      3  N   UNL A   1      32.978  27.247  22.034  1.00  0.00    -0.351 N 
ATOM      4  C   UNL A   1      32.404  26.016  21.930  1.00  0.00     0.279 C 
ATOM      5  O   UNL A   1      31.869  25.779  20.838  1.00  0.00    -0.268 OA
ATOM      6  H   UNL A   1      32.813  27.803  21.239  1.00  0.00     0.163 HD
BRANCH   4   7
ATOM      7  C   UNL A   1      32.443  24.914  23.011  1.00  0.00     0.289 C 
ATOM      8  C   UNL A   1      29.901  25.305  23.506  1.00  0.00     0.030 C 
ATOM      9  C   UNL A   1      31.298  25.005  24.042  1.00  0.00     0.078 C 
ATOM     10  C   UNL A   1      31.635  25.999  25.159  1.00  0.00     0.030 C 
ATOM     11  S   UNL A   1      31.228  23.327  24.747  1.00  0.00    -0.078 SA
ATOM     12  C   UNL A   1      32.273  22.576  23.472  1.00  0.00     0.311 C 
ATOM     13  N   UNL A   1      32.609  23.559  22.444  1.00  0.00    -0.317 N 
ATOM     14  H   UNL A   1      31.988  23.444  21.643  1.00  0.00     0.348 HD
ATOM     15  H   UNL A   1      33.573  23.427  22.138  1.00  0.00     0.348 HD
BRANCH  12  16
ATOM     16  C   UNL A   1      33.437  21.891  24.109  1.00  0.00     0.172 A 
ATOM     17  C   UNL A   1      33.640  20.556  24.408  1.00  0.00     0.054 A 
ATOM     18  O   UNL A   1      34.522  22.624  24.514  1.00  0.00    -0.454 OA
ATOM     19  C   UNL A   1      34.915  20.463  25.001  1.00  0.00     0.051 A 
ATOM     20  C   UNL A   1      35.426  21.743  25.038  1.00  0.00     0.134 A 
BRANCH  20  21
ATOM     21  C   UNL A   1      36.695  22.282  25.500  1.00  0.00     0.017 A 
ATOM     22  C   UNL A   1      36.806  23.604  25.948  1.00  0.00     0.012 A 
ATOM     23  C   UNL A   1      37.827  21.455  25.549  1.00  0.00     0.012 A 
ATOM     24  C   UNL A   1      38.019  24.080  26.455  1.00  0.00     0.001 A 
ATOM     25  C   UNL A   1      39.042  21.934  26.043  1.00  0.00     0.001 A 
ATOM     26  C   UNL A   1      39.135  23.245  26.503  1.00  0.00     0.000 A 
ENDBRANCH  20  21
ENDBRANCH  12  16
ENDBRANCH   4   7
ENDBRANCH   2   3
ENDBRANCH   1   2
BRANCH   1  27
ATOM     27  C   UNL A   1      33.421  29.232  25.226  1.00  0.00     0.118 C 
BRANCH  27  28
ATOM     28  N   UNL A   1      32.969  30.509  25.752  1.00  0.00    -0.352 N 
ATOM     29  C   UNL A   1      33.373  31.200  26.871  1.00  0.00     0.251 C 
ATOM     30  H   UNL A   1      32.264  30.949  25.225  1.00  0.00     0.163 HD
ATOM     31  O   UNL A   1      32.710  32.160  27.254  1.00  0.00    -0.269 OA
BRANCH  29  32
ATOM     32  C   UNL A   1      34.581  30.799  27.633  1.00  0.00     0.039 A 
ATOM     33  C   UNL A   1      35.606  31.736  27.805  1.00  0.00     0.014 A 
ATOM     34  C   UNL A   1      34.749  29.501  28.122  1.00  0.00     0.014 A 
ATOM     35  C   UNL A   1      36.767  31.386  28.505  1.00  0.00     0.010 A 
ATOM     36  C   UNL A   1      35.865  29.178  28.893  1.00  0.00     0.010 A 
ATOM     37  C   UNL A   1      36.896  30.112  29.079  1.00  0.00    -0.014 A 
BRANCH  37  38
ATOM     38  C   UNL A   1      38.114  29.725  29.838  1.00  0.00     0.031 A 
ATOM     39  C   UNL A   1      38.344  30.263  31.225  1.00  0.00     0.074 A 
ATOM     40  C   UNL A   1      39.040  28.929  29.268  1.00  0.00     0.049 A 
ATOM     41  N   UNL A   1      39.374  30.101  32.020  1.00  0.00    -0.248 NA
ATOM     42  C   UNL A   1      37.287  31.122  31.785  1.00  0.00     0.031 C 
ATOM     43  C   UNL A   1      38.961  28.373  27.917  1.00  0.00     0.029 A 
ATOM     44  N   UNL A   1      40.234  28.457  29.753  1.00  0.00    -0.354 N 
ATOM     45  C   UNL A   1      39.099  30.852  33.155  1.00  0.00     0.074 A 
ATOM     46  C   UNL A   1      37.830  31.509  32.930  1.00  0.00     0.031 C 
ATOM     47  C   UNL A   1      40.046  27.615  27.689  1.00  0.00     0.029 A 
ATOM     48  C   UNL A   1      40.913  27.658  28.864  1.00  0.00     0.049 A 
ATOM     49  H   UNL A   1      40.573  28.670  30.652  1.00  0.00     0.167 HD
ATOM     50  C   UNL A   1      39.824  30.965  34.293  1.00  0.00     0.037 A 
ATOM     51  C   UNL A   1      42.100  27.034  28.982  1.00  0.00     0.037 A 
ATOM     52  C   UNL A   1      41.065  30.281  34.537  1.00  0.00     0.049 A 
ATOM     53  C   UNL A   1      42.879  27.163  30.262  1.00  0.00     0.074 A 
ATOM     54  C   UNL A   1      41.845  30.284  35.682  1.00  0.00     0.029 A 
ATOM     55  N   UNL A   1      41.707  29.461  33.620  1.00  0.00    -0.354 N 
ATOM     56  N   UNL A   1      42.582  27.834  31.348  1.00  0.00    -0.248 NA
ATOM     57  C   UNL A   1      44.158  26.443  30.334  1.00  0.00     0.031 C 
ATOM     58  C   UNL A   1      42.974  29.493  35.446  1.00  0.00     0.029 A 
ATOM     59  C   UNL A   1      42.880  28.965  34.169  1.00  0.00     0.049 A 
ATOM     60  H   UNL A   1      41.379  29.263  32.715  1.00  0.00     0.167 HD
ATOM     61  C   UNL A   1      43.620  27.598  32.238  1.00  0.00     0.074 A 
ATOM     62  C   UNL A   1      44.550  26.710  31.572  1.00  0.00     0.031 C 
ATOM     63  C   UNL A   1      43.788  28.075  33.495  1.00  0.00     0.037 A 
BRANCH  50  64
ATOM     64  C   UNL A   1      39.285  31.859  35.372  1.00  0.00     0.064 A 
ATOM     65  C   UNL A   1      38.446  31.366  36.382  1.00  0.00     0.173 A 
ATOM     66  C   UNL A   1      39.638  33.217  35.416  1.00  0.00     0.173 A 
ATOM     67  F   UNL A   1      38.068  30.079  36.378  1.00  0.00    -0.203 F 
ATOM     68  C   UNL A   1      37.955  32.206  37.379  1.00  0.00     0.198 A 
ATOM     69  C   UNL A   1      39.169  34.047  36.431  1.00  0.00     0.198 A 
ATOM     70  F   UNL A   1      40.443  33.737  34.477  1.00  0.00    -0.203 F 
ATOM     71  F   UNL A   1      37.117  31.723  38.306  1.00  0.00    -0.200 F 
ATOM     72  C   UNL A   1      38.322  33.543  37.407  1.00  0.00     0.200 A 
ATOM     73  F   UNL A   1      39.533  35.336  36.462  1.00  0.00    -0.200 F 
ATOM     74  F   UNL A   1      37.854  34.348  38.371  1.00  0.00    -0.200 F 
ENDBRANCH  50  64
BRANCH  51  75
ATOM     75  C   UNL A   1      42.610  26.197  27.865  1.00  0.00     0.064 A 
ATOM     76  C   UNL A   1      43.459  26.743  26.893  1.00  0.00     0.173 A 
ATOM     77  C   UNL A   1      42.261  24.846  27.745  1.00  0.00     0.173 A 
ATOM     78  F   UNL A   1      43.802  28.038  26.956  1.00  0.00    -0.203 F 
ATOM     79  C   UNL A   1      43.927  25.971  25.832  1.00  0.00     0.198 A 
ATOM     80  C   UNL A   1      42.749  24.068  26.697  1.00  0.00     0.198 A 
ATOM     81  F   UNL A   1      41.453  24.277  28.653  1.00  0.00    -0.203 F 
ATOM     82  F   UNL A   1      44.706  26.528  24.894  1.00  0.00    -0.200 F 
ATOM     83  C   UNL A   1      43.576  24.633  25.738  1.00  0.00     0.200 A 
ATOM     84  F   UNL A   1      42.417  22.772  26.616  1.00  0.00    -0.200 F 
ATOM     85  F   UNL A   1      44.031  23.890  24.719  1.00  0.00    -0.200 F 
ENDBRANCH  51  75
BRANCH  63  86
ATOM     86  C   UNL A   1      45.006  27.622  34.245  1.00  0.00     0.064 A 
ATOM     87  C   UNL A   1      46.203  28.351  34.209  1.00  0.00     0.173 A 
ATOM     88  C   UNL A   1      44.962  26.465  35.038  1.00  0.00     0.173 A 
ATOM     89  F   UNL A   1      46.298  29.456  33.454  1.00  0.00    -0.203 F 
ATOM     90  C   UNL A   1      47.319  27.926  34.924  1.00  0.00     0.198 A 
ATOM     91  C   UNL A   1      46.072  26.057  35.771  1.00  0.00     0.198 A 
ATOM     92  F   UNL A   1      43.837  25.736  35.109  1.00  0.00    -0.203 F 
ATOM     93  F   UNL A   1      48.466  28.615  34.843  1.00  0.00    -0.200 F 
ATOM     94  C   UNL A   1      47.251  26.784  35.708  1.00  0.00     0.200 A 
ATOM     95  F   UNL A   1      46.002  24.959  36.536  1.00  0.00    -0.200 F 
ATOM     96  F   UNL A   1      48.327  26.380  36.399  1.00  0.00    -0.200 F 
ENDBRANCH  63  86
ENDBRANCH  37  38
ENDBRANCH  29  32
ENDBRANCH  27  28
ENDBRANCH   1  27
TORSDOF 12
ENDMDL
MODEL 2
REMARK VINA RESULT:     -10.0      4.447      7.681
REMARK SMILES CC1(C)S[C@H](c2ccc(-c3ccccc3)o2)[NH2+][C@H]1C(=O)NCCCNC(=O)c1ccc(-c2c3nc(c(-c4c(F)c(F)c(F)c(F)c4F)c4ccc([nH]4)c(-c4c(F)c(F)c(F)c(F)c4F)c4nc(c(-c5c(F)c(F)c(F)c(F)c5F)c5ccc2[nH]5)C=C4)C=C3)cc1
REMARK SMILES IDX 23 1 22 2 21 3 19 4 20 5 18 7 1 8 2 9 3 10 4 11 5 12 17 13
REMARK SMILES IDX 6 16 7 17 16 18 8 19 9 20 10 21 11 22 15 23 12 24 14 25
REMARK SMILES IDX 13 26 24 27 25 28 26 29 27 31 28 32 29 33 90 34 30 35 89 36
REMARK SMILES IDX 31 37 32 38 33 39 83 40 34 41 88 42 82 43 84 44 35 45 87 46
REMARK SMILES IDX 81 47 80 48 36 50 68 51 48 52 67 53 49 54 52 55 66 56 85 57
REMARK SMILES IDX 50 58 51 59 65 61 86 62 53 63 37 64 38 65 46 66 39 67 40 68
REMARK SMILES IDX 44 69 47 70 41 71 42 72 45 73 43 74 69 75 70 76 78 77 71 78
REMARK SMILES IDX 72 79 76 80 79 81 73 82 74 83 77 84 75 85 54 86 55 87 63 88
REMARK SMILES IDX 56 89 57 90 61 91 64 92 58 93 59 94 62 95 60 96
REMARK H PARENT 21 6 17 14 17 15 25 30 84 49 52 60
REMARK Flexibility Score: inf
ROOT
ATOM      1  C   UNL A   1      34.829  33.266  29.798  1.00  0.00     0.042 C 
ENDROOT
BRANCH   1   2
ATOM      2  C   UNL A   1      34.782  32.170  30.864  1.00  0.00     0.118 C 
BRANCH   2   3
ATOM      3  N   UNL A   1      34.735  32.700  32.221  1.00  0.00    -0.351 N 
ATOM      4  C   UNL A   1      35.618  32.810  33.252  1.00  0.00     0.279 C 
ATOM      5  O   UNL A   1      35.138  33.251  34.306  1.00  0.00    -0.268 OA
ATOM      6  H   UNL A   1      33.850  33.064  32.447  1.00  0.00     0.163 HD
BRANCH   4   7
ATOM      7  C   UNL A   1      37.097  32.369  33.218  1.00  0.00     0.289 C 
ATOM      8  C   UNL A   1      37.837  34.775  33.937  1.00  0.00     0.030 C 
ATOM      9  C   UNL A   1      38.098  33.536  33.087  1.00  0.00     0.078 C 
ATOM     10  C   UNL A   1      38.275  33.955  31.623  1.00  0.00     0.030 C 
ATOM     11  S   UNL A   1      39.662  32.821  33.688  1.00  0.00    -0.078 SA
ATOM     12  C   UNL A   1      38.895  31.352  34.418  1.00  0.00     0.311 C 
ATOM     13  N   UNL A   1      37.440  31.426  34.304  1.00  0.00    -0.317 N 
ATOM     14  H   UNL A   1      37.043  31.758  35.183  1.00  0.00     0.348 HD
ATOM     15  H   UNL A   1      37.059  30.503  34.095  1.00  0.00     0.348 HD
BRANCH  12  16
ATOM     16  C   UNL A   1      39.519  30.119  33.852  1.00  0.00     0.172 A 
ATOM     17  C   UNL A   1      38.982  29.129  33.048  1.00  0.00     0.054 A 
ATOM     18  O   UNL A   1      40.827  29.825  34.132  1.00  0.00    -0.454 OA
ATOM     19  C   UNL A   1      40.013  28.200  32.806  1.00  0.00     0.051 A 
ATOM     20  C   UNL A   1      41.126  28.664  33.475  1.00  0.00     0.134 A 
BRANCH  20  21
ATOM     21  C   UNL A   1      42.489  28.167  33.582  1.00  0.00     0.017 A 
ATOM     22  C   UNL A   1      43.385  28.692  34.520  1.00  0.00     0.012 A 
ATOM     23  C   UNL A   1      42.908  27.104  32.767  1.00  0.00     0.012 A 
ATOM     24  C   UNL A   1      44.667  28.150  34.655  1.00  0.00     0.001 A 
ATOM     25  C   UNL A   1      44.193  26.572  32.893  1.00  0.00     0.001 A 
ATOM     26  C   UNL A   1      45.069  27.090  33.842  1.00  0.00     0.000 A 
ENDBRANCH  20  21
ENDBRANCH  12  16
ENDBRANCH   4   7
ENDBRANCH   2   3
ENDBRANCH   1   2
BRANCH   1  27
ATOM     27  C   UNL A   1      34.968  32.762  28.370  1.00  0.00     0.118 C 
BRANCH  27  28
ATOM     28  N   UNL A   1      34.226  31.534  28.143  1.00  0.00    -0.352 N 
ATOM     29  C   UNL A   1      34.674  30.246  27.963  1.00  0.00     0.251 C 
ATOM     30  H   UNL A   1      33.248  31.640  28.112  1.00  0.00     0.163 HD
ATOM     31  O   UNL A   1      33.890  29.388  27.569  1.00  0.00    -0.269 OA
BRANCH  29  32
ATOM     32  C   UNL A   1      36.089  29.878  28.219  1.00  0.00     0.039 A 
ATOM     33  C   UNL A   1      36.424  29.329  29.462  1.00  0.00     0.014 A 
ATOM     34  C   UNL A   1      37.097  30.126  27.284  1.00  0.00     0.014 A 
ATOM     35  C   UNL A   1      37.751  28.984  29.742  1.00  0.00     0.010 A 
ATOM     36  C   UNL A   1      38.403  29.704  27.530  1.00  0.00     0.010 A 
ATOM     37  C   UNL A   1      38.749  29.144  28.769  1.00  0.00    -0.014 A 
BRANCH  37  38
ATOM     38  C   UNL A   1      40.163  28.772  29.042  1.00  0.00     0.031 A 
ATOM     39  C   UNL A   1      41.069  29.727  29.772  1.00  0.00     0.074 A 
ATOM     40  C   UNL A   1      40.651  27.599  28.592  1.00  0.00     0.049 A 
ATOM     41  N   UNL A   1      42.347  29.618  30.043  1.00  0.00    -0.248 NA
ATOM     42  C   UNL A   1      40.465  30.987  30.237  1.00  0.00     0.031 C 
ATOM     43  C   UNL A   1      39.893  26.602  27.836  1.00  0.00     0.029 A 
ATOM     44  N   UNL A   1      41.905  27.052  28.701  1.00  0.00    -0.354 N 
ATOM     45  C   UNL A   1      42.701  30.798  30.685  1.00  0.00     0.074 A 
ATOM     46  C   UNL A   1      41.517  31.630  30.722  1.00  0.00     0.031 C 
ATOM     47  C   UNL A   1      40.689  25.554  27.570  1.00  0.00     0.029 A 
ATOM     48  C   UNL A   1      42.021  25.818  28.107  1.00  0.00     0.049 A 
ATOM     49  H   UNL A   1      42.651  27.501  29.161  1.00  0.00     0.167 HD
ATOM     50  C   UNL A   1      43.895  31.148  31.219  1.00  0.00     0.037 A 
ATOM     51  C   UNL A   1      43.082  24.995  28.006  1.00  0.00     0.037 A 
ATOM     52  C   UNL A   1      45.062  30.307  31.221  1.00  0.00     0.049 A 
ATOM     53  C   UNL A   1      44.394  25.401  28.620  1.00  0.00     0.074 A 
ATOM     54  C   UNL A   1      46.301  30.548  31.789  1.00  0.00     0.029 A 
ATOM     55  N   UNL A   1      45.131  29.054  30.630  1.00  0.00    -0.354 N 
ATOM     56  N   UNL A   1      44.700  26.496  29.270  1.00  0.00    -0.248 NA
ATOM     57  C   UNL A   1      45.507  24.450  28.489  1.00  0.00     0.031 C 
ATOM     58  C   UNL A   1      47.130  29.455  31.515  1.00  0.00     0.029 A 
ATOM     59  C   UNL A   1      46.396  28.516  30.809  1.00  0.00     0.049 A 
ATOM     60  H   UNL A   1      44.392  28.613  30.154  1.00  0.00     0.167 HD
ATOM     61  C   UNL A   1      46.028  26.357  29.648  1.00  0.00     0.074 A 
ATOM     62  C   UNL A   1      46.468  25.065  29.165  1.00  0.00     0.031 C 
ATOM     63  C   UNL A   1      46.814  27.224  30.331  1.00  0.00     0.037 A 
BRANCH  50  64
ATOM     64  C   UNL A   1      43.998  32.503  31.858  1.00  0.00     0.064 A 
ATOM     65  C   UNL A   1      43.680  32.702  33.210  1.00  0.00     0.173 A 
ATOM     66  C   UNL A   1      44.450  33.607  31.119  1.00  0.00     0.173 A 
ATOM     67  F   UNL A   1      43.230  31.681  33.955  1.00  0.00    -0.203 F 
ATOM     68  C   UNL A   1      43.784  33.963  33.791  1.00  0.00     0.198 A 
ATOM     69  C   UNL A   1      44.580  34.860  31.712  1.00  0.00     0.198 A 
ATOM     70  F   UNL A   1      44.772  33.469  29.824  1.00  0.00    -0.203 F 
ATOM     71  F   UNL A   1      43.429  34.139  35.071  1.00  0.00    -0.200 F 
ATOM     72  C   UNL A   1      44.239  35.039  33.045  1.00  0.00     0.200 A 
ATOM     73  F   UNL A   1      45.030  35.896  30.992  1.00  0.00    -0.200 F 
ATOM     74  F   UNL A   1      44.344  36.251  33.608  1.00  0.00    -0.200 F 
ENDBRANCH  50  64
BRANCH  51  75
ATOM     75  C   UNL A   1      42.938  23.684  27.322  1.00  0.00     0.064 A 
ATOM     76  C   UNL A   1      43.346  23.523  25.990  1.00  0.00     0.173 A 
ATOM     77  C   UNL A   1      42.391  22.573  27.977  1.00  0.00     0.173 A 
ATOM     78  F   UNL A   1      43.855  24.565  25.316  1.00  0.00    -0.203 F 
ATOM     79  C   UNL A   1      43.198  22.303  25.335  1.00  0.00     0.198 A 
ATOM     80  C   UNL A   1      42.266  21.346  27.329  1.00  0.00     0.198 A 
ATOM     81  F   UNL A   1      41.989  22.676  29.253  1.00  0.00    -0.203 F 
ATOM     82  F   UNL A   1      43.559  22.187  24.050  1.00  0.00    -0.200 F 
ATOM     83  C   UNL A   1      42.663  21.214  26.006  1.00  0.00     0.200 A 
ATOM     84  F   UNL A   1      41.760  20.293  27.984  1.00  0.00    -0.200 F 
ATOM     85  F   UNL A   1      42.525  20.039  25.376  1.00  0.00    -0.200 F 
ENDBRANCH  51  75
BRANCH  63  86
ATOM     86  C   UNL A   1      48.219  26.791  30.627  1.00  0.00     0.064 A 
ATOM     87  C   UNL A   1      48.516  25.957  31.714  1.00  0.00     0.173 A 
ATOM     88  C   UNL A   1      49.274  27.185  29.791  1.00  0.00     0.173 A 
ATOM     89  F   UNL A   1      47.542  25.565  32.550  1.00  0.00    -0.203 F 
ATOM     90  C   UNL A   1      49.824  25.550  31.965  1.00  0.00     0.198 A 
ATOM     91  C   UNL A   1      50.576  26.756  30.031  1.00  0.00     0.198 A 
ATOM     92  F   UNL A   1      49.040  27.979  28.735  1.00  0.00    -0.203 F 
ATOM     93  F   UNL A   1      50.092  24.786  33.034  1.00  0.00    -0.200 F 
ATOM     94  C   UNL A   1      50.850  25.944  31.121  1.00  0.00     0.200 A 
ATOM     95  F   UNL A   1      51.566  27.130  29.209  1.00  0.00    -0.200 F 
ATOM     96  F   UNL A   1      52.108  25.548  31.363  1.00  0.00    -0.200 F 
ENDBRANCH  63  86
ENDBRANCH  37  38
ENDBRANCH  29  32
ENDBRANCH  27  28
ENDBRANCH   1  27
TORSDOF 12
ENDMDL
MODEL 3
REMARK VINA RESULT:     -10.0      0.497      7.381
REMARK SMILES CC1(C)S[C@H](c2ccc(-c3ccccc3)o2)[NH2+][C@H]1C(=O)NCCCNC(=O)c1ccc(-c2c3nc(c(-c4c(F)c(F)c(F)c(F)c4F)c4ccc([nH]4)c(-c4c(F)c(F)c(F)c(F)c4F)c4nc(c(-c5c(F)c(F)c(F)c(F)c5F)c5ccc2[nH]5)C=C4)C=C3)cc1
REMARK SMILES IDX 23 1 22 2 21 3 19 4 20 5 18 7 1 8 2 9 3 10 4 11 5 12 17 13
REMARK SMILES IDX 6 16 7 17 16 18 8 19 9 20 10 21 11 22 15 23 12 24 14 25
REMARK SMILES IDX 13 26 24 27 25 28 26 29 27 31 28 32 29 33 90 34 30 35 89 36
REMARK SMILES IDX 31 37 32 38 33 39 83 40 34 41 88 42 82 43 84 44 35 45 87 46
REMARK SMILES IDX 81 47 80 48 36 50 68 51 48 52 67 53 49 54 52 55 66 56 85 57
REMARK SMILES IDX 50 58 51 59 65 61 86 62 53 63 37 64 38 65 46 66 39 67 40 68
REMARK SMILES IDX 44 69 47 70 41 71 42 72 45 73 43 74 69 75 70 76 78 77 71 78
REMARK SMILES IDX 72 79 76 80 79 81 73 82 74 83 77 84 75 85 54 86 55 87 63 88
REMARK SMILES IDX 56 89 57 90 61 91 64 92 58 93 59 94 62 95 60 96
REMARK H PARENT 21 6 17 14 17 15 25 30 84 49 52 60
REMARK Flexibility Score: inf
ROOT
ATOM      1  C   UNL A   1      33.484  29.166  23.208  1.00  0.00     0.042 C 
ENDROOT
BRANCH   1   2
ATOM      2  C   UNL A   1      33.941  27.887  22.506  1.00  0.00     0.118 C 
BRANCH   2   3
ATOM      3  N   UNL A   1      32.896  27.286  21.686  1.00  0.00    -0.351 N 
ATOM      4  C   UNL A   1      32.140  26.155  21.750  1.00  0.00     0.279 C 
ATOM      5  O   UNL A   1      31.408  25.960  20.771  1.00  0.00    -0.268 OA
ATOM      6  H   UNL A   1      32.688  27.829  20.892  1.00  0.00     0.163 HD
BRANCH   4   7
ATOM      7  C   UNL A   1      32.192  25.105  22.880  1.00  0.00     0.289 C 
ATOM      8  C   UNL A   1      29.763  25.760  23.607  1.00  0.00     0.030 C 
ATOM      9  C   UNL A   1      31.175  25.352  24.015  1.00  0.00     0.078 C 
ATOM     10  C   UNL A   1      31.717  26.359  25.037  1.00  0.00     0.030 C 
ATOM     11  S   UNL A   1      31.028  23.723  24.814  1.00  0.00    -0.078 SA
ATOM     12  C   UNL A   1      31.859  22.817  23.484  1.00  0.00     0.311 C 
ATOM     13  N   UNL A   1      32.174  23.716  22.375  1.00  0.00    -0.317 N 
ATOM     14  H   UNL A   1      31.464  23.625  21.648  1.00  0.00     0.348 HD
ATOM     15  H   UNL A   1      33.084  23.478  21.982  1.00  0.00     0.348 HD
BRANCH  12  16
ATOM     16  C   UNL A   1      33.017  22.053  24.037  1.00  0.00     0.172 A 
ATOM     17  C   UNL A   1      33.169  20.698  24.272  1.00  0.00     0.054 A 
ATOM     18  O   UNL A   1      34.153  22.717  24.420  1.00  0.00    -0.454 OA
ATOM     19  C   UNL A   1      34.464  20.521  24.800  1.00  0.00     0.051 A 
ATOM     20  C   UNL A   1      35.036  21.774  24.865  1.00  0.00     0.134 A 
BRANCH  20  21
ATOM     21  C   UNL A   1      36.350  22.234  25.288  1.00  0.00     0.017 A 
ATOM     22  C   UNL A   1      36.553  23.545  25.738  1.00  0.00     0.012 A 
ATOM     23  C   UNL A   1      37.432  21.341  25.296  1.00  0.00     0.012 A 
ATOM     24  C   UNL A   1      37.808  23.944  26.208  1.00  0.00     0.001 A 
ATOM     25  C   UNL A   1      38.688  21.744  25.753  1.00  0.00     0.001 A 
ATOM     26  C   UNL A   1      38.873  23.044  26.216  1.00  0.00     0.000 A 
ENDBRANCH  20  21
ENDBRANCH  12  16
ENDBRANCH   4   7
ENDBRANCH   2   3
ENDBRANCH   1   2
BRANCH   1  27
ATOM     27  C   UNL A   1      33.725  29.190  24.710  1.00  0.00     0.118 C 
BRANCH  27  28
ATOM     28  N   UNL A   1      32.968  30.237  25.374  1.00  0.00    -0.352 N 
ATOM     29  C   UNL A   1      33.151  30.818  26.608  1.00  0.00     0.251 C 
ATOM     30  H   UNL A   1      32.204  30.585  24.861  1.00  0.00     0.163 HD
ATOM     31  O   UNL A   1      32.267  31.534  27.070  1.00  0.00    -0.269 OA
BRANCH  29  32
ATOM     32  C   UNL A   1      34.384  30.581  27.398  1.00  0.00     0.039 A 
ATOM     33  C   UNL A   1      34.574  29.324  27.983  1.00  0.00     0.014 A 
ATOM     34  C   UNL A   1      35.321  31.592  27.626  1.00  0.00     0.014 A 
ATOM     35  C   UNL A   1      35.719  29.070  28.747  1.00  0.00     0.010 A 
ATOM     36  C   UNL A   1      36.502  31.314  28.314  1.00  0.00     0.010 A 
ATOM     37  C   UNL A   1      36.707  30.055  28.898  1.00  0.00    -0.014 A 
BRANCH  37  38
ATOM     38  C   UNL A   1      37.937  29.802  29.694  1.00  0.00     0.031 A 
ATOM     39  C   UNL A   1      39.014  28.898  29.156  1.00  0.00     0.074 A 
ATOM     40  C   UNL A   1      38.069  30.342  30.921  1.00  0.00     0.049 A 
ATOM     41  N   UNL A   1      40.124  28.498  29.725  1.00  0.00    -0.248 NA
ATOM     42  C   UNL A   1      38.803  28.349  27.806  1.00  0.00     0.031 C 
ATOM     43  C   UNL A   1      37.084  31.201  31.578  1.00  0.00     0.029 A 
ATOM     44  N   UNL A   1      39.086  30.241  31.838  1.00  0.00    -0.354 N 
ATOM     45  C   UNL A   1      40.727  27.637  28.817  1.00  0.00     0.074 A 
ATOM     46  C   UNL A   1      39.839  27.533  27.680  1.00  0.00     0.031 C 
ATOM     47  C   UNL A   1      37.553  31.569  32.781  1.00  0.00     0.029 A 
ATOM     48  C   UNL A   1      38.857  30.947  32.995  1.00  0.00     0.049 A 
ATOM     49  H   UNL A   1      39.902  29.713  31.682  1.00  0.00     0.167 HD
ATOM     50  C   UNL A   1      41.923  27.008  28.910  1.00  0.00     0.037 A 
ATOM     51  C   UNL A   1      39.612  31.075  34.102  1.00  0.00     0.037 A 
ATOM     52  C   UNL A   1      42.827  27.141  30.021  1.00  0.00     0.049 A 
ATOM     53  C   UNL A   1      40.943  30.378  34.174  1.00  0.00     0.074 A 
ATOM     54  C   UNL A   1      44.088  26.592  30.181  1.00  0.00     0.029 A 
ATOM     55  N   UNL A   1      42.568  27.885  31.163  1.00  0.00    -0.354 N 
ATOM     56  N   UNL A   1      41.524  29.609  33.287  1.00  0.00    -0.248 NA
ATOM     57  C   UNL A   1      41.726  30.573  35.403  1.00  0.00     0.031 C 
ATOM     58  C   UNL A   1      44.579  26.977  31.433  1.00  0.00     0.029 A 
ATOM     59  C   UNL A   1      43.641  27.798  32.037  1.00  0.00     0.049 A 
ATOM     60  H   UNL A   1      41.746  28.398  31.327  1.00  0.00     0.167 HD
ATOM     61  C   UNL A   1      42.747  29.250  33.836  1.00  0.00     0.074 A 
ATOM     62  C   UNL A   1      42.832  29.896  35.130  1.00  0.00     0.031 C 
ATOM     63  C   UNL A   1      43.713  28.455  33.315  1.00  0.00     0.037 A 
BRANCH  50  64
ATOM     64  C   UNL A   1      42.330  26.122  27.769  1.00  0.00     0.064 A 
ATOM     65  C   UNL A   1      43.106  26.605  26.705  1.00  0.00     0.173 A 
ATOM     66  C   UNL A   1      41.968  24.766  27.755  1.00  0.00     0.173 A 
ATOM     67  F   UNL A   1      43.466  27.897  26.665  1.00  0.00    -0.203 F 
ATOM     68  C   UNL A   1      43.480  25.771  25.654  1.00  0.00     0.198 A 
ATOM     69  C   UNL A   1      42.369  23.928  26.716  1.00  0.00     0.198 A 
ATOM     70  F   UNL A   1      41.231  24.252  28.751  1.00  0.00    -0.203 F 
ATOM     71  F   UNL A   1      44.180  26.268  24.625  1.00  0.00    -0.200 F 
ATOM     72  C   UNL A   1      43.117  24.433  25.663  1.00  0.00     0.200 A 
ATOM     73  F   UNL A   1      42.026  22.633  26.733  1.00  0.00    -0.200 F 
ATOM     74  F   UNL A   1      43.483  23.631  24.654  1.00  0.00    -0.200 F 
ENDBRANCH  50  64
BRANCH  51  75
ATOM     75  C   UNL A   1      39.141  31.928  35.224  1.00  0.00     0.064 A 
ATOM     76  C   UNL A   1      39.402  33.305  35.234  1.00  0.00     0.173 A 
ATOM     77  C   UNL A   1      38.427  31.390  36.303  1.00  0.00     0.173 A 
ATOM     78  F   UNL A   1      40.101  33.861  34.232  1.00  0.00    -0.203 F 
ATOM     79  C   UNL A   1      38.980  34.110  36.289  1.00  0.00     0.198 A 
ATOM     80  C   UNL A   1      37.984  32.200  37.346  1.00  0.00     0.198 A 
ATOM     81  F   UNL A   1      38.150  30.078  36.337  1.00  0.00    -0.203 F 
ATOM     82  F   UNL A   1      39.277  35.417  36.293  1.00  0.00    -0.200 F 
ATOM     83  C   UNL A   1      38.267  33.558  37.342  1.00  0.00     0.200 A 
ATOM     84  F   UNL A   1      37.285  31.665  38.356  1.00  0.00    -0.200 F 
ATOM     85  F   UNL A   1      37.857  34.333  38.356  1.00  0.00    -0.200 F 
ENDBRANCH  51  75
BRANCH  63  86
ATOM     86  C   UNL A   1      44.959  28.264  34.129  1.00  0.00     0.064 A 
ATOM     87  C   UNL A   1      45.067  27.234  35.074  1.00  0.00     0.173 A 
ATOM     88  C   UNL A   1      46.069  29.098  33.933  1.00  0.00     0.173 A 
ATOM     89  F   UNL A   1      44.026  26.420  35.307  1.00  0.00    -0.203 F 
ATOM     90  C   UNL A   1      46.236  27.061  35.810  1.00  0.00     0.198 A 
ATOM     91  C   UNL A   1      47.245  28.906  34.652  1.00  0.00     0.198 A 
ATOM     92  F   UNL A   1      46.017  30.095  33.036  1.00  0.00    -0.203 F 
ATOM     93  F   UNL A   1      46.304  26.096  36.738  1.00  0.00    -0.200 F 
ATOM     94  C   UNL A   1      47.325  27.891  35.594  1.00  0.00     0.200 A 
ATOM     95  F   UNL A   1      48.300  29.703  34.436  1.00  0.00    -0.200 F 
ATOM     96  F   UNL A   1      48.451  27.718  36.301  1.00  0.00    -0.200 F 
ENDBRANCH  63  86
ENDBRANCH  37  38
ENDBRANCH  29  32
ENDBRANCH  27  28
ENDBRANCH   1  27
TORSDOF 12
ENDMDL
