MODEL 1
REMARK VINA RESULT:     -13.8      0.000      0.000
REMARK SMILES O=C(COc1nc(Nc2ccc(Cl)cc2Cl)nc2c1C[N@H+](Cc1ccccc1)CC2)NCCCNC(=O)c1ccc(-c2c3nc(c(-c4c(F)c(F)c(F)c(F)c4F)c4ccc([nH]4)c(-c4c(F)c(F)c(F)c(F)c4F)c4nc(c(-c5c(F)c(F)c(F)c(F)c5F)c5ccc2[nH]5)C=C4)C=C3)cc1
REMARK SMILES IDX 32 1 31 2 1 3 2 4 3 6 4 7 5 8 6 9 19 10 7 11 18 12 20 13
REMARK SMILES IDX 17 14 30 15 21 16 29 17 8 19 9 21 10 22 15 23 11 24 14 25
REMARK SMILES IDX 16 26 12 27 13 28 22 29 23 30 24 31 28 32 25 33 27 34 26 35
REMARK SMILES IDX 33 36 34 37 35 38 36 39 37 41 38 42 39 43 100 44 40 45 99 46
REMARK SMILES IDX 41 47 42 48 43 49 93 50 44 51 98 52 92 53 94 54 45 55 97 56
REMARK SMILES IDX 91 57 90 58 46 60 78 61 58 62 77 63 59 64 62 65 76 66 95 67
REMARK SMILES IDX 60 68 61 69 75 71 96 72 63 73 47 74 48 75 56 76 49 77 50 78
REMARK SMILES IDX 54 79 57 80 51 81 52 82 55 83 53 84 79 85 80 86 88 87 81 88
REMARK SMILES IDX 82 89 86 90 89 91 83 92 84 93 87 94 85 95 64 96 65 97 73 98
REMARK SMILES IDX 66 99 67 100 71 101 74 102 68 103 69 104 72 105 70 106
REMARK H PARENT 31 5 21 18 8 20 35 40 94 59 62 70
REMARK Flexibility Score: inf
ROOT
ATOM      1  C   UNL A   1      31.528  30.594  26.299  1.00  0.00     0.117 C 
ENDROOT
BRANCH   1   2
ATOM      2  N   UNL A   1      32.094  30.252  25.018  1.00  0.00    -0.353 N 
ATOM      3  O   UNL A   1      33.825  28.984  25.839  1.00  0.00    -0.271 OA
ATOM      4  C   UNL A   1      33.155  29.385  24.891  1.00  0.00     0.258 C 
ATOM      5  H   UNL A   1      31.707  30.653  24.206  1.00  0.00     0.163 HD
BRANCH   4   6
ATOM      6  C   UNL A   1      33.494  29.022  23.443  1.00  0.00     0.331 C 
BRANCH   6   7
ATOM      7  O   UNL A   1      32.391  28.652  22.616  1.00  0.00    -0.467 OA
BRANCH   7   8
ATOM      8  C   UNL A   1      31.977  27.371  22.913  1.00  0.00     0.228 A 
ATOM      9  N   UNL A   1      32.930  26.444  23.058  1.00  0.00    -0.177 NA
ATOM     10  C   UNL A   1      30.640  27.151  23.142  1.00  0.00     0.090 A 
ATOM     11  C   UNL A   1      32.527  25.217  23.417  1.00  0.00     0.230 A 
ATOM     12  C   UNL A   1      30.316  25.863  23.505  1.00  0.00     0.064 A 
ATOM     13  C   UNL A   1      29.636  28.257  23.121  1.00  0.00     0.307 C 
ATOM     14  N   UNL A   1      31.242  24.883  23.617  1.00  0.00    -0.217 NA
ATOM     15  C   UNL A   1      28.874  25.500  23.749  1.00  0.00     0.118 C 
ATOM     16  N   UNL A   1      28.245  27.793  23.080  1.00  0.00    -0.327 N 
ATOM     17  C   UNL A   1      28.012  26.733  24.069  1.00  0.00     0.269 C 
ATOM     18  H   UNL A   1      28.081  27.370  22.166  1.00  0.00     0.348 HD
BRANCH  11  19
ATOM     19  N   UNL A   1      33.463  24.198  23.557  1.00  0.00    -0.323 N 
ATOM     20  H   UNL A   1      34.374  24.405  23.248  1.00  0.00     0.170 HD
BRANCH  19  21
ATOM     21  C   UNL A   1      33.268  22.917  24.082  1.00  0.00     0.060 A 
ATOM     22  C   UNL A   1      32.724  21.930  23.247  1.00  0.00     0.029 A 
ATOM     23  C   UNL A   1      33.595  22.565  25.406  1.00  0.00     0.066 A 
ATOM     24  C   UNL A   1      32.573  20.614  23.697  1.00  0.00     0.023 A 
ATOM     25  C   UNL A   1      33.413  21.256  25.867  1.00  0.00     0.043 A 
ATOM     26  Cl  UNL A   1      34.215  23.724  26.532  1.00  0.00    -0.082 Cl
ATOM     27  C   UNL A   1      32.928  20.283  25.000  1.00  0.00     0.042 A 
ATOM     28  Cl  UNL A   1      32.792  18.654  25.537  1.00  0.00    -0.084 Cl
ENDBRANCH  19  21
ENDBRANCH  11  19
BRANCH  16  29
ATOM     29  C   UNL A   1      27.279  28.905  23.160  1.00  0.00     0.299 C 
BRANCH  29  30
ATOM     30  C   UNL A   1      27.761  30.262  22.686  1.00  0.00     0.006 A 
ATOM     31  C   UNL A   1      27.949  30.509  21.318  1.00  0.00     0.009 A 
ATOM     32  C   UNL A   1      28.015  31.302  23.594  1.00  0.00     0.009 A 
ATOM     33  C   UNL A   1      28.344  31.771  20.870  1.00  0.00     0.001 A 
ATOM     34  C   UNL A   1      28.384  32.571  23.145  1.00  0.00     0.001 A 
ATOM     35  C   UNL A   1      28.546  32.806  21.782  1.00  0.00     0.000 A 
ENDBRANCH  29  30
ENDBRANCH  16  29
ENDBRANCH   7   8
ENDBRANCH   6   7
ENDBRANCH   4   6
ENDBRANCH   1   2
BRANCH   1  36
ATOM     36  C   UNL A   1      31.372  32.088  26.522  1.00  0.00     0.042 C 
BRANCH  36  37
ATOM     37  C   UNL A   1      32.559  32.726  27.233  1.00  0.00     0.118 C 
BRANCH  37  38
ATOM     38  N   UNL A   1      32.340  34.123  27.594  1.00  0.00    -0.352 N 
ATOM     39  C   UNL A   1      32.957  34.917  28.529  1.00  0.00     0.251 C 
ATOM     40  H   UNL A   1      31.629  34.571  27.082  1.00  0.00     0.163 HD
ATOM     41  O   UNL A   1      32.516  36.039  28.766  1.00  0.00    -0.269 OA
BRANCH  39  42
ATOM     42  C   UNL A   1      34.131  34.423  29.280  1.00  0.00     0.039 A 
ATOM     43  C   UNL A   1      33.929  33.832  30.531  1.00  0.00     0.014 A 
ATOM     44  C   UNL A   1      35.424  34.544  28.767  1.00  0.00     0.014 A 
ATOM     45  C   UNL A   1      35.011  33.283  31.221  1.00  0.00     0.010 A 
ATOM     46  C   UNL A   1      36.488  33.922  29.413  1.00  0.00     0.010 A 
ATOM     47  C   UNL A   1      36.292  33.281  30.646  1.00  0.00    -0.014 A 
BRANCH  47  48
ATOM     48  C   UNL A   1      37.431  32.603  31.312  1.00  0.00     0.031 A 
ATOM     49  C   UNL A   1      38.149  31.475  30.628  1.00  0.00     0.074 A 
ATOM     50  C   UNL A   1      37.786  32.971  32.559  1.00  0.00     0.049 A 
ATOM     51  N   UNL A   1      39.137  30.738  31.067  1.00  0.00    -0.248 NA
ATOM     52  C   UNL A   1      37.679  31.108  29.283  1.00  0.00     0.031 C 
ATOM     53  C   UNL A   1      37.134  34.019  33.347  1.00  0.00     0.029 A 
ATOM     54  N   UNL A   1      38.781  32.508  33.382  1.00  0.00    -0.354 N 
ATOM     55  C   UNL A   1      39.401  29.821  30.059  1.00  0.00     0.074 A 
ATOM     56  C   UNL A   1      38.432  30.053  29.010  1.00  0.00     0.031 C 
ATOM     57  C   UNL A   1      37.771  34.144  34.523  1.00  0.00     0.029 A 
ATOM     58  C   UNL A   1      38.852  33.165  34.587  1.00  0.00     0.049 A 
ATOM     59  H   UNL A   1      39.388  31.772  33.134  1.00  0.00     0.167 HD
ATOM     60  C   UNL A   1      40.383  28.890  30.001  1.00  0.00     0.037 A 
ATOM     61  C   UNL A   1      39.695  33.000  35.623  1.00  0.00     0.037 A 
ATOM     62  C   UNL A   1      41.364  28.682  31.030  1.00  0.00     0.049 A 
ATOM     63  C   UNL A   1      40.769  31.951  35.538  1.00  0.00     0.074 A 
ATOM     64  C   UNL A   1      42.433  27.804  31.036  1.00  0.00     0.029 A 
ATOM     65  N   UNL A   1      41.399  29.365  32.237  1.00  0.00    -0.354 N 
ATOM     66  N   UNL A   1      41.046  31.132  34.554  1.00  0.00    -0.248 NA
ATOM     67  C   UNL A   1      41.648  31.803  36.708  1.00  0.00     0.031 C 
ATOM     68  C   UNL A   1      43.094  27.929  32.262  1.00  0.00     0.029 A 
ATOM     69  C   UNL A   1      42.460  28.913  33.003  1.00  0.00     0.049 A 
ATOM     70  H   UNL A   1      40.763  30.066  32.509  1.00  0.00     0.167 HD
ATOM     71  C   UNL A   1      42.138  30.386  34.973  1.00  0.00     0.074 A 
ATOM     72  C   UNL A   1      42.485  30.858  36.298  1.00  0.00     0.031 C 
ATOM     73  C   UNL A   1      42.794  29.398  34.318  1.00  0.00     0.037 A 
BRANCH  60  74
ATOM     74  C   UNL A   1      40.462  28.040  28.768  1.00  0.00     0.064 A 
ATOM     75  C   UNL A   1      41.240  28.427  27.666  1.00  0.00     0.173 A 
ATOM     76  C   UNL A   1      39.803  26.804  28.707  1.00  0.00     0.173 A 
ATOM     77  F   UNL A   1      41.881  29.606  27.673  1.00  0.00    -0.203 F 
ATOM     78  C   UNL A   1      41.339  27.616  26.540  1.00  0.00     0.198 A 
ATOM     79  C   UNL A   1      39.925  25.984  27.589  1.00  0.00     0.198 A 
ATOM     80  F   UNL A   1      39.051  26.386  29.736  1.00  0.00    -0.203 F 
ATOM     81  F   UNL A   1      42.057  28.023  25.484  1.00  0.00    -0.200 F 
ATOM     82  C   UNL A   1      40.689  26.392  26.505  1.00  0.00     0.200 A 
ATOM     83  F   UNL A   1      39.306  24.795  27.560  1.00  0.00    -0.200 F 
ATOM     84  F   UNL A   1      40.795  25.606  25.424  1.00  0.00    -0.200 F 
ENDBRANCH  60  74
BRANCH  61  85
ATOM     85  C   UNL A   1      39.585  33.885  36.810  1.00  0.00     0.064 A 
ATOM     86  C   UNL A   1      38.822  33.498  37.920  1.00  0.00     0.173 A 
ATOM     87  C   UNL A   1      40.251  35.117  36.871  1.00  0.00     0.173 A 
ATOM     88  F   UNL A   1      38.150  32.338  37.897  1.00  0.00    -0.203 F 
ATOM     89  C   UNL A   1      38.723  34.314  39.045  1.00  0.00     0.198 A 
ATOM     90  C   UNL A   1      40.170  35.922  38.006  1.00  0.00     0.198 A 
ATOM     91  F   UNL A   1      40.996  35.531  35.836  1.00  0.00    -0.203 F 
ATOM     92  F   UNL A   1      37.962  33.933  40.080  1.00  0.00    -0.200 F 
ATOM     93  C   UNL A   1      39.403  35.522  39.091  1.00  0.00     0.200 A 
ATOM     94  F   UNL A   1      40.837  37.083  38.052  1.00  0.00    -0.200 F 
ATOM     95  F   UNL A   1      39.314  36.301  40.176  1.00  0.00    -0.200 F 
ENDBRANCH  61  85
BRANCH  73  96
ATOM     96  C   UNL A   1      43.962  28.761  35.007  1.00  0.00     0.064 A 
ATOM     97  C   UNL A   1      43.806  27.605  35.786  1.00  0.00     0.173 A 
ATOM     98  C   UNL A   1      45.260  29.256  34.814  1.00  0.00     0.173 A 
ATOM     99  F   UNL A   1      42.582  27.103  36.009  1.00  0.00    -0.203 F 
ATOM    100  C   UNL A   1      44.909  26.970  36.348  1.00  0.00     0.198 A 
ATOM    101  C   UNL A   1      46.363  28.606  35.358  1.00  0.00     0.198 A 
ATOM    102  F   UNL A   1      45.459  30.356  34.071  1.00  0.00    -0.203 F 
ATOM    103  F   UNL A   1      44.736  25.878  37.105  1.00  0.00    -0.200 F 
ATOM    104  C   UNL A   1      46.186  27.463  36.125  1.00  0.00     0.200 A 
ATOM    105  F   UNL A   1      47.597  29.075  35.130  1.00  0.00    -0.200 F 
ATOM    106  F   UNL A   1      47.249  26.838  36.650  1.00  0.00    -0.200 F 
ENDBRANCH  73  96
ENDBRANCH  47  48
ENDBRANCH  39  42
ENDBRANCH  37  38
ENDBRANCH  36  37
ENDBRANCH   1  36
TORSDOF 16
ENDMDL
MODEL 2
REMARK VINA RESULT:     -13.8      0.363      6.900
REMARK SMILES O=C(COc1nc(Nc2ccc(Cl)cc2Cl)nc2c1C[N@H+](Cc1ccccc1)CC2)NCCCNC(=O)c1ccc(-c2c3nc(c(-c4c(F)c(F)c(F)c(F)c4F)c4ccc([nH]4)c(-c4c(F)c(F)c(F)c(F)c4F)c4nc(c(-c5c(F)c(F)c(F)c(F)c5F)c5ccc2[nH]5)C=C4)C=C3)cc1
REMARK SMILES IDX 32 1 31 2 1 3 2 4 3 6 4 7 5 8 6 9 19 10 7 11 18 12 20 13
REMARK SMILES IDX 17 14 30 15 21 16 29 17 8 19 9 21 10 22 15 23 11 24 14 25
REMARK SMILES IDX 16 26 12 27 13 28 22 29 23 30 24 31 28 32 25 33 27 34 26 35
REMARK SMILES IDX 33 36 34 37 35 38 36 39 37 41 38 42 39 43 100 44 40 45 99 46
REMARK SMILES IDX 41 47 42 48 43 49 93 50 44 51 98 52 92 53 94 54 45 55 97 56
REMARK SMILES IDX 91 57 90 58 46 60 78 61 58 62 77 63 59 64 62 65 76 66 95 67
REMARK SMILES IDX 60 68 61 69 75 71 96 72 63 73 47 74 48 75 56 76 49 77 50 78
REMARK SMILES IDX 54 79 57 80 51 81 52 82 55 83 53 84 79 85 80 86 88 87 81 88
REMARK SMILES IDX 82 89 86 90 89 91 83 92 84 93 87 94 85 95 64 96 65 97 73 98
REMARK SMILES IDX 66 99 67 100 71 101 74 102 68 103 69 104 72 105 70 106
REMARK H PARENT 31 5 21 18 8 20 35 40 94 59 62 70
REMARK Flexibility Score: inf
ROOT
ATOM      1  C   UNL A   1      31.487  30.557  26.304  1.00  0.00     0.117 C 
ENDROOT
BRANCH   1   2
ATOM      2  N   UNL A   1      32.104  30.205  25.050  1.00  0.00    -0.353 N 
ATOM      3  O   UNL A   1      33.871  29.049  25.956  1.00  0.00    -0.271 OA
ATOM      4  C   UNL A   1      33.209  29.387  24.978  1.00  0.00     0.258 C 
ATOM      5  H   UNL A   1      31.721  30.562  24.215  1.00  0.00     0.163 HD
BRANCH   4   6
ATOM      6  C   UNL A   1      33.606  28.999  23.551  1.00  0.00     0.331 C 
BRANCH   6   7
ATOM      7  O   UNL A   1      32.530  28.689  22.666  1.00  0.00    -0.467 OA
BRANCH   7   8
ATOM      8  C   UNL A   1      32.095  27.397  22.871  1.00  0.00     0.228 A 
ATOM      9  N   UNL A   1      33.031  26.444  22.932  1.00  0.00    -0.177 NA
ATOM     10  C   UNL A   1      30.757  27.187  23.105  1.00  0.00     0.090 A 
ATOM     11  C   UNL A   1      32.608  25.201  23.204  1.00  0.00     0.230 A 
ATOM     12  C   UNL A   1      30.412  25.881  23.376  1.00  0.00     0.064 A 
ATOM     13  C   UNL A   1      29.776  28.310  23.184  1.00  0.00     0.307 C 
ATOM     14  N   UNL A   1      31.319  24.878  23.399  1.00  0.00    -0.217 NA
ATOM     15  C   UNL A   1      28.967  25.529  23.615  1.00  0.00     0.118 C 
ATOM     16  N   UNL A   1      28.375  27.878  23.131  1.00  0.00    -0.327 N 
ATOM     17  C   UNL A   1      28.135  26.750  24.041  1.00  0.00     0.269 C 
ATOM     18  H   UNL A   1      28.188  27.528  22.190  1.00  0.00     0.348 HD
BRANCH  11  19
ATOM     19  N   UNL A   1      33.525  24.158  23.251  1.00  0.00    -0.323 N 
ATOM     20  H   UNL A   1      34.392  24.325  22.815  1.00  0.00     0.170 HD
BRANCH  19  21
ATOM     21  C   UNL A   1      33.367  22.900  23.840  1.00  0.00     0.060 A 
ATOM     22  C   UNL A   1      32.656  21.917  23.136  1.00  0.00     0.029 A 
ATOM     23  C   UNL A   1      33.890  22.566  25.105  1.00  0.00     0.066 A 
ATOM     24  C   UNL A   1      32.527  20.621  23.645  1.00  0.00     0.023 A 
ATOM     25  C   UNL A   1      33.732  21.278  25.631  1.00  0.00     0.043 A 
ATOM     26  Cl  UNL A   1      34.729  23.724  26.080  1.00  0.00    -0.082 Cl
ATOM     27  C   UNL A   1      33.075  20.307  24.885  1.00  0.00     0.042 A 
ATOM     28  Cl  UNL A   1      32.963  18.699  25.488  1.00  0.00    -0.084 Cl
ENDBRANCH  19  21
ENDBRANCH  11  19
BRANCH  16  29
ATOM     29  C   UNL A   1      27.433  28.999  23.310  1.00  0.00     0.299 C 
BRANCH  29  30
ATOM     30  C   UNL A   1      27.838  30.332  22.712  1.00  0.00     0.006 A 
ATOM     31  C   UNL A   1      27.903  30.492  21.320  1.00  0.00     0.009 A 
ATOM     32  C   UNL A   1      28.141  31.434  23.527  1.00  0.00     0.009 A 
ATOM     33  C   UNL A   1      28.226  31.730  20.761  1.00  0.00     0.001 A 
ATOM     34  C   UNL A   1      28.438  32.677  22.969  1.00  0.00     0.001 A 
ATOM     35  C   UNL A   1      28.478  32.826  21.585  1.00  0.00     0.000 A 
ENDBRANCH  29  30
ENDBRANCH  16  29
ENDBRANCH   7   8
ENDBRANCH   6   7
ENDBRANCH   4   6
ENDBRANCH   1   2
BRANCH   1  36
ATOM     36  C   UNL A   1      31.376  32.054  26.534  1.00  0.00     0.042 C 
BRANCH  36  37
ATOM     37  C   UNL A   1      32.600  32.659  27.212  1.00  0.00     0.118 C 
BRANCH  37  38
ATOM     38  N   UNL A   1      32.412  34.047  27.620  1.00  0.00    -0.352 N 
ATOM     39  C   UNL A   1      33.059  34.800  28.570  1.00  0.00     0.251 C 
ATOM     40  H   UNL A   1      31.701  34.525  27.135  1.00  0.00     0.163 HD
ATOM     41  O   UNL A   1      32.642  35.921  28.850  1.00  0.00    -0.269 OA
BRANCH  39  42
ATOM     42  C   UNL A   1      34.236  34.261  29.284  1.00  0.00     0.039 A 
ATOM     43  C   UNL A   1      34.028  33.437  30.395  1.00  0.00     0.014 A 
ATOM     44  C   UNL A   1      35.535  34.567  28.877  1.00  0.00     0.014 A 
ATOM     45  C   UNL A   1      35.120  32.848  31.035  1.00  0.00     0.010 A 
ATOM     46  C   UNL A   1      36.617  33.914  29.460  1.00  0.00     0.010 A 
ATOM     47  C   UNL A   1      36.421  33.044  30.543  1.00  0.00    -0.014 A 
BRANCH  47  48
ATOM     48  C   UNL A   1      37.581  32.338  31.140  1.00  0.00     0.031 A 
ATOM     49  C   UNL A   1      38.069  32.704  32.513  1.00  0.00     0.074 A 
ATOM     50  C   UNL A   1      38.229  31.400  30.421  1.00  0.00     0.049 A 
ATOM     51  N   UNL A   1      39.088  32.228  33.181  1.00  0.00    -0.248 NA
ATOM     52  C   UNL A   1      37.331  33.763  33.218  1.00  0.00     0.031 C 
ATOM     53  C   UNL A   1      37.883  30.992  29.058  1.00  0.00     0.029 A 
ATOM     54  N   UNL A   1      39.314  30.620  30.735  1.00  0.00    -0.354 N 
ATOM     55  C   UNL A   1      39.116  32.930  34.378  1.00  0.00     0.074 A 
ATOM     56  C   UNL A   1      38.050  33.906  34.322  1.00  0.00     0.031 C 
ATOM     57  C   UNL A   1      38.712  30.011  28.669  1.00  0.00     0.029 A 
ATOM     58  C   UNL A   1      39.670  29.744  29.738  1.00  0.00     0.049 A 
ATOM     59  H   UNL A   1      39.793  30.682  31.593  1.00  0.00     0.167 HD
ATOM     60  C   UNL A   1      39.937  32.755  35.440  1.00  0.00     0.037 A 
ATOM     61  C   UNL A   1      40.654  28.827  29.693  1.00  0.00     0.037 A 
ATOM     62  C   UNL A   1      40.976  31.763  35.507  1.00  0.00     0.049 A 
ATOM     63  C   UNL A   1      41.560  28.661  30.881  1.00  0.00     0.074 A 
ATOM     64  C   UNL A   1      41.820  31.469  36.563  1.00  0.00     0.029 A 
ATOM     65  N   UNL A   1      41.308  30.898  34.474  1.00  0.00    -0.354 N 
ATOM     66  N   UNL A   1      41.537  29.289  32.031  1.00  0.00    -0.248 NA
ATOM     67  C   UNL A   1      42.629  27.657  30.768  1.00  0.00     0.031 C 
ATOM     68  C   UNL A   1      42.688  30.452  36.157  1.00  0.00     0.029 A 
ATOM     69  C   UNL A   1      42.359  30.084  34.863  1.00  0.00     0.049 A 
ATOM     70  H   UNL A   1      40.863  30.868  33.596  1.00  0.00     0.167 HD
ATOM     71  C   UNL A   1      42.570  28.748  32.783  1.00  0.00     0.074 A 
ATOM     72  C   UNL A   1      43.195  27.729  31.966  1.00  0.00     0.031 C 
ATOM     73  C   UNL A   1      42.965  29.070  34.038  1.00  0.00     0.037 A 
BRANCH  60  74
ATOM     74  C   UNL A   1      39.729  33.640  36.633  1.00  0.00     0.064 A 
ATOM     75  C   UNL A   1      40.336  34.902  36.718  1.00  0.00     0.173 A 
ATOM     76  C   UNL A   1      38.873  33.250  37.672  1.00  0.00     0.173 A 
ATOM     77  F   UNL A   1      41.172  35.315  35.753  1.00  0.00    -0.203 F 
ATOM     78  C   UNL A   1      40.109  35.733  37.810  1.00  0.00     0.198 A 
ATOM     79  C   UNL A   1      38.628  34.095  38.751  1.00  0.00     0.198 A 
ATOM     80  F   UNL A   1      38.263  32.055  37.635  1.00  0.00    -0.203 F 
ATOM     81  F   UNL A   1      40.730  36.919  37.889  1.00  0.00    -0.200 F 
ATOM     82  C   UNL A   1      39.249  35.333  38.821  1.00  0.00     0.200 A 
ATOM     83  F   UNL A   1      37.787  33.714  39.723  1.00  0.00    -0.200 F 
ATOM     84  F   UNL A   1      39.022  36.140  39.867  1.00  0.00    -0.200 F 
ENDBRANCH  60  74
BRANCH  61  85
ATOM     85  C   UNL A   1      40.800  27.962  28.495  1.00  0.00     0.064 A 
ATOM     86  C   UNL A   1      40.156  26.719  28.430  1.00  0.00     0.173 A 
ATOM     87  C   UNL A   1      41.562  28.364  27.388  1.00  0.00     0.173 A 
ATOM     88  F   UNL A   1      39.435  26.285  29.474  1.00  0.00    -0.203 F 
ATOM     89  C   UNL A   1      40.274  25.906  27.305  1.00  0.00     0.198 A 
ATOM     90  C   UNL A   1      41.659  27.559  26.254  1.00  0.00     0.198 A 
ATOM     91  F   UNL A   1      42.195  29.545  27.400  1.00  0.00    -0.203 F 
ATOM     92  F   UNL A   1      39.672  24.709  27.281  1.00  0.00    -0.200 F 
ATOM     93  C   UNL A   1      41.019  26.329  26.215  1.00  0.00     0.200 A 
ATOM     94  F   UNL A   1      42.372  27.976  25.199  1.00  0.00    -0.200 F 
ATOM     95  F   UNL A   1      41.124  25.550  25.130  1.00  0.00    -0.200 F 
ENDBRANCH  61  85
BRANCH  73  96
ATOM     96  C   UNL A   1      44.118  28.311  34.622  1.00  0.00     0.064 A 
ATOM     97  C   UNL A   1      45.425  28.814  34.563  1.00  0.00     0.173 A 
ATOM     98  C   UNL A   1      43.901  27.116  35.325  1.00  0.00     0.173 A 
ATOM     99  F   UNL A   1      45.683  29.946  33.891  1.00  0.00    -0.203 F 
ATOM    100  C   UNL A   1      46.474  28.146  35.187  1.00  0.00     0.198 A 
ATOM    101  C   UNL A   1      44.948  26.463  35.966  1.00  0.00     0.198 A 
ATOM    102  F   UNL A   1      42.665  26.600  35.414  1.00  0.00    -0.203 F 
ATOM    103  F   UNL A   1      47.720  28.633  35.102  1.00  0.00    -0.200 F 
ATOM    104  C   UNL A   1      46.235  26.978  35.896  1.00  0.00     0.200 A 
ATOM    105  F   UNL A   1      44.713  25.343  36.664  1.00  0.00    -0.200 F 
ATOM    106  F   UNL A   1      47.243  26.348  36.513  1.00  0.00    -0.200 F 
ENDBRANCH  73  96
ENDBRANCH  47  48
ENDBRANCH  39  42
ENDBRANCH  37  38
ENDBRANCH  36  37
ENDBRANCH   1  36
TORSDOF 16
ENDMDL
MODEL 3
REMARK VINA RESULT:     -13.6      1.811      4.843
REMARK SMILES O=C(COc1nc(Nc2ccc(Cl)cc2Cl)nc2c1C[N@H+](Cc1ccccc1)CC2)NCCCNC(=O)c1ccc(-c2c3nc(c(-c4c(F)c(F)c(F)c(F)c4F)c4ccc([nH]4)c(-c4c(F)c(F)c(F)c(F)c4F)c4nc(c(-c5c(F)c(F)c(F)c(F)c5F)c5ccc2[nH]5)C=C4)C=C3)cc1
REMARK SMILES IDX 32 1 31 2 1 3 2 4 3 6 4 7 5 8 6 9 19 10 7 11 18 12 20 13
REMARK SMILES IDX 17 14 30 15 21 16 29 17 8 19 9 21 10 22 15 23 11 24 14 25
REMARK SMILES IDX 16 26 12 27 13 28 22 29 23 30 24 31 28 32 25 33 27 34 26 35
REMARK SMILES IDX 33 36 34 37 35 38 36 39 37 41 38 42 39 43 100 44 40 45 99 46
REMARK SMILES IDX 41 47 42 48 43 49 93 50 44 51 98 52 92 53 94 54 45 55 97 56
REMARK SMILES IDX 91 57 90 58 46 60 78 61 58 62 77 63 59 64 62 65 76 66 95 67
REMARK SMILES IDX 60 68 61 69 75 71 96 72 63 73 47 74 48 75 56 76 49 77 50 78
REMARK SMILES IDX 54 79 57 80 51 81 52 82 55 83 53 84 79 85 80 86 88 87 81 88
REMARK SMILES IDX 82 89 86 90 89 91 83 92 84 93 87 94 85 95 64 96 65 97 73 98
REMARK SMILES IDX 66 99 67 100 71 101 74 102 68 103 69 104 72 105 70 106
REMARK H PARENT 31 5 21 18 8 20 35 40 94 59 62 70
REMARK Flexibility Score: inf
ROOT
ATOM      1  C   UNL A   1      31.652  30.823  25.806  1.00  0.00     0.117 C 
ENDROOT
BRANCH   1   2
ATOM      2  N   UNL A   1      31.797  29.517  26.398  1.00  0.00    -0.353 N 
ATOM      3  O   UNL A   1      33.442  28.778  24.974  1.00  0.00    -0.271 OA
ATOM      4  C   UNL A   1      32.762  28.626  25.985  1.00  0.00     0.258 C 
ATOM      5  H   UNL A   1      31.185  29.254  27.123  1.00  0.00     0.163 HD
BRANCH   4   6
ATOM      6  C   UNL A   1      32.860  27.367  26.852  1.00  0.00     0.331 C 
BRANCH   6   7
ATOM      7  O   UNL A   1      31.621  26.753  27.204  1.00  0.00    -0.467 OA
BRANCH   7   8
ATOM      8  C   UNL A   1      31.070  26.121  26.110  1.00  0.00     0.228 A 
ATOM      9  N   UNL A   1      30.192  26.821  25.383  1.00  0.00    -0.177 NA
ATOM     10  C   UNL A   1      31.528  24.869  25.777  1.00  0.00     0.090 A 
ATOM     11  C   UNL A   1      29.714  26.228  24.280  1.00  0.00     0.230 A 
ATOM     12  C   UNL A   1      30.983  24.335  24.631  1.00  0.00     0.064 A 
ATOM     13  C   UNL A   1      32.626  24.195  26.534  1.00  0.00     0.307 C 
ATOM     14  N   UNL A   1      30.058  24.989  23.892  1.00  0.00    -0.217 NA
ATOM     15  C   UNL A   1      31.389  22.953  24.188  1.00  0.00     0.118 C 
ATOM     16  N   UNL A   1      32.763  22.766  26.232  1.00  0.00    -0.327 N 
ATOM     17  C   UNL A   1      32.741  22.528  24.783  1.00  0.00     0.269 C 
ATOM     18  H   UNL A   1      31.947  22.284  26.612  1.00  0.00     0.348 HD
BRANCH  11  19
ATOM     19  N   UNL A   1      28.776  26.888  23.495  1.00  0.00    -0.323 N 
ATOM     20  H   UNL A   1      28.006  26.351  23.199  1.00  0.00     0.170 HD
BRANCH  19  21
ATOM     21  C   UNL A   1      28.792  28.221  23.073  1.00  0.00     0.060 A 
ATOM     22  C   UNL A   1      27.610  28.969  23.178  1.00  0.00     0.029 A 
ATOM     23  C   UNL A   1      29.938  28.855  22.553  1.00  0.00     0.066 A 
ATOM     24  C   UNL A   1      27.586  30.325  22.838  1.00  0.00     0.023 A 
ATOM     25  C   UNL A   1      29.906  30.204  22.181  1.00  0.00     0.043 A 
ATOM     26  Cl  UNL A   1      31.429  28.004  22.327  1.00  0.00    -0.082 Cl
ATOM     27  C   UNL A   1      28.736  30.937  22.351  1.00  0.00     0.042 A 
ATOM     28  Cl  UNL A   1      28.722  32.618  21.983  1.00  0.00    -0.084 Cl
ENDBRANCH  19  21
ENDBRANCH  11  19
BRANCH  16  29
ATOM     29  C   UNL A   1      33.915  22.155  26.920  1.00  0.00     0.299 C 
BRANCH  29  30
ATOM     30  C   UNL A   1      35.244  22.193  26.191  1.00  0.00     0.006 A 
ATOM     31  C   UNL A   1      35.985  23.383  26.132  1.00  0.00     0.009 A 
ATOM     32  C   UNL A   1      35.769  21.046  25.574  1.00  0.00     0.009 A 
ATOM     33  C   UNL A   1      37.232  23.413  25.506  1.00  0.00     0.001 A 
ATOM     34  C   UNL A   1      37.028  21.070  24.972  1.00  0.00     0.001 A 
ATOM     35  C   UNL A   1      37.760  22.254  24.940  1.00  0.00     0.000 A 
ENDBRANCH  29  30
ENDBRANCH  16  29
ENDBRANCH   7   8
ENDBRANCH   6   7
ENDBRANCH   4   6
ENDBRANCH   1   2
BRANCH   1  36
ATOM     36  C   UNL A   1      31.390  31.928  26.814  1.00  0.00     0.042 C 
BRANCH  36  37
ATOM     37  C   UNL A   1      32.648  32.671  27.247  1.00  0.00     0.118 C 
BRANCH  37  38
ATOM     38  N   UNL A   1      32.407  34.064  27.608  1.00  0.00    -0.352 N 
ATOM     39  C   UNL A   1      32.985  34.856  28.570  1.00  0.00     0.251 C 
ATOM     40  H   UNL A   1      31.713  34.512  27.074  1.00  0.00     0.163 HD
ATOM     41  O   UNL A   1      32.529  35.974  28.798  1.00  0.00    -0.269 OA
BRANCH  39  42
ATOM     42  C   UNL A   1      34.135  34.365  29.359  1.00  0.00     0.039 A 
ATOM     43  C   UNL A   1      33.892  33.775  30.604  1.00  0.00     0.014 A 
ATOM     44  C   UNL A   1      35.443  34.487  28.889  1.00  0.00     0.014 A 
ATOM     45  C   UNL A   1      34.951  33.228  31.330  1.00  0.00     0.010 A 
ATOM     46  C   UNL A   1      36.486  33.868  29.571  1.00  0.00     0.010 A 
ATOM     47  C   UNL A   1      36.251  33.228  30.797  1.00  0.00    -0.014 A 
BRANCH  47  48
ATOM     48  C   UNL A   1      37.368  32.552  31.502  1.00  0.00     0.031 A 
ATOM     49  C   UNL A   1      38.079  31.393  30.862  1.00  0.00     0.074 A 
ATOM     50  C   UNL A   1      37.709  32.951  32.743  1.00  0.00     0.049 A 
ATOM     51  N   UNL A   1      39.048  30.654  31.339  1.00  0.00    -0.248 NA
ATOM     52  C   UNL A   1      37.624  30.994  29.521  1.00  0.00     0.031 C 
ATOM     53  C   UNL A   1      37.062  34.031  33.490  1.00  0.00     0.029 A 
ATOM     54  N   UNL A   1      38.684  32.496  33.595  1.00  0.00    -0.354 N 
ATOM     55  C   UNL A   1      39.314  29.704  30.362  1.00  0.00     0.074 A 
ATOM     56  C   UNL A   1      38.365  29.920  29.291  1.00  0.00     0.031 C 
ATOM     57  C   UNL A   1      37.682  34.181  34.671  1.00  0.00     0.029 A 
ATOM     58  C   UNL A   1      38.745  33.187  34.781  1.00  0.00     0.049 A 
ATOM     59  H   UNL A   1      39.282  31.744  33.378  1.00  0.00     0.167 HD
ATOM     60  C   UNL A   1      40.281  28.757  30.347  1.00  0.00     0.037 A 
ATOM     61  C   UNL A   1      39.570  33.040  35.835  1.00  0.00     0.037 A 
ATOM     62  C   UNL A   1      41.242  28.564  31.398  1.00  0.00     0.049 A 
ATOM     63  C   UNL A   1      40.628  31.973  35.799  1.00  0.00     0.074 A 
ATOM     64  C   UNL A   1      42.297  27.670  31.447  1.00  0.00     0.029 A 
ATOM     65  N   UNL A   1      41.269  29.281  32.585  1.00  0.00    -0.354 N 
ATOM     66  N   UNL A   1      40.907  31.121  34.843  1.00  0.00    -0.248 NA
ATOM     67  C   UNL A   1      41.486  31.846  36.986  1.00  0.00     0.031 C 
ATOM     68  C   UNL A   1      42.940  27.821  32.679  1.00  0.00     0.029 A 
ATOM     69  C   UNL A   1      42.310  28.836  33.381  1.00  0.00     0.049 A 
ATOM     70  H   UNL A   1      40.640  30.000  32.826  1.00  0.00     0.167 HD
ATOM     71  C   UNL A   1      41.981  30.371  35.302  1.00  0.00     0.074 A 
ATOM     72  C   UNL A   1      42.314  30.876  36.618  1.00  0.00     0.031 C 
ATOM     73  C   UNL A   1      42.631  29.354  34.686  1.00  0.00     0.037 A 
BRANCH  60  74
ATOM     74  C   UNL A   1      40.366  27.870  29.141  1.00  0.00     0.064 A 
ATOM     75  C   UNL A   1      39.643  26.670  29.067  1.00  0.00     0.173 A 
ATOM     76  C   UNL A   1      41.132  28.247  28.028  1.00  0.00     0.173 A 
ATOM     77  F   UNL A   1      38.904  26.262  30.110  1.00  0.00    -0.203 F 
ATOM     78  C   UNL A   1      39.697  25.871  27.929  1.00  0.00     0.198 A 
ATOM     79  C   UNL A   1      41.163  27.457  26.882  1.00  0.00     0.198 A 
ATOM     80  F   UNL A   1      41.837  29.388  28.047  1.00  0.00    -0.203 F 
ATOM     81  F   UNL A   1      39.028  24.710  27.895  1.00  0.00    -0.200 F 
ATOM     82  C   UNL A   1      40.451  26.268  26.835  1.00  0.00     0.200 A 
ATOM     83  F   UNL A   1      41.882  27.847  25.820  1.00  0.00    -0.200 F 
ATOM     84  F   UNL A   1      40.493  25.502  25.736  1.00  0.00    -0.200 F 
ENDBRANCH  60  74
BRANCH  61  85
ATOM     85  C   UNL A   1      39.455  33.961  36.994  1.00  0.00     0.064 A 
ATOM     86  C   UNL A   1      38.697  33.604  38.117  1.00  0.00     0.173 A 
ATOM     87  C   UNL A   1      40.112  35.200  37.015  1.00  0.00     0.173 A 
ATOM     88  F   UNL A   1      38.033  32.438  38.132  1.00  0.00    -0.203 F 
ATOM     89  C   UNL A   1      38.593  34.454  39.216  1.00  0.00     0.198 A 
ATOM     90  C   UNL A   1      40.027  36.039  38.125  1.00  0.00     0.198 A 
ATOM     91  F   UNL A   1      40.852  35.586  35.967  1.00  0.00    -0.203 F 
ATOM     92  F   UNL A   1      37.837  34.101  40.264  1.00  0.00    -0.200 F 
ATOM     93  C   UNL A   1      39.264  35.668  39.222  1.00  0.00     0.200 A 
ATOM     94  F   UNL A   1      40.685  37.206  38.132  1.00  0.00    -0.200 F 
ATOM     95  F   UNL A   1      39.171  36.480  40.283  1.00  0.00    -0.200 F 
ENDBRANCH  61  85
BRANCH  73  96
ATOM     96  C   UNL A   1      43.778  28.719  35.413  1.00  0.00     0.064 A 
ATOM     97  C   UNL A   1      43.585  27.616  36.256  1.00  0.00     0.173 A 
ATOM     98  C   UNL A   1      45.091  29.161  35.194  1.00  0.00     0.173 A 
ATOM     99  F   UNL A   1      42.345  27.166  36.505  1.00  0.00    -0.203 F 
ATOM    100  C   UNL A   1      44.666  26.978  36.854  1.00  0.00     0.198 A 
ATOM    101  C   UNL A   1      46.172  28.506  35.776  1.00  0.00     0.198 A 
ATOM    102  F   UNL A   1      45.326  30.209  34.390  1.00  0.00    -0.203 F 
ATOM    103  F   UNL A   1      44.458  25.937  37.672  1.00  0.00    -0.200 F 
ATOM    104  C   UNL A   1      45.959  27.415  36.607  1.00  0.00     0.200 A 
ATOM    105  F   UNL A   1      47.422  28.921  35.524  1.00  0.00    -0.200 F 
ATOM    106  F   UNL A   1      47.000  26.787  37.168  1.00  0.00    -0.200 F 
ENDBRANCH  73  96
ENDBRANCH  47  48
ENDBRANCH  39  42
ENDBRANCH  37  38
ENDBRANCH  36  37
ENDBRANCH   1  36
TORSDOF 16
ENDMDL
