MODEL 1
REMARK VINA RESULT:     -12.1      0.000      0.000
REMARK SMILES CCCCn1cc(C(N)=O)c2cc(C(=O)NCCCNC(=O)c3ccc(-c4c5nc(c(-c6c(F)c(F)c(F)c(F)c6F)c6ccc([nH]6)c(-c6c(F)c(F)c(F)c(F)c6F)c6nc(c(-c7c(F)c(F)c(F)c(F)c7F)c7ccc4[nH]7)C=C6)C=C5)cc3)cnc21
REMARK SMILES IDX 17 1 16 2 14 3 15 4 13 6 5 7 6 8 88 9 7 10 11 11 87 12 12 13
REMARK SMILES IDX 86 14 4 15 3 16 2 17 1 18 8 19 9 20 10 21 18 24 19 25 20 26
REMARK SMILES IDX 21 27 22 29 23 30 24 31 85 32 25 33 84 34 26 35 27 36 28 37
REMARK SMILES IDX 78 38 29 39 83 40 77 41 79 42 30 43 82 44 76 45 75 46 31 48
REMARK SMILES IDX 63 49 43 50 62 51 44 52 47 53 61 54 80 55 45 56 46 57 60 59
REMARK SMILES IDX 81 60 48 61 32 62 33 63 41 64 34 65 35 66 39 67 42 68 36 69
REMARK SMILES IDX 37 70 40 71 38 72 64 73 65 74 73 75 66 76 67 77 71 78 74 79
REMARK SMILES IDX 68 80 69 81 72 82 70 83 49 84 50 85 58 86 51 87 52 88 56 89
REMARK SMILES IDX 59 90 53 91 54 92 57 93 55 94
REMARK H PARENT 16 5 9 22 9 23 20 28 79 47 47 58
REMARK Flexibility Score: inf
ROOT
ATOM      1  C   UNL A   1      33.242  29.986  26.111  1.00  0.00     0.118 C 
ENDROOT
BRANCH   1   2
ATOM      2  N   UNL A   1      32.038  30.141  25.311  1.00  0.00    -0.352 N 
ATOM      3  C   UNL A   1      31.349  29.282  24.496  1.00  0.00     0.252 C 
ATOM      4  O   UNL A   1      30.319  29.710  23.973  1.00  0.00    -0.269 OA
ATOM      5  H   UNL A   1      31.641  31.040  25.365  1.00  0.00     0.163 HD
BRANCH   3   6
ATOM      6  C   UNL A   1      31.749  27.875  24.237  1.00  0.00     0.058 A 
ATOM      7  N   UNL A   1      32.746  23.953  23.807  1.00  0.00    -0.332 N 
ATOM      8  C   UNL A   1      31.997  23.330  24.764  1.00  0.00     0.102 A 
ATOM      9  C   UNL A   1      32.448  25.288  23.820  1.00  0.00     0.140 A 
ATOM     10  C   UNL A   1      31.348  24.283  25.540  1.00  0.00     0.066 A 
ATOM     11  C   UNL A   1      31.647  25.549  24.934  1.00  0.00     0.032 A 
ATOM     12  N   UNL A   1      32.870  26.171  22.898  1.00  0.00    -0.237 NA
ATOM     13  C   UNL A   1      31.332  26.905  25.162  1.00  0.00     0.028 A 
ATOM     14  C   UNL A   1      32.452  27.434  23.130  1.00  0.00     0.127 A 
BRANCH   7  15
ATOM     15  C   UNL A   1      33.645  23.310  22.864  1.00  0.00     0.123 C 
BRANCH  15  16
ATOM     16  C   UNL A   1      35.137  23.416  23.215  1.00  0.00     0.022 C 
BRANCH  16  17
ATOM     17  C   UNL A   1      35.565  22.817  24.558  1.00  0.00    -0.002 C 
ATOM     18  C   UNL A   1      35.898  23.853  25.622  1.00  0.00     0.004 C 
ENDBRANCH  16  17
ENDBRANCH  15  16
ENDBRANCH   7  15
BRANCH  10  19
ATOM     19  C   UNL A   1      30.539  23.888  26.690  1.00  0.00     0.250 C 
ATOM     20  N   UNL A   1      29.251  24.335  26.740  1.00  0.00    -0.366 N 
ATOM     21  O   UNL A   1      30.961  23.178  27.589  1.00  0.00    -0.269 OA
ATOM     22  H   UNL A   1      28.901  24.909  26.021  1.00  0.00     0.159 HD
ATOM     23  H   UNL A   1      28.671  24.083  27.494  1.00  0.00     0.159 HD
ENDBRANCH  10  19
ENDBRANCH   3   6
ENDBRANCH   1   2
BRANCH   1  24
ATOM     24  C   UNL A   1      33.190  30.851  27.377  1.00  0.00     0.042 C 
BRANCH  24  25
ATOM     25  C   UNL A   1      34.510  31.557  27.626  1.00  0.00     0.118 C 
BRANCH  25  26
ATOM     26  N   UNL A   1      34.511  32.243  28.915  1.00  0.00    -0.352 N 
ATOM     27  C   UNL A   1      35.272  32.005  30.034  1.00  0.00     0.251 C 
ATOM     28  H   UNL A   1      33.871  32.988  28.994  1.00  0.00     0.163 HD
ATOM     29  O   UNL A   1      34.916  32.448  31.121  1.00  0.00    -0.269 OA
BRANCH  27  30
ATOM     30  C   UNL A   1      36.512  31.219  29.929  1.00  0.00     0.039 A 
ATOM     31  C   UNL A   1      37.740  31.871  29.788  1.00  0.00     0.014 A 
ATOM     32  C   UNL A   1      36.447  29.825  29.921  1.00  0.00     0.014 A 
ATOM     33  C   UNL A   1      38.897  31.107  29.693  1.00  0.00     0.010 A 
ATOM     34  C   UNL A   1      37.594  29.073  29.968  1.00  0.00     0.010 A 
ATOM     35  C   UNL A   1      38.813  29.709  29.799  1.00  0.00    -0.014 A 
BRANCH  35  36
ATOM     36  C   UNL A   1      40.019  28.904  29.871  1.00  0.00     0.031 A 
ATOM     37  C   UNL A   1      40.517  28.747  31.256  1.00  0.00     0.074 A 
ATOM     38  C   UNL A   1      40.554  28.244  28.823  1.00  0.00     0.049 A 
ATOM     39  N   UNL A   1      41.483  29.411  31.794  1.00  0.00    -0.248 NA
ATOM     40  C   UNL A   1      39.755  27.929  32.209  1.00  0.00     0.031 C 
ATOM     41  C   UNL A   1      39.997  28.084  27.474  1.00  0.00     0.029 A 
ATOM     42  N   UNL A   1      41.699  27.509  28.765  1.00  0.00    -0.354 N 
ATOM     43  C   UNL A   1      41.619  28.905  33.081  1.00  0.00     0.074 A 
ATOM     44  C   UNL A   1      40.408  28.177  33.349  1.00  0.00     0.031 C 
ATOM     45  C   UNL A   1      40.692  27.134  26.806  1.00  0.00     0.029 A 
ATOM     46  C   UNL A   1      41.839  26.750  27.608  1.00  0.00     0.049 A 
ATOM     47  H   UNL A   1      42.372  27.513  29.485  1.00  0.00     0.167 HD
ATOM     48  C   UNL A   1      42.856  28.863  33.650  1.00  0.00     0.037 A 
ATOM     49  C   UNL A   1      42.842  25.879  27.334  1.00  0.00     0.037 A 
ATOM     50  C   UNL A   1      43.784  29.642  32.861  1.00  0.00     0.049 A 
ATOM     51  C   UNL A   1      44.004  26.306  28.145  1.00  0.00     0.074 A 
ATOM     52  C   UNL A   1      44.015  30.974  32.599  1.00  0.00     0.029 A 
ATOM     53  N   UNL A   1      44.378  28.919  31.861  1.00  0.00    -0.354 N 
ATOM     54  N   UNL A   1      44.649  27.421  27.943  1.00  0.00    -0.248 NA
ATOM     55  C   UNL A   1      44.243  25.666  29.433  1.00  0.00     0.031 C 
ATOM     56  C   UNL A   1      44.603  31.021  31.297  1.00  0.00     0.029 A 
ATOM     57  C   UNL A   1      44.764  29.719  30.826  1.00  0.00     0.049 A 
ATOM     58  H   UNL A   1      44.510  27.943  31.888  1.00  0.00     0.167 HD
ATOM     59  C   UNL A   1      45.001  27.840  29.212  1.00  0.00     0.074 A 
ATOM     60  C   UNL A   1      44.896  26.652  30.051  1.00  0.00     0.031 C 
ATOM     61  C   UNL A   1      45.022  29.169  29.515  1.00  0.00     0.037 A 
BRANCH  48  62
ATOM     62  C   UNL A   1      43.385  27.733  34.518  1.00  0.00     0.064 A 
ATOM     63  C   UNL A   1      43.929  28.066  35.779  1.00  0.00     0.173 A 
ATOM     64  C   UNL A   1      43.713  26.446  34.043  1.00  0.00     0.173 A 
ATOM     65  F   UNL A   1      43.689  29.264  36.333  1.00  0.00    -0.203 F 
ATOM     66  C   UNL A   1      44.819  27.223  36.450  1.00  0.00     0.198 A 
ATOM     67  C   UNL A   1      44.565  25.588  34.739  1.00  0.00     0.198 A 
ATOM     68  F   UNL A   1      43.327  26.000  32.843  1.00  0.00    -0.203 F 
ATOM     69  F   UNL A   1      45.419  27.644  37.571  1.00  0.00    -0.200 F 
ATOM     70  C   UNL A   1      45.147  25.989  35.922  1.00  0.00     0.200 A 
ATOM     71  F   UNL A   1      44.886  24.404  34.199  1.00  0.00    -0.200 F 
ATOM     72  F   UNL A   1      46.053  25.208  36.522  1.00  0.00    -0.200 F 
ENDBRANCH  48  62
BRANCH  49  73
ATOM     73  C   UNL A   1      42.823  24.580  26.619  1.00  0.00     0.064 A 
ATOM     74  C   UNL A   1      43.484  24.429  25.387  1.00  0.00     0.173 A 
ATOM     75  C   UNL A   1      42.456  23.395  27.281  1.00  0.00     0.173 A 
ATOM     76  F   UNL A   1      43.893  25.508  24.703  1.00  0.00    -0.203 F 
ATOM     77  C   UNL A   1      43.819  23.170  24.880  1.00  0.00     0.198 A 
ATOM     78  C   UNL A   1      42.788  22.137  26.773  1.00  0.00     0.198 A 
ATOM     79  F   UNL A   1      41.865  23.438  28.484  1.00  0.00    -0.203 F 
ATOM     80  F   UNL A   1      44.528  23.071  23.747  1.00  0.00    -0.200 F 
ATOM     81  C   UNL A   1      43.489  22.025  25.585  1.00  0.00     0.200 A 
ATOM     82  F   UNL A   1      42.495  21.035  27.479  1.00  0.00    -0.200 F 
ATOM     83  F   UNL A   1      43.884  20.822  25.145  1.00  0.00    -0.200 F 
ENDBRANCH  49  73
BRANCH  61  84
ATOM     84  C   UNL A   1      45.176  30.136  28.385  1.00  0.00     0.064 A 
ATOM     85  C   UNL A   1      44.112  30.733  27.691  1.00  0.00     0.173 A 
ATOM     86  C   UNL A   1      46.475  30.561  28.081  1.00  0.00     0.173 A 
ATOM     87  F   UNL A   1      42.841  30.422  27.973  1.00  0.00    -0.203 F 
ATOM     88  C   UNL A   1      44.350  31.707  26.722  1.00  0.00     0.198 A 
ATOM     89  C   UNL A   1      46.708  31.557  27.141  1.00  0.00     0.198 A 
ATOM     90  F   UNL A   1      47.523  30.041  28.742  1.00  0.00    -0.203 F 
ATOM     91  F   UNL A   1      43.324  32.267  26.065  1.00  0.00    -0.200 F 
ATOM     92  C   UNL A   1      45.645  32.126  26.458  1.00  0.00     0.200 A 
ATOM     93  F   UNL A   1      47.958  31.985  26.920  1.00  0.00    -0.200 F 
ATOM     94  F   UNL A   1      45.870  33.096  25.561  1.00  0.00    -0.200 F 
ENDBRANCH  61  84
ENDBRANCH  35  36
ENDBRANCH  27  30
ENDBRANCH  25  26
ENDBRANCH  24  25
ENDBRANCH   1  24
TORSDOF 14
ENDMDL
MODEL 2
REMARK VINA RESULT:     -12.1      3.561      8.901
REMARK SMILES CCCCn1cc(C(N)=O)c2cc(C(=O)NCCCNC(=O)c3ccc(-c4c5nc(c(-c6c(F)c(F)c(F)c(F)c6F)c6ccc([nH]6)c(-c6c(F)c(F)c(F)c(F)c6F)c6nc(c(-c7c(F)c(F)c(F)c(F)c7F)c7ccc4[nH]7)C=C6)C=C5)cc3)cnc21
REMARK SMILES IDX 17 1 16 2 14 3 15 4 13 6 5 7 6 8 88 9 7 10 11 11 87 12 12 13
REMARK SMILES IDX 86 14 4 15 3 16 2 17 1 18 8 19 9 20 10 21 18 24 19 25 20 26
REMARK SMILES IDX 21 27 22 29 23 30 24 31 85 32 25 33 84 34 26 35 27 36 28 37
REMARK SMILES IDX 78 38 29 39 83 40 77 41 79 42 30 43 82 44 76 45 75 46 31 48
REMARK SMILES IDX 63 49 43 50 62 51 44 52 47 53 61 54 80 55 45 56 46 57 60 59
REMARK SMILES IDX 81 60 48 61 32 62 33 63 41 64 34 65 35 66 39 67 42 68 36 69
REMARK SMILES IDX 37 70 40 71 38 72 64 73 65 74 73 75 66 76 67 77 71 78 74 79
REMARK SMILES IDX 68 80 69 81 72 82 70 83 49 84 50 85 58 86 51 87 52 88 56 89
REMARK SMILES IDX 59 90 53 91 54 92 57 93 55 94
REMARK H PARENT 16 5 9 22 9 23 20 28 79 47 47 58
REMARK Flexibility Score: inf
ROOT
ATOM      1  C   UNL A   1      40.330  20.197  26.840  1.00  0.00     0.118 C 
ENDROOT
BRANCH   1   2
ATOM      2  N   UNL A   1      40.029  21.596  26.587  1.00  0.00    -0.352 N 
ATOM      3  C   UNL A   1      38.908  22.236  26.125  1.00  0.00     0.252 C 
ATOM      4  O   UNL A   1      38.953  23.464  26.054  1.00  0.00    -0.269 OA
ATOM      5  H   UNL A   1      40.778  22.204  26.785  1.00  0.00     0.163 HD
BRANCH   3   6
ATOM      6  C   UNL A   1      37.651  21.545  25.744  1.00  0.00     0.058 A 
ATOM      7  N   UNL A   1      34.057  19.834  24.893  1.00  0.00    -0.332 N 
ATOM      8  C   UNL A   1      33.155  20.775  25.300  1.00  0.00     0.102 A 
ATOM      9  C   UNL A   1      35.318  20.329  25.081  1.00  0.00     0.140 A 
ATOM     10  C   UNL A   1      33.823  21.814  25.938  1.00  0.00     0.066 A 
ATOM     11  C   UNL A   1      35.221  21.520  25.803  1.00  0.00     0.032 A 
ATOM     12  N   UNL A   1      36.441  19.740  24.631  1.00  0.00    -0.237 NA
ATOM     13  C   UNL A   1      36.443  22.114  26.179  1.00  0.00     0.028 A 
ATOM     14  C   UNL A   1      37.567  20.415  24.949  1.00  0.00     0.127 A 
BRANCH   7  15
ATOM     15  C   UNL A   1      33.747  18.555  24.277  1.00  0.00     0.123 C 
BRANCH  15  16
ATOM     16  C   UNL A   1      33.080  17.532  25.209  1.00  0.00     0.022 C 
BRANCH  16  17
ATOM     17  C   UNL A   1      33.346  16.055  24.902  1.00  0.00    -0.002 C 
ATOM     18  C   UNL A   1      32.520  15.089  25.737  1.00  0.00     0.004 C 
ENDBRANCH  16  17
ENDBRANCH  15  16
ENDBRANCH   7  15
BRANCH  10  19
ATOM     19  C   UNL A   1      33.084  22.920  26.543  1.00  0.00     0.250 C 
ATOM     20  N   UNL A   1      32.114  22.610  27.450  1.00  0.00    -0.366 N 
ATOM     21  O   UNL A   1      33.305  24.091  26.280  1.00  0.00    -0.269 OA
ATOM     22  H   UNL A   1      31.926  21.669  27.668  1.00  0.00     0.159 HD
ATOM     23  H   UNL A   1      31.600  23.327  27.886  1.00  0.00     0.159 HD
ENDBRANCH  10  19
ENDBRANCH   3   6
ENDBRANCH   1   2
BRANCH   1  24
ATOM     24  C   UNL A   1      41.379  19.661  25.856  1.00  0.00     0.042 C 
BRANCH  24  25
ATOM     25  C   UNL A   1      42.667  19.281  26.564  1.00  0.00     0.118 C 
BRANCH  25  26
ATOM     26  N   UNL A   1      43.799  19.276  25.642  1.00  0.00    -0.352 N 
ATOM     27  C   UNL A   1      44.408  20.326  24.997  1.00  0.00     0.251 C 
ATOM     28  H   UNL A   1      44.182  18.389  25.454  1.00  0.00     0.163 HD
ATOM     29  O   UNL A   1      45.114  20.114  24.017  1.00  0.00    -0.269 OA
BRANCH  27  30
ATOM     30  C   UNL A   1      44.213  21.702  25.481  1.00  0.00     0.039 A 
ATOM     31  C   UNL A   1      43.265  22.527  24.870  1.00  0.00     0.014 A 
ATOM     32  C   UNL A   1      45.010  22.189  26.518  1.00  0.00     0.014 A 
ATOM     33  C   UNL A   1      43.096  23.821  25.346  1.00  0.00     0.010 A 
ATOM     34  C   UNL A   1      44.751  23.414  27.079  1.00  0.00     0.010 A 
ATOM     35  C   UNL A   1      43.835  24.249  26.461  1.00  0.00    -0.014 A 
BRANCH  35  36
ATOM     36  C   UNL A   1      43.556  25.533  27.079  1.00  0.00     0.031 A 
ATOM     37  C   UNL A   1      44.512  26.584  26.663  1.00  0.00     0.074 A 
ATOM     38  C   UNL A   1      42.467  25.791  27.831  1.00  0.00     0.049 A 
ATOM     39  N   UNL A   1      45.526  26.999  27.344  1.00  0.00    -0.248 NA
ATOM     40  C   UNL A   1      44.475  27.090  25.284  1.00  0.00     0.031 C 
ATOM     41  C   UNL A   1      41.307  24.925  28.074  1.00  0.00     0.029 A 
ATOM     42  N   UNL A   1      42.133  26.934  28.495  1.00  0.00    -0.354 N 
ATOM     43  C   UNL A   1      46.105  28.007  26.584  1.00  0.00     0.074 A 
ATOM     44  C   UNL A   1      45.567  27.862  25.259  1.00  0.00     0.031 C 
ATOM     45  C   UNL A   1      40.314  25.645  28.646  1.00  0.00     0.029 A 
ATOM     46  C   UNL A   1      40.826  26.964  28.968  1.00  0.00     0.049 A 
ATOM     47  H   UNL A   1      42.765  27.677  28.627  1.00  0.00     0.167 HD
ATOM     48  C   UNL A   1      46.705  29.054  27.217  1.00  0.00     0.037 A 
ATOM     49  C   UNL A   1      40.220  28.004  29.592  1.00  0.00     0.037 A 
ATOM     50  C   UNL A   1      46.861  28.752  28.622  1.00  0.00     0.049 A 
ATOM     51  C   UNL A   1      41.299  28.818  30.197  1.00  0.00     0.074 A 
ATOM     52  C   UNL A   1      47.637  27.916  29.395  1.00  0.00     0.029 A 
ATOM     53  N   UNL A   1      45.773  29.110  29.373  1.00  0.00    -0.354 N 
ATOM     54  N   UNL A   1      42.045  28.402  31.182  1.00  0.00    -0.248 NA
ATOM     55  C   UNL A   1      41.805  29.976  29.470  1.00  0.00     0.031 C 
ATOM     56  C   UNL A   1      46.866  27.636  30.565  1.00  0.00     0.029 A 
ATOM     57  C   UNL A   1      45.669  28.348  30.499  1.00  0.00     0.049 A 
ATOM     58  H   UNL A   1      45.144  29.827  29.128  1.00  0.00     0.167 HD
ATOM     59  C   UNL A   1      43.288  28.942  30.913  1.00  0.00     0.074 A 
ATOM     60  C   UNL A   1      43.040  30.031  29.975  1.00  0.00     0.031 C 
ATOM     61  C   UNL A   1      44.419  28.244  31.217  1.00  0.00     0.037 A 
BRANCH  48  62
ATOM     62  C   UNL A   1      46.634  30.506  26.773  1.00  0.00     0.064 A 
ATOM     63  C   UNL A   1      47.807  31.288  26.876  1.00  0.00     0.173 A 
ATOM     64  C   UNL A   1      45.437  31.236  26.613  1.00  0.00     0.173 A 
ATOM     65  F   UNL A   1      49.006  30.706  27.034  1.00  0.00    -0.203 F 
ATOM     66  C   UNL A   1      47.767  32.684  26.929  1.00  0.00     0.198 A 
ATOM     67  C   UNL A   1      45.407  32.630  26.620  1.00  0.00     0.198 A 
ATOM     68  F   UNL A   1      44.238  30.650  26.560  1.00  0.00    -0.203 F 
ATOM     69  F   UNL A   1      48.889  33.374  27.172  1.00  0.00    -0.200 F 
ATOM     70  C   UNL A   1      46.564  33.354  26.814  1.00  0.00     0.200 A 
ATOM     71  F   UNL A   1      44.228  33.261  26.527  1.00  0.00    -0.200 F 
ATOM     72  F   UNL A   1      46.510  34.685  26.937  1.00  0.00    -0.200 F 
ENDBRANCH  48  62
BRANCH  49  73
ATOM     73  C   UNL A   1      38.822  28.491  29.521  1.00  0.00     0.064 A 
ATOM     74  C   UNL A   1      38.066  28.678  30.692  1.00  0.00     0.173 A 
ATOM     75  C   UNL A   1      38.324  29.097  28.353  1.00  0.00     0.173 A 
ATOM     76  F   UNL A   1      38.483  28.158  31.856  1.00  0.00    -0.203 F 
ATOM     77  C   UNL A   1      36.919  29.478  30.709  1.00  0.00     0.198 A 
ATOM     78  C   UNL A   1      37.177  29.893  28.370  1.00  0.00     0.198 A 
ATOM     79  F   UNL A   1      39.001  29.014  27.198  1.00  0.00    -0.203 F 
ATOM     80  F   UNL A   1      36.278  29.705  31.864  1.00  0.00    -0.200 F 
ATOM     81  C   UNL A   1      36.488  30.103  29.552  1.00  0.00     0.200 A 
ATOM     82  F   UNL A   1      36.786  30.522  27.251  1.00  0.00    -0.200 F 
ATOM     83  F   UNL A   1      35.441  30.939  29.583  1.00  0.00    -0.200 F 
ENDBRANCH  49  73
BRANCH  61  84
ATOM     84  C   UNL A   1      44.322  27.191  32.273  1.00  0.00     0.064 A 
ATOM     85  C   UNL A   1      44.153  25.820  32.024  1.00  0.00     0.173 A 
ATOM     86  C   UNL A   1      44.532  27.593  33.598  1.00  0.00     0.173 A 
ATOM     87  F   UNL A   1      44.009  25.356  30.776  1.00  0.00    -0.203 F 
ATOM     88  C   UNL A   1      44.181  24.896  33.069  1.00  0.00     0.198 A 
ATOM     89  C   UNL A   1      44.596  26.668  34.632  1.00  0.00     0.198 A 
ATOM     90  F   UNL A   1      44.731  28.891  33.882  1.00  0.00    -0.203 F 
ATOM     91  F   UNL A   1      44.016  23.590  32.815  1.00  0.00    -0.200 F 
ATOM     92  C   UNL A   1      44.415  25.320  34.368  1.00  0.00     0.200 A 
ATOM     93  F   UNL A   1      44.862  27.080  35.879  1.00  0.00    -0.200 F 
ATOM     94  F   UNL A   1      44.490  24.427  35.365  1.00  0.00    -0.200 F 
ENDBRANCH  61  84
ENDBRANCH  35  36
ENDBRANCH  27  30
ENDBRANCH  25  26
ENDBRANCH  24  25
ENDBRANCH   1  24
TORSDOF 14
ENDMDL
MODEL 3
REMARK VINA RESULT:     -12.0      2.023      2.993
REMARK SMILES CCCCn1cc(C(N)=O)c2cc(C(=O)NCCCNC(=O)c3ccc(-c4c5nc(c(-c6c(F)c(F)c(F)c(F)c6F)c6ccc([nH]6)c(-c6c(F)c(F)c(F)c(F)c6F)c6nc(c(-c7c(F)c(F)c(F)c(F)c7F)c7ccc4[nH]7)C=C6)C=C5)cc3)cnc21
REMARK SMILES IDX 17 1 16 2 14 3 15 4 13 6 5 7 6 8 88 9 7 10 11 11 87 12 12 13
REMARK SMILES IDX 86 14 4 15 3 16 2 17 1 18 8 19 9 20 10 21 18 24 19 25 20 26
REMARK SMILES IDX 21 27 22 29 23 30 24 31 85 32 25 33 84 34 26 35 27 36 28 37
REMARK SMILES IDX 78 38 29 39 83 40 77 41 79 42 30 43 82 44 76 45 75 46 31 48
REMARK SMILES IDX 63 49 43 50 62 51 44 52 47 53 61 54 80 55 45 56 46 57 60 59
REMARK SMILES IDX 81 60 48 61 32 62 33 63 41 64 34 65 35 66 39 67 42 68 36 69
REMARK SMILES IDX 37 70 40 71 38 72 64 73 65 74 73 75 66 76 67 77 71 78 74 79
REMARK SMILES IDX 68 80 69 81 72 82 70 83 49 84 50 85 58 86 51 87 52 88 56 89
REMARK SMILES IDX 59 90 53 91 54 92 57 93 55 94
REMARK H PARENT 16 5 9 22 9 23 20 28 79 47 47 58
REMARK Flexibility Score: inf
ROOT
ATOM      1  C   UNL A   1      33.461  27.094  24.660  1.00  0.00     0.118 C 
ENDROOT
BRANCH   1   2
ATOM      2  N   UNL A   1      33.462  26.887  23.222  1.00  0.00    -0.352 N 
ATOM      3  C   UNL A   1      33.417  25.758  22.446  1.00  0.00     0.252 C 
ATOM      4  O   UNL A   1      33.393  25.917  21.225  1.00  0.00    -0.269 OA
ATOM      5  H   UNL A   1      33.504  27.723  22.702  1.00  0.00     0.163 HD
BRANCH   3   6
ATOM      6  C   UNL A   1      33.362  24.376  22.986  1.00  0.00     0.058 A 
ATOM      7  N   UNL A   1      33.516  20.592  24.475  1.00  0.00    -0.332 N 
ATOM      8  C   UNL A   1      34.763  20.520  25.027  1.00  0.00     0.102 A 
ATOM      9  C   UNL A   1      33.328  21.855  23.986  1.00  0.00     0.140 A 
ATOM     10  C   UNL A   1      35.471  21.678  24.730  1.00  0.00     0.066 A 
ATOM     11  C   UNL A   1      34.545  22.537  24.049  1.00  0.00     0.032 A 
ATOM     12  N   UNL A   1      32.154  22.327  23.531  1.00  0.00    -0.237 NA
ATOM     13  C   UNL A   1      34.556  23.829  23.483  1.00  0.00     0.028 A 
ATOM     14  C   UNL A   1      32.220  23.602  23.091  1.00  0.00     0.127 A 
BRANCH   7  15
ATOM     15  C   UNL A   1      32.512  19.541  24.478  1.00  0.00     0.123 C 
BRANCH  15  16
ATOM     16  C   UNL A   1      32.546  18.609  23.258  1.00  0.00     0.022 C 
BRANCH  16  17
ATOM     17  C   UNL A   1      32.935  17.152  23.524  1.00  0.00    -0.002 C 
ATOM     18  C   UNL A   1      34.361  16.806  23.120  1.00  0.00     0.004 C 
ENDBRANCH  16  17
ENDBRANCH  15  16
ENDBRANCH   7  15
BRANCH  10  19
ATOM     19  C   UNL A   1      36.866  21.829  25.135  1.00  0.00     0.250 C 
ATOM     20  N   UNL A   1      37.142  22.722  26.129  1.00  0.00    -0.366 N 
ATOM     21  O   UNL A   1      37.779  21.191  24.635  1.00  0.00    -0.269 OA
ATOM     22  H   UNL A   1      36.414  23.243  26.539  1.00  0.00     0.159 HD
ATOM     23  H   UNL A   1      38.069  22.847  26.437  1.00  0.00     0.159 HD
ENDBRANCH  10  19
ENDBRANCH   3   6
ENDBRANCH   1   2
BRANCH   1  24
ATOM     24  C   UNL A   1      34.027  28.471  25.030  1.00  0.00     0.042 C 
BRANCH  24  25
ATOM     25  C   UNL A   1      34.190  28.623  26.532  1.00  0.00     0.118 C 
BRANCH  25  26
ATOM     26  N   UNL A   1      34.124  30.025  26.935  1.00  0.00    -0.352 N 
ATOM     27  C   UNL A   1      34.860  30.702  27.877  1.00  0.00     0.251 C 
ATOM     28  H   UNL A   1      33.451  30.566  26.461  1.00  0.00     0.163 HD
ATOM     29  O   UNL A   1      34.453  31.772  28.318  1.00  0.00    -0.269 OA
BRANCH  27  30
ATOM     30  C   UNL A   1      36.134  30.143  28.358  1.00  0.00     0.039 A 
ATOM     31  C   UNL A   1      36.216  29.602  29.644  1.00  0.00     0.014 A 
ATOM     32  C   UNL A   1      37.265  30.200  27.542  1.00  0.00     0.014 A 
ATOM     33  C   UNL A   1      37.428  29.079  30.075  1.00  0.00     0.010 A 
ATOM     34  C   UNL A   1      38.422  29.561  27.910  1.00  0.00     0.010 A 
ATOM     35  C   UNL A   1      38.521  29.050  29.193  1.00  0.00    -0.014 A 
BRANCH  35  36
ATOM     36  C   UNL A   1      39.744  28.359  29.561  1.00  0.00     0.031 A 
ATOM     37  C   UNL A   1      40.013  28.412  31.015  1.00  0.00     0.074 A 
ATOM     38  C   UNL A   1      40.483  27.621  28.707  1.00  0.00     0.049 A 
ATOM     39  N   UNL A   1      40.836  29.211  31.605  1.00  0.00    -0.248 NA
ATOM     40  C   UNL A   1      39.153  27.658  31.937  1.00  0.00     0.031 C 
ATOM     41  C   UNL A   1      40.169  27.253  27.321  1.00  0.00     0.029 A 
ATOM     42  N   UNL A   1      41.663  26.977  28.929  1.00  0.00    -0.354 N 
ATOM     43  C   UNL A   1      40.786  28.878  32.953  1.00  0.00     0.074 A 
ATOM     44  C   UNL A   1      39.592  28.094  33.122  1.00  0.00     0.031 C 
ATOM     45  C   UNL A   1      41.019  26.287  26.903  1.00  0.00     0.029 A 
ATOM     46  C   UNL A   1      42.038  26.096  27.920  1.00  0.00     0.049 A 
ATOM     47  H   UNL A   1      42.205  27.122  29.738  1.00  0.00     0.167 HD
ATOM     48  C   UNL A   1      41.912  29.004  33.710  1.00  0.00     0.037 A 
ATOM     49  C   UNL A   1      43.121  25.281  27.924  1.00  0.00     0.037 A 
ATOM     50  C   UNL A   1      42.910  29.753  32.980  1.00  0.00     0.049 A 
ATOM     51  C   UNL A   1      44.106  25.894  28.844  1.00  0.00     0.074 A 
ATOM     52  C   UNL A   1      43.103  31.057  32.582  1.00  0.00     0.029 A 
ATOM     53  N   UNL A   1      43.704  28.962  32.192  1.00  0.00    -0.354 N 
ATOM     54  N   UNL A   1      44.709  27.025  28.600  1.00  0.00    -0.248 NA
ATOM     55  C   UNL A   1      44.164  25.437  30.227  1.00  0.00     0.031 C 
ATOM     56  C   UNL A   1      43.896  30.992  31.395  1.00  0.00     0.029 A 
ATOM     57  C   UNL A   1      44.208  29.658  31.132  1.00  0.00     0.049 A 
ATOM     58  H   UNL A   1      43.886  28.011  32.368  1.00  0.00     0.167 HD
ATOM     59  C   UNL A   1      44.820  27.621  29.840  1.00  0.00     0.074 A 
ATOM     60  C   UNL A   1      44.647  26.540  30.804  1.00  0.00     0.031 C 
ATOM     61  C   UNL A   1      44.712  28.975  29.963  1.00  0.00     0.037 A 
BRANCH  48  62
ATOM     62  C   UNL A   1      42.354  28.035  34.793  1.00  0.00     0.064 A 
ATOM     63  C   UNL A   1      42.812  28.573  36.017  1.00  0.00     0.173 A 
ATOM     64  C   UNL A   1      42.690  26.683  34.568  1.00  0.00     0.173 A 
ATOM     65  F   UNL A   1      42.556  29.849  36.341  1.00  0.00    -0.203 F 
ATOM     66  C   UNL A   1      43.635  27.849  36.885  1.00  0.00     0.198 A 
ATOM     67  C   UNL A   1      43.472  25.949  35.459  1.00  0.00     0.198 A 
ATOM     68  F   UNL A   1      42.383  26.043  33.435  1.00  0.00    -0.203 F 
ATOM     69  F   UNL A   1      44.161  28.450  37.960  1.00  0.00    -0.200 F 
ATOM     70  C   UNL A   1      43.975  26.541  36.598  1.00  0.00     0.200 A 
ATOM     71  F   UNL A   1      43.808  24.688  35.153  1.00  0.00    -0.200 F 
ATOM     72  F   UNL A   1      44.820  25.867  37.387  1.00  0.00    -0.200 F 
ENDBRANCH  48  62
BRANCH  49  73
ATOM     73  C   UNL A   1      43.298  23.907  27.396  1.00  0.00     0.064 A 
ATOM     74  C   UNL A   1      42.656  22.815  28.007  1.00  0.00     0.173 A 
ATOM     75  C   UNL A   1      43.811  23.689  26.105  1.00  0.00     0.173 A 
ATOM     76  F   UNL A   1      42.114  22.946  29.227  1.00  0.00    -0.203 F 
ATOM     77  C   UNL A   1      42.478  21.598  27.341  1.00  0.00     0.198 A 
ATOM     78  C   UNL A   1      43.635  22.472  25.441  1.00  0.00     0.198 A 
ATOM     79  F   UNL A   1      44.396  24.684  25.423  1.00  0.00    -0.203 F 
ATOM     80  F   UNL A   1      41.782  20.612  27.923  1.00  0.00    -0.200 F 
ATOM     81  C   UNL A   1      42.949  21.435  26.049  1.00  0.00     0.200 A 
ATOM     82  F   UNL A   1      44.066  22.334  24.178  1.00  0.00    -0.200 F 
ATOM     83  F   UNL A   1      42.705  20.302  25.377  1.00  0.00    -0.200 F 
ENDBRANCH  49  73
BRANCH  61  84
ATOM     84  C   UNL A   1      44.995  29.806  28.753  1.00  0.00     0.064 A 
ATOM     85  C   UNL A   1      44.016  30.333  27.896  1.00  0.00     0.173 A 
ATOM     86  C   UNL A   1      46.326  30.179  28.532  1.00  0.00     0.173 A 
ATOM     87  F   UNL A   1      42.717  30.069  28.085  1.00  0.00    -0.203 F 
ATOM     88  C   UNL A   1      44.367  31.188  26.853  1.00  0.00     0.198 A 
ATOM     89  C   UNL A   1      46.669  31.060  27.514  1.00  0.00     0.198 A 
ATOM     90  F   UNL A   1      47.294  29.726  29.346  1.00  0.00    -0.203 F 
ATOM     91  F   UNL A   1      43.421  31.682  26.041  1.00  0.00    -0.200 F 
ATOM     92  C   UNL A   1      45.690  31.560  26.672  1.00  0.00     0.200 A 
ATOM     93  F   UNL A   1      47.944  31.446  27.369  1.00  0.00    -0.200 F 
ATOM     94  F   UNL A   1      46.021  32.420  25.698  1.00  0.00    -0.200 F 
ENDBRANCH  61  84
ENDBRANCH  35  36
ENDBRANCH  27  30
ENDBRANCH  25  26
ENDBRANCH  24  25
ENDBRANCH   1  24
TORSDOF 14
ENDMDL
