MODEL 1
REMARK VINA RESULT:     -12.5      0.000      0.000
REMARK SMILES O=C(NCCCNC(=O)c1cccnc1NC[C@H](c1ccccc1)[NH+]1CCOCC1)c1ccc(-c2c3nc(c(-c4c(F)c(F)c(F)c(F)c4F)c4ccc([nH]4)c(-c4c(F)c(F)c(F)c(F)c4F)c4nc(c(-c5c(F)c(F)c(F)c(F)c5F)c5ccc2[nH]5)C=C4)C=C3)cc1
REMARK SMILES IDX 6 1 5 2 4 3 3 4 1 5 2 6 31 8 32 9 93 10 33 11 92 12 34 13
REMARK SMILES IDX 35 14 36 15 86 16 37 17 91 18 85 19 87 20 38 21 90 22 84 23
REMARK SMILES IDX 83 24 39 26 71 27 51 28 70 29 52 30 55 31 69 32 88 33 53 34
REMARK SMILES IDX 54 35 68 37 89 38 56 39 40 40 41 41 49 42 42 43 43 44 47 45
REMARK SMILES IDX 50 46 44 47 45 48 48 49 46 50 72 51 73 52 81 53 74 54 75 55
REMARK SMILES IDX 79 56 82 57 76 58 77 59 80 60 78 61 57 62 58 63 66 64 59 65
REMARK SMILES IDX 60 66 64 67 67 68 61 69 62 70 65 71 63 72 7 73 8 74 9 76
REMARK SMILES IDX 10 77 11 78 15 79 12 80 14 81 13 82 16 83 17 85 18 86 25 87
REMARK SMILES IDX 26 88 30 89 27 91 29 92 28 93 19 94 20 95 24 96 21 97 23 98
REMARK SMILES IDX 22 99
REMARK H PARENT 3 7 87 25 55 36 7 75 16 84 25 90
REMARK Flexibility Score: inf
ROOT
ATOM      1  C   UNL A   1      37.018  20.641  24.630  1.00  0.00     0.118 C 
ENDROOT
BRANCH   1   2
ATOM      2  C   UNL A   1      38.077  19.585  24.915  1.00  0.00     0.042 C 
BRANCH   2   3
ATOM      3  C   UNL A   1      39.161  20.086  25.858  1.00  0.00     0.118 C 
BRANCH   3   4
ATOM      4  N   UNL A   1      40.275  19.150  25.946  1.00  0.00    -0.352 N 
ATOM      5  O   UNL A   1      42.442  18.527  25.860  1.00  0.00    -0.269 OA
ATOM      6  C   UNL A   1      41.612  19.405  26.094  1.00  0.00     0.251 C 
ATOM      7  H   UNL A   1      40.031  18.197  25.889  1.00  0.00     0.163 HD
BRANCH   6   8
ATOM      8  C   UNL A   1      42.048  20.742  26.529  1.00  0.00     0.039 A 
ATOM      9  C   UNL A   1      42.349  21.723  25.581  1.00  0.00     0.014 A 
ATOM     10  C   UNL A   1      42.137  21.026  27.893  1.00  0.00     0.014 A 
ATOM     11  C   UNL A   1      42.878  22.938  25.988  1.00  0.00     0.010 A 
ATOM     12  C   UNL A   1      42.570  22.287  28.303  1.00  0.00     0.010 A 
ATOM     13  C   UNL A   1      42.962  23.243  27.353  1.00  0.00    -0.014 A 
BRANCH  13  14
ATOM     14  C   UNL A   1      43.381  24.600  27.771  1.00  0.00     0.031 A 
ATOM     15  C   UNL A   1      42.368  25.646  28.121  1.00  0.00     0.074 A 
ATOM     16  C   UNL A   1      44.698  24.882  27.801  1.00  0.00     0.049 A 
ATOM     17  N   UNL A   1      42.554  26.905  28.423  1.00  0.00    -0.248 NA
ATOM     18  C   UNL A   1      40.959  25.227  28.119  1.00  0.00     0.031 C 
ATOM     19  C   UNL A   1      45.767  23.938  27.471  1.00  0.00     0.029 A 
ATOM     20  N   UNL A   1      45.359  26.041  28.109  1.00  0.00    -0.354 N 
ATOM     21  C   UNL A   1      41.287  27.437  28.621  1.00  0.00     0.074 A 
ATOM     22  C   UNL A   1      40.339  26.370  28.379  1.00  0.00     0.031 C 
ATOM     23  C   UNL A   1      46.950  24.550  27.605  1.00  0.00     0.029 A 
ATOM     24  C   UNL A   1      46.720  25.946  27.954  1.00  0.00     0.049 A 
ATOM     25  H   UNL A   1      44.905  26.860  28.411  1.00  0.00     0.167 HD
ATOM     26  C   UNL A   1      40.954  28.702  28.974  1.00  0.00     0.037 A 
ATOM     27  C   UNL A   1      47.677  26.888  28.037  1.00  0.00     0.037 A 
ATOM     28  C   UNL A   1      41.916  29.748  29.213  1.00  0.00     0.049 A 
ATOM     29  C   UNL A   1      47.282  28.292  28.389  1.00  0.00     0.074 A 
ATOM     30  C   UNL A   1      41.691  31.050  29.624  1.00  0.00     0.029 A 
ATOM     31  N   UNL A   1      43.289  29.616  29.043  1.00  0.00    -0.354 N 
ATOM     32  N   UNL A   1      46.087  28.777  28.620  1.00  0.00    -0.248 NA
ATOM     33  C   UNL A   1      48.364  29.278  28.494  1.00  0.00     0.031 C 
ATOM     34  C   UNL A   1      42.917  31.723  29.636  1.00  0.00     0.029 A 
ATOM     35  C   UNL A   1      43.918  30.824  29.304  1.00  0.00     0.049 A 
ATOM     36  H   UNL A   1      43.747  28.787  28.777  1.00  0.00     0.167 HD
ATOM     37  C   UNL A   1      46.270  30.118  28.918  1.00  0.00     0.074 A 
ATOM     38  C   UNL A   1      47.696  30.368  28.847  1.00  0.00     0.031 C 
ATOM     39  C   UNL A   1      45.340  31.055  29.229  1.00  0.00     0.037 A 
BRANCH  26  40
ATOM     40  C   UNL A   1      39.492  29.032  29.080  1.00  0.00     0.064 A 
ATOM     41  C   UNL A   1      38.798  28.972  30.298  1.00  0.00     0.173 A 
ATOM     42  C   UNL A   1      38.772  29.424  27.939  1.00  0.00     0.173 A 
ATOM     43  F   UNL A   1      39.433  28.597  31.420  1.00  0.00    -0.203 F 
ATOM     44  C   UNL A   1      37.434  29.246  30.362  1.00  0.00     0.198 A 
ATOM     45  C   UNL A   1      37.417  29.732  28.013  1.00  0.00     0.198 A 
ATOM     46  F   UNL A   1      39.385  29.508  26.748  1.00  0.00    -0.203 F 
ATOM     47  F   UNL A   1      36.780  29.116  31.526  1.00  0.00    -0.200 F 
ATOM     48  C   UNL A   1      36.746  29.630  29.222  1.00  0.00     0.200 A 
ATOM     49  F   UNL A   1      36.758  30.118  26.913  1.00  0.00    -0.200 F 
ATOM     50  F   UNL A   1      35.432  29.890  29.284  1.00  0.00    -0.200 F 
ENDBRANCH  26  40
BRANCH  27  51
ATOM     51  C   UNL A   1      49.084  26.512  27.754  1.00  0.00     0.064 A 
ATOM     52  C   UNL A   1      49.579  26.490  26.445  1.00  0.00     0.173 A 
ATOM     53  C   UNL A   1      49.980  26.232  28.798  1.00  0.00     0.173 A 
ATOM     54  F   UNL A   1      48.758  26.739  25.414  1.00  0.00    -0.203 F 
ATOM     55  C   UNL A   1      50.917  26.198  26.188  1.00  0.00     0.198 A 
ATOM     56  C   UNL A   1      51.323  25.972  28.543  1.00  0.00     0.198 A 
ATOM     57  F   UNL A   1      49.557  26.255  30.070  1.00  0.00    -0.203 F 
ATOM     58  F   UNL A   1      51.362  26.159  24.925  1.00  0.00    -0.200 F 
ATOM     59  C   UNL A   1      51.790  25.951  27.238  1.00  0.00     0.200 A 
ATOM     60  F   UNL A   1      52.167  25.757  29.562  1.00  0.00    -0.200 F 
ATOM     61  F   UNL A   1      53.082  25.691  26.991  1.00  0.00    -0.200 F 
ENDBRANCH  27  51
BRANCH  39  62
ATOM     62  C   UNL A   1      45.833  32.435  29.555  1.00  0.00     0.064 A 
ATOM     63  C   UNL A   1      46.236  32.788  30.851  1.00  0.00     0.173 A 
ATOM     64  C   UNL A   1      45.972  33.392  28.539  1.00  0.00     0.173 A 
ATOM     65  F   UNL A   1      46.104  31.915  31.861  1.00  0.00    -0.203 F 
ATOM     66  C   UNL A   1      46.751  34.053  31.119  1.00  0.00     0.198 A 
ATOM     67  C   UNL A   1      46.517  34.645  28.803  1.00  0.00     0.198 A 
ATOM     68  F   UNL A   1      45.604  33.102  27.282  1.00  0.00    -0.203 F 
ATOM     69  F   UNL A   1      47.098  34.382  32.370  1.00  0.00    -0.200 F 
ATOM     70  C   UNL A   1      46.903  34.976  30.093  1.00  0.00     0.200 A 
ATOM     71  F   UNL A   1      46.677  35.528  27.808  1.00  0.00    -0.200 F 
ATOM     72  F   UNL A   1      47.419  36.185  30.349  1.00  0.00    -0.200 F 
ENDBRANCH  39  62
ENDBRANCH  13  14
ENDBRANCH   6   8
ENDBRANCH   3   4
ENDBRANCH   2   3
ENDBRANCH   1   2
BRANCH   1  73
ATOM     73  N   UNL A   1      35.891  20.496  25.540  1.00  0.00    -0.352 N 
ATOM     74  C   UNL A   1      34.856  21.398  25.661  1.00  0.00     0.255 C 
ATOM     75  H   UNL A   1      35.866  19.694  26.112  1.00  0.00     0.163 HD
ATOM     76  O   UNL A   1      34.551  21.774  26.789  1.00  0.00    -0.269 OA
BRANCH  74  77
ATOM     77  C   UNL A   1      34.177  21.887  24.429  1.00  0.00     0.082 A 
ATOM     78  C   UNL A   1      33.088  21.165  23.908  1.00  0.00     0.019 A 
ATOM     79  C   UNL A   1      34.487  23.125  23.846  1.00  0.00     0.139 A 
ATOM     80  C   UNL A   1      32.467  21.572  22.738  1.00  0.00     0.021 A 
ATOM     81  N   UNL A   1      33.910  23.489  22.671  1.00  0.00    -0.239 NA
ATOM     82  C   UNL A   1      32.945  22.711  22.135  1.00  0.00     0.113 A 
BRANCH  79  83
ATOM     83  N   UNL A   1      35.151  24.116  24.559  1.00  0.00    -0.363 N 
ATOM     84  H   UNL A   1      36.131  24.187  24.494  1.00  0.00     0.162 HD
BRANCH  83  85
ATOM     85  C   UNL A   1      34.419  25.050  25.402  1.00  0.00     0.184 C 
BRANCH  85  86
ATOM     86  C   UNL A   1      33.894  26.379  24.734  1.00  0.00     0.234 C 
BRANCH  86  87
ATOM     87  N   UNL A   1      33.198  26.470  23.427  1.00  0.00    -0.323 N 
ATOM     88  C   UNL A   1      33.556  27.536  22.485  1.00  0.00     0.291 C 
ATOM     89  C   UNL A   1      31.743  26.283  23.427  1.00  0.00     0.291 C 
ATOM     90  H   UNL A   1      33.633  25.628  23.052  1.00  0.00     0.348 HD
ATOM     91  C   UNL A   1      32.782  28.824  22.737  1.00  0.00     0.221 C 
ATOM     92  C   UNL A   1      30.901  27.571  23.428  1.00  0.00     0.221 C 
ATOM     93  O   UNL A   1      31.380  28.599  22.553  1.00  0.00    -0.370 OA
ENDBRANCH  86  87
BRANCH  86  94
ATOM     94  C   UNL A   1      33.357  27.392  25.753  1.00  0.00     0.011 A 
ATOM     95  C   UNL A   1      32.224  27.137  26.540  1.00  0.00     0.010 A 
ATOM     96  C   UNL A   1      33.961  28.660  25.841  1.00  0.00     0.010 A 
ATOM     97  C   UNL A   1      31.682  28.141  27.346  1.00  0.00     0.001 A 
ATOM     98  C   UNL A   1      33.435  29.651  26.667  1.00  0.00     0.001 A 
ATOM     99  C   UNL A   1      32.285  29.397  27.407  1.00  0.00     0.000 A 
ENDBRANCH  86  94
ENDBRANCH  85  86
ENDBRANCH  83  85
ENDBRANCH  79  83
ENDBRANCH  74  77
ENDBRANCH   1  73
TORSDOF 15
ENDMDL
MODEL 2
REMARK VINA RESULT:     -12.4      1.161      2.172
REMARK SMILES O=C(NCCCNC(=O)c1cccnc1NC[C@H](c1ccccc1)[NH+]1CCOCC1)c1ccc(-c2c3nc(c(-c4c(F)c(F)c(F)c(F)c4F)c4ccc([nH]4)c(-c4c(F)c(F)c(F)c(F)c4F)c4nc(c(-c5c(F)c(F)c(F)c(F)c5F)c5ccc2[nH]5)C=C4)C=C3)cc1
REMARK SMILES IDX 6 1 5 2 4 3 3 4 1 5 2 6 31 8 32 9 93 10 33 11 92 12 34 13
REMARK SMILES IDX 35 14 36 15 86 16 37 17 91 18 85 19 87 20 38 21 90 22 84 23
REMARK SMILES IDX 83 24 39 26 71 27 51 28 70 29 52 30 55 31 69 32 88 33 53 34
REMARK SMILES IDX 54 35 68 37 89 38 56 39 40 40 41 41 49 42 42 43 43 44 47 45
REMARK SMILES IDX 50 46 44 47 45 48 48 49 46 50 72 51 73 52 81 53 74 54 75 55
REMARK SMILES IDX 79 56 82 57 76 58 77 59 80 60 78 61 57 62 58 63 66 64 59 65
REMARK SMILES IDX 60 66 64 67 67 68 61 69 62 70 65 71 63 72 7 73 8 74 9 76
REMARK SMILES IDX 10 77 11 78 15 79 12 80 14 81 13 82 16 83 17 85 18 86 25 87
REMARK SMILES IDX 26 88 30 89 27 91 29 92 28 93 19 94 20 95 24 96 21 97 23 98
REMARK SMILES IDX 22 99
REMARK H PARENT 3 7 87 25 55 36 7 75 16 84 25 90
REMARK Flexibility Score: inf
ROOT
ATOM      1  C   UNL A   1      37.369  20.995  24.600  1.00  0.00     0.118 C 
ENDROOT
BRANCH   1   2
ATOM      2  C   UNL A   1      38.214  19.781  24.961  1.00  0.00     0.042 C 
BRANCH   2   3
ATOM      3  C   UNL A   1      39.215  20.076  26.069  1.00  0.00     0.118 C 
BRANCH   3   4
ATOM      4  N   UNL A   1      40.356  19.171  26.020  1.00  0.00    -0.352 N 
ATOM      5  O   UNL A   1      42.513  18.608  25.670  1.00  0.00    -0.269 OA
ATOM      6  C   UNL A   1      41.694  19.463  26.004  1.00  0.00     0.251 C 
ATOM      7  H   UNL A   1      40.134  18.211  25.993  1.00  0.00     0.163 HD
BRANCH   6   8
ATOM      8  C   UNL A   1      42.143  20.813  26.383  1.00  0.00     0.039 A 
ATOM      9  C   UNL A   1      42.300  21.799  25.406  1.00  0.00     0.014 A 
ATOM     10  C   UNL A   1      42.389  21.102  27.727  1.00  0.00     0.014 A 
ATOM     11  C   UNL A   1      42.842  23.028  25.747  1.00  0.00     0.010 A 
ATOM     12  C   UNL A   1      42.833  22.376  28.082  1.00  0.00     0.010 A 
ATOM     13  C   UNL A   1      43.082  23.339  27.092  1.00  0.00    -0.014 A 
BRANCH  13  14
ATOM     14  C   UNL A   1      43.511  24.709  27.457  1.00  0.00     0.031 A 
ATOM     15  C   UNL A   1      42.535  25.702  28.005  1.00  0.00     0.074 A 
ATOM     16  C   UNL A   1      44.798  25.051  27.255  1.00  0.00     0.049 A 
ATOM     17  N   UNL A   1      42.718  26.965  28.297  1.00  0.00    -0.248 NA
ATOM     18  C   UNL A   1      41.167  25.219  28.248  1.00  0.00     0.031 C 
ATOM     19  C   UNL A   1      45.830  24.161  26.718  1.00  0.00     0.029 A 
ATOM     20  N   UNL A   1      45.455  26.234  27.464  1.00  0.00    -0.354 N 
ATOM     21  C   UNL A   1      41.487  27.435  28.731  1.00  0.00     0.074 A 
ATOM     22  C   UNL A   1      40.557  26.329  28.640  1.00  0.00     0.031 C 
ATOM     23  C   UNL A   1      46.990  24.824  26.649  1.00  0.00     0.029 A 
ATOM     24  C   UNL A   1      46.768  26.203  27.064  1.00  0.00     0.049 A 
ATOM     25  H   UNL A   1      45.028  27.028  27.860  1.00  0.00     0.167 HD
ATOM     26  C   UNL A   1      41.170  28.679  29.165  1.00  0.00     0.037 A 
ATOM     27  C   UNL A   1      47.682  27.187  26.994  1.00  0.00     0.037 A 
ATOM     28  C   UNL A   1      42.113  29.765  29.249  1.00  0.00     0.049 A 
ATOM     29  C   UNL A   1      47.299  28.567  27.441  1.00  0.00     0.074 A 
ATOM     30  C   UNL A   1      41.911  31.049  29.722  1.00  0.00     0.029 A 
ATOM     31  N   UNL A   1      43.437  29.698  28.832  1.00  0.00    -0.354 N 
ATOM     32  N   UNL A   1      46.145  28.993  27.894  1.00  0.00    -0.248 NA
ATOM     33  C   UNL A   1      48.338  29.600  27.370  1.00  0.00     0.031 C 
ATOM     34  C   UNL A   1      43.089  31.777  29.527  1.00  0.00     0.029 A 
ATOM     35  C   UNL A   1      44.051  30.929  29.001  1.00  0.00     0.049 A 
ATOM     36  H   UNL A   1      43.874  28.894  28.470  1.00  0.00     0.167 HD
ATOM     37  C   UNL A   1      46.322  30.338  28.183  1.00  0.00     0.074 A 
ATOM     38  C   UNL A   1      47.699  30.653  27.861  1.00  0.00     0.031 C 
ATOM     39  C   UNL A   1      45.425  31.226  28.676  1.00  0.00     0.037 A 
BRANCH  26  40
ATOM     40  C   UNL A   1      39.737  28.940  29.539  1.00  0.00     0.064 A 
ATOM     41  C   UNL A   1      39.255  28.730  30.840  1.00  0.00     0.173 A 
ATOM     42  C   UNL A   1      38.832  29.418  28.578  1.00  0.00     0.173 A 
ATOM     43  F   UNL A   1      40.073  28.268  31.798  1.00  0.00    -0.203 F 
ATOM     44  C   UNL A   1      37.914  28.943  31.152  1.00  0.00     0.198 A 
ATOM     45  C   UNL A   1      37.501  29.665  28.902  1.00  0.00     0.198 A 
ATOM     46  F   UNL A   1      39.239  29.646  27.319  1.00  0.00    -0.203 F 
ATOM     47  F   UNL A   1      37.464  28.671  32.385  1.00  0.00    -0.200 F 
ATOM     48  C   UNL A   1      37.040  29.415  30.185  1.00  0.00     0.200 A 
ATOM     49  F   UNL A   1      36.662  30.135  27.969  1.00  0.00    -0.200 F 
ATOM     50  F   UNL A   1      35.749  29.616  30.485  1.00  0.00    -0.200 F 
ENDBRANCH  26  40
BRANCH  27  51
ATOM     51  C   UNL A   1      49.030  26.880  26.454  1.00  0.00     0.064 A 
ATOM     52  C   UNL A   1      50.032  26.339  27.268  1.00  0.00     0.173 A 
ATOM     53  C   UNL A   1      49.320  27.061  25.092  1.00  0.00     0.173 A 
ATOM     54  F   UNL A   1      49.805  26.159  28.578  1.00  0.00    -0.203 F 
ATOM     55  C   UNL A   1      51.275  25.993  26.743  1.00  0.00     0.198 A 
ATOM     56  C   UNL A   1      50.551  26.687  24.562  1.00  0.00     0.198 A 
ATOM     57  F   UNL A   1      48.389  27.563  24.268  1.00  0.00    -0.203 F 
ATOM     58  F   UNL A   1      52.226  25.500  27.547  1.00  0.00    -0.200 F 
ATOM     59  C   UNL A   1      51.530  26.156  25.389  1.00  0.00     0.200 A 
ATOM     60  F   UNL A   1      50.784  26.824  23.249  1.00  0.00    -0.200 F 
ATOM     61  F   UNL A   1      52.719  25.803  24.881  1.00  0.00    -0.200 F 
ENDBRANCH  27  51
BRANCH  39  62
ATOM     62  C   UNL A   1      45.909  32.623  28.938  1.00  0.00     0.064 A 
ATOM     63  C   UNL A   1      45.792  33.638  27.978  1.00  0.00     0.173 A 
ATOM     64  C   UNL A   1      46.429  32.963  30.196  1.00  0.00     0.173 A 
ATOM     65  F   UNL A   1      45.320  33.359  26.753  1.00  0.00    -0.203 F 
ATOM     66  C   UNL A   1      46.188  34.941  28.265  1.00  0.00     0.198 A 
ATOM     67  C   UNL A   1      46.794  34.274  30.490  1.00  0.00     0.198 A 
ATOM     68  F   UNL A   1      46.558  32.029  31.150  1.00  0.00    -0.203 F 
ATOM     69  F   UNL A   1      46.099  35.889  27.322  1.00  0.00    -0.200 F 
ATOM     70  C   UNL A   1      46.676  35.261  29.524  1.00  0.00     0.200 A 
ATOM     71  F   UNL A   1      47.250  34.582  31.712  1.00  0.00    -0.200 F 
ATOM     72  F   UNL A   1      47.036  36.521  29.805  1.00  0.00    -0.200 F 
ENDBRANCH  39  62
ENDBRANCH  13  14
ENDBRANCH   6   8
ENDBRANCH   3   4
ENDBRANCH   2   3
ENDBRANCH   1   2
BRANCH   1  73
ATOM     73  N   UNL A   1      36.890  21.662  25.803  1.00  0.00    -0.352 N 
ATOM     74  C   UNL A   1      35.674  22.300  25.917  1.00  0.00     0.255 C 
ATOM     75  H   UNL A   1      37.479  21.657  26.593  1.00  0.00     0.163 HD
ATOM     76  O   UNL A   1      35.664  23.439  26.377  1.00  0.00    -0.269 OA
BRANCH  74  77
ATOM     77  C   UNL A   1      34.443  21.596  25.463  1.00  0.00     0.082 A 
ATOM     78  C   UNL A   1      34.538  20.275  24.988  1.00  0.00     0.019 A 
ATOM     79  C   UNL A   1      33.163  22.148  25.625  1.00  0.00     0.139 A 
ATOM     80  C   UNL A   1      33.416  19.613  24.517  1.00  0.00     0.021 A 
ATOM     81  N   UNL A   1      32.076  21.514  25.112  1.00  0.00    -0.239 NA
ATOM     82  C   UNL A   1      32.220  20.291  24.557  1.00  0.00     0.113 A 
BRANCH  79  83
ATOM     83  N   UNL A   1      32.928  23.177  26.530  1.00  0.00    -0.363 N 
ATOM     84  H   UNL A   1      33.438  23.209  27.371  1.00  0.00     0.162 HD
BRANCH  83  85
ATOM     85  C   UNL A   1      31.938  24.208  26.251  1.00  0.00     0.184 C 
BRANCH  85  86
ATOM     86  C   UNL A   1      32.348  25.363  25.258  1.00  0.00     0.234 C 
BRANCH  86  87
ATOM     87  N   UNL A   1      31.851  25.522  23.868  1.00  0.00    -0.323 N 
ATOM     88  C   UNL A   1      31.911  24.387  22.942  1.00  0.00     0.291 C 
ATOM     89  C   UNL A   1      32.217  26.753  23.161  1.00  0.00     0.291 C 
ATOM     90  H   UNL A   1      30.872  25.586  24.146  1.00  0.00     0.348 HD
ATOM     91  C   UNL A   1      33.249  24.292  22.218  1.00  0.00     0.221 C 
ATOM     92  C   UNL A   1      33.425  26.648  22.212  1.00  0.00     0.221 C 
ATOM     93  O   UNL A   1      33.457  25.460  21.415  1.00  0.00    -0.370 OA
ENDBRANCH  86  87
BRANCH  86  94
ATOM     94  C   UNL A   1      32.558  26.711  25.959  1.00  0.00     0.011 A 
ATOM     95  C   UNL A   1      33.813  27.333  26.031  1.00  0.00     0.010 A 
ATOM     96  C   UNL A   1      31.476  27.307  26.636  1.00  0.00     0.010 A 
ATOM     97  C   UNL A   1      33.989  28.484  26.804  1.00  0.00     0.001 A 
ATOM     98  C   UNL A   1      31.648  28.470  27.383  1.00  0.00     0.001 A 
ATOM     99  C   UNL A   1      32.909  29.049  27.481  1.00  0.00     0.000 A 
ENDBRANCH  86  94
ENDBRANCH  85  86
ENDBRANCH  83  85
ENDBRANCH  79  83
ENDBRANCH  74  77
ENDBRANCH   1  73
TORSDOF 15
ENDMDL
MODEL 3
REMARK VINA RESULT:     -12.3      5.074     10.392
REMARK SMILES O=C(NCCCNC(=O)c1cccnc1NC[C@H](c1ccccc1)[NH+]1CCOCC1)c1ccc(-c2c3nc(c(-c4c(F)c(F)c(F)c(F)c4F)c4ccc([nH]4)c(-c4c(F)c(F)c(F)c(F)c4F)c4nc(c(-c5c(F)c(F)c(F)c(F)c5F)c5ccc2[nH]5)C=C4)C=C3)cc1
REMARK SMILES IDX 6 1 5 2 4 3 3 4 1 5 2 6 31 8 32 9 93 10 33 11 92 12 34 13
REMARK SMILES IDX 35 14 36 15 86 16 37 17 91 18 85 19 87 20 38 21 90 22 84 23
REMARK SMILES IDX 83 24 39 26 71 27 51 28 70 29 52 30 55 31 69 32 88 33 53 34
REMARK SMILES IDX 54 35 68 37 89 38 56 39 40 40 41 41 49 42 42 43 43 44 47 45
REMARK SMILES IDX 50 46 44 47 45 48 48 49 46 50 72 51 73 52 81 53 74 54 75 55
REMARK SMILES IDX 79 56 82 57 76 58 77 59 80 60 78 61 57 62 58 63 66 64 59 65
REMARK SMILES IDX 60 66 64 67 67 68 61 69 62 70 65 71 63 72 7 73 8 74 9 76
REMARK SMILES IDX 10 77 11 78 15 79 12 80 14 81 13 82 16 83 17 85 18 86 25 87
REMARK SMILES IDX 26 88 30 89 27 91 29 92 28 93 19 94 20 95 24 96 21 97 23 98
REMARK SMILES IDX 22 99
REMARK H PARENT 3 7 87 25 55 36 7 75 16 84 25 90
REMARK Flexibility Score: inf
ROOT
ATOM      1  C   UNL A   1      31.337  30.865  25.689  1.00  0.00     0.118 C 
ENDROOT
BRANCH   1   2
ATOM      2  C   UNL A   1      31.374  31.816  26.877  1.00  0.00     0.042 C 
BRANCH   2   3
ATOM      3  C   UNL A   1      32.710  32.533  27.008  1.00  0.00     0.118 C 
BRANCH   3   4
ATOM      4  N   UNL A   1      32.545  33.897  27.494  1.00  0.00    -0.352 N 
ATOM      5  O   UNL A   1      32.670  35.562  29.011  1.00  0.00    -0.269 OA
ATOM      6  C   UNL A   1      33.131  34.511  28.568  1.00  0.00     0.251 C 
ATOM      7  H   UNL A   1      31.922  34.458  26.976  1.00  0.00     0.163 HD
BRANCH   6   8
ATOM      8  C   UNL A   1      34.315  33.898  29.194  1.00  0.00     0.039 A 
ATOM      9  C   UNL A   1      34.159  32.878  30.135  1.00  0.00     0.014 A 
ATOM     10  C   UNL A   1      35.589  34.330  28.822  1.00  0.00     0.014 A 
ATOM     11  C   UNL A   1      35.265  32.390  30.814  1.00  0.00     0.010 A 
ATOM     12  C   UNL A   1      36.709  33.762  29.430  1.00  0.00     0.010 A 
ATOM     13  C   UNL A   1      36.552  32.804  30.444  1.00  0.00    -0.014 A 
BRANCH  13  14
ATOM     14  C   UNL A   1      37.731  32.160  31.068  1.00  0.00     0.031 A 
ATOM     15  C   UNL A   1      38.496  31.093  30.349  1.00  0.00     0.074 A 
ATOM     16  C   UNL A   1      38.081  32.536  32.313  1.00  0.00     0.049 A 
ATOM     17  N   UNL A   1      39.496  30.365  30.776  1.00  0.00    -0.248 NA
ATOM     18  C   UNL A   1      38.077  30.793  28.972  1.00  0.00     0.031 C 
ATOM     19  C   UNL A   1      37.398  33.561  33.104  1.00  0.00     0.029 A 
ATOM     20  N   UNL A   1      39.086  32.095  33.133  1.00  0.00    -0.354 N 
ATOM     21  C   UNL A   1      39.809  29.504  29.734  1.00  0.00     0.074 A 
ATOM     22  C   UNL A   1      38.876  29.781  28.663  1.00  0.00     0.031 C 
ATOM     23  C   UNL A   1      38.007  33.679  34.291  1.00  0.00     0.029 A 
ATOM     24  C   UNL A   1      39.073  32.688  34.371  1.00  0.00     0.049 A 
ATOM     25  H   UNL A   1      39.750  31.421  32.862  1.00  0.00     0.167 HD
ATOM     26  C   UNL A   1      40.789  28.569  29.684  1.00  0.00     0.037 A 
ATOM     27  C   UNL A   1      39.807  32.432  35.469  1.00  0.00     0.037 A 
ATOM     28  C   UNL A   1      41.709  28.312  30.762  1.00  0.00     0.049 A 
ATOM     29  C   UNL A   1      40.859  31.365  35.405  1.00  0.00     0.074 A 
ATOM     30  C   UNL A   1      42.770  27.425  30.798  1.00  0.00     0.029 A 
ATOM     31  N   UNL A   1      41.665  28.930  32.006  1.00  0.00    -0.354 N 
ATOM     32  N   UNL A   1      41.180  30.586  34.401  1.00  0.00    -0.248 NA
ATOM     33  C   UNL A   1      41.652  31.141  36.619  1.00  0.00     0.031 C 
ATOM     34  C   UNL A   1      43.323  27.456  32.083  1.00  0.00     0.029 A 
ATOM     35  C   UNL A   1      42.656  28.416  32.828  1.00  0.00     0.049 A 
ATOM     36  H   UNL A   1      41.024  29.631  32.265  1.00  0.00     0.167 HD
ATOM     37  C   UNL A   1      42.225  29.793  34.852  1.00  0.00     0.074 A 
ATOM     38  C   UNL A   1      42.488  30.192  36.219  1.00  0.00     0.031 C 
ATOM     39  C   UNL A   1      42.905  28.826  34.188  1.00  0.00     0.037 A 
BRANCH  26  40
ATOM     40  C   UNL A   1      40.886  27.730  28.440  1.00  0.00     0.064 A 
ATOM     41  C   UNL A   1      40.191  26.520  28.299  1.00  0.00     0.173 A 
ATOM     42  C   UNL A   1      41.685  28.152  27.364  1.00  0.00     0.173 A 
ATOM     43  F   UNL A   1      39.418  26.064  29.297  1.00  0.00    -0.203 F 
ATOM     44  C   UNL A   1      40.327  25.742  27.151  1.00  0.00     0.198 A 
ATOM     45  C   UNL A   1      41.791  27.390  26.204  1.00  0.00     0.198 A 
ATOM     46  F   UNL A   1      42.367  29.306  27.439  1.00  0.00    -0.203 F 
ATOM     47  F   UNL A   1      39.705  24.557  27.069  1.00  0.00    -0.200 F 
ATOM     48  C   UNL A   1      41.122  26.180  26.103  1.00  0.00     0.200 A 
ATOM     49  F   UNL A   1      42.548  27.823  25.187  1.00  0.00    -0.200 F 
ATOM     50  F   UNL A   1      41.256  25.429  25.001  1.00  0.00    -0.200 F 
ENDBRANCH  26  40
BRANCH  27  51
ATOM     51  C   UNL A   1      39.534  33.195  36.711  1.00  0.00     0.064 A 
ATOM     52  C   UNL A   1      40.191  34.402  36.981  1.00  0.00     0.173 A 
ATOM     53  C   UNL A   1      38.557  32.764  37.624  1.00  0.00     0.173 A 
ATOM     54  F   UNL A   1      41.141  34.847  36.145  1.00  0.00    -0.203 F 
ATOM     55  C   UNL A   1      39.886  35.147  38.118  1.00  0.00     0.198 A 
ATOM     56  C   UNL A   1      38.231  33.525  38.742  1.00  0.00     0.198 A 
ATOM     57  F   UNL A   1      37.889  31.622  37.402  1.00  0.00    -0.203 F 
ATOM     58  F   UNL A   1      40.547  36.286  38.366  1.00  0.00    -0.200 F 
ATOM     59  C   UNL A   1      38.899  34.715  38.991  1.00  0.00     0.200 A 
ATOM     60  F   UNL A   1      37.259  33.115  39.569  1.00  0.00    -0.200 F 
ATOM     61  F   UNL A   1      38.591  35.443  40.073  1.00  0.00    -0.200 F 
ENDBRANCH  27  51
BRANCH  39  62
ATOM     62  C   UNL A   1      44.032  28.153  34.916  1.00  0.00     0.064 A 
ATOM     63  C   UNL A   1      45.328  28.690  34.930  1.00  0.00     0.173 A 
ATOM     64  C   UNL A   1      43.792  26.994  35.669  1.00  0.00     0.173 A 
ATOM     65  F   UNL A   1      45.613  29.786  34.211  1.00  0.00    -0.203 F 
ATOM     66  C   UNL A   1      46.343  28.085  35.665  1.00  0.00     0.198 A 
ATOM     67  C   UNL A   1      44.802  26.409  36.427  1.00  0.00     0.198 A 
ATOM     68  F   UNL A   1      42.569  26.442  35.690  1.00  0.00    -0.203 F 
ATOM     69  F   UNL A   1      47.582  28.595  35.639  1.00  0.00    -0.200 F 
ATOM     70  C   UNL A   1      46.077  26.953  36.423  1.00  0.00     0.200 A 
ATOM     71  F   UNL A   1      44.538  25.325  37.170  1.00  0.00    -0.200 F 
ATOM     72  F   UNL A   1      47.052  26.385  37.147  1.00  0.00    -0.200 F 
ENDBRANCH  39  62
ENDBRANCH  13  14
ENDBRANCH   6   8
ENDBRANCH   3   4
ENDBRANCH   2   3
ENDBRANCH   1   2
BRANCH   1  73
ATOM     73  N   UNL A   1      32.395  29.870  25.794  1.00  0.00    -0.352 N 
ATOM     74  C   UNL A   1      32.198  28.543  26.106  1.00  0.00     0.255 C 
ATOM     75  H   UNL A   1      33.319  30.168  25.629  1.00  0.00     0.163 HD
ATOM     76  O   UNL A   1      32.894  28.053  26.991  1.00  0.00    -0.269 OA
BRANCH  74  77
ATOM     77  C   UNL A   1      31.147  27.777  25.380  1.00  0.00     0.082 A 
ATOM     78  C   UNL A   1      30.735  28.208  24.107  1.00  0.00     0.019 A 
ATOM     79  C   UNL A   1      30.651  26.554  25.856  1.00  0.00     0.139 A 
ATOM     80  C   UNL A   1      29.726  27.541  23.429  1.00  0.00     0.021 A 
ATOM     81  N   UNL A   1      29.626  25.936  25.211  1.00  0.00    -0.239 NA
ATOM     82  C   UNL A   1      29.174  26.442  24.043  1.00  0.00     0.113 A 
BRANCH  79  83
ATOM     83  N   UNL A   1      31.347  25.807  26.799  1.00  0.00    -0.363 N 
ATOM     84  H   UNL A   1      31.425  26.142  27.721  1.00  0.00     0.162 HD
BRANCH  83  85
ATOM     85  C   UNL A   1      31.964  24.537  26.443  1.00  0.00     0.184 C 
BRANCH  85  86
ATOM     86  C   UNL A   1      33.284  24.582  25.580  1.00  0.00     0.234 C 
BRANCH  86  87
ATOM     87  N   UNL A   1      34.394  23.600  25.652  1.00  0.00    -0.323 N 
ATOM     88  C   UNL A   1      34.565  22.616  24.578  1.00  0.00     0.291 C 
ATOM     89  C   UNL A   1      34.642  22.960  26.948  1.00  0.00     0.291 C 
ATOM     90  H   UNL A   1      35.121  24.297  25.491  1.00  0.00     0.348 HD
ATOM     91  C   UNL A   1      33.733  21.359  24.798  1.00  0.00     0.221 C 
ATOM     92  C   UNL A   1      34.026  21.562  27.134  1.00  0.00     0.221 C 
ATOM     93  O   UNL A   1      34.149  20.699  25.998  1.00  0.00    -0.370 OA
ENDBRANCH  86  87
BRANCH  86  94
ATOM     94  C   UNL A   1      33.052  25.097  24.155  1.00  0.00     0.011 A 
ATOM     95  C   UNL A   1      32.195  24.450  23.252  1.00  0.00     0.010 A 
ATOM     96  C   UNL A   1      33.793  26.204  23.698  1.00  0.00     0.010 A 
ATOM     97  C   UNL A   1      32.127  24.867  21.919  1.00  0.00     0.001 A 
ATOM     98  C   UNL A   1      33.702  26.634  22.376  1.00  0.00     0.001 A 
ATOM     99  C   UNL A   1      32.881  25.955  21.482  1.00  0.00     0.000 A 
ENDBRANCH  86  94
ENDBRANCH  85  86
ENDBRANCH  83  85
ENDBRANCH  79  83
ENDBRANCH  74  77
ENDBRANCH   1  73
TORSDOF 15
ENDMDL
