MODEL 1
REMARK VINA RESULT:     -10.6      0.000      0.000
REMARK SMILES C[C@H]1CC[C@](C#N)([C@H](O)C(=O)NCCCNC(=O)c2ccc(-c3c4nc(c(-c5c(F)c(F)c(F)c(F)c5F)c5ccc([nH]5)c(-c5c(F)c(F)c(F)c(F)c5F)c5nc(c(-c6c(F)c(F)c(F)c(F)c6F)c6ccc3[nH]6)C=C5)C=C4)cc2)C1
REMARK SMILES IDX 14 1 13 2 12 3 10 4 11 5 8 7 5 8 1 9 2 10 3 11 82 12 4 13
REMARK SMILES IDX 6 14 7 15 9 16 15 18 16 19 17 20 18 22 19 23 20 24 81 25
REMARK SMILES IDX 21 26 80 27 22 28 23 29 24 30 74 31 25 32 79 33 73 34 75 35
REMARK SMILES IDX 26 36 78 37 72 38 71 39 27 41 59 42 39 43 58 44 40 45 43 46
REMARK SMILES IDX 57 47 76 48 41 49 42 50 56 52 77 53 44 54 28 55 29 56 37 57
REMARK SMILES IDX 30 58 31 59 35 60 38 61 32 62 33 63 36 64 34 65 60 66 61 67
REMARK SMILES IDX 69 68 62 69 63 70 67 71 70 72 64 73 65 74 68 75 66 76 45 77
REMARK SMILES IDX 46 78 54 79 47 80 48 81 52 82 55 83 49 84 50 85 53 86 51 87
REMARK H PARENT 12 6 9 17 16 21 75 40 43 51
REMARK Flexibility Score: inf
ROOT
ATOM      1  C   UNL A   1      33.569  33.639  28.243  1.00  0.00     0.042 C 
ENDROOT
BRANCH   1   2
ATOM      2  C   UNL A   1      33.850  34.839  29.116  1.00  0.00     0.117 C 
BRANCH   2   3
ATOM      3  N   UNL A   1      32.969  34.953  30.257  1.00  0.00    -0.354 N 
ATOM      4  C   UNL A   1      33.308  35.166  31.560  1.00  0.00     0.250 C 
ATOM      5  O   UNL A   1      32.405  35.233  32.395  1.00  0.00    -0.272 OA
ATOM      6  H   UNL A   1      32.008  34.866  30.071  1.00  0.00     0.163 HD
BRANCH   4   7
ATOM      7  C   UNL A   1      34.790  35.270  31.995  1.00  0.00     0.223 C 
BRANCH   7   8
ATOM      8  C   UNL A   1      35.470  33.949  32.484  1.00  0.00     0.092 C 
ATOM      9  C   UNL A   1      37.844  31.702  33.146  1.00  0.00     0.008 C 
ATOM     10  C   UNL A   1      37.008  32.094  31.927  1.00  0.00    -0.013 C 
ATOM     11  C   UNL A   1      35.586  31.535  31.952  1.00  0.00     0.005 C 
ATOM     12  C   UNL A   1      36.825  33.608  31.808  1.00  0.00     0.029 C 
ATOM     13  C   UNL A   1      34.629  32.726  32.062  1.00  0.00     0.026 C 
BRANCH   8  14
ATOM     14  C   UNL A   1      35.586  33.959  33.959  1.00  0.00     0.072 C 
ATOM     15  N   UNL A   1      35.658  33.943  35.119  1.00  0.00    -0.198 NA
ENDBRANCH   8  14
ENDBRANCH   7   8
BRANCH   7  16
ATOM     16  O   UNL A   1      34.941  36.339  32.935  1.00  0.00    -0.382 OA
ATOM     17  H   UNL A   1      35.603  36.968  32.606  1.00  0.00     0.211 HD
ENDBRANCH   7  16
ENDBRANCH   4   7
ENDBRANCH   2   3
ENDBRANCH   1   2
BRANCH   1  18
ATOM     18  C   UNL A   1      34.510  32.475  28.478  1.00  0.00     0.118 C 
BRANCH  18  19
ATOM     19  N   UNL A   1      33.962  31.196  28.047  1.00  0.00    -0.352 N 
ATOM     20  C   UNL A   1      34.593  29.987  27.864  1.00  0.00     0.251 C 
ATOM     21  H   UNL A   1      32.996  31.196  27.860  1.00  0.00     0.163 HD
ATOM     22  O   UNL A   1      33.995  29.051  27.345  1.00  0.00    -0.269 OA
BRANCH  20  23
ATOM     23  C   UNL A   1      36.010  29.831  28.257  1.00  0.00     0.039 A 
ATOM     24  C   UNL A   1      36.311  29.341  29.530  1.00  0.00     0.014 A 
ATOM     25  C   UNL A   1      37.040  30.133  27.365  1.00  0.00     0.014 A 
ATOM     26  C   UNL A   1      37.638  29.073  29.870  1.00  0.00     0.010 A 
ATOM     27  C   UNL A   1      38.343  29.749  27.656  1.00  0.00     0.010 A 
ATOM     28  C   UNL A   1      38.660  29.224  28.917  1.00  0.00    -0.014 A 
BRANCH  28  29
ATOM     29  C   UNL A   1      40.065  28.851  29.221  1.00  0.00     0.031 A 
ATOM     30  C   UNL A   1      40.945  29.796  29.994  1.00  0.00     0.074 A 
ATOM     31  C   UNL A   1      40.566  27.691  28.751  1.00  0.00     0.049 A 
ATOM     32  N   UNL A   1      42.212  29.681  30.303  1.00  0.00    -0.248 NA
ATOM     33  C   UNL A   1      40.329  31.051  30.457  1.00  0.00     0.031 C 
ATOM     34  C   UNL A   1      39.829  26.714  27.946  1.00  0.00     0.029 A 
ATOM     35  N   UNL A   1      41.816  27.137  28.875  1.00  0.00    -0.354 N 
ATOM     36  C   UNL A   1      42.542  30.849  30.980  1.00  0.00     0.074 A 
ATOM     37  C   UNL A   1      41.365  31.686  30.984  1.00  0.00     0.031 C 
ATOM     38  C   UNL A   1      40.630  25.671  27.675  1.00  0.00     0.029 A 
ATOM     39  C   UNL A   1      41.952  25.927  28.238  1.00  0.00     0.049 A 
ATOM     40  H   UNL A   1      42.548  27.568  29.373  1.00  0.00     0.167 HD
ATOM     41  C   UNL A   1      43.715  31.179  31.571  1.00  0.00     0.037 A 
ATOM     42  C   UNL A   1      43.024  25.122  28.109  1.00  0.00     0.037 A 
ATOM     43  C   UNL A   1      44.878  30.330  31.583  1.00  0.00     0.049 A 
ATOM     44  C   UNL A   1      44.323  25.530  28.756  1.00  0.00     0.074 A 
ATOM     45  C   UNL A   1      46.093  30.548  32.207  1.00  0.00     0.029 A 
ATOM     46  N   UNL A   1      44.972  29.107  30.935  1.00  0.00    -0.354 N 
ATOM     47  N   UNL A   1      44.599  26.598  29.463  1.00  0.00    -0.248 NA
ATOM     48  C   UNL A   1      45.460  24.612  28.592  1.00  0.00     0.031 C 
ATOM     49  C   UNL A   1      46.947  29.493  31.876  1.00  0.00     0.029 A 
ATOM     50  C   UNL A   1      46.239  28.577  31.114  1.00  0.00     0.049 A 
ATOM     51  H   UNL A   1      44.247  28.680  30.424  1.00  0.00     0.167 HD
ATOM     52  C   UNL A   1      45.924  26.464  29.857  1.00  0.00     0.074 A 
ATOM     53  C   UNL A   1      46.390  25.202  29.327  1.00  0.00     0.031 C 
ATOM     54  C   UNL A   1      46.687  27.311  30.591  1.00  0.00     0.037 A 
BRANCH  41  55
ATOM     55  C   UNL A   1      43.808  32.514  32.252  1.00  0.00     0.064 A 
ATOM     56  C   UNL A   1      44.199  33.671  31.562  1.00  0.00     0.173 A 
ATOM     57  C   UNL A   1      43.436  32.649  33.599  1.00  0.00     0.173 A 
ATOM     58  F   UNL A   1      44.576  33.597  30.276  1.00  0.00    -0.203 F 
ATOM     59  C   UNL A   1      44.234  34.908  32.199  1.00  0.00     0.198 A 
ATOM     60  C   UNL A   1      43.438  33.893  34.222  1.00  0.00     0.198 A 
ATOM     61  F   UNL A   1      43.050  31.576  34.305  1.00  0.00    -0.203 F 
ATOM     62  F   UNL A   1      44.653  35.992  31.532  1.00  0.00    -0.200 F 
ATOM     63  C   UNL A   1      43.842  35.021  33.524  1.00  0.00     0.200 A 
ATOM     64  F   UNL A   1      43.041  34.001  35.498  1.00  0.00    -0.200 F 
ATOM     65  F   UNL A   1      43.858  36.215  34.131  1.00  0.00    -0.200 F 
ENDBRANCH  41  55
BRANCH  42  66
ATOM     66  C   UNL A   1      42.927  23.854  27.336  1.00  0.00     0.064 A 
ATOM     67  C   UNL A   1      42.496  22.664  27.941  1.00  0.00     0.173 A 
ATOM     68  C   UNL A   1      43.303  23.794  25.985  1.00  0.00     0.173 A 
ATOM     69  F   UNL A   1      42.141  22.663  29.235  1.00  0.00    -0.203 F 
ATOM     70  C   UNL A   1      42.485  21.460  27.240  1.00  0.00     0.198 A 
ATOM     71  C   UNL A   1      43.253  22.597  25.274  1.00  0.00     0.198 A 
ATOM     72  F   UNL A   1      43.715  24.902  25.351  1.00  0.00    -0.203 F 
ATOM     73  F   UNL A   1      42.140  20.327  27.867  1.00  0.00    -0.200 F 
ATOM     74  C   UNL A   1      42.861  21.428  25.906  1.00  0.00     0.200 A 
ATOM     75  F   UNL A   1      43.597  22.575  23.979  1.00  0.00    -0.200 F 
ATOM     76  F   UNL A   1      42.855  20.269  25.234  1.00  0.00    -0.200 F 
ENDBRANCH  42  66
BRANCH  54  77
ATOM     77  C   UNL A   1      48.090  26.880  30.912  1.00  0.00     0.064 A 
ATOM     78  C   UNL A   1      48.381  26.054  32.008  1.00  0.00     0.173 A 
ATOM     79  C   UNL A   1      49.155  27.269  30.083  1.00  0.00     0.173 A 
ATOM     80  F   UNL A   1      47.403  25.664  32.840  1.00  0.00    -0.203 F 
ATOM     81  C   UNL A   1      49.689  25.664  32.283  1.00  0.00     0.198 A 
ATOM     82  C   UNL A   1      50.455  26.842  30.337  1.00  0.00     0.198 A 
ATOM     83  F   UNL A   1      48.932  28.049  29.015  1.00  0.00    -0.203 F 
ATOM     84  F   UNL A   1      49.951  24.925  33.371  1.00  0.00    -0.200 F 
ATOM     85  C   UNL A   1      50.722  26.049  31.443  1.00  0.00     0.200 A 
ATOM     86  F   UNL A   1      51.448  27.198  29.511  1.00  0.00    -0.200 F 
ATOM     87  F   UNL A   1      51.979  25.662  31.702  1.00  0.00    -0.200 F 
ENDBRANCH  54  77
ENDBRANCH  28  29
ENDBRANCH  20  23
ENDBRANCH  18  19
ENDBRANCH   1  18
TORSDOF 13
ENDMDL
MODEL 2
REMARK VINA RESULT:     -10.5      3.993     11.321
REMARK SMILES C[C@H]1CC[C@](C#N)([C@H](O)C(=O)NCCCNC(=O)c2ccc(-c3c4nc(c(-c5c(F)c(F)c(F)c(F)c5F)c5ccc([nH]5)c(-c5c(F)c(F)c(F)c(F)c5F)c5nc(c(-c6c(F)c(F)c(F)c(F)c6F)c6ccc3[nH]6)C=C5)C=C4)cc2)C1
REMARK SMILES IDX 14 1 13 2 12 3 10 4 11 5 8 7 5 8 1 9 2 10 3 11 82 12 4 13
REMARK SMILES IDX 6 14 7 15 9 16 15 18 16 19 17 20 18 22 19 23 20 24 81 25
REMARK SMILES IDX 21 26 80 27 22 28 23 29 24 30 74 31 25 32 79 33 73 34 75 35
REMARK SMILES IDX 26 36 78 37 72 38 71 39 27 41 59 42 39 43 58 44 40 45 43 46
REMARK SMILES IDX 57 47 76 48 41 49 42 50 56 52 77 53 44 54 28 55 29 56 37 57
REMARK SMILES IDX 30 58 31 59 35 60 38 61 32 62 33 63 36 64 34 65 60 66 61 67
REMARK SMILES IDX 69 68 62 69 63 70 67 71 70 72 64 73 65 74 68 75 66 76 45 77
REMARK SMILES IDX 46 78 54 79 47 80 48 81 52 82 55 83 49 84 50 85 53 86 51 87
REMARK H PARENT 12 6 9 17 16 21 75 40 43 51
REMARK Flexibility Score: inf
ROOT
ATOM      1  C   UNL A   1      41.050  20.139  26.457  1.00  0.00     0.042 C 
ENDROOT
BRANCH   1   2
ATOM      2  C   UNL A   1      42.531  19.845  26.438  1.00  0.00     0.117 C 
BRANCH   2   3
ATOM      3  N   UNL A   1      43.058  19.572  25.119  1.00  0.00    -0.354 N 
ATOM      4  C   UNL A   1      44.238  19.992  24.583  1.00  0.00     0.250 C 
ATOM      5  O   UNL A   1      44.512  19.652  23.431  1.00  0.00    -0.272 OA
ATOM      6  H   UNL A   1      42.495  19.014  24.537  1.00  0.00     0.163 HD
BRANCH   4   7
ATOM      7  C   UNL A   1      45.193  20.918  25.376  1.00  0.00     0.223 C 
BRANCH   7   8
ATOM      8  C   UNL A   1      44.908  22.453  25.293  1.00  0.00     0.092 C 
ATOM      9  C   UNL A   1      44.707  25.660  26.188  1.00  0.00     0.008 C 
ATOM     10  C   UNL A   1      43.838  24.413  26.359  1.00  0.00    -0.013 C 
ATOM     11  C   UNL A   1      43.028  24.054  25.114  1.00  0.00     0.005 C 
ATOM     12  C   UNL A   1      44.668  23.161  26.653  1.00  0.00     0.029 C 
ATOM     13  C   UNL A   1      43.553  22.710  24.598  1.00  0.00     0.026 C 
BRANCH   8  14
ATOM     14  C   UNL A   1      45.974  23.122  24.513  1.00  0.00     0.072 C 
ATOM     15  N   UNL A   1      46.795  23.642  23.876  1.00  0.00    -0.198 NA
ENDBRANCH   8  14
ENDBRANCH   7   8
BRANCH   7  16
ATOM     16  O   UNL A   1      46.550  20.599  25.053  1.00  0.00    -0.382 OA
ATOM     17  H   UNL A   1      47.146  21.067  25.660  1.00  0.00     0.211 HD
ENDBRANCH   7  16
ENDBRANCH   4   7
ENDBRANCH   2   3
ENDBRANCH   1   2
BRANCH   1  18
ATOM     18  C   UNL A   1      40.717  21.603  26.659  1.00  0.00     0.118 C 
BRANCH  18  19
ATOM     19  N   UNL A   1      39.465  22.001  26.031  1.00  0.00    -0.352 N 
ATOM     20  C   UNL A   1      38.772  23.185  26.126  1.00  0.00     0.251 C 
ATOM     21  H   UNL A   1      39.053  21.321  25.450  1.00  0.00     0.163 HD
ATOM     22  O   UNL A   1      37.648  23.284  25.645  1.00  0.00    -0.269 OA
BRANCH  20  23
ATOM     23  C   UNL A   1      39.368  24.330  26.849  1.00  0.00     0.039 A 
ATOM     24  C   UNL A   1      40.059  25.303  26.123  1.00  0.00     0.014 A 
ATOM     25  C   UNL A   1      39.220  24.463  28.230  1.00  0.00     0.014 A 
ATOM     26  C   UNL A   1      40.521  26.449  26.773  1.00  0.00     0.010 A 
ATOM     27  C   UNL A   1      39.566  25.657  28.851  1.00  0.00     0.010 A 
ATOM     28  C   UNL A   1      40.231  26.661  28.132  1.00  0.00    -0.014 A 
BRANCH  28  29
ATOM     29  C   UNL A   1      40.624  27.916  28.822  1.00  0.00     0.031 A 
ATOM     30  C   UNL A   1      42.024  28.080  29.347  1.00  0.00     0.074 A 
ATOM     31  C   UNL A   1      39.705  28.881  29.029  1.00  0.00     0.049 A 
ATOM     32  N   UNL A   1      42.540  29.070  30.031  1.00  0.00    -0.248 NA
ATOM     33  C   UNL A   1      42.964  26.974  29.097  1.00  0.00     0.031 C 
ATOM     34  C   UNL A   1      38.301  28.818  28.614  1.00  0.00     0.029 A 
ATOM     35  N   UNL A   1      39.810  30.102  29.648  1.00  0.00    -0.354 N 
ATOM     36  C   UNL A   1      43.852  28.699  30.301  1.00  0.00     0.074 A 
ATOM     37  C   UNL A   1      44.037  27.371  29.765  1.00  0.00     0.031 C 
ATOM     38  C   UNL A   1      37.687  29.959  28.963  1.00  0.00     0.029 A 
ATOM     39  C   UNL A   1      38.634  30.813  29.673  1.00  0.00     0.049 A 
ATOM     40  H   UNL A   1      40.649  30.437  30.039  1.00  0.00     0.167 HD
ATOM     41  C   UNL A   1      44.822  29.416  30.916  1.00  0.00     0.037 A 
ATOM     42  C   UNL A   1      38.347  32.009  30.221  1.00  0.00     0.037 A 
ATOM     43  C   UNL A   1      44.638  30.748  31.428  1.00  0.00     0.049 A 
ATOM     44  C   UNL A   1      39.443  32.772  30.921  1.00  0.00     0.074 A 
ATOM     45  C   UNL A   1      45.576  31.581  32.012  1.00  0.00     0.029 A 
ATOM     46  N   UNL A   1      43.435  31.438  31.425  1.00  0.00    -0.354 N 
ATOM     47  N   UNL A   1      40.699  32.445  31.097  1.00  0.00    -0.248 NA
ATOM     48  C   UNL A   1      39.079  34.076  31.494  1.00  0.00     0.031 C 
ATOM     49  C   UNL A   1      44.924  32.744  32.430  1.00  0.00     0.029 A 
ATOM     50  C   UNL A   1      43.599  32.673  32.032  1.00  0.00     0.049 A 
ATOM     51  H   UNL A   1      42.590  31.100  31.049  1.00  0.00     0.167 HD
ATOM     52  C   UNL A   1      41.283  33.513  31.766  1.00  0.00     0.074 A 
ATOM     53  C   UNL A   1      40.247  34.507  31.946  1.00  0.00     0.031 C 
ATOM     54  C   UNL A   1      42.561  33.658  32.193  1.00  0.00     0.037 A 
BRANCH  41  55
ATOM     55  C   UNL A   1      46.173  28.779  31.075  1.00  0.00     0.064 A 
ATOM     56  C   UNL A   1      46.504  28.020  32.207  1.00  0.00     0.173 A 
ATOM     57  C   UNL A   1      47.126  28.873  30.048  1.00  0.00     0.173 A 
ATOM     58  F   UNL A   1      45.635  27.905  33.224  1.00  0.00    -0.203 F 
ATOM     59  C   UNL A   1      47.745  27.398  32.316  1.00  0.00     0.198 A 
ATOM     60  C   UNL A   1      48.351  28.220  30.144  1.00  0.00     0.198 A 
ATOM     61  F   UNL A   1      46.860  29.582  28.942  1.00  0.00    -0.203 F 
ATOM     62  F   UNL A   1      48.056  26.715  33.426  1.00  0.00    -0.200 F 
ATOM     63  C   UNL A   1      48.662  27.488  31.280  1.00  0.00     0.200 A 
ATOM     64  F   UNL A   1      49.229  28.295  29.134  1.00  0.00    -0.200 F 
ATOM     65  F   UNL A   1      49.849  26.873  31.377  1.00  0.00    -0.200 F 
ENDBRANCH  41  55
BRANCH  42  66
ATOM     66  C   UNL A   1      36.969  32.566  30.137  1.00  0.00     0.064 A 
ATOM     67  C   UNL A   1      36.552  33.311  29.025  1.00  0.00     0.173 A 
ATOM     68  C   UNL A   1      36.053  32.402  31.188  1.00  0.00     0.173 A 
ATOM     69  F   UNL A   1      37.394  33.513  28.000  1.00  0.00    -0.203 F 
ATOM     70  C   UNL A   1      35.291  33.904  28.984  1.00  0.00     0.198 A 
ATOM     71  C   UNL A   1      34.778  32.962  31.128  1.00  0.00     0.198 A 
ATOM     72  F   UNL A   1      36.394  31.693  32.274  1.00  0.00    -0.203 F 
ATOM     73  F   UNL A   1      34.948  34.672  27.940  1.00  0.00    -0.200 F 
ATOM     74  C   UNL A   1      34.404  33.726  30.034  1.00  0.00     0.200 A 
ATOM     75  F   UNL A   1      33.917  32.769  32.137  1.00  0.00    -0.200 F 
ATOM     76  F   UNL A   1      33.194  34.300  29.997  1.00  0.00    -0.200 F 
ENDBRANCH  42  66
BRANCH  54  77
ATOM     77  C   UNL A   1      42.929  34.958  32.851  1.00  0.00     0.064 A 
ATOM     78  C   UNL A   1      43.412  36.052  32.116  1.00  0.00     0.173 A 
ATOM     79  C   UNL A   1      42.757  35.123  34.234  1.00  0.00     0.173 A 
ATOM     80  F   UNL A   1      43.607  35.944  30.793  1.00  0.00    -0.203 F 
ATOM     81  C   UNL A   1      43.742  37.249  32.747  1.00  0.00     0.198 A 
ATOM     82  C   UNL A   1      43.048  36.335  34.855  1.00  0.00     0.198 A 
ATOM     83  F   UNL A   1      42.288  34.115  34.984  1.00  0.00    -0.203 F 
ATOM     84  F   UNL A   1      44.260  38.259  32.034  1.00  0.00    -0.200 F 
ATOM     85  C   UNL A   1      43.551  37.392  34.113  1.00  0.00     0.200 A 
ATOM     86  F   UNL A   1      42.841  36.477  36.171  1.00  0.00    -0.200 F 
ATOM     87  F   UNL A   1      43.858  38.548  34.717  1.00  0.00    -0.200 F 
ENDBRANCH  54  77
ENDBRANCH  28  29
ENDBRANCH  20  23
ENDBRANCH  18  19
ENDBRANCH   1  18
TORSDOF 13
ENDMDL
MODEL 3
REMARK VINA RESULT:     -10.5      3.826      6.643
REMARK SMILES C[C@H]1CC[C@](C#N)([C@H](O)C(=O)NCCCNC(=O)c2ccc(-c3c4nc(c(-c5c(F)c(F)c(F)c(F)c5F)c5ccc([nH]5)c(-c5c(F)c(F)c(F)c(F)c5F)c5nc(c(-c6c(F)c(F)c(F)c(F)c6F)c6ccc3[nH]6)C=C5)C=C4)cc2)C1
REMARK SMILES IDX 14 1 13 2 12 3 10 4 11 5 8 7 5 8 1 9 2 10 3 11 82 12 4 13
REMARK SMILES IDX 6 14 7 15 9 16 15 18 16 19 17 20 18 22 19 23 20 24 81 25
REMARK SMILES IDX 21 26 80 27 22 28 23 29 24 30 74 31 25 32 79 33 73 34 75 35
REMARK SMILES IDX 26 36 78 37 72 38 71 39 27 41 59 42 39 43 58 44 40 45 43 46
REMARK SMILES IDX 57 47 76 48 41 49 42 50 56 52 77 53 44 54 28 55 29 56 37 57
REMARK SMILES IDX 30 58 31 59 35 60 38 61 32 62 33 63 36 64 34 65 60 66 61 67
REMARK SMILES IDX 69 68 62 69 63 70 67 71 70 72 64 73 65 74 68 75 66 76 45 77
REMARK SMILES IDX 46 78 54 79 47 80 48 81 52 82 55 83 49 84 50 85 53 86 51 87
REMARK H PARENT 12 6 9 17 16 21 75 40 43 51
REMARK Flexibility Score: inf
ROOT
ATOM      1  C   UNL A   1      31.510  29.104  25.347  1.00  0.00     0.042 C 
ENDROOT
BRANCH   1   2
ATOM      2  C   UNL A   1      31.478  29.002  23.840  1.00  0.00     0.117 C 
BRANCH   2   3
ATOM      3  N   UNL A   1      32.775  29.135  23.215  1.00  0.00    -0.354 N 
ATOM      4  C   UNL A   1      33.455  28.205  22.488  1.00  0.00     0.250 C 
ATOM      5  O   UNL A   1      34.559  28.511  22.034  1.00  0.00    -0.272 OA
ATOM      6  H   UNL A   1      33.222  30.004  23.330  1.00  0.00     0.163 HD
BRANCH   4   7
ATOM      7  C   UNL A   1      32.886  26.781  22.277  1.00  0.00     0.223 C 
BRANCH   7   8
ATOM      8  C   UNL A   1      33.091  25.764  23.448  1.00  0.00     0.092 C 
ATOM      9  C   UNL A   1      32.403  23.466  25.763  1.00  0.00     0.008 C 
ATOM     10  C   UNL A   1      32.318  24.989  25.665  1.00  0.00    -0.013 C 
ATOM     11  C   UNL A   1      33.661  25.693  25.855  1.00  0.00     0.005 C 
ATOM     12  C   UNL A   1      31.827  25.458  24.294  1.00  0.00     0.029 C 
ATOM     13  C   UNL A   1      34.014  26.370  24.527  1.00  0.00     0.026 C 
BRANCH   8  14
ATOM     14  C   UNL A   1      33.715  24.524  22.933  1.00  0.00     0.072 C 
ATOM     15  N   UNL A   1      34.228  23.566  22.521  1.00  0.00    -0.198 NA
ENDBRANCH   8  14
ENDBRANCH   7   8
BRANCH   7  16
ATOM     16  O   UNL A   1      33.339  26.264  21.022  1.00  0.00    -0.382 OA
ATOM     17  H   UNL A   1      34.095  25.673  21.169  1.00  0.00     0.211 HD
ENDBRANCH   7  16
ENDBRANCH   4   7
ENDBRANCH   2   3
ENDBRANCH   1   2
BRANCH   1  18
ATOM     18  C   UNL A   1      32.752  29.781  25.890  1.00  0.00     0.118 C 
BRANCH  18  19
ATOM     19  N   UNL A   1      32.515  31.145  26.339  1.00  0.00    -0.352 N 
ATOM     20  C   UNL A   1      33.230  31.916  27.226  1.00  0.00     0.251 C 
ATOM     21  H   UNL A   1      31.724  31.583  25.948  1.00  0.00     0.163 HD
ATOM     22  O   UNL A   1      32.788  32.996  27.602  1.00  0.00    -0.269 OA
BRANCH  20  23
ATOM     23  C   UNL A   1      34.516  31.418  27.761  1.00  0.00     0.039 A 
ATOM     24  C   UNL A   1      35.561  32.323  27.963  1.00  0.00     0.014 A 
ATOM     25  C   UNL A   1      34.684  30.073  28.093  1.00  0.00     0.014 A 
ATOM     26  C   UNL A   1      36.737  31.891  28.579  1.00  0.00     0.010 A 
ATOM     27  C   UNL A   1      35.799  29.674  28.819  1.00  0.00     0.010 A 
ATOM     28  C   UNL A   1      36.845  30.576  29.061  1.00  0.00    -0.014 A 
BRANCH  28  29
ATOM     29  C   UNL A   1      38.044  30.120  29.809  1.00  0.00     0.031 A 
ATOM     30  C   UNL A   1      38.282  30.600  31.215  1.00  0.00     0.074 A 
ATOM     31  C   UNL A   1      38.948  29.323  29.203  1.00  0.00     0.049 A 
ATOM     32  N   UNL A   1      39.298  30.368  32.008  1.00  0.00    -0.248 NA
ATOM     33  C   UNL A   1      37.259  31.482  31.801  1.00  0.00     0.031 C 
ATOM     34  C   UNL A   1      38.856  28.833  27.826  1.00  0.00     0.029 A 
ATOM     35  N   UNL A   1      40.127  28.791  29.663  1.00  0.00    -0.354 N 
ATOM     36  C   UNL A   1      39.041  31.082  33.171  1.00  0.00     0.074 A 
ATOM     37  C   UNL A   1      37.808  31.805  32.962  1.00  0.00     0.031 C 
ATOM     38  C   UNL A   1      39.915  28.050  27.565  1.00  0.00     0.029 A 
ATOM     39  C   UNL A   1      40.789  28.025  28.734  1.00  0.00     0.049 A 
ATOM     40  H   UNL A   1      40.467  28.945  30.574  1.00  0.00     0.167 HD
ATOM     41  C   UNL A   1      39.755  31.109  34.321  1.00  0.00     0.037 A 
ATOM     42  C   UNL A   1      41.973  27.389  28.809  1.00  0.00     0.037 A 
ATOM     43  C   UNL A   1      40.970  30.368  34.532  1.00  0.00     0.049 A 
ATOM     44  C   UNL A   1      42.757  27.458  30.095  1.00  0.00     0.074 A 
ATOM     45  C   UNL A   1      41.734  30.280  35.682  1.00  0.00     0.029 A 
ATOM     46  N   UNL A   1      41.603  29.595  33.569  1.00  0.00    -0.354 N 
ATOM     47  N   UNL A   1      42.462  28.071  31.215  1.00  0.00    -0.248 NA
ATOM     48  C   UNL A   1      44.039  26.740  30.127  1.00  0.00     0.031 C 
ATOM     49  C   UNL A   1      42.868  29.515  35.394  1.00  0.00     0.029 A 
ATOM     50  C   UNL A   1      42.770  29.058  34.090  1.00  0.00     0.049 A 
ATOM     51  H   UNL A   1      41.274  29.451  32.653  1.00  0.00     0.167 HD
ATOM     52  C   UNL A   1      43.498  27.783  32.093  1.00  0.00     0.074 A 
ATOM     53  C   UNL A   1      44.420  26.924  31.382  1.00  0.00     0.031 C 
ATOM     54  C   UNL A   1      43.672  28.193  33.374  1.00  0.00     0.037 A 
BRANCH  41  55
ATOM     55  C   UNL A   1      39.247  31.967  35.444  1.00  0.00     0.064 A 
ATOM     56  C   UNL A   1      38.433  31.448  36.462  1.00  0.00     0.173 A 
ATOM     57  C   UNL A   1      39.638  33.311  35.540  1.00  0.00     0.173 A 
ATOM     58  F   UNL A   1      38.020  30.171  36.414  1.00  0.00    -0.203 F 
ATOM     59  C   UNL A   1      38.010  32.248  37.520  1.00  0.00     0.198 A 
ATOM     60  C   UNL A   1      39.244  34.098  36.618  1.00  0.00     0.198 A 
ATOM     61  F   UNL A   1      40.419  33.858  34.597  1.00  0.00    -0.203 F 
ATOM     62  F   UNL A   1      37.196  31.742  38.457  1.00  0.00    -0.200 F 
ATOM     63  C   UNL A   1      38.426  33.568  37.605  1.00  0.00     0.200 A 
ATOM     64  F   UNL A   1      39.661  35.369  36.706  1.00  0.00    -0.200 F 
ATOM     65  F   UNL A   1      38.035  34.332  38.634  1.00  0.00    -0.200 F 
ENDBRANCH  41  55
BRANCH  42  66
ATOM     66  C   UNL A   1      42.500  26.633  27.640  1.00  0.00     0.064 A 
ATOM     67  C   UNL A   1      42.144  25.294  27.419  1.00  0.00     0.173 A 
ATOM     68  C   UNL A   1      43.403  27.220  26.741  1.00  0.00     0.173 A 
ATOM     69  F   UNL A   1      41.296  24.681  28.258  1.00  0.00    -0.203 F 
ATOM     70  C   UNL A   1      42.702  24.562  26.373  1.00  0.00     0.198 A 
ATOM     71  C   UNL A   1      43.930  26.498  25.671  1.00  0.00     0.198 A 
ATOM     72  F   UNL A   1      43.774  28.499  26.897  1.00  0.00    -0.203 F 
ATOM     73  F   UNL A   1      42.399  23.264  26.232  1.00  0.00    -0.200 F 
ATOM     74  C   UNL A   1      43.592  25.166  25.498  1.00  0.00     0.200 A 
ATOM     75  F   UNL A   1      44.774  27.092  24.817  1.00  0.00    -0.200 F 
ATOM     76  F   UNL A   1      44.132  24.459  24.495  1.00  0.00    -0.200 F 
ENDBRANCH  42  66
BRANCH  54  77
ATOM     77  C   UNL A   1      44.877  27.678  34.110  1.00  0.00     0.064 A 
ATOM     78  C   UNL A   1      46.084  28.391  34.150  1.00  0.00     0.173 A 
ATOM     79  C   UNL A   1      44.806  26.469  34.820  1.00  0.00     0.173 A 
ATOM     80  F   UNL A   1      46.210  29.546  33.478  1.00  0.00    -0.203 F 
ATOM     81  C   UNL A   1      47.186  27.896  34.843  1.00  0.00     0.198 A 
ATOM     82  C   UNL A   1      45.896  25.998  35.547  1.00  0.00     0.198 A 
ATOM     83  F   UNL A   1      43.673  25.751  34.826  1.00  0.00    -0.203 F 
ATOM     84  F   UNL A   1      48.348  28.564  34.816  1.00  0.00    -0.200 F 
ATOM     85  C   UNL A   1      47.088  26.706  35.548  1.00  0.00     0.200 A 
ATOM     86  F   UNL A   1      45.791  24.859  36.245  1.00  0.00    -0.200 F 
ATOM     87  F   UNL A   1      48.145  26.237  36.225  1.00  0.00    -0.200 F 
ENDBRANCH  54  77
ENDBRANCH  28  29
ENDBRANCH  20  23
ENDBRANCH  18  19
ENDBRANCH   1  18
TORSDOF 13
ENDMDL
