MODEL 1
REMARK VINA RESULT:     -12.3      0.000      0.000
REMARK SMILES CCc1ccc(OCC(=O)Nc2cc(C)c(O)c(C(=O)NCCCNC(=O)c3ccc(-c4c5nc(c(-c6c(F)c(F)c(F)c(F)c6F)c6ccc([nH]6)c(-c6c(F)c(F)c(F)c(F)c6F)c6nc(c(-c7c(F)c(F)c(F)c(F)c7F)c7ccc4[nH]7)C=C6)C=C5)cc3)c2)cc1
REMARK SMILES IDX 19 1 20 2 21 3 18 5 12 6 13 7 91 8 14 9 15 10 16 11 11 12
REMARK SMILES IDX 9 13 10 14 8 16 7 17 6 18 3 19 4 20 93 21 5 22 92 23 2 24
REMARK SMILES IDX 1 25 17 26 22 28 23 29 24 30 25 31 26 32 27 34 28 35 29 36
REMARK SMILES IDX 90 37 30 38 89 39 31 40 32 41 33 42 83 43 34 44 88 45 82 46
REMARK SMILES IDX 84 47 35 48 87 49 81 50 80 51 36 53 68 54 48 55 67 56 49 57
REMARK SMILES IDX 52 58 66 59 85 60 50 61 51 62 65 64 86 65 53 66 37 67 38 68
REMARK SMILES IDX 46 69 39 70 40 71 44 72 47 73 41 74 42 75 45 76 43 77 69 78
REMARK SMILES IDX 70 79 78 80 71 81 72 82 76 83 79 84 73 85 74 86 77 87 75 88
REMARK SMILES IDX 54 89 55 90 63 91 56 92 57 93 61 94 64 95 58 96 59 97 62 98
REMARK SMILES IDX 60 99
REMARK H PARENT 21 4 11 15 17 27 25 33 84 52 52 63
REMARK Flexibility Score: inf
ROOT
ATOM      1  C   UNL A   1      33.471  28.221  26.302  1.00  0.00     0.255 C 
ATOM      2  O   UNL A   1      34.541  27.616  26.198  1.00  0.00    -0.269 OA
ATOM      3  N   UNL A   1      33.489  29.447  26.924  1.00  0.00    -0.352 N 
ATOM      4  H   UNL A   1      34.381  29.744  27.214  1.00  0.00     0.163 HD
ENDROOT
BRANCH   1   5
ATOM      5  C   UNL A   1      32.232  27.534  25.829  1.00  0.00     0.083 A 
ATOM      6  C   UNL A   1      30.527  25.810  25.966  1.00  0.00     0.042 A 
ATOM      7  C   UNL A   1      30.025  26.243  24.727  1.00  0.00     0.033 A 
ATOM      8  C   UNL A   1      31.603  26.490  26.539  1.00  0.00     0.043 A 
ATOM      9  C   UNL A   1      30.553  27.351  24.058  1.00  0.00    -0.006 A 
ATOM     10  C   UNL A   1      29.886  27.814  22.792  1.00  0.00     0.048 C 
ATOM     11  C   UNL A   1      31.663  27.988  24.615  1.00  0.00     0.131 A 
BRANCH   6  12
ATOM     12  N   UNL A   1      29.902  24.664  26.475  1.00  0.00    -0.323 N 
ATOM     13  C   UNL A   1      30.280  23.426  26.875  1.00  0.00     0.262 C 
ATOM     14  O   UNL A   1      29.357  22.665  27.202  1.00  0.00    -0.271 OA
ATOM     15  H   UNL A   1      28.930  24.792  26.567  1.00  0.00     0.170 HD
BRANCH  13  16
ATOM     16  C   UNL A   1      31.738  22.983  27.069  1.00  0.00     0.329 C 
BRANCH  16  17
ATOM     17  O   UNL A   1      32.552  22.387  26.083  1.00  0.00    -0.484 OA
BRANCH  17  18
ATOM     18  C   UNL A   1      32.830  23.053  24.929  1.00  0.00     0.120 A 
ATOM     19  C   UNL A   1      33.266  24.962  22.907  1.00  0.00    -0.048 A 
ATOM     20  C   UNL A   1      34.043  24.955  24.064  1.00  0.00     0.007 A 
ATOM     21  C   UNL A   1      32.394  23.888  22.705  1.00  0.00     0.007 A 
ATOM     22  C   UNL A   1      33.842  23.996  25.053  1.00  0.00     0.047 A 
ATOM     23  C   UNL A   1      32.195  22.926  23.703  1.00  0.00     0.047 A 
BRANCH  19  24
ATOM     24  C   UNL A   1      33.278  26.095  21.911  1.00  0.00     0.032 C 
ATOM     25  C   UNL A   1      32.526  25.841  20.616  1.00  0.00     0.009 C 
ENDBRANCH  19  24
ENDBRANCH  17  18
ENDBRANCH  16  17
ENDBRANCH  13  16
ENDBRANCH   6  12
BRANCH  11  26
ATOM     26  O   UNL A   1      32.168  29.064  23.927  1.00  0.00    -0.507 OA
ATOM     27  H   UNL A   1      31.645  29.492  23.277  1.00  0.00     0.293 HD
ENDBRANCH  11  26
ENDBRANCH   1   5
BRANCH   3  28
ATOM     28  C   UNL A   1      32.419  30.374  27.227  1.00  0.00     0.118 C 
BRANCH  28  29
ATOM     29  C   UNL A   1      32.882  31.771  27.635  1.00  0.00     0.042 C 
BRANCH  29  30
ATOM     30  C   UNL A   1      32.288  32.958  26.874  1.00  0.00     0.118 C 
BRANCH  30  31
ATOM     31  N   UNL A   1      32.167  34.203  27.626  1.00  0.00    -0.352 N 
ATOM     32  C   UNL A   1      32.906  34.881  28.567  1.00  0.00     0.251 C 
ATOM     33  H   UNL A   1      31.339  34.685  27.400  1.00  0.00     0.163 HD
ATOM     34  O   UNL A   1      32.454  35.971  28.932  1.00  0.00    -0.269 OA
BRANCH  32  35
ATOM     35  C   UNL A   1      34.154  34.389  29.224  1.00  0.00     0.039 A 
ATOM     36  C   UNL A   1      34.037  33.815  30.507  1.00  0.00     0.014 A 
ATOM     37  C   UNL A   1      35.426  34.473  28.670  1.00  0.00     0.014 A 
ATOM     38  C   UNL A   1      35.151  33.289  31.186  1.00  0.00     0.010 A 
ATOM     39  C   UNL A   1      36.520  33.866  29.302  1.00  0.00     0.010 A 
ATOM     40  C   UNL A   1      36.407  33.270  30.571  1.00  0.00    -0.014 A 
BRANCH  40  41
ATOM     41  C   UNL A   1      37.621  32.663  31.200  1.00  0.00     0.031 A 
ATOM     42  C   UNL A   1      38.256  31.441  30.582  1.00  0.00     0.074 A 
ATOM     43  C   UNL A   1      38.082  33.094  32.392  1.00  0.00     0.049 A 
ATOM     44  N   UNL A   1      39.197  30.660  31.053  1.00  0.00    -0.248 NA
ATOM     45  C   UNL A   1      37.743  31.032  29.264  1.00  0.00     0.031 C 
ATOM     46  C   UNL A   1      37.597  34.257  33.130  1.00  0.00     0.029 A 
ATOM     47  N   UNL A   1      39.031  32.552  33.231  1.00  0.00    -0.354 N 
ATOM     48  C   UNL A   1      39.389  29.677  30.091  1.00  0.00     0.074 A 
ATOM     49  C   UNL A   1      38.398  29.901  29.060  1.00  0.00     0.031 C 
ATOM     50  C   UNL A   1      38.163  34.284  34.346  1.00  0.00     0.029 A 
ATOM     51  C   UNL A   1      39.082  33.158  34.465  1.00  0.00     0.049 A 
ATOM     52  H   UNL A   1      39.616  31.804  32.972  1.00  0.00     0.167 HD
ATOM     53  C   UNL A   1      40.336  28.709  30.039  1.00  0.00     0.037 A 
ATOM     54  C   UNL A   1      39.783  32.850  35.572  1.00  0.00     0.037 A 
ATOM     55  C   UNL A   1      41.342  28.495  31.045  1.00  0.00     0.049 A 
ATOM     56  C   UNL A   1      40.792  31.740  35.529  1.00  0.00     0.074 A 
ATOM     57  C   UNL A   1      42.413  27.618  31.027  1.00  0.00     0.029 A 
ATOM     58  N   UNL A   1      41.394  29.160  32.262  1.00  0.00    -0.354 N 
ATOM     59  N   UNL A   1      41.053  30.898  34.560  1.00  0.00    -0.248 NA
ATOM     60  C   UNL A   1      41.647  31.576  36.714  1.00  0.00     0.031 C 
ATOM     61  C   UNL A   1      43.082  27.715  32.253  1.00  0.00     0.029 A 
ATOM     62  C   UNL A   1      42.457  28.688  33.016  1.00  0.00     0.049 A 
ATOM     63  H   UNL A   1      40.767  29.863  32.548  1.00  0.00     0.167 HD
ATOM     64  C   UNL A   1      42.134  30.143  34.993  1.00  0.00     0.074 A 
ATOM     65  C   UNL A   1      42.474  30.621  36.317  1.00  0.00     0.031 C 
ATOM     66  C   UNL A   1      42.796  29.158  34.337  1.00  0.00     0.037 A 
BRANCH  53  67
ATOM     67  C   UNL A   1      40.337  27.823  28.824  1.00  0.00     0.064 A 
ATOM     68  C   UNL A   1      39.624  26.613  28.801  1.00  0.00     0.173 A 
ATOM     69  C   UNL A   1      41.058  28.180  27.675  1.00  0.00     0.173 A 
ATOM     70  F   UNL A   1      38.924  26.220  29.875  1.00  0.00    -0.203 F 
ATOM     71  C   UNL A   1      39.678  25.769  27.694  1.00  0.00     0.198 A 
ATOM     72  C   UNL A   1      41.079  27.350  26.557  1.00  0.00     0.198 A 
ATOM     73  F   UNL A   1      41.748  29.329  27.638  1.00  0.00    -0.203 F 
ATOM     74  F   UNL A   1      39.050  24.585  27.727  1.00  0.00    -0.200 F 
ATOM     75  C   UNL A   1      40.402  26.139  26.573  1.00  0.00     0.200 A 
ATOM     76  F   UNL A   1      41.770  27.715  25.467  1.00  0.00    -0.200 F 
ATOM     77  F   UNL A   1      40.459  25.324  25.512  1.00  0.00    -0.200 F 
ENDBRANCH  53  67
BRANCH  54  78
ATOM     78  C   UNL A   1      39.594  33.658  36.804  1.00  0.00     0.064 A 
ATOM     79  C   UNL A   1      40.273  34.872  36.979  1.00  0.00     0.173 A 
ATOM     80  C   UNL A   1      38.719  33.244  37.818  1.00  0.00     0.173 A 
ATOM     81  F   UNL A   1      41.134  35.296  36.042  1.00  0.00    -0.203 F 
ATOM     82  C   UNL A   1      40.095  35.635  38.129  1.00  0.00     0.198 A 
ATOM     83  C   UNL A   1      38.528  34.019  38.961  1.00  0.00     0.198 A 
ATOM     84  F   UNL A   1      38.043  32.092  37.694  1.00  0.00    -0.203 F 
ATOM     85  F   UNL A   1      40.778  36.777  38.285  1.00  0.00    -0.200 F 
ATOM     86  C   UNL A   1      39.218  35.212  39.117  1.00  0.00     0.200 A 
ATOM     87  F   UNL A   1      37.674  33.610  39.910  1.00  0.00    -0.200 F 
ATOM     88  F   UNL A   1      39.043  35.950  40.221  1.00  0.00    -0.200 F 
ENDBRANCH  54  78
BRANCH  66  89
ATOM     89  C   UNL A   1      43.988  28.555  35.022  1.00  0.00     0.064 A 
ATOM     90  C   UNL A   1      43.878  27.415  35.832  1.00  0.00     0.173 A 
ATOM     91  C   UNL A   1      45.262  29.120  34.857  1.00  0.00     0.173 A 
ATOM     92  F   UNL A   1      42.680  26.847  36.037  1.00  0.00    -0.203 F 
ATOM     93  C   UNL A   1      44.993  26.883  36.475  1.00  0.00     0.198 A 
ATOM     94  C   UNL A   1      46.380  28.566  35.477  1.00  0.00     0.198 A 
ATOM     95  F   UNL A   1      45.425  30.210  34.092  1.00  0.00    -0.203 F 
ATOM     96  F   UNL A   1      44.853  25.827  37.290  1.00  0.00    -0.200 F 
ATOM     97  C   UNL A   1      46.243  27.455  36.293  1.00  0.00     0.200 A 
ATOM     98  F   UNL A   1      47.589  29.114  35.289  1.00  0.00    -0.200 F 
ATOM     99  F   UNL A   1      47.314  26.940  36.911  1.00  0.00    -0.200 F 
ENDBRANCH  66  89
ENDBRANCH  40  41
ENDBRANCH  32  35
ENDBRANCH  30  31
ENDBRANCH  29  30
ENDBRANCH  28  29
ENDBRANCH   3  28
TORSDOF 16
ENDMDL
MODEL 2
REMARK VINA RESULT:     -12.2      3.681      8.544
REMARK SMILES CCc1ccc(OCC(=O)Nc2cc(C)c(O)c(C(=O)NCCCNC(=O)c3ccc(-c4c5nc(c(-c6c(F)c(F)c(F)c(F)c6F)c6ccc([nH]6)c(-c6c(F)c(F)c(F)c(F)c6F)c6nc(c(-c7c(F)c(F)c(F)c(F)c7F)c7ccc4[nH]7)C=C6)C=C5)cc3)c2)cc1
REMARK SMILES IDX 19 1 20 2 21 3 18 5 12 6 13 7 91 8 14 9 15 10 16 11 11 12
REMARK SMILES IDX 9 13 10 14 8 16 7 17 6 18 3 19 4 20 93 21 5 22 92 23 2 24
REMARK SMILES IDX 1 25 17 26 22 28 23 29 24 30 25 31 26 32 27 34 28 35 29 36
REMARK SMILES IDX 90 37 30 38 89 39 31 40 32 41 33 42 83 43 34 44 88 45 82 46
REMARK SMILES IDX 84 47 35 48 87 49 81 50 80 51 36 53 68 54 48 55 67 56 49 57
REMARK SMILES IDX 52 58 66 59 85 60 50 61 51 62 65 64 86 65 53 66 37 67 38 68
REMARK SMILES IDX 46 69 39 70 40 71 44 72 47 73 41 74 42 75 45 76 43 77 69 78
REMARK SMILES IDX 70 79 78 80 71 81 72 82 76 83 79 84 73 85 74 86 77 87 75 88
REMARK SMILES IDX 54 89 55 90 63 91 56 92 57 93 61 94 64 95 58 96 59 97 62 98
REMARK SMILES IDX 60 99
REMARK H PARENT 21 4 11 15 17 27 25 33 84 52 52 63
REMARK Flexibility Score: inf
ROOT
ATOM      1  C   UNL A   1      30.280  28.573  23.046  1.00  0.00     0.255 C 
ATOM      2  O   UNL A   1      29.644  28.822  22.018  1.00  0.00    -0.269 OA
ATOM      3  N   UNL A   1      30.770  29.636  23.765  1.00  0.00    -0.352 N 
ATOM      4  H   UNL A   1      30.541  30.519  23.395  1.00  0.00     0.163 HD
ENDROOT
BRANCH   1   5
ATOM      5  C   UNL A   1      30.544  27.140  23.374  1.00  0.00     0.083 A 
ATOM      6  C   UNL A   1      30.290  25.152  24.746  1.00  0.00     0.042 A 
ATOM      7  C   UNL A   1      31.273  24.519  23.967  1.00  0.00     0.033 A 
ATOM      8  C   UNL A   1      29.892  26.449  24.417  1.00  0.00     0.043 A 
ATOM      9  C   UNL A   1      31.850  25.137  22.854  1.00  0.00    -0.006 A 
ATOM     10  C   UNL A   1      32.813  24.348  22.010  1.00  0.00     0.048 C 
ATOM     11  C   UNL A   1      31.483  26.453  22.569  1.00  0.00     0.131 A 
BRANCH   6  12
ATOM     12  N   UNL A   1      29.848  24.400  25.843  1.00  0.00    -0.323 N 
ATOM     13  C   UNL A   1      30.395  23.546  26.742  1.00  0.00     0.262 C 
ATOM     14  O   UNL A   1      29.598  23.025  27.536  1.00  0.00    -0.271 OA
ATOM     15  H   UNL A   1      28.884  24.526  26.003  1.00  0.00     0.170 HD
BRANCH  13  16
ATOM     16  C   UNL A   1      31.903  23.309  26.909  1.00  0.00     0.329 C 
BRANCH  16  17
ATOM     17  O   UNL A   1      32.695  22.464  26.103  1.00  0.00    -0.484 OA
BRANCH  17  18
ATOM     18  C   UNL A   1      33.970  22.816  25.787  1.00  0.00     0.120 A 
ATOM     19  C   UNL A   1      36.743  23.294  25.726  1.00  0.00    -0.048 A 
ATOM     20  C   UNL A   1      36.242  21.996  25.811  1.00  0.00     0.007 A 
ATOM     21  C   UNL A   1      35.831  24.327  25.490  1.00  0.00     0.007 A 
ATOM     22  C   UNL A   1      34.870  21.759  25.817  1.00  0.00     0.047 A 
ATOM     23  C   UNL A   1      34.452  24.084  25.497  1.00  0.00     0.047 A 
BRANCH  19  24
ATOM     24  C   UNL A   1      38.198  23.632  25.940  1.00  0.00     0.032 C 
ATOM     25  C   UNL A   1      39.071  22.494  26.442  1.00  0.00     0.009 C 
ENDBRANCH  19  24
ENDBRANCH  17  18
ENDBRANCH  16  17
ENDBRANCH  13  16
ENDBRANCH   6  12
BRANCH  11  26
ATOM     26  O   UNL A   1      32.078  27.038  21.477  1.00  0.00    -0.507 OA
ATOM     27  H   UNL A   1      33.005  26.966  21.354  1.00  0.00     0.293 HD
ENDBRANCH  11  26
ENDBRANCH   1   5
BRANCH   3  28
ATOM     28  C   UNL A   1      31.567  29.679  24.974  1.00  0.00     0.118 C 
BRANCH  28  29
ATOM     29  C   UNL A   1      33.002  29.182  24.810  1.00  0.00     0.042 C 
BRANCH  29  30
ATOM     30  C   UNL A   1      33.829  28.994  26.083  1.00  0.00     0.118 C 
BRANCH  30  31
ATOM     31  N   UNL A   1      33.800  30.102  27.033  1.00  0.00    -0.352 N 
ATOM     32  C   UNL A   1      34.658  30.654  27.956  1.00  0.00     0.251 C 
ATOM     33  H   UNL A   1      32.940  30.581  27.006  1.00  0.00     0.163 HD
ATOM     34  O   UNL A   1      34.246  31.656  28.549  1.00  0.00    -0.269 OA
BRANCH  32  35
ATOM     35  C   UNL A   1      35.995  30.113  28.344  1.00  0.00     0.039 A 
ATOM     36  C   UNL A   1      37.019  30.140  27.375  1.00  0.00     0.014 A 
ATOM     37  C   UNL A   1      36.297  29.568  29.586  1.00  0.00     0.014 A 
ATOM     38  C   UNL A   1      38.320  29.688  27.662  1.00  0.00     0.010 A 
ATOM     39  C   UNL A   1      37.614  29.207  29.904  1.00  0.00     0.010 A 
ATOM     40  C   UNL A   1      38.647  29.253  28.950  1.00  0.00    -0.014 A 
BRANCH  40  41
ATOM     41  C   UNL A   1      40.025  28.827  29.349  1.00  0.00     0.031 A 
ATOM     42  C   UNL A   1      40.964  29.824  29.984  1.00  0.00     0.074 A 
ATOM     43  C   UNL A   1      40.503  27.609  29.024  1.00  0.00     0.049 A 
ATOM     44  N   UNL A   1      42.244  29.717  30.245  1.00  0.00    -0.248 NA
ATOM     45  C   UNL A   1      40.386  31.126  30.355  1.00  0.00     0.031 C 
ATOM     46  C   UNL A   1      39.742  26.523  28.414  1.00  0.00     0.029 A 
ATOM     47  N   UNL A   1      41.783  27.103  29.103  1.00  0.00    -0.354 N 
ATOM     48  C   UNL A   1      42.617  30.929  30.810  1.00  0.00     0.074 A 
ATOM     49  C   UNL A   1      41.455  31.790  30.761  1.00  0.00     0.031 C 
ATOM     50  C   UNL A   1      40.575  25.527  28.076  1.00  0.00     0.029 A 
ATOM     51  C   UNL A   1      41.930  25.887  28.477  1.00  0.00     0.049 A 
ATOM     52  H   UNL A   1      42.519  27.566  29.564  1.00  0.00     0.167 HD
ATOM     53  C   UNL A   1      43.801  31.280  31.371  1.00  0.00     0.037 A 
ATOM     54  C   UNL A   1      43.025  25.139  28.245  1.00  0.00     0.037 A 
ATOM     55  C   UNL A   1      44.953  30.422  31.449  1.00  0.00     0.049 A 
ATOM     56  C   UNL A   1      44.347  25.559  28.819  1.00  0.00     0.074 A 
ATOM     57  C   UNL A   1      46.155  30.644  32.098  1.00  0.00     0.029 A 
ATOM     58  N   UNL A   1      45.052  29.177  30.845  1.00  0.00    -0.354 N 
ATOM     59  N   UNL A   1      44.656  26.654  29.467  1.00  0.00    -0.248 NA
ATOM     60  C   UNL A   1      45.460  24.608  28.680  1.00  0.00     0.031 C 
ATOM     61  C   UNL A   1      47.001  29.557  31.844  1.00  0.00     0.029 A 
ATOM     62  C   UNL A   1      46.307  28.634  31.077  1.00  0.00     0.049 A 
ATOM     63  H   UNL A   1      44.336  28.742  30.327  1.00  0.00     0.167 HD
ATOM     64  C   UNL A   1      45.978  26.503  29.862  1.00  0.00     0.074 A 
ATOM     65  C   UNL A   1      46.415  25.213  29.371  1.00  0.00     0.031 C 
ATOM     66  C   UNL A   1      46.747  27.352  30.586  1.00  0.00     0.037 A 
BRANCH  53  67
ATOM     67  C   UNL A   1      43.888  32.655  31.970  1.00  0.00     0.064 A 
ATOM     68  C   UNL A   1      43.533  32.895  33.308  1.00  0.00     0.173 A 
ATOM     69  C   UNL A   1      44.326  33.746  31.205  1.00  0.00     0.173 A 
ATOM     70  F   UNL A   1      43.101  31.888  34.083  1.00  0.00    -0.203 F 
ATOM     71  C   UNL A   1      43.560  34.181  33.839  1.00  0.00     0.198 A 
ATOM     72  C   UNL A   1      44.385  35.026  31.751  1.00  0.00     0.198 A 
ATOM     73  F   UNL A   1      44.688  33.574  29.925  1.00  0.00    -0.203 F 
ATOM     74  F   UNL A   1      43.144  34.394  35.096  1.00  0.00    -0.200 F 
ATOM     75  C   UNL A   1      43.989  35.245  33.062  1.00  0.00     0.200 A 
ATOM     76  F   UNL A   1      44.813  36.053  31.002  1.00  0.00    -0.200 F 
ATOM     77  F   UNL A   1      44.007  36.484  33.572  1.00  0.00    -0.200 F 
ENDBRANCH  53  67
BRANCH  54  78
ATOM     78  C   UNL A   1      42.896  23.874  27.477  1.00  0.00     0.064 A 
ATOM     79  C   UNL A   1      43.186  23.832  26.107  1.00  0.00     0.173 A 
ATOM     80  C   UNL A   1      42.501  22.683  28.101  1.00  0.00     0.173 A 
ATOM     81  F   UNL A   1      43.549  24.954  25.467  1.00  0.00    -0.203 F 
ATOM     82  C   UNL A   1      43.071  22.648  25.384  1.00  0.00     0.198 A 
ATOM     83  C   UNL A   1      42.404  21.494  27.380  1.00  0.00     0.198 A 
ATOM     84  F   UNL A   1      42.218  22.671  29.411  1.00  0.00    -0.203 F 
ATOM     85  F   UNL A   1      43.326  22.641  24.068  1.00  0.00    -0.200 F 
ATOM     86  C   UNL A   1      42.686  21.478  26.021  1.00  0.00     0.200 A 
ATOM     87  F   UNL A   1      42.039  20.363  28.001  1.00  0.00    -0.200 F 
ATOM     88  F   UNL A   1      42.582  20.337  25.327  1.00  0.00    -0.200 F 
ENDBRANCH  54  78
BRANCH  66  89
ATOM     89  C   UNL A   1      48.135  26.896  30.934  1.00  0.00     0.064 A 
ATOM     90  C   UNL A   1      49.247  27.247  30.153  1.00  0.00     0.173 A 
ATOM     91  C   UNL A   1      48.358  26.105  32.072  1.00  0.00     0.173 A 
ATOM     92  F   UNL A   1      49.086  27.986  29.044  1.00  0.00    -0.203 F 
ATOM     93  C   UNL A   1      50.523  26.797  30.481  1.00  0.00     0.198 A 
ATOM     94  C   UNL A   1      49.641  25.684  32.414  1.00  0.00     0.198 A 
ATOM     95  F   UNL A   1      47.332  25.742  32.855  1.00  0.00    -0.203 F 
ATOM     96  F   UNL A   1      51.562  27.098  29.688  1.00  0.00    -0.200 F 
ATOM     97  C   UNL A   1      50.720  26.022  31.614  1.00  0.00     0.200 A 
ATOM     98  F   UNL A   1      49.830  24.944  33.516  1.00  0.00    -0.200 F 
ATOM     99  F   UNL A   1      51.950  25.592  31.928  1.00  0.00    -0.200 F 
ENDBRANCH  66  89
ENDBRANCH  40  41
ENDBRANCH  32  35
ENDBRANCH  30  31
ENDBRANCH  29  30
ENDBRANCH  28  29
ENDBRANCH   3  28
TORSDOF 16
ENDMDL
MODEL 3
REMARK VINA RESULT:     -12.0      1.099      2.078
REMARK SMILES CCc1ccc(OCC(=O)Nc2cc(C)c(O)c(C(=O)NCCCNC(=O)c3ccc(-c4c5nc(c(-c6c(F)c(F)c(F)c(F)c6F)c6ccc([nH]6)c(-c6c(F)c(F)c(F)c(F)c6F)c6nc(c(-c7c(F)c(F)c(F)c(F)c7F)c7ccc4[nH]7)C=C6)C=C5)cc3)c2)cc1
REMARK SMILES IDX 19 1 20 2 21 3 18 5 12 6 13 7 91 8 14 9 15 10 16 11 11 12
REMARK SMILES IDX 9 13 10 14 8 16 7 17 6 18 3 19 4 20 93 21 5 22 92 23 2 24
REMARK SMILES IDX 1 25 17 26 22 28 23 29 24 30 25 31 26 32 27 34 28 35 29 36
REMARK SMILES IDX 90 37 30 38 89 39 31 40 32 41 33 42 83 43 34 44 88 45 82 46
REMARK SMILES IDX 84 47 35 48 87 49 81 50 80 51 36 53 68 54 48 55 67 56 49 57
REMARK SMILES IDX 52 58 66 59 85 60 50 61 51 62 65 64 86 65 53 66 37 67 38 68
REMARK SMILES IDX 46 69 39 70 40 71 44 72 47 73 41 74 42 75 45 76 43 77 69 78
REMARK SMILES IDX 70 79 78 80 71 81 72 82 76 83 79 84 73 85 74 86 77 87 75 88
REMARK SMILES IDX 54 89 55 90 63 91 56 92 57 93 61 94 64 95 58 96 59 97 62 98
REMARK SMILES IDX 60 99
REMARK H PARENT 21 4 11 15 17 27 25 33 84 52 52 63
REMARK Flexibility Score: inf
ROOT
ATOM      1  C   UNL A   1      32.103  28.490  27.201  1.00  0.00     0.255 C 
ATOM      2  O   UNL A   1      31.024  28.089  27.647  1.00  0.00    -0.269 OA
ATOM      3  N   UNL A   1      32.583  29.687  27.676  1.00  0.00    -0.352 N 
ATOM      4  H   UNL A   1      32.018  30.109  28.363  1.00  0.00     0.163 HD
ENDROOT
BRANCH   1   5
ATOM      5  C   UNL A   1      32.751  27.693  26.117  1.00  0.00     0.083 A 
ATOM      6  C   UNL A   1      33.981  25.771  25.286  1.00  0.00     0.042 A 
ATOM      7  C   UNL A   1      34.081  26.407  24.038  1.00  0.00     0.033 A 
ATOM      8  C   UNL A   1      33.272  26.396  26.313  1.00  0.00     0.043 A 
ATOM      9  C   UNL A   1      33.472  27.638  23.780  1.00  0.00    -0.006 A 
ATOM     10  C   UNL A   1      33.536  28.196  22.385  1.00  0.00     0.048 C 
ATOM     11  C   UNL A   1      32.813  28.277  24.831  1.00  0.00     0.131 A 
BRANCH   6  12
ATOM     12  N   UNL A   1      34.682  24.560  25.378  1.00  0.00    -0.323 N 
ATOM     13  C   UNL A   1      34.454  23.320  25.874  1.00  0.00     0.262 C 
ATOM     14  O   UNL A   1      35.411  22.535  25.808  1.00  0.00    -0.271 OA
ATOM     15  H   UNL A   1      35.578  24.630  24.975  1.00  0.00     0.170 HD
BRANCH  13  16
ATOM     16  C   UNL A   1      33.088  22.817  26.364  1.00  0.00     0.329 C 
BRANCH  16  17
ATOM     17  O   UNL A   1      31.962  22.577  25.549  1.00  0.00    -0.484 OA
BRANCH  17  18
ATOM     18  C   UNL A   1      31.105  23.590  25.246  1.00  0.00     0.120 A 
ATOM     19  C   UNL A   1      29.870  25.954  24.349  1.00  0.00    -0.048 A 
ATOM     20  C   UNL A   1      30.439  25.057  23.446  1.00  0.00     0.007 A 
ATOM     21  C   UNL A   1      29.773  25.556  25.685  1.00  0.00     0.007 A 
ATOM     22  C   UNL A   1      31.029  23.877  23.890  1.00  0.00     0.047 A 
ATOM     23  C   UNL A   1      30.368  24.368  26.126  1.00  0.00     0.047 A 
BRANCH  19  24
ATOM     24  C   UNL A   1      29.421  27.342  23.961  1.00  0.00     0.032 C 
ATOM     25  C   UNL A   1      29.907  27.835  22.608  1.00  0.00     0.009 C 
ENDBRANCH  19  24
ENDBRANCH  17  18
ENDBRANCH  16  17
ENDBRANCH  13  16
ENDBRANCH   6  12
BRANCH  11  26
ATOM     26  O   UNL A   1      32.237  29.493  24.550  1.00  0.00    -0.507 OA
ATOM     27  H   UNL A   1      32.571  30.019  23.850  1.00  0.00     0.293 HD
ENDBRANCH  11  26
ENDBRANCH   1   5
BRANCH   3  28
ATOM     28  C   UNL A   1      33.778  30.433  27.339  1.00  0.00     0.118 C 
BRANCH  28  29
ATOM     29  C   UNL A   1      33.521  31.834  26.790  1.00  0.00     0.042 C 
BRANCH  29  30
ATOM     30  C   UNL A   1      32.150  32.456  27.067  1.00  0.00     0.118 C 
BRANCH  30  31
ATOM     31  N   UNL A   1      32.161  33.804  27.626  1.00  0.00    -0.352 N 
ATOM     32  C   UNL A   1      32.990  34.549  28.432  1.00  0.00     0.251 C 
ATOM     33  H   UNL A   1      31.366  34.316  27.353  1.00  0.00     0.163 HD
ATOM     34  O   UNL A   1      32.643  35.715  28.640  1.00  0.00    -0.269 OA
BRANCH  32  35
ATOM     35  C   UNL A   1      34.220  34.054  29.120  1.00  0.00     0.039 A 
ATOM     36  C   UNL A   1      34.057  33.118  30.163  1.00  0.00     0.014 A 
ATOM     37  C   UNL A   1      35.514  34.464  28.820  1.00  0.00     0.014 A 
ATOM     38  C   UNL A   1      35.159  32.568  30.841  1.00  0.00     0.010 A 
ATOM     39  C   UNL A   1      36.616  33.848  29.428  1.00  0.00     0.010 A 
ATOM     40  C   UNL A   1      36.462  32.896  30.452  1.00  0.00    -0.014 A 
BRANCH  40  41
ATOM     41  C   UNL A   1      37.682  32.297  31.078  1.00  0.00     0.031 A 
ATOM     42  C   UNL A   1      38.380  31.140  30.404  1.00  0.00     0.074 A 
ATOM     43  C   UNL A   1      38.094  32.670  32.306  1.00  0.00     0.049 A 
ATOM     44  N   UNL A   1      39.338  30.367  30.853  1.00  0.00    -0.248 NA
ATOM     45  C   UNL A   1      37.919  30.795  29.050  1.00  0.00     0.031 C 
ATOM     46  C   UNL A   1      37.545  33.765  33.100  1.00  0.00     0.029 A 
ATOM     47  N   UNL A   1      39.041  32.111  33.138  1.00  0.00    -0.354 N 
ATOM     48  C   UNL A   1      39.593  29.453  29.839  1.00  0.00     0.074 A 
ATOM     49  C   UNL A   1      38.622  29.704  28.795  1.00  0.00     0.031 C 
ATOM     50  C   UNL A   1      38.077  33.737  34.331  1.00  0.00     0.029 A 
ATOM     51  C   UNL A   1      39.036  32.641  34.407  1.00  0.00     0.049 A 
ATOM     52  H   UNL A   1      39.662  31.403  32.850  1.00  0.00     0.167 HD
ATOM     53  C   UNL A   1      40.579  28.526  29.754  1.00  0.00     0.037 A 
ATOM     54  C   UNL A   1      39.719  32.291  35.514  1.00  0.00     0.037 A 
ATOM     55  C   UNL A   1      41.565  28.288  30.775  1.00  0.00     0.049 A 
ATOM     56  C   UNL A   1      40.771  31.224  35.431  1.00  0.00     0.074 A 
ATOM     57  C   UNL A   1      42.669  27.454  30.733  1.00  0.00     0.029 A 
ATOM     58  N   UNL A   1      41.559  28.876  32.031  1.00  0.00    -0.354 N 
ATOM     59  N   UNL A   1      41.090  30.454  34.420  1.00  0.00    -0.248 NA
ATOM     60  C   UNL A   1      41.600  31.019  36.628  1.00  0.00     0.031 C 
ATOM     61  C   UNL A   1      43.301  27.499  31.982  1.00  0.00     0.029 A 
ATOM     62  C   UNL A   1      42.620  28.398  32.785  1.00  0.00     0.049 A 
ATOM     63  H   UNL A   1      40.897  29.537  32.341  1.00  0.00     0.167 HD
ATOM     64  C   UNL A   1      42.188  29.714  34.837  1.00  0.00     0.074 A 
ATOM     65  C   UNL A   1      42.474  30.121  36.197  1.00  0.00     0.031 C 
ATOM     66  C   UNL A   1      42.904  28.798  34.141  1.00  0.00     0.037 A 
BRANCH  53  67
ATOM     67  C   UNL A   1      40.646  27.718  28.489  1.00  0.00     0.064 A 
ATOM     68  C   UNL A   1      39.976  26.489  28.368  1.00  0.00     0.173 A 
ATOM     69  C   UNL A   1      41.387  28.170  27.387  1.00  0.00     0.173 A 
ATOM     70  F   UNL A   1      39.259  26.008  29.394  1.00  0.00    -0.203 F 
ATOM     71  C   UNL A   1      40.092  25.719  27.214  1.00  0.00     0.198 A 
ATOM     72  C   UNL A   1      41.471  27.412  26.221  1.00  0.00     0.198 A 
ATOM     73  F   UNL A   1      42.039  29.341  27.443  1.00  0.00    -0.203 F 
ATOM     74  F   UNL A   1      39.504  24.515  27.154  1.00  0.00    -0.200 F 
ATOM     75  C   UNL A   1      40.836  26.182  26.141  1.00  0.00     0.200 A 
ATOM     76  F   UNL A   1      42.181  27.867  25.178  1.00  0.00    -0.200 F 
ATOM     77  F   UNL A   1      40.952  25.436  25.034  1.00  0.00    -0.200 F 
ENDBRANCH  53  67
BRANCH  54  78
ATOM     78  C   UNL A   1      39.466  33.013  36.786  1.00  0.00     0.064 A 
ATOM     79  C   UNL A   1      40.180  34.175  37.108  1.00  0.00     0.173 A 
ATOM     80  C   UNL A   1      38.495  32.568  37.694  1.00  0.00     0.173 A 
ATOM     81  F   UNL A   1      41.132  34.625  36.277  1.00  0.00    -0.203 F 
ATOM     82  C   UNL A   1      39.943  34.858  38.297  1.00  0.00     0.198 A 
ATOM     83  C   UNL A   1      38.246  33.263  38.876  1.00  0.00     0.198 A 
ATOM     84  F   UNL A   1      37.782  31.463  37.429  1.00  0.00    -0.203 F 
ATOM     85  F   UNL A   1      40.661  35.950  38.595  1.00  0.00    -0.200 F 
ATOM     86  C   UNL A   1      38.972  34.406  39.178  1.00  0.00     0.200 A 
ATOM     87  F   UNL A   1      37.301  32.827  39.722  1.00  0.00    -0.200 F 
ATOM     88  F   UNL A   1      38.740  35.067  40.320  1.00  0.00    -0.200 F 
ENDBRANCH  54  78
BRANCH  66  89
ATOM     89  C   UNL A   1      44.101  28.198  34.822  1.00  0.00     0.064 A 
ATOM     90  C   UNL A   1      45.361  28.814  34.784  1.00  0.00     0.173 A 
ATOM     91  C   UNL A   1      43.982  26.994  35.533  1.00  0.00     0.173 A 
ATOM     92  F   UNL A   1      45.533  29.956  34.102  1.00  0.00    -0.203 F 
ATOM     93  C   UNL A   1      46.462  28.230  35.406  1.00  0.00     0.198 A 
ATOM     94  C   UNL A   1      45.079  26.430  36.180  1.00  0.00     0.198 A 
ATOM     95  F   UNL A   1      42.800  26.363  35.605  1.00  0.00    -0.203 F 
ATOM     96  F   UNL A   1      47.668  28.808  35.307  1.00  0.00    -0.200 F 
ATOM     97  C   UNL A   1      46.319  27.043  36.108  1.00  0.00     0.200 A 
ATOM     98  F   UNL A   1      44.935  25.289  36.869  1.00  0.00    -0.200 F 
ATOM     99  F   UNL A   1      47.380  26.485  36.706  1.00  0.00    -0.200 F 
ENDBRANCH  66  89
ENDBRANCH  40  41
ENDBRANCH  32  35
ENDBRANCH  30  31
ENDBRANCH  29  30
ENDBRANCH  28  29
ENDBRANCH   3  28
TORSDOF 16
ENDMDL
