MODEL 1
REMARK VINA RESULT:     -14.0      0.000      0.000
REMARK SMILES O=C(NCCCNC(=O)c1ccccc1NC(=O)c1ccc2c(c1)C(=O)N(Cc1ccccc1)C2=O)c1ccc(-c2c3nc(c(-c4c(F)c(F)c(F)c(F)c4F)c4ccc([nH]4)c(-c4c(F)c(F)c(F)c(F)c4F)c4nc(c(-c5c(F)c(F)c(F)c(F)c5F)c5ccc2[nH]5)C=C4)C=C3)cc1
REMARK SMILES IDX 6 1 5 2 4 3 3 4 1 5 2 6 37 8 38 9 99 10 39 11 98 12 40 13
REMARK SMILES IDX 41 14 42 15 92 16 43 17 97 18 91 19 93 20 44 21 96 22 90 23
REMARK SMILES IDX 89 24 45 26 77 27 57 28 76 29 58 30 61 31 75 32 94 33 59 34
REMARK SMILES IDX 60 35 74 37 95 38 62 39 46 40 47 41 55 42 48 43 49 44 53 45
REMARK SMILES IDX 56 46 50 47 51 48 54 49 52 50 78 51 79 52 87 53 80 54 81 55
REMARK SMILES IDX 85 56 88 57 82 58 83 59 86 60 84 61 63 62 64 63 72 64 65 65
REMARK SMILES IDX 66 66 70 67 73 68 67 69 68 70 71 71 69 72 7 73 8 74 9 76
REMARK SMILES IDX 10 77 11 78 15 79 12 80 14 81 13 82 16 83 17 84 18 86 19 87
REMARK SMILES IDX 20 88 24 89 21 90 23 91 22 92 25 93 35 94 26 95 27 96 36 97
REMARK SMILES IDX 28 98 29 99 30 100 34 101 31 102 33 103 32 104
REMARK H PARENT 3 7 93 25 61 36 7 75 16 85
REMARK Flexibility Score: inf
ROOT
ATOM      1  C   UNL A   1      37.239  20.285  24.669  1.00  0.00     0.118 C 
ENDROOT
BRANCH   1   2
ATOM      2  C   UNL A   1      38.243  19.221  25.081  1.00  0.00     0.042 C 
BRANCH   2   3
ATOM      3  C   UNL A   1      39.415  19.757  25.889  1.00  0.00     0.118 C 
BRANCH   3   4
ATOM      4  N   UNL A   1      40.540  18.834  25.935  1.00  0.00    -0.352 N 
ATOM      5  O   UNL A   1      42.698  18.186  25.900  1.00  0.00    -0.269 OA
ATOM      6  C   UNL A   1      41.883  19.090  26.057  1.00  0.00     0.251 C 
ATOM      7  H   UNL A   1      40.302  17.881  25.870  1.00  0.00     0.163 HD
BRANCH   6   8
ATOM      8  C   UNL A   1      42.352  20.457  26.362  1.00  0.00     0.039 A 
ATOM      9  C   UNL A   1      42.712  21.332  25.338  1.00  0.00     0.014 A 
ATOM     10  C   UNL A   1      42.396  20.879  27.695  1.00  0.00     0.014 A 
ATOM     11  C   UNL A   1      43.248  22.575  25.644  1.00  0.00     0.010 A 
ATOM     12  C   UNL A   1      42.841  22.167  27.998  1.00  0.00     0.010 A 
ATOM     13  C   UNL A   1      43.285  23.018  26.975  1.00  0.00    -0.014 A 
BRANCH  13  14
ATOM     14  C   UNL A   1      43.678  24.419  27.259  1.00  0.00     0.031 A 
ATOM     15  C   UNL A   1      42.683  25.423  27.758  1.00  0.00     0.074 A 
ATOM     16  C   UNL A   1      44.961  24.770  27.048  1.00  0.00     0.049 A 
ATOM     17  N   UNL A   1      42.859  26.695  28.018  1.00  0.00    -0.248 NA
ATOM     18  C   UNL A   1      41.309  24.950  27.987  1.00  0.00     0.031 C 
ATOM     19  C   UNL A   1      46.006  23.874  26.543  1.00  0.00     0.029 A 
ATOM     20  N   UNL A   1      45.610  25.965  27.227  1.00  0.00    -0.354 N 
ATOM     21  C   UNL A   1      41.620  27.177  28.414  1.00  0.00     0.074 A 
ATOM     22  C   UNL A   1      40.693  26.068  28.353  1.00  0.00     0.031 C 
ATOM     23  C   UNL A   1      47.166  24.540  26.478  1.00  0.00     0.029 A 
ATOM     24  C   UNL A   1      46.934  25.925  26.866  1.00  0.00     0.049 A 
ATOM     25  H   UNL A   1      45.170  26.771  27.580  1.00  0.00     0.167 HD
ATOM     26  C   UNL A   1      41.297  28.436  28.795  1.00  0.00     0.037 A 
ATOM     27  C   UNL A   1      47.855  26.905  26.815  1.00  0.00     0.037 A 
ATOM     28  C   UNL A   1      42.239  29.522  28.884  1.00  0.00     0.049 A 
ATOM     29  C   UNL A   1      47.455  28.293  27.220  1.00  0.00     0.074 A 
ATOM     30  C   UNL A   1      42.031  30.807  29.352  1.00  0.00     0.029 A 
ATOM     31  N   UNL A   1      43.566  29.453  28.482  1.00  0.00    -0.354 N 
ATOM     32  N   UNL A   1      46.297  28.721  27.660  1.00  0.00    -0.248 NA
ATOM     33  C   UNL A   1      48.482  29.336  27.111  1.00  0.00     0.031 C 
ATOM     34  C   UNL A   1      43.216  31.532  29.184  1.00  0.00     0.029 A 
ATOM     35  C   UNL A   1      44.175  30.686  28.651  1.00  0.00     0.049 A 
ATOM     36  H   UNL A   1      44.009  28.647  28.131  1.00  0.00     0.167 HD
ATOM     37  C   UNL A   1      46.455  30.081  27.881  1.00  0.00     0.074 A 
ATOM     38  C   UNL A   1      47.830  30.401  27.555  1.00  0.00     0.031 C 
ATOM     39  C   UNL A   1      45.540  30.985  28.307  1.00  0.00     0.037 A 
BRANCH  26  40
ATOM     40  C   UNL A   1      39.865  28.731  29.132  1.00  0.00     0.064 A 
ATOM     41  C   UNL A   1      39.347  28.507  30.415  1.00  0.00     0.173 A 
ATOM     42  C   UNL A   1      39.029  29.335  28.181  1.00  0.00     0.173 A 
ATOM     43  F   UNL A   1      40.104  27.925  31.357  1.00  0.00    -0.203 F 
ATOM     44  C   UNL A   1      38.040  28.870  30.730  1.00  0.00     0.198 A 
ATOM     45  C   UNL A   1      37.730  29.717  28.506  1.00  0.00     0.198 A 
ATOM     46  F   UNL A   1      39.481  29.578  26.941  1.00  0.00    -0.203 F 
ATOM     47  F   UNL A   1      37.557  28.629  31.958  1.00  0.00    -0.200 F 
ATOM     48  C   UNL A   1      37.237  29.484  29.781  1.00  0.00     0.200 A 
ATOM     49  F   UNL A   1      36.961  30.321  27.590  1.00  0.00    -0.200 F 
ATOM     50  F   UNL A   1      35.985  29.850  30.092  1.00  0.00    -0.200 F 
ENDBRANCH  26  40
BRANCH  27  51
ATOM     51  C   UNL A   1      49.222  26.607  26.321  1.00  0.00     0.064 A 
ATOM     52  C   UNL A   1      50.196  26.059  27.164  1.00  0.00     0.173 A 
ATOM     53  C   UNL A   1      49.579  26.857  24.986  1.00  0.00     0.173 A 
ATOM     54  F   UNL A   1      49.909  25.820  28.452  1.00  0.00    -0.203 F 
ATOM     55  C   UNL A   1      51.480  25.788  26.696  1.00  0.00     0.198 A 
ATOM     56  C   UNL A   1      50.852  26.556  24.512  1.00  0.00     0.198 A 
ATOM     57  F   UNL A   1      48.680  27.377  24.137  1.00  0.00    -0.203 F 
ATOM     58  F   UNL A   1      52.407  25.303  27.534  1.00  0.00    -0.200 F 
ATOM     59  C   UNL A   1      51.805  26.029  25.370  1.00  0.00     0.200 A 
ATOM     60  F   UNL A   1      51.155  26.774  23.225  1.00  0.00    -0.200 F 
ATOM     61  F   UNL A   1      53.038  25.760  24.919  1.00  0.00    -0.200 F 
ENDBRANCH  27  51
BRANCH  39  62
ATOM     62  C   UNL A   1      46.001  32.404  28.440  1.00  0.00     0.064 A 
ATOM     63  C   UNL A   1      46.606  32.863  29.620  1.00  0.00     0.173 A 
ATOM     64  C   UNL A   1      45.874  33.301  27.370  1.00  0.00     0.173 A 
ATOM     65  F   UNL A   1      46.729  32.046  30.677  1.00  0.00    -0.203 F 
ATOM     66  C   UNL A   1      47.050  34.177  29.728  1.00  0.00     0.198 A 
ATOM     67  C   UNL A   1      46.345  34.606  27.473  1.00  0.00     0.198 A 
ATOM     68  F   UNL A   1      45.306  32.906  26.221  1.00  0.00    -0.203 F 
ATOM     69  F   UNL A   1      47.588  34.607  30.878  1.00  0.00    -0.200 F 
ATOM     70  C   UNL A   1      46.928  35.045  28.652  1.00  0.00     0.200 A 
ATOM     71  F   UNL A   1      46.236  35.441  26.430  1.00  0.00    -0.200 F 
ATOM     72  F   UNL A   1      47.365  36.307  28.756  1.00  0.00    -0.200 F 
ENDBRANCH  39  62
ENDBRANCH  13  14
ENDBRANCH   6   8
ENDBRANCH   3   4
ENDBRANCH   2   3
ENDBRANCH   1   2
BRANCH   1  73
ATOM     73  N   UNL A   1      35.879  19.925  25.036  1.00  0.00    -0.352 N 
ATOM     74  C   UNL A   1      34.840  20.733  25.409  1.00  0.00     0.253 C 
ATOM     75  H   UNL A   1      35.675  18.961  25.013  1.00  0.00     0.163 HD
ATOM     76  O   UNL A   1      33.820  20.246  25.886  1.00  0.00    -0.269 OA
BRANCH  74  77
ATOM     77  C   UNL A   1      34.939  22.193  25.232  1.00  0.00     0.063 A 
ATOM     78  C   UNL A   1      35.706  22.876  26.193  1.00  0.00     0.016 A 
ATOM     79  C   UNL A   1      34.279  22.878  24.189  1.00  0.00     0.054 A 
ATOM     80  C   UNL A   1      35.848  24.257  26.122  1.00  0.00     0.001 A 
ATOM     81  C   UNL A   1      34.393  24.271  24.188  1.00  0.00     0.027 A 
ATOM     82  C   UNL A   1      35.187  24.955  25.120  1.00  0.00     0.002 A 
BRANCH  79  83
ATOM     83  N   UNL A   1      33.504  22.152  23.237  1.00  0.00    -0.321 N 
ATOM     84  C   UNL A   1      32.141  22.038  23.015  1.00  0.00     0.255 C 
ATOM     85  H   UNL A   1      34.049  21.623  22.609  1.00  0.00     0.170 HD
ATOM     86  O   UNL A   1      31.692  21.283  22.159  1.00  0.00    -0.269 OA
BRANCH  84  87
ATOM     87  C   UNL A   1      31.212  22.933  23.722  1.00  0.00     0.041 A 
ATOM     88  C   UNL A   1      31.052  22.790  25.120  1.00  0.00     0.015 A 
ATOM     89  C   UNL A   1      30.782  24.068  23.035  1.00  0.00     0.028 A 
ATOM     90  C   UNL A   1      30.643  23.890  25.885  1.00  0.00     0.015 A 
ATOM     91  C   UNL A   1      30.422  25.139  23.821  1.00  0.00     0.054 A 
ATOM     92  C   UNL A   1      30.404  25.075  25.205  1.00  0.00     0.053 A 
ATOM     93  C   UNL A   1      30.475  26.536  23.427  1.00  0.00     0.261 C 
ATOM     94  C   UNL A   1      30.495  26.457  25.692  1.00  0.00     0.261 C 
ATOM     95  O   UNL A   1      30.587  26.888  22.268  1.00  0.00    -0.269 OA
ATOM     96  N   UNL A   1      30.538  27.260  24.582  1.00  0.00    -0.270 N 
ATOM     97  O   UNL A   1      30.665  26.748  26.861  1.00  0.00    -0.269 OA
BRANCH  96  98
ATOM     98  C   UNL A   1      30.925  28.655  24.605  1.00  0.00     0.164 C 
BRANCH  98  99
ATOM     99  C   UNL A   1      32.084  28.925  25.528  1.00  0.00    -0.028 A 
ATOM    100  C   UNL A   1      33.283  28.219  25.383  1.00  0.00     0.005 A 
ATOM    101  C   UNL A   1      31.976  29.882  26.549  1.00  0.00     0.005 A 
ATOM    102  C   UNL A   1      34.350  28.459  26.250  1.00  0.00     0.000 A 
ATOM    103  C   UNL A   1      33.037  30.109  27.424  1.00  0.00     0.000 A 
ATOM    104  C   UNL A   1      34.223  29.396  27.275  1.00  0.00     0.000 A 
ENDBRANCH  98  99
ENDBRANCH  96  98
ENDBRANCH  84  87
ENDBRANCH  79  83
ENDBRANCH  74  77
ENDBRANCH   1  73
TORSDOF 14
ENDMDL
MODEL 2
REMARK VINA RESULT:     -13.9      0.192      1.859
REMARK SMILES O=C(NCCCNC(=O)c1ccccc1NC(=O)c1ccc2c(c1)C(=O)N(Cc1ccccc1)C2=O)c1ccc(-c2c3nc(c(-c4c(F)c(F)c(F)c(F)c4F)c4ccc([nH]4)c(-c4c(F)c(F)c(F)c(F)c4F)c4nc(c(-c5c(F)c(F)c(F)c(F)c5F)c5ccc2[nH]5)C=C4)C=C3)cc1
REMARK SMILES IDX 6 1 5 2 4 3 3 4 1 5 2 6 37 8 38 9 99 10 39 11 98 12 40 13
REMARK SMILES IDX 41 14 42 15 92 16 43 17 97 18 91 19 93 20 44 21 96 22 90 23
REMARK SMILES IDX 89 24 45 26 77 27 57 28 76 29 58 30 61 31 75 32 94 33 59 34
REMARK SMILES IDX 60 35 74 37 95 38 62 39 46 40 47 41 55 42 48 43 49 44 53 45
REMARK SMILES IDX 56 46 50 47 51 48 54 49 52 50 78 51 79 52 87 53 80 54 81 55
REMARK SMILES IDX 85 56 88 57 82 58 83 59 86 60 84 61 63 62 64 63 72 64 65 65
REMARK SMILES IDX 66 66 70 67 73 68 67 69 68 70 71 71 69 72 7 73 8 74 9 76
REMARK SMILES IDX 10 77 11 78 15 79 12 80 14 81 13 82 16 83 17 84 18 86 19 87
REMARK SMILES IDX 20 88 24 89 21 90 23 91 22 92 25 93 35 94 26 95 27 96 36 97
REMARK SMILES IDX 28 98 29 99 30 100 34 101 31 102 33 103 32 104
REMARK H PARENT 3 7 93 25 61 36 7 75 16 85
REMARK Flexibility Score: inf
ROOT
ATOM      1  C   UNL A   1      37.341  20.300  24.750  1.00  0.00     0.118 C 
ENDROOT
BRANCH   1   2
ATOM      2  C   UNL A   1      38.336  19.250  25.217  1.00  0.00     0.042 C 
BRANCH   2   3
ATOM      3  C   UNL A   1      39.559  19.825  25.914  1.00  0.00     0.118 C 
BRANCH   3   4
ATOM      4  N   UNL A   1      40.680  18.897  25.947  1.00  0.00    -0.352 N 
ATOM      5  O   UNL A   1      42.834  18.239  25.885  1.00  0.00    -0.269 OA
ATOM      6  C   UNL A   1      42.026  19.146  26.052  1.00  0.00     0.251 C 
ATOM      7  H   UNL A   1      40.437  17.945  25.885  1.00  0.00     0.163 HD
BRANCH   6   8
ATOM      8  C   UNL A   1      42.504  20.511  26.352  1.00  0.00     0.039 A 
ATOM      9  C   UNL A   1      42.889  21.373  25.324  1.00  0.00     0.014 A 
ATOM     10  C   UNL A   1      42.534  20.945  27.681  1.00  0.00     0.014 A 
ATOM     11  C   UNL A   1      43.434  22.613  25.627  1.00  0.00     0.010 A 
ATOM     12  C   UNL A   1      42.988  22.232  27.979  1.00  0.00     0.010 A 
ATOM     13  C   UNL A   1      43.457  23.068  26.955  1.00  0.00    -0.014 A 
BRANCH  13  14
ATOM     14  C   UNL A   1      43.860  24.468  27.232  1.00  0.00     0.031 A 
ATOM     15  C   UNL A   1      42.875  25.478  27.739  1.00  0.00     0.074 A 
ATOM     16  C   UNL A   1      45.143  24.811  27.005  1.00  0.00     0.049 A 
ATOM     17  N   UNL A   1      43.062  26.749  27.994  1.00  0.00    -0.248 NA
ATOM     18  C   UNL A   1      41.502  25.013  27.984  1.00  0.00     0.031 C 
ATOM     19  C   UNL A   1      46.177  23.908  26.491  1.00  0.00     0.029 A 
ATOM     20  N   UNL A   1      45.800  26.002  27.175  1.00  0.00    -0.354 N 
ATOM     21  C   UNL A   1      41.829  27.240  28.403  1.00  0.00     0.074 A 
ATOM     22  C   UNL A   1      40.896  26.135  28.354  1.00  0.00     0.031 C 
ATOM     23  C   UNL A   1      47.340  24.568  26.412  1.00  0.00     0.029 A 
ATOM     24  C   UNL A   1      47.120  25.955  26.800  1.00  0.00     0.049 A 
ATOM     25  H   UNL A   1      45.368  26.812  27.531  1.00  0.00     0.167 HD
ATOM     26  C   UNL A   1      41.517  28.501  28.785  1.00  0.00     0.037 A 
ATOM     27  C   UNL A   1      48.045  26.929  26.737  1.00  0.00     0.037 A 
ATOM     28  C   UNL A   1      42.467  29.582  28.861  1.00  0.00     0.049 A 
ATOM     29  C   UNL A   1      47.657  28.321  27.142  1.00  0.00     0.074 A 
ATOM     30  C   UNL A   1      42.271  30.869  29.329  1.00  0.00     0.029 A 
ATOM     31  N   UNL A   1      43.789  29.504  28.445  1.00  0.00    -0.354 N 
ATOM     32  N   UNL A   1      46.507  28.756  27.594  1.00  0.00    -0.248 NA
ATOM     33  C   UNL A   1      48.689  29.357  27.020  1.00  0.00     0.031 C 
ATOM     34  C   UNL A   1      43.457  31.587  29.146  1.00  0.00     0.029 A 
ATOM     35  C   UNL A   1      44.406  30.735  28.605  1.00  0.00     0.049 A 
ATOM     36  H   UNL A   1      44.223  28.696  28.091  1.00  0.00     0.167 HD
ATOM     37  C   UNL A   1      46.675  30.115  27.811  1.00  0.00     0.074 A 
ATOM     38  C   UNL A   1      48.048  30.427  27.469  1.00  0.00     0.031 C 
ATOM     39  C   UNL A   1      45.769  31.025  28.245  1.00  0.00     0.037 A 
BRANCH  26  40
ATOM     40  C   UNL A   1      40.091  28.805  29.137  1.00  0.00     0.064 A 
ATOM     41  C   UNL A   1      39.185  29.299  28.189  1.00  0.00     0.173 A 
ATOM     42  C   UNL A   1      39.605  28.506  30.419  1.00  0.00     0.173 A 
ATOM     43  F   UNL A   1      39.602  29.607  26.952  1.00  0.00    -0.203 F 
ATOM     44  C   UNL A   1      37.844  29.490  28.515  1.00  0.00     0.198 A 
ATOM     45  C   UNL A   1      38.260  28.678  30.734  1.00  0.00     0.198 A 
ATOM     46  F   UNL A   1      40.432  28.023  31.360  1.00  0.00    -0.203 F 
ATOM     47  F   UNL A   1      36.998  29.982  27.600  1.00  0.00    -0.200 F 
ATOM     48  C   UNL A   1      37.381  29.170  29.782  1.00  0.00     0.200 A 
ATOM     49  F   UNL A   1      37.813  28.356  31.956  1.00  0.00    -0.200 F 
ATOM     50  F   UNL A   1      36.087  29.337  30.088  1.00  0.00    -0.200 F 
ENDBRANCH  26  40
BRANCH  27  51
ATOM     51  C   UNL A   1      49.405  26.624  26.228  1.00  0.00     0.064 A 
ATOM     52  C   UNL A   1      49.747  26.851  24.888  1.00  0.00     0.173 A 
ATOM     53  C   UNL A   1      50.396  26.106  27.077  1.00  0.00     0.173 A 
ATOM     54  F   UNL A   1      48.829  27.326  24.035  1.00  0.00    -0.203 F 
ATOM     55  C   UNL A   1      51.023  26.556  24.414  1.00  0.00     0.198 A 
ATOM     56  C   UNL A   1      51.680  25.842  26.609  1.00  0.00     0.198 A 
ATOM     57  F   UNL A   1      50.120  25.876  28.369  1.00  0.00    -0.203 F 
ATOM     58  F   UNL A   1      51.313  26.742  23.119  1.00  0.00    -0.200 F 
ATOM     59  C   UNL A   1      51.990  26.059  25.275  1.00  0.00     0.200 A 
ATOM     60  F   UNL A   1      52.616  25.379  27.449  1.00  0.00    -0.200 F 
ATOM     61  F   UNL A   1      53.220  25.783  24.819  1.00  0.00    -0.200 F 
ENDBRANCH  27  51
BRANCH  39  62
ATOM     62  C   UNL A   1      46.240  32.442  28.370  1.00  0.00     0.064 A 
ATOM     63  C   UNL A   1      46.064  33.360  27.324  1.00  0.00     0.173 A 
ATOM     64  C   UNL A   1      46.836  32.896  29.555  1.00  0.00     0.173 A 
ATOM     65  F   UNL A   1      45.517  32.965  26.164  1.00  0.00    -0.203 F 
ATOM     66  C   UNL A   1      46.485  34.680  27.455  1.00  0.00     0.198 A 
ATOM     67  C   UNL A   1      47.230  34.223  29.692  1.00  0.00     0.198 A 
ATOM     68  F   UNL A   1      47.022  32.055  30.583  1.00  0.00    -0.203 F 
ATOM     69  F   UNL A   1      46.344  35.530  26.430  1.00  0.00    -0.200 F 
ATOM     70  C   UNL A   1      47.060  35.112  28.642  1.00  0.00     0.200 A 
ATOM     71  F   UNL A   1      47.776  34.643  30.843  1.00  0.00    -0.200 F 
ATOM     72  F   UNL A   1      47.456  36.386  28.770  1.00  0.00    -0.200 F 
ENDBRANCH  39  62
ENDBRANCH  13  14
ENDBRANCH   6   8
ENDBRANCH   3   4
ENDBRANCH   2   3
ENDBRANCH   1   2
BRANCH   1  73
ATOM     73  N   UNL A   1      35.965  19.906  25.014  1.00  0.00    -0.352 N 
ATOM     74  C   UNL A   1      34.887  20.686  25.330  1.00  0.00     0.253 C 
ATOM     75  H   UNL A   1      35.784  18.940  24.955  1.00  0.00     0.163 HD
ATOM     76  O   UNL A   1      33.846  20.168  25.724  1.00  0.00    -0.269 OA
BRANCH  74  77
ATOM     77  C   UNL A   1      34.967  22.151  25.192  1.00  0.00     0.063 A 
ATOM     78  C   UNL A   1      35.725  22.817  26.172  1.00  0.00     0.016 A 
ATOM     79  C   UNL A   1      34.301  22.855  24.167  1.00  0.00     0.054 A 
ATOM     80  C   UNL A   1      35.849  24.202  26.138  1.00  0.00     0.001 A 
ATOM     81  C   UNL A   1      34.397  24.249  24.203  1.00  0.00     0.027 A 
ATOM     82  C   UNL A   1      35.181  24.917  25.154  1.00  0.00     0.002 A 
BRANCH  79  83
ATOM     83  N   UNL A   1      33.536  22.145  23.194  1.00  0.00    -0.321 N 
ATOM     84  C   UNL A   1      32.175  22.031  22.960  1.00  0.00     0.255 C 
ATOM     85  H   UNL A   1      34.088  21.630  22.561  1.00  0.00     0.170 HD
ATOM     86  O   UNL A   1      31.736  21.291  22.086  1.00  0.00    -0.269 OA
BRANCH  84  87
ATOM     87  C   UNL A   1      31.237  22.907  23.677  1.00  0.00     0.041 A 
ATOM     88  C   UNL A   1      31.073  22.741  25.071  1.00  0.00     0.015 A 
ATOM     89  C   UNL A   1      30.802  24.050  23.006  1.00  0.00     0.028 A 
ATOM     90  C   UNL A   1      30.653  23.826  25.852  1.00  0.00     0.015 A 
ATOM     91  C   UNL A   1      30.431  25.106  23.806  1.00  0.00     0.054 A 
ATOM     92  C   UNL A   1      30.408  25.021  25.189  1.00  0.00     0.053 A 
ATOM     93  C   UNL A   1      30.475  26.509  23.434  1.00  0.00     0.261 C 
ATOM     94  C   UNL A   1      30.487  26.395  25.698  1.00  0.00     0.261 C 
ATOM     95  O   UNL A   1      30.589  26.880  22.281  1.00  0.00    -0.269 OA
ATOM     96  N   UNL A   1      30.529  27.216  24.601  1.00  0.00    -0.270 N 
ATOM     97  O   UNL A   1      30.650  26.670  26.872  1.00  0.00    -0.269 OA
BRANCH  96  98
ATOM     98  C   UNL A   1      30.906  28.613  24.646  1.00  0.00     0.164 C 
BRANCH  98  99
ATOM     99  C   UNL A   1      32.079  28.872  25.554  1.00  0.00    -0.028 A 
ATOM    100  C   UNL A   1      33.277  28.171  25.378  1.00  0.00     0.005 A 
ATOM    101  C   UNL A   1      31.987  29.815  26.590  1.00  0.00     0.005 A 
ATOM    102  C   UNL A   1      34.358  28.401  26.231  1.00  0.00     0.000 A 
ATOM    103  C   UNL A   1      33.062  30.031  27.451  1.00  0.00     0.000 A 
ATOM    104  C   UNL A   1      34.246  29.323  27.271  1.00  0.00     0.000 A 
ENDBRANCH  98  99
ENDBRANCH  96  98
ENDBRANCH  84  87
ENDBRANCH  79  83
ENDBRANCH  74  77
ENDBRANCH   1  73
TORSDOF 14
ENDMDL
MODEL 3
REMARK VINA RESULT:     -13.9      5.200     10.984
REMARK SMILES O=C(NCCCNC(=O)c1ccccc1NC(=O)c1ccc2c(c1)C(=O)N(Cc1ccccc1)C2=O)c1ccc(-c2c3nc(c(-c4c(F)c(F)c(F)c(F)c4F)c4ccc([nH]4)c(-c4c(F)c(F)c(F)c(F)c4F)c4nc(c(-c5c(F)c(F)c(F)c(F)c5F)c5ccc2[nH]5)C=C4)C=C3)cc1
REMARK SMILES IDX 6 1 5 2 4 3 3 4 1 5 2 6 37 8 38 9 99 10 39 11 98 12 40 13
REMARK SMILES IDX 41 14 42 15 92 16 43 17 97 18 91 19 93 20 44 21 96 22 90 23
REMARK SMILES IDX 89 24 45 26 77 27 57 28 76 29 58 30 61 31 75 32 94 33 59 34
REMARK SMILES IDX 60 35 74 37 95 38 62 39 46 40 47 41 55 42 48 43 49 44 53 45
REMARK SMILES IDX 56 46 50 47 51 48 54 49 52 50 78 51 79 52 87 53 80 54 81 55
REMARK SMILES IDX 85 56 88 57 82 58 83 59 86 60 84 61 63 62 64 63 72 64 65 65
REMARK SMILES IDX 66 66 70 67 73 68 67 69 68 70 71 71 69 72 7 73 8 74 9 76
REMARK SMILES IDX 10 77 11 78 15 79 12 80 14 81 13 82 16 83 17 84 18 86 19 87
REMARK SMILES IDX 20 88 24 89 21 90 23 91 22 92 25 93 35 94 26 95 27 96 36 97
REMARK SMILES IDX 28 98 29 99 30 100 34 101 31 102 33 103 32 104
REMARK H PARENT 3 7 93 25 61 36 7 75 16 85
REMARK Flexibility Score: inf
ROOT
ATOM      1  C   UNL A   1      31.402  30.927  25.951  1.00  0.00     0.118 C 
ENDROOT
BRANCH   1   2
ATOM      2  C   UNL A   1      31.231  32.315  26.547  1.00  0.00     0.042 C 
BRANCH   2   3
ATOM      3  C   UNL A   1      32.463  32.831  27.273  1.00  0.00     0.118 C 
BRANCH   3   4
ATOM      4  N   UNL A   1      32.349  34.231  27.658  1.00  0.00    -0.352 N 
ATOM      5  O   UNL A   1      32.667  36.070  28.919  1.00  0.00    -0.269 OA
ATOM      6  C   UNL A   1      33.027  34.936  28.620  1.00  0.00     0.251 C 
ATOM      7  H   UNL A   1      31.685  34.751  27.151  1.00  0.00     0.163 HD
BRANCH   6   8
ATOM      8  C   UNL A   1      34.182  34.327  29.310  1.00  0.00     0.039 A 
ATOM      9  C   UNL A   1      33.997  33.510  30.426  1.00  0.00     0.014 A 
ATOM     10  C   UNL A   1      35.469  34.547  28.807  1.00  0.00     0.014 A 
ATOM     11  C   UNL A   1      35.096  33.030  31.124  1.00  0.00     0.010 A 
ATOM     12  C   UNL A   1      36.570  33.980  29.451  1.00  0.00     0.010 A 
ATOM     13  C   UNL A   1      36.392  33.231  30.624  1.00  0.00    -0.014 A 
BRANCH  13  14
ATOM     14  C   UNL A   1      37.532  32.545  31.276  1.00  0.00     0.031 A 
ATOM     15  C   UNL A   1      38.214  31.376  30.631  1.00  0.00     0.074 A 
ATOM     16  C   UNL A   1      37.938  32.998  32.479  1.00  0.00     0.049 A 
ATOM     17  N   UNL A   1      39.200  30.646  31.088  1.00  0.00    -0.248 NA
ATOM     18  C   UNL A   1      37.726  30.963  29.305  1.00  0.00     0.031 C 
ATOM     19  C   UNL A   1      37.327  34.117  33.205  1.00  0.00     0.029 A 
ATOM     20  N   UNL A   1      38.951  32.583  33.304  1.00  0.00    -0.354 N 
ATOM     21  C   UNL A   1      39.432  29.674  30.124  1.00  0.00     0.074 A 
ATOM     22  C   UNL A   1      38.479  29.898  29.058  1.00  0.00     0.031 C 
ATOM     23  C   UNL A   1      37.992  34.314  34.351  1.00  0.00     0.029 A 
ATOM     24  C   UNL A   1      39.026  33.295  34.475  1.00  0.00     0.049 A 
ATOM     25  H   UNL A   1      39.563  31.846  33.079  1.00  0.00     0.167 HD
ATOM     26  C   UNL A   1      40.362  28.689  30.138  1.00  0.00     0.037 A 
ATOM     27  C   UNL A   1      39.816  33.125  35.551  1.00  0.00     0.037 A 
ATOM     28  C   UNL A   1      41.326  28.501  31.192  1.00  0.00     0.049 A 
ATOM     29  C   UNL A   1      40.817  32.008  35.542  1.00  0.00     0.074 A 
ATOM     30  C   UNL A   1      42.370  27.596  31.252  1.00  0.00     0.029 A 
ATOM     31  N   UNL A   1      41.354  29.224  32.377  1.00  0.00    -0.354 N 
ATOM     32  N   UNL A   1      41.074  31.140  34.595  1.00  0.00    -0.248 NA
ATOM     33  C   UNL A   1      41.629  31.838  36.753  1.00  0.00     0.031 C 
ATOM     34  C   UNL A   1      42.996  27.732  32.495  1.00  0.00     0.029 A 
ATOM     35  C   UNL A   1      42.371  28.753  33.192  1.00  0.00     0.049 A 
ATOM     36  H   UNL A   1      40.744  29.962  32.603  1.00  0.00     0.167 HD
ATOM     37  C   UNL A   1      42.076  30.321  35.093  1.00  0.00     0.074 A 
ATOM     38  C   UNL A   1      42.401  30.815  36.415  1.00  0.00     0.031 C 
ATOM     39  C   UNL A   1      42.667  29.250  34.510  1.00  0.00     0.037 A 
BRANCH  26  40
ATOM     40  C   UNL A   1      40.386  27.719  28.995  1.00  0.00     0.064 A 
ATOM     41  C   UNL A   1      39.603  26.556  28.996  1.00  0.00     0.173 A 
ATOM     42  C   UNL A   1      41.133  28.008  27.842  1.00  0.00     0.173 A 
ATOM     43  F   UNL A   1      38.877  26.232  30.076  1.00  0.00    -0.203 F 
ATOM     44  C   UNL A   1      39.573  25.714  27.886  1.00  0.00     0.198 A 
ATOM     45  C   UNL A   1      41.083  27.176  26.728  1.00  0.00     0.198 A 
ATOM     46  F   UNL A   1      41.892  29.113  27.789  1.00  0.00    -0.203 F 
ATOM     47  F   UNL A   1      38.833  24.597  27.915  1.00  0.00    -0.200 F 
ATOM     48  C   UNL A   1      40.304  26.030  26.751  1.00  0.00     0.200 A 
ATOM     49  F   UNL A   1      41.781  27.489  25.627  1.00  0.00    -0.200 F 
ATOM     50  F   UNL A   1      40.259  25.228  25.677  1.00  0.00    -0.200 F 
ENDBRANCH  26  40
BRANCH  27  51
ATOM     51  C   UNL A   1      39.652  34.007  36.733  1.00  0.00     0.064 A 
ATOM     52  C   UNL A   1      38.852  33.627  37.818  1.00  0.00     0.173 A 
ATOM     53  C   UNL A   1      40.304  35.249  36.806  1.00  0.00     0.173 A 
ATOM     54  F   UNL A   1      38.194  32.458  37.786  1.00  0.00    -0.203 F 
ATOM     55  C   UNL A   1      38.696  34.461  38.922  1.00  0.00     0.198 A 
ATOM     56  C   UNL A   1      40.173  36.067  37.924  1.00  0.00     0.198 A 
ATOM     57  F   UNL A   1      41.086  35.657  35.795  1.00  0.00    -0.203 F 
ATOM     58  F   UNL A   1      37.891  34.093  39.928  1.00  0.00    -0.200 F 
ATOM     59  C   UNL A   1      39.362  35.676  38.978  1.00  0.00     0.200 A 
ATOM     60  F   UNL A   1      40.833  37.232  37.981  1.00  0.00    -0.200 F 
ATOM     61  F   UNL A   1      39.218  36.474  40.045  1.00  0.00    -0.200 F 
ENDBRANCH  27  51
BRANCH  39  62
ATOM     62  C   UNL A   1      43.722  28.543  35.304  1.00  0.00     0.064 A 
ATOM     63  C   UNL A   1      43.391  27.509  36.192  1.00  0.00     0.173 A 
ATOM     64  C   UNL A   1      45.076  28.874  35.151  1.00  0.00     0.173 A 
ATOM     65  F   UNL A   1      42.107  27.172  36.387  1.00  0.00    -0.203 F 
ATOM     66  C   UNL A   1      44.378  26.843  36.911  1.00  0.00     0.198 A 
ATOM     67  C   UNL A   1      46.062  28.187  35.851  1.00  0.00     0.198 A 
ATOM     68  F   UNL A   1      45.441  29.854  34.311  1.00  0.00    -0.203 F 
ATOM     69  F   UNL A   1      44.037  25.885  37.784  1.00  0.00    -0.200 F 
ATOM     70  C   UNL A   1      45.714  27.177  36.733  1.00  0.00     0.200 A 
ATOM     71  F   UNL A   1      47.353  28.503  35.671  1.00  0.00    -0.200 F 
ATOM     72  F   UNL A   1      46.664  26.527  37.420  1.00  0.00    -0.200 F 
ENDBRANCH  39  62
ENDBRANCH  13  14
ENDBRANCH   6   8
ENDBRANCH   3   4
ENDBRANCH   2   3
ENDBRANCH   1   2
BRANCH   1  73
ATOM     73  N   UNL A   1      32.198  30.059  26.805  1.00  0.00    -0.352 N 
ATOM     74  C   UNL A   1      32.768  28.849  26.518  1.00  0.00     0.253 C 
ATOM     75  H   UNL A   1      32.350  30.390  27.720  1.00  0.00     0.163 HD
ATOM     76  O   UNL A   1      33.230  28.156  27.420  1.00  0.00    -0.269 OA
BRANCH  74  77
ATOM     77  C   UNL A   1      32.835  28.374  25.125  1.00  0.00     0.063 A 
ATOM     78  C   UNL A   1      33.836  28.958  24.327  1.00  0.00     0.016 A 
ATOM     79  C   UNL A   1      31.934  27.422  24.602  1.00  0.00     0.054 A 
ATOM     80  C   UNL A   1      33.971  28.588  22.993  1.00  0.00     0.001 A 
ATOM     81  C   UNL A   1      32.061  27.123  23.243  1.00  0.00     0.027 A 
ATOM     82  C   UNL A   1      33.080  27.673  22.451  1.00  0.00     0.002 A 
BRANCH  79  83
ATOM     83  N   UNL A   1      30.928  26.857  25.440  1.00  0.00    -0.321 N 
ATOM     84  C   UNL A   1      30.532  25.554  25.696  1.00  0.00     0.255 C 
ATOM     85  H   UNL A   1      30.408  27.530  25.938  1.00  0.00     0.170 HD
ATOM     86  O   UNL A   1      29.573  25.306  26.420  1.00  0.00    -0.269 OA
BRANCH  84  87
ATOM     87  C   UNL A   1      31.348  24.434  25.203  1.00  0.00     0.041 A 
ATOM     88  C   UNL A   1      31.314  24.116  23.826  1.00  0.00     0.015 A 
ATOM     89  C   UNL A   1      32.344  23.956  26.055  1.00  0.00     0.028 A 
ATOM     90  C   UNL A   1      32.412  23.474  23.238  1.00  0.00     0.015 A 
ATOM     91  C   UNL A   1      33.422  23.364  25.438  1.00  0.00     0.054 A 
ATOM     92  C   UNL A   1      33.484  23.175  24.066  1.00  0.00     0.053 A 
ATOM     93  C   UNL A   1      34.770  23.288  25.972  1.00  0.00     0.261 C 
ATOM     94  C   UNL A   1      34.905  23.025  23.725  1.00  0.00     0.261 C 
ATOM     95  O   UNL A   1      35.026  23.502  27.143  1.00  0.00    -0.269 OA
ATOM     96  N   UNL A   1      35.600  23.108  24.904  1.00  0.00    -0.270 N 
ATOM     97  O   UNL A   1      35.324  23.004  22.583  1.00  0.00    -0.269 OA
BRANCH  96  98
ATOM     98  C   UNL A   1      37.031  23.308  24.989  1.00  0.00     0.164 C 
BRANCH  98  99
ATOM     99  C   UNL A   1      37.787  22.028  25.230  1.00  0.00    -0.028 A 
ATOM    100  C   UNL A   1      38.998  22.044  25.931  1.00  0.00     0.005 A 
ATOM    101  C   UNL A   1      37.293  20.805  24.751  1.00  0.00     0.005 A 
ATOM    102  C   UNL A   1      39.705  20.859  26.139  1.00  0.00     0.000 A 
ATOM    103  C   UNL A   1      38.009  19.625  24.944  1.00  0.00     0.000 A 
ATOM    104  C   UNL A   1      39.216  19.653  25.638  1.00  0.00     0.000 A 
ENDBRANCH  98  99
ENDBRANCH  96  98
ENDBRANCH  84  87
ENDBRANCH  79  83
ENDBRANCH  74  77
ENDBRANCH   1  73
TORSDOF 14
ENDMDL
