MODEL 1
REMARK VINA RESULT:     -11.9      0.000      0.000
REMARK SMILES COc1ncccc1NS(=O)(=O)c1ccc(Br)c(C(=O)NCCCNC(=O)c2ccc(-c3c4nc(c(-c5c(F)c(F)c(F)c(F)c5F)c5ccc([nH]5)c(-c5c(F)c(F)c(F)c(F)c5F)c5nc(c(-c6c(F)c(F)c(F)c(F)c6F)c6ccc3[nH]6)C=C5)C=C4)cc2)c1
REMARK SMILES IDX 22 1 21 2 19 3 20 4 18 6 13 7 14 8 91 9 15 10 16 11 17 12
REMARK SMILES IDX 10 13 11 14 12 15 9 16 8 18 3 19 4 20 5 21 7 22 6 23 2 24
REMARK SMILES IDX 1 25 23 26 24 27 25 28 26 29 27 31 28 32 29 33 90 34 30 35
REMARK SMILES IDX 89 36 31 37 32 38 33 39 83 40 34 41 88 42 82 43 84 44 35 45
REMARK SMILES IDX 87 46 81 47 80 48 36 50 68 51 48 52 67 53 49 54 52 55 66 56
REMARK SMILES IDX 85 57 50 58 51 59 65 61 86 62 53 63 37 64 38 65 46 66 39 67
REMARK SMILES IDX 40 68 44 69 47 70 41 71 42 72 45 73 43 74 69 75 70 76 78 77
REMARK SMILES IDX 71 78 72 79 76 80 79 81 73 82 74 83 77 84 75 85 54 86 55 87
REMARK SMILES IDX 63 88 56 89 57 90 61 91 64 92 58 93 59 94 62 95 60 96
REMARK H PARENT 21 5 9 17 25 30 84 49 52 60
REMARK Flexibility Score: inf
ROOT
ATOM      1  C   UNL A   1      34.091  28.661  22.955  1.00  0.00     0.118 C 
ENDROOT
BRANCH   1   2
ATOM      2  N   UNL A   1      33.619  27.709  21.979  1.00  0.00    -0.352 N 
ATOM      3  C   UNL A   1      33.225  26.401  22.040  1.00  0.00     0.252 C 
ATOM      4  O   UNL A   1      33.255  25.824  20.946  1.00  0.00    -0.269 OA
ATOM      5  H   UNL A   1      33.568  28.083  21.071  1.00  0.00     0.163 HD
BRANCH   3   6
ATOM      6  C   UNL A   1      32.612  25.679  23.212  1.00  0.00     0.055 A 
ATOM      7  C   UNL A   1      33.244  23.883  24.789  1.00  0.00     0.088 A 
ATOM      8  C   UNL A   1      31.942  23.771  25.237  1.00  0.00     0.023 A 
ATOM      9  C   UNL A   1      33.578  24.885  23.872  1.00  0.00     0.037 A 
ATOM     10  C   UNL A   1      30.991  24.652  24.728  1.00  0.00     0.018 A 
ATOM     11  C   UNL A   1      31.314  25.607  23.730  1.00  0.00     0.030 A 
ATOM     12  Br  UNL A   1      29.910  26.844  23.446  1.00  0.00    -0.050 Br
BRANCH   7  13
ATOM     13  S   UNL A   1      34.521  22.852  25.451  1.00  0.00     0.262 S 
ATOM     14  O   UNL A   1      34.443  21.580  24.754  1.00  0.00    -0.201 OA
ATOM     15  O   UNL A   1      34.434  22.882  26.893  1.00  0.00    -0.201 OA
BRANCH  13  16
ATOM     16  N   UNL A   1      36.044  23.500  25.094  1.00  0.00    -0.274 N 
ATOM     17  H   UNL A   1      36.093  24.203  24.407  1.00  0.00     0.180 HD
BRANCH  16  18
ATOM     18  C   UNL A   1      37.272  23.093  25.727  1.00  0.00     0.111 A 
ATOM     19  C   UNL A   1      38.029  21.948  25.467  1.00  0.00     0.238 A 
ATOM     20  N   UNL A   1      39.211  21.658  26.058  1.00  0.00    -0.220 NA
ATOM     21  C   UNL A   1      39.744  22.606  26.851  1.00  0.00     0.115 A 
ATOM     22  C   UNL A   1      37.915  24.088  26.466  1.00  0.00     0.034 A 
ATOM     23  C   UNL A   1      39.163  23.846  27.043  1.00  0.00     0.023 A 
BRANCH  19  24
ATOM     24  O   UNL A   1      37.617  21.010  24.574  1.00  0.00    -0.480 OA
ATOM     25  C   UNL A   1      37.945  19.694  25.000  1.00  0.00     0.280 C 
ENDBRANCH  19  24
ENDBRANCH  16  18
ENDBRANCH  13  16
ENDBRANCH   7  13
ENDBRANCH   3   6
ENDBRANCH   1   2
BRANCH   1  26
ATOM     26  C   UNL A   1      32.967  28.945  23.956  1.00  0.00     0.042 C 
BRANCH  26  27
ATOM     27  C   UNL A   1      33.468  29.199  25.368  1.00  0.00     0.118 C 
BRANCH  27  28
ATOM     28  N   UNL A   1      33.067  30.522  25.829  1.00  0.00    -0.352 N 
ATOM     29  C   UNL A   1      33.439  31.208  26.958  1.00  0.00     0.251 C 
ATOM     30  H   UNL A   1      32.433  30.994  25.242  1.00  0.00     0.163 HD
ATOM     31  O   UNL A   1      32.755  32.150  27.348  1.00  0.00    -0.269 OA
BRANCH  29  32
ATOM     32  C   UNL A   1      34.658  30.826  27.705  1.00  0.00     0.039 A 
ATOM     33  C   UNL A   1      35.729  31.722  27.762  1.00  0.00     0.014 A 
ATOM     34  C   UNL A   1      34.772  29.567  28.300  1.00  0.00     0.014 A 
ATOM     35  C   UNL A   1      36.893  31.371  28.449  1.00  0.00     0.010 A 
ATOM     36  C   UNL A   1      35.891  29.256  29.066  1.00  0.00     0.010 A 
ATOM     37  C   UNL A   1      36.972  30.145  29.130  1.00  0.00    -0.014 A 
BRANCH  37  38
ATOM     38  C   UNL A   1      38.186  29.766  29.895  1.00  0.00     0.031 A 
ATOM     39  C   UNL A   1      38.393  30.292  31.290  1.00  0.00     0.074 A 
ATOM     40  C   UNL A   1      39.125  28.998  29.312  1.00  0.00     0.049 A 
ATOM     41  N   UNL A   1      39.411  30.127  32.096  1.00  0.00    -0.248 NA
ATOM     42  C   UNL A   1      37.327  31.145  31.841  1.00  0.00     0.031 C 
ATOM     43  C   UNL A   1      39.058  28.473  27.947  1.00  0.00     0.029 A 
ATOM     44  N   UNL A   1      40.324  28.532  29.790  1.00  0.00    -0.354 N 
ATOM     45  C   UNL A   1      39.114  30.865  33.236  1.00  0.00     0.074 A 
ATOM     46  C   UNL A   1      37.853  31.530  32.994  1.00  0.00     0.031 C 
ATOM     47  C   UNL A   1      40.152  27.734  27.707  1.00  0.00     0.029 A 
ATOM     48  C   UNL A   1      41.018  27.769  28.881  1.00  0.00     0.049 A 
ATOM     49  H   UNL A   1      40.656  28.725  30.696  1.00  0.00     0.167 HD
ATOM     50  C   UNL A   1      39.818  30.957  34.389  1.00  0.00     0.037 A 
ATOM     51  C   UNL A   1      42.220  27.174  28.984  1.00  0.00     0.037 A 
ATOM     52  C   UNL A   1      41.062  30.274  34.627  1.00  0.00     0.049 A 
ATOM     53  C   UNL A   1      42.985  27.297  30.275  1.00  0.00     0.074 A 
ATOM     54  C   UNL A   1      41.827  30.250  35.779  1.00  0.00     0.029 A 
ATOM     55  N   UNL A   1      41.726  29.495  33.689  1.00  0.00    -0.354 N 
ATOM     56  N   UNL A   1      42.661  27.935  31.373  1.00  0.00    -0.248 NA
ATOM     57  C   UNL A   1      44.280  26.607  30.343  1.00  0.00     0.031 C 
ATOM     58  C   UNL A   1      42.983  29.506  35.520  1.00  0.00     0.029 A 
ATOM     59  C   UNL A   1      42.906  29.009  34.229  1.00  0.00     0.049 A 
ATOM     60  H   UNL A   1      41.406  29.315  32.776  1.00  0.00     0.167 HD
ATOM     61  C   UNL A   1      43.692  27.700  32.271  1.00  0.00     0.074 A 
ATOM     62  C   UNL A   1      44.645  26.844  31.594  1.00  0.00     0.031 C 
ATOM     63  C   UNL A   1      43.839  28.152  33.542  1.00  0.00     0.037 A 
BRANCH  50  64
ATOM     64  C   UNL A   1      39.260  31.829  35.479  1.00  0.00     0.064 A 
ATOM     65  C   UNL A   1      38.420  31.315  36.480  1.00  0.00     0.173 A 
ATOM     66  C   UNL A   1      39.596  33.190  35.545  1.00  0.00     0.173 A 
ATOM     67  F   UNL A   1      38.057  30.024  36.461  1.00  0.00    -0.203 F 
ATOM     68  C   UNL A   1      37.911  32.137  37.482  1.00  0.00     0.198 A 
ATOM     69  C   UNL A   1      39.115  34.000  36.570  1.00  0.00     0.198 A 
ATOM     70  F   UNL A   1      40.401  33.735  34.620  1.00  0.00    -0.203 F 
ATOM     71  F   UNL A   1      37.065  31.634  38.393  1.00  0.00    -0.200 F 
ATOM     72  C   UNL A   1      38.265  33.476  37.532  1.00  0.00     0.200 A 
ATOM     73  F   UNL A   1      39.471  35.291  36.625  1.00  0.00    -0.200 F 
ATOM     74  F   UNL A   1      37.782  34.263  38.503  1.00  0.00    -0.200 F 
ENDBRANCH  50  64
BRANCH  51  75
ATOM     75  C   UNL A   1      42.763  26.388  27.843  1.00  0.00     0.064 A 
ATOM     76  C   UNL A   1      43.442  27.018  26.791  1.00  0.00     0.173 A 
ATOM     77  C   UNL A   1      42.612  24.995  27.779  1.00  0.00     0.173 A 
ATOM     78  F   UNL A   1      43.598  28.350  26.797  1.00  0.00    -0.203 F 
ATOM     79  C   UNL A   1      43.925  26.289  25.706  1.00  0.00     0.198 A 
ATOM     80  C   UNL A   1      43.125  24.263  26.710  1.00  0.00     0.198 A 
ATOM     81  F   UNL A   1      41.977  24.341  28.764  1.00  0.00    -0.203 F 
ATOM     82  F   UNL A   1      44.524  26.924  24.690  1.00  0.00    -0.200 F 
ATOM     83  C   UNL A   1      43.772  24.912  25.670  1.00  0.00     0.200 A 
ATOM     84  F   UNL A   1      42.990  22.931  26.688  1.00  0.00    -0.200 F 
ATOM     85  F   UNL A   1      44.240  24.211  24.628  1.00  0.00    -0.200 F 
ENDBRANCH  51  75
BRANCH  63  86
ATOM     86  C   UNL A   1      45.054  27.694  34.297  1.00  0.00     0.064 A 
ATOM     87  C   UNL A   1      45.064  26.494  35.025  1.00  0.00     0.173 A 
ATOM     88  C   UNL A   1      46.235  28.450  34.264  1.00  0.00     0.173 A 
ATOM     89  F   UNL A   1      43.957  25.740  35.101  1.00  0.00    -0.203 F 
ATOM     90  C   UNL A   1      46.202  26.087  35.719  1.00  0.00     0.198 A 
ATOM     91  C   UNL A   1      47.381  28.022  34.926  1.00  0.00     0.198 A 
ATOM     92  F   UNL A   1      46.283  29.600  33.575  1.00  0.00    -0.203 F 
ATOM     93  F   UNL A   1      46.170  24.968  36.454  1.00  0.00    -0.200 F 
ATOM     94  C   UNL A   1      47.361  26.847  35.662  1.00  0.00     0.200 A 
ATOM     95  F   UNL A   1      48.505  28.748  34.855  1.00  0.00    -0.200 F 
ATOM     96  F   UNL A   1      48.456  26.450  36.324  1.00  0.00    -0.200 F 
ENDBRANCH  63  86
ENDBRANCH  37  38
ENDBRANCH  29  32
ENDBRANCH  27  28
ENDBRANCH  26  27
ENDBRANCH   1  26
TORSDOF 14
ENDMDL
MODEL 2
REMARK VINA RESULT:     -11.9      2.464      3.784
REMARK SMILES COc1ncccc1NS(=O)(=O)c1ccc(Br)c(C(=O)NCCCNC(=O)c2ccc(-c3c4nc(c(-c5c(F)c(F)c(F)c(F)c5F)c5ccc([nH]5)c(-c5c(F)c(F)c(F)c(F)c5F)c5nc(c(-c6c(F)c(F)c(F)c(F)c6F)c6ccc3[nH]6)C=C5)C=C4)cc2)c1
REMARK SMILES IDX 22 1 21 2 19 3 20 4 18 6 13 7 14 8 91 9 15 10 16 11 17 12
REMARK SMILES IDX 10 13 11 14 12 15 9 16 8 18 3 19 4 20 5 21 7 22 6 23 2 24
REMARK SMILES IDX 1 25 23 26 24 27 25 28 26 29 27 31 28 32 29 33 90 34 30 35
REMARK SMILES IDX 89 36 31 37 32 38 33 39 83 40 34 41 88 42 82 43 84 44 35 45
REMARK SMILES IDX 87 46 81 47 80 48 36 50 68 51 48 52 67 53 49 54 52 55 66 56
REMARK SMILES IDX 85 57 50 58 51 59 65 61 86 62 53 63 37 64 38 65 46 66 39 67
REMARK SMILES IDX 40 68 44 69 47 70 41 71 42 72 45 73 43 74 69 75 70 76 78 77
REMARK SMILES IDX 71 78 72 79 76 80 79 81 73 82 74 83 77 84 75 85 54 86 55 87
REMARK SMILES IDX 63 88 56 89 57 90 61 91 64 92 58 93 59 94 62 95 60 96
REMARK H PARENT 21 5 9 17 25 30 84 49 52 60
REMARK Flexibility Score: inf
ROOT
ATOM      1  C   UNL A   1      31.786  27.769  26.581  1.00  0.00     0.118 C 
ENDROOT
BRANCH   1   2
ATOM      2  N   UNL A   1      31.074  26.546  26.862  1.00  0.00    -0.352 N 
ATOM      3  C   UNL A   1      30.596  25.525  26.087  1.00  0.00     0.252 C 
ATOM      4  O   UNL A   1      29.717  24.853  26.642  1.00  0.00    -0.269 OA
ATOM      5  H   UNL A   1      30.893  26.417  27.820  1.00  0.00     0.163 HD
BRANCH   3   6
ATOM      6  C   UNL A   1      31.133  25.046  24.764  1.00  0.00     0.055 A 
ATOM      7  C   UNL A   1      32.077  22.966  23.817  1.00  0.00     0.088 A 
ATOM      8  C   UNL A   1      32.514  23.636  22.691  1.00  0.00     0.023 A 
ATOM      9  C   UNL A   1      31.317  23.644  24.776  1.00  0.00     0.037 A 
ATOM     10  C   UNL A   1      32.205  24.989  22.567  1.00  0.00     0.018 A 
ATOM     11  C   UNL A   1      31.514  25.695  23.584  1.00  0.00     0.030 A 
ATOM     12  Br  UNL A   1      30.986  27.422  23.019  1.00  0.00    -0.050 Br
BRANCH   7  13
ATOM     13  S   UNL A   1      32.361  21.230  24.005  1.00  0.00     0.262 S 
ATOM     14  O   UNL A   1      32.062  20.610  22.726  1.00  0.00    -0.201 OA
ATOM     15  O   UNL A   1      31.676  20.777  25.194  1.00  0.00    -0.201 OA
BRANCH  13  16
ATOM     16  N   UNL A   1      34.000  20.931  24.308  1.00  0.00    -0.274 N 
ATOM     17  H   UNL A   1      34.329  20.012  24.183  1.00  0.00     0.180 HD
BRANCH  16  18
ATOM     18  C   UNL A   1      34.946  21.929  24.736  1.00  0.00     0.111 A 
ATOM     19  C   UNL A   1      35.282  22.283  26.046  1.00  0.00     0.238 A 
ATOM     20  N   UNL A   1      36.228  23.190  26.378  1.00  0.00    -0.220 NA
ATOM     21  C   UNL A   1      36.978  23.682  25.374  1.00  0.00     0.115 A 
ATOM     22  C   UNL A   1      35.820  22.381  23.746  1.00  0.00     0.034 A 
ATOM     23  C   UNL A   1      36.846  23.273  24.060  1.00  0.00     0.023 A 
BRANCH  19  24
ATOM     24  O   UNL A   1      34.658  21.724  27.116  1.00  0.00    -0.480 OA
ATOM     25  C   UNL A   1      33.562  22.513  27.561  1.00  0.00     0.280 C 
ENDBRANCH  19  24
ENDBRANCH  16  18
ENDBRANCH  13  16
ENDBRANCH   7  13
ENDBRANCH   3   6
ENDBRANCH   1   2
BRANCH   1  26
ATOM     26  C   UNL A   1      33.285  27.466  26.510  1.00  0.00     0.042 C 
BRANCH  26  27
ATOM     27  C   UNL A   1      34.089  28.561  25.829  1.00  0.00     0.118 C 
BRANCH  27  28
ATOM     28  N   UNL A   1      33.771  29.865  26.397  1.00  0.00    -0.352 N 
ATOM     29  C   UNL A   1      34.336  30.519  27.462  1.00  0.00     0.251 C 
ATOM     30  H   UNL A   1      33.041  30.349  25.948  1.00  0.00     0.163 HD
ATOM     31  O   UNL A   1      33.729  31.442  27.999  1.00  0.00    -0.269 OA
BRANCH  29  32
ATOM     32  C   UNL A   1      35.670  30.125  27.968  1.00  0.00     0.039 A 
ATOM     33  C   UNL A   1      35.780  29.606  29.262  1.00  0.00     0.014 A 
ATOM     34  C   UNL A   1      36.819  30.321  27.197  1.00  0.00     0.014 A 
ATOM     35  C   UNL A   1      37.033  29.246  29.761  1.00  0.00     0.010 A 
ATOM     36  C   UNL A   1      38.052  29.871  27.657  1.00  0.00     0.010 A 
ATOM     37  C   UNL A   1      38.176  29.349  28.952  1.00  0.00    -0.014 A 
BRANCH  37  38
ATOM     38  C   UNL A   1      39.513  28.940  29.450  1.00  0.00     0.031 A 
ATOM     39  C   UNL A   1      40.249  29.810  30.433  1.00  0.00     0.074 A 
ATOM     40  C   UNL A   1      40.084  27.818  28.973  1.00  0.00     0.049 A 
ATOM     41  N   UNL A   1      41.447  29.658  30.940  1.00  0.00    -0.248 NA
ATOM     42  C   UNL A   1      39.561  31.031  30.883  1.00  0.00     0.031 C 
ATOM     43  C   UNL A   1      39.488  26.924  27.979  1.00  0.00     0.029 A 
ATOM     44  N   UNL A   1      41.297  27.242  29.254  1.00  0.00    -0.354 N 
ATOM     45  C   UNL A   1      41.658  30.766  31.750  1.00  0.00     0.074 A 
ATOM     46  C   UNL A   1      40.494  31.614  31.620  1.00  0.00     0.031 C 
ATOM     47  C   UNL A   1      40.323  25.898  27.754  1.00  0.00     0.029 A 
ATOM     48  C   UNL A   1      41.531  26.084  28.552  1.00  0.00     0.049 A 
ATOM     49  H   UNL A   1      41.939  27.622  29.896  1.00  0.00     0.167 HD
ATOM     50  C   UNL A   1      42.716  31.039  32.550  1.00  0.00     0.037 A 
ATOM     51  C   UNL A   1      42.603  25.271  28.548  1.00  0.00     0.037 A 
ATOM     52  C   UNL A   1      43.861  30.177  32.688  1.00  0.00     0.049 A 
ATOM     53  C   UNL A   1      43.769  25.599  29.442  1.00  0.00     0.074 A 
ATOM     54  C   UNL A   1      44.960  30.327  33.515  1.00  0.00     0.029 A 
ATOM     55  N   UNL A   1      44.055  29.003  31.974  1.00  0.00    -0.354 N 
ATOM     56  N   UNL A   1      43.926  26.611  30.261  1.00  0.00    -0.248 NA
ATOM     57  C   UNL A   1      44.902  24.666  29.418  1.00  0.00     0.031 C 
ATOM     58  C   UNL A   1      45.846  29.276  33.258  1.00  0.00     0.029 A 
ATOM     59  C   UNL A   1      45.269  28.432  32.322  1.00  0.00     0.049 A 
ATOM     60  H   UNL A   1      43.423  28.630  31.317  1.00  0.00     0.167 HD
ATOM     61  C   UNL A   1      45.158  26.421  30.871  1.00  0.00     0.074 A 
ATOM     62  C   UNL A   1      45.698  25.186  30.341  1.00  0.00     0.031 C 
ATOM     63  C   UNL A   1      45.787  27.199  31.788  1.00  0.00     0.037 A 
BRANCH  50  64
ATOM     64  C   UNL A   1      42.686  32.319  33.336  1.00  0.00     0.064 A 
ATOM     65  C   UNL A   1      43.215  33.515  32.823  1.00  0.00     0.173 A 
ATOM     66  C   UNL A   1      42.092  32.361  34.607  1.00  0.00     0.173 A 
ATOM     67  F   UNL A   1      43.805  33.531  31.619  1.00  0.00    -0.203 F 
ATOM     68  C   UNL A   1      43.180  34.693  33.565  1.00  0.00     0.198 A 
ATOM     69  C   UNL A   1      42.026  33.550  35.330  1.00  0.00     0.198 A 
ATOM     70  F   UNL A   1      41.564  31.252  35.145  1.00  0.00    -0.203 F 
ATOM     71  F   UNL A   1      43.742  35.807  33.076  1.00  0.00    -0.200 F 
ATOM     72  C   UNL A   1      42.578  34.712  34.814  1.00  0.00     0.200 A 
ATOM     73  F   UNL A   1      41.430  33.569  36.531  1.00  0.00    -0.200 F 
ATOM     74  F   UNL A   1      42.537  35.848  35.523  1.00  0.00    -0.200 F 
ENDBRANCH  50  64
BRANCH  51  75
ATOM     75  C   UNL A   1      42.614  24.057  27.688  1.00  0.00     0.064 A 
ATOM     76  C   UNL A   1      42.288  22.798  28.212  1.00  0.00     0.173 A 
ATOM     77  C   UNL A   1      42.952  24.128  26.329  1.00  0.00     0.173 A 
ATOM     78  F   UNL A   1      41.973  22.675  29.511  1.00  0.00    -0.203 F 
ATOM     79  C   UNL A   1      42.325  21.655  27.417  1.00  0.00     0.198 A 
ATOM     80  C   UNL A   1      42.957  22.989  25.527  1.00  0.00     0.198 A 
ATOM     81  F   UNL A   1      43.265  25.309  25.774  1.00  0.00    -0.203 F 
ATOM     82  F   UNL A   1      42.060  20.458  27.958  1.00  0.00    -0.200 F 
ATOM     83  C   UNL A   1      42.654  21.752  26.074  1.00  0.00     0.200 A 
ATOM     84  F   UNL A   1      43.258  23.089  24.225  1.00  0.00    -0.200 F 
ATOM     85  F   UNL A   1      42.687  20.651  25.310  1.00  0.00    -0.200 F 
ENDBRANCH  51  75
BRANCH  63  86
ATOM     86  C   UNL A   1      47.110  26.713  32.308  1.00  0.00     0.064 A 
ATOM     87  C   UNL A   1      48.325  27.120  31.736  1.00  0.00     0.173 A 
ATOM     88  C   UNL A   1      47.162  25.854  33.416  1.00  0.00     0.173 A 
ATOM     89  F   UNL A   1      48.331  27.930  30.666  1.00  0.00    -0.203 F 
ATOM     90  C   UNL A   1      49.541  26.658  32.234  1.00  0.00     0.198 A 
ATOM     91  C   UNL A   1      48.380  25.425  33.935  1.00  0.00     0.198 A 
ATOM     92  F   UNL A   1      46.031  25.443  34.007  1.00  0.00    -0.203 F 
ATOM     93  F   UNL A   1      50.685  27.013  31.635  1.00  0.00    -0.200 F 
ATOM     94  C   UNL A   1      49.567  25.818  33.338  1.00  0.00     0.200 A 
ATOM     95  F   UNL A   1      48.404  24.628  35.012  1.00  0.00    -0.200 F 
ATOM     96  F   UNL A   1      50.739  25.381  33.820  1.00  0.00    -0.200 F 
ENDBRANCH  63  86
ENDBRANCH  37  38
ENDBRANCH  29  32
ENDBRANCH  27  28
ENDBRANCH  26  27
ENDBRANCH   1  26
TORSDOF 14
ENDMDL
MODEL 3
REMARK VINA RESULT:     -11.8      2.476      8.082
REMARK SMILES COc1ncccc1NS(=O)(=O)c1ccc(Br)c(C(=O)NCCCNC(=O)c2ccc(-c3c4nc(c(-c5c(F)c(F)c(F)c(F)c5F)c5ccc([nH]5)c(-c5c(F)c(F)c(F)c(F)c5F)c5nc(c(-c6c(F)c(F)c(F)c(F)c6F)c6ccc3[nH]6)C=C5)C=C4)cc2)c1
REMARK SMILES IDX 22 1 21 2 19 3 20 4 18 6 13 7 14 8 91 9 15 10 16 11 17 12
REMARK SMILES IDX 10 13 11 14 12 15 9 16 8 18 3 19 4 20 5 21 7 22 6 23 2 24
REMARK SMILES IDX 1 25 23 26 24 27 25 28 26 29 27 31 28 32 29 33 90 34 30 35
REMARK SMILES IDX 89 36 31 37 32 38 33 39 83 40 34 41 88 42 82 43 84 44 35 45
REMARK SMILES IDX 87 46 81 47 80 48 36 50 68 51 48 52 67 53 49 54 52 55 66 56
REMARK SMILES IDX 85 57 50 58 51 59 65 61 86 62 53 63 37 64 38 65 46 66 39 67
REMARK SMILES IDX 40 68 44 69 47 70 41 71 42 72 45 73 43 74 69 75 70 76 78 77
REMARK SMILES IDX 71 78 72 79 76 80 79 81 73 82 74 83 77 84 75 85 54 86 55 87
REMARK SMILES IDX 63 88 56 89 57 90 61 91 64 92 58 93 59 94 62 95 60 96
REMARK H PARENT 21 5 9 17 25 30 84 49 52 60
REMARK Flexibility Score: inf
ROOT
ATOM      1  C   UNL A   1      31.132  31.192  26.413  1.00  0.00     0.118 C 
ENDROOT
BRANCH   1   2
ATOM      2  N   UNL A   1      32.070  30.588  25.498  1.00  0.00    -0.352 N 
ATOM      3  C   UNL A   1      32.157  29.363  24.897  1.00  0.00     0.252 C 
ATOM      4  O   UNL A   1      33.294  29.093  24.488  1.00  0.00    -0.269 OA
ATOM      5  H   UNL A   1      32.809  31.190  25.252  1.00  0.00     0.163 HD
BRANCH   3   6
ATOM      6  C   UNL A   1      31.028  28.434  24.535  1.00  0.00     0.055 A 
ATOM      7  C   UNL A   1      30.286  26.145  25.104  1.00  0.00     0.088 A 
ATOM      8  C   UNL A   1      29.381  26.142  24.060  1.00  0.00     0.023 A 
ATOM      9  C   UNL A   1      31.014  27.306  25.386  1.00  0.00     0.037 A 
ATOM     10  C   UNL A   1      29.248  27.301  23.299  1.00  0.00     0.018 A 
ATOM     11  C   UNL A   1      30.053  28.445  23.531  1.00  0.00     0.030 A 
ATOM     12  Br  UNL A   1      29.457  29.948  22.546  1.00  0.00    -0.050 Br
BRANCH   7  13
ATOM     13  S   UNL A   1      30.450  24.738  26.164  1.00  0.00     0.262 S 
ATOM     14  O   UNL A   1      29.229  24.652  26.946  1.00  0.00    -0.201 OA
ATOM     15  O   UNL A   1      31.725  24.818  26.840  1.00  0.00    -0.201 OA
BRANCH  13  16
ATOM     16  N   UNL A   1      30.533  23.317  25.247  1.00  0.00    -0.274 N 
ATOM     17  H   UNL A   1      29.685  22.909  24.958  1.00  0.00     0.180 HD
BRANCH  16  18
ATOM     18  C   UNL A   1      31.758  22.665  24.862  1.00  0.00     0.111 A 
ATOM     19  C   UNL A   1      32.741  23.139  23.990  1.00  0.00     0.238 A 
ATOM     20  N   UNL A   1      33.902  22.500  23.720  1.00  0.00    -0.220 NA
ATOM     21  C   UNL A   1      34.173  21.398  24.445  1.00  0.00     0.115 A 
ATOM     22  C   UNL A   1      32.133  21.586  25.665  1.00  0.00     0.034 A 
ATOM     23  C   UNL A   1      33.349  20.936  25.455  1.00  0.00     0.023 A 
BRANCH  19  24
ATOM     24  O   UNL A   1      32.595  24.316  23.324  1.00  0.00    -0.480 OA
ATOM     25  C   UNL A   1      33.629  25.237  23.645  1.00  0.00     0.280 C 
ENDBRANCH  19  24
ENDBRANCH  16  18
ENDBRANCH  13  16
ENDBRANCH   7  13
ENDBRANCH   3   6
ENDBRANCH   1   2
BRANCH   1  26
ATOM     26  C   UNL A   1      31.391  32.700  26.466  1.00  0.00     0.042 C 
BRANCH  26  27
ATOM     27  C   UNL A   1      32.609  33.073  27.296  1.00  0.00     0.118 C 
BRANCH  27  28
ATOM     28  N   UNL A   1      32.530  34.460  27.735  1.00  0.00    -0.352 N 
ATOM     29  C   UNL A   1      33.101  35.069  28.824  1.00  0.00     0.251 C 
ATOM     30  H   UNL A   1      31.985  35.049  27.165  1.00  0.00     0.163 HD
ATOM     31  O   UNL A   1      32.660  36.146  29.217  1.00  0.00    -0.269 OA
BRANCH  29  32
ATOM     32  C   UNL A   1      34.245  34.444  29.525  1.00  0.00     0.039 A 
ATOM     33  C   UNL A   1      34.011  33.732  30.705  1.00  0.00     0.014 A 
ATOM     34  C   UNL A   1      35.552  34.604  29.057  1.00  0.00     0.014 A 
ATOM     35  C   UNL A   1      35.081  33.151  31.389  1.00  0.00     0.010 A 
ATOM     36  C   UNL A   1      36.603  33.943  29.682  1.00  0.00     0.010 A 
ATOM     37  C   UNL A   1      36.382  33.228  30.867  1.00  0.00    -0.014 A 
BRANCH  37  38
ATOM     38  C   UNL A   1      37.529  32.587  31.559  1.00  0.00     0.031 A 
ATOM     39  C   UNL A   1      38.249  31.433  30.913  1.00  0.00     0.074 A 
ATOM     40  C   UNL A   1      37.882  33.008  32.788  1.00  0.00     0.049 A 
ATOM     41  N   UNL A   1      39.230  30.704  31.380  1.00  0.00    -0.248 NA
ATOM     42  C   UNL A   1      37.781  31.024  29.579  1.00  0.00     0.031 C 
ATOM     43  C   UNL A   1      37.224  34.082  33.534  1.00  0.00     0.029 A 
ATOM     44  N   UNL A   1      38.874  32.576  33.631  1.00  0.00    -0.354 N 
ATOM     45  C   UNL A   1      39.484  29.745  30.407  1.00  0.00     0.074 A 
ATOM     46  C   UNL A   1      38.514  29.943  29.353  1.00  0.00     0.031 C 
ATOM     47  C   UNL A   1      37.848  34.245  34.710  1.00  0.00     0.029 A 
ATOM     48  C   UNL A   1      38.919  33.260  34.822  1.00  0.00     0.049 A 
ATOM     49  H   UNL A   1      39.495  31.846  33.405  1.00  0.00     0.167 HD
ATOM     50  C   UNL A   1      40.455  28.801  30.383  1.00  0.00     0.037 A 
ATOM     51  C   UNL A   1      39.728  33.102  35.885  1.00  0.00     0.037 A 
ATOM     52  C   UNL A   1      41.429  28.626  31.428  1.00  0.00     0.049 A 
ATOM     53  C   UNL A   1      40.796  32.042  35.836  1.00  0.00     0.074 A 
ATOM     54  C   UNL A   1      42.492  27.742  31.478  1.00  0.00     0.029 A 
ATOM     55  N   UNL A   1      41.454  29.349  32.612  1.00  0.00    -0.354 N 
ATOM     56  N   UNL A   1      41.075  31.191  34.880  1.00  0.00    -0.248 NA
ATOM     57  C   UNL A   1      41.668  31.929  37.013  1.00  0.00     0.031 C 
ATOM     58  C   UNL A   1      43.124  27.889  32.717  1.00  0.00     0.029 A 
ATOM     59  C   UNL A   1      42.498  28.912  33.412  1.00  0.00     0.049 A 
ATOM     60  H   UNL A   1      40.823  30.067  32.850  1.00  0.00     0.167 HD
ATOM     61  C   UNL A   1      42.170  30.463  35.323  1.00  0.00     0.074 A 
ATOM     62  C   UNL A   1      42.516  30.986  36.628  1.00  0.00     0.031 C 
ATOM     63  C   UNL A   1      42.831  29.450  34.706  1.00  0.00     0.037 A 
BRANCH  50  64
ATOM     64  C   UNL A   1      40.511  27.887  29.192  1.00  0.00     0.064 A 
ATOM     65  C   UNL A   1      41.376  28.129  28.112  1.00  0.00     0.173 A 
ATOM     66  C   UNL A   1      39.713  26.733  29.142  1.00  0.00     0.173 A 
ATOM     67  F   UNL A   1      42.153  29.222  28.102  1.00  0.00    -0.203 F 
ATOM     68  C   UNL A   1      41.414  27.272  27.016  1.00  0.00     0.198 A 
ATOM     69  C   UNL A   1      39.782  25.858  28.060  1.00  0.00     0.198 A 
ATOM     70  F   UNL A   1      38.873  26.446  30.147  1.00  0.00    -0.203 F 
ATOM     71  F   UNL A   1      42.207  27.556  25.973  1.00  0.00    -0.200 F 
ATOM     72  C   UNL A   1      40.624  26.133  26.994  1.00  0.00     0.200 A 
ATOM     73  F   UNL A   1      39.028  24.750  28.048  1.00  0.00    -0.200 F 
ATOM     74  F   UNL A   1      40.670  25.304  25.942  1.00  0.00    -0.200 F 
ENDBRANCH  50  64
BRANCH  51  75
ATOM     75  C   UNL A   1      39.577  33.983  37.074  1.00  0.00     0.064 A 
ATOM     76  C   UNL A   1      40.189  35.243  37.122  1.00  0.00     0.173 A 
ATOM     77  C   UNL A   1      38.821  33.585  38.186  1.00  0.00     0.173 A 
ATOM     78  F   UNL A   1      40.937  35.663  36.090  1.00  0.00    -0.203 F 
ATOM     79  C   UNL A   1      40.074  36.059  38.245  1.00  0.00     0.198 A 
ATOM     80  C   UNL A   1      38.678  34.416  39.296  1.00  0.00     0.198 A 
ATOM     81  F   UNL A   1      38.206  32.393  38.190  1.00  0.00    -0.203 F 
ATOM     82  F   UNL A   1      40.715  37.236  38.284  1.00  0.00    -0.200 F 
ATOM     83  C   UNL A   1      39.314  35.647  39.329  1.00  0.00     0.200 A 
ATOM     84  F   UNL A   1      37.928  34.022  40.333  1.00  0.00    -0.200 F 
ATOM     85  F   UNL A   1      39.201  36.434  40.408  1.00  0.00    -0.200 F 
ENDBRANCH  51  75
BRANCH  63  86
ATOM     86  C   UNL A   1      44.022  28.874  35.418  1.00  0.00     0.064 A 
ATOM     87  C   UNL A   1      45.318  29.369  35.213  1.00  0.00     0.173 A 
ATOM     88  C   UNL A   1      43.856  27.832  36.343  1.00  0.00     0.173 A 
ATOM     89  F   UNL A   1      45.534  30.355  34.328  1.00  0.00    -0.203 F 
ATOM     90  C   UNL A   1      46.409  28.819  35.883  1.00  0.00     0.198 A 
ATOM     91  C   UNL A   1      44.942  27.312  37.040  1.00  0.00     0.198 A 
ATOM     92  F   UNL A   1      42.637  27.329  36.584  1.00  0.00    -0.203 F 
ATOM     93  F   UNL A   1      47.644  29.268  35.628  1.00  0.00    -0.200 F 
ATOM     94  C   UNL A   1      46.218  27.797  36.802  1.00  0.00     0.200 A 
ATOM     95  F   UNL A   1      44.754  26.337  37.940  1.00  0.00    -0.200 F 
ATOM     96  F   UNL A   1      47.268  27.275  37.452  1.00  0.00    -0.200 F 
ENDBRANCH  63  86
ENDBRANCH  37  38
ENDBRANCH  29  32
ENDBRANCH  27  28
ENDBRANCH  26  27
ENDBRANCH   1  26
TORSDOF 14
ENDMDL
