MODEL 1
REMARK VINA RESULT:     -12.4      0.000      0.000
REMARK SMILES Cc1cc(OC(F)(F)F)cc2c1O[C@H](C(F)(F)F)C(C(=O)NCCCNC(=O)c1ccc(-c3c4nc(c(-c5c(F)c(F)c(F)c(F)c5F)c5ccc([nH]5)c(-c5c(F)c(F)c(F)c(F)c5F)c5nc(c(-c6c(F)c(F)c(F)c(F)c6F)c6ccc3[nH]6)C=C5)C=C4)cc1)=C2
REMARK SMILES IDX 24 1 23 2 22 3 20 4 21 5 19 7 1 8 2 9 3 10 12 11 4 12 11 13
REMARK SMILES IDX 13 14 10 15 92 16 14 17 5 18 6 19 7 20 8 21 9 22 15 23 16 24
REMARK SMILES IDX 17 25 18 26 25 27 26 28 27 29 28 31 29 32 30 33 91 34 31 35
REMARK SMILES IDX 90 36 32 37 33 38 34 39 84 40 35 41 89 42 83 43 85 44 36 45
REMARK SMILES IDX 88 46 82 47 81 48 37 50 69 51 49 52 68 53 50 54 53 55 67 56
REMARK SMILES IDX 86 57 51 58 52 59 66 61 87 62 54 63 38 64 39 65 47 66 40 67
REMARK SMILES IDX 41 68 45 69 48 70 42 71 43 72 46 73 44 74 70 75 71 76 79 77
REMARK SMILES IDX 72 78 73 79 77 80 80 81 74 82 75 83 78 84 76 85 55 86 56 87
REMARK SMILES IDX 64 88 57 89 58 90 62 91 65 92 59 93 60 94 63 95 61 96
REMARK H PARENT 22 6 26 30 85 49 53 60
REMARK Flexibility Score: inf
ROOT
ATOM      1  C   UNL A   1      35.286  23.610  26.272  1.00  0.00     0.042 C 
ENDROOT
BRANCH   1   2
ATOM      2  C   UNL A   1      34.239  22.783  25.538  1.00  0.00     0.118 C 
BRANCH   2   3
ATOM      3  N   UNL A   1      34.415  22.849  24.096  1.00  0.00    -0.352 N 
ATOM      4  C   UNL A   1      34.032  23.663  23.084  1.00  0.00     0.251 C 
ATOM      5  O   UNL A   1      34.404  23.311  21.961  1.00  0.00    -0.270 OA
ATOM      6  H   UNL A   1      34.960  22.100  23.766  1.00  0.00     0.163 HD
BRANCH   4   7
ATOM      7  C   UNL A   1      33.222  24.905  23.240  1.00  0.00     0.067 C 
ATOM      8  C   UNL A   1      29.825  28.723  22.846  1.00  0.00     0.048 C 
ATOM      9  C   UNL A   1      31.115  28.517  23.587  1.00  0.00    -0.005 A 
ATOM     10  C   UNL A   1      31.606  29.517  24.440  1.00  0.00     0.054 A 
ATOM     11  C   UNL A   1      31.863  27.347  23.416  1.00  0.00     0.131 A 
ATOM     12  C   UNL A   1      32.816  29.345  25.119  1.00  0.00     0.130 A 
ATOM     13  C   UNL A   1      33.070  27.157  24.094  1.00  0.00     0.021 A 
ATOM     14  O   UNL A   1      31.389  26.422  22.528  1.00  0.00    -0.475 OA
ATOM     15  C   UNL A   1      33.540  28.160  24.945  1.00  0.00     0.058 A 
ATOM     16  C   UNL A   1      33.824  25.927  23.878  1.00  0.00     0.025 C 
ATOM     17  C   UNL A   1      31.806  25.052  22.766  1.00  0.00     0.314 C 
BRANCH  12  18
ATOM     18  O   UNL A   1      33.399  30.242  25.970  1.00  0.00    -0.406 OA
BRANCH  18  19
ATOM     19  C   UNL A   1      33.326  29.974  27.361  1.00  0.00     0.573 C 
ATOM     20  F   UNL A   1      33.433  31.110  28.083  1.00  0.00    -0.132 F 
ATOM     21  F   UNL A   1      32.173  29.347  27.675  1.00  0.00    -0.132 F 
ATOM     22  F   UNL A   1      34.352  29.163  27.700  1.00  0.00    -0.132 F 
ENDBRANCH  18  19
ENDBRANCH  12  18
BRANCH  17  23
ATOM     23  C   UNL A   1      30.787  24.359  23.692  1.00  0.00     0.429 C 
ATOM     24  F   UNL A   1      29.565  24.933  23.558  1.00  0.00    -0.167 F 
ATOM     25  F   UNL A   1      30.627  23.046  23.397  1.00  0.00    -0.167 F 
ATOM     26  F   UNL A   1      31.128  24.428  24.998  1.00  0.00    -0.167 F 
ENDBRANCH  17  23
ENDBRANCH   4   7
ENDBRANCH   2   3
ENDBRANCH   1   2
BRANCH   1  27
ATOM     27  C   UNL A   1      36.582  23.712  25.477  1.00  0.00     0.118 C 
BRANCH  27  28
ATOM     28  N   UNL A   1      37.527  22.668  25.865  1.00  0.00    -0.352 N 
ATOM     29  C   UNL A   1      38.809  22.785  26.338  1.00  0.00     0.251 C 
ATOM     30  H   UNL A   1      37.196  21.745  25.773  1.00  0.00     0.163 HD
ATOM     31  O   UNL A   1      39.565  21.815  26.328  1.00  0.00    -0.269 OA
BRANCH  29  32
ATOM     32  C   UNL A   1      39.277  24.079  26.862  1.00  0.00     0.039 A 
ATOM     33  C   UNL A   1      39.974  24.953  26.024  1.00  0.00     0.014 A 
ATOM     34  C   UNL A   1      39.049  24.409  28.200  1.00  0.00     0.014 A 
ATOM     35  C   UNL A   1      40.395  26.188  26.518  1.00  0.00     0.010 A 
ATOM     36  C   UNL A   1      39.400  25.668  28.670  1.00  0.00     0.010 A 
ATOM     37  C   UNL A   1      40.092  26.558  27.839  1.00  0.00    -0.014 A 
BRANCH  37  38
ATOM     38  C   UNL A   1      40.541  27.852  28.398  1.00  0.00     0.031 A 
ATOM     39  C   UNL A   1      41.994  28.045  28.727  1.00  0.00     0.074 A 
ATOM     40  C   UNL A   1      39.641  28.815  28.664  1.00  0.00     0.049 A 
ATOM     41  N   UNL A   1      42.585  29.069  29.285  1.00  0.00    -0.248 NA
ATOM     42  C   UNL A   1      42.898  26.926  28.414  1.00  0.00     0.031 C 
ATOM     43  C   UNL A   1      38.201  28.716  28.421  1.00  0.00     0.029 A 
ATOM     44  N   UNL A   1      39.804  30.064  29.207  1.00  0.00    -0.354 N 
ATOM     45  C   UNL A   1      43.923  28.716  29.389  1.00  0.00     0.074 A 
ATOM     46  C   UNL A   1      44.049  27.361  28.901  1.00  0.00     0.031 C 
ATOM     47  C   UNL A   1      37.614  29.865  28.794  1.00  0.00     0.029 A 
ATOM     48  C   UNL A   1      38.631  30.768  29.326  1.00  0.00     0.049 A 
ATOM     49  H   UNL A   1      40.678  30.421  29.484  1.00  0.00     0.167 HD
ATOM     50  C   UNL A   1      44.960  29.469  29.822  1.00  0.00     0.037 A 
ATOM     51  C   UNL A   1      38.408  32.004  29.813  1.00  0.00     0.037 A 
ATOM     52  C   UNL A   1      44.829  30.825  30.280  1.00  0.00     0.049 A 
ATOM     53  C   UNL A   1      39.575  32.813  30.311  1.00  0.00     0.074 A 
ATOM     54  C   UNL A   1      45.823  31.696  30.688  1.00  0.00     0.029 A 
ATOM     55  N   UNL A   1      43.625  31.507  30.386  1.00  0.00    -0.354 N 
ATOM     56  N   UNL A   1      40.846  32.496  30.346  1.00  0.00    -0.248 NA
ATOM     57  C   UNL A   1      39.279  34.155  30.833  1.00  0.00     0.031 C 
ATOM     58  C   UNL A   1      45.216  32.893  31.080  1.00  0.00     0.029 A 
ATOM     59  C   UNL A   1      43.849  32.783  30.875  1.00  0.00     0.049 A 
ATOM     60  H   UNL A   1      42.744  31.139  30.149  1.00  0.00     0.167 HD
ATOM     61  C   UNL A   1      41.504  33.600  30.868  1.00  0.00     0.074 A 
ATOM     62  C   UNL A   1      40.491  34.604  31.126  1.00  0.00     0.031 C 
ATOM     63  C   UNL A   1      42.826  33.768  31.115  1.00  0.00     0.037 A 
BRANCH  50  64
ATOM     64  C   UNL A   1      46.326  28.853  29.798  1.00  0.00     0.064 A 
ATOM     65  C   UNL A   1      47.149  28.947  28.666  1.00  0.00     0.173 A 
ATOM     66  C   UNL A   1      46.839  28.206  30.931  1.00  0.00     0.173 A 
ATOM     67  F   UNL A   1      46.698  29.544  27.552  1.00  0.00    -0.203 F 
ATOM     68  C   UNL A   1      48.428  28.398  28.661  1.00  0.00     0.198 A 
ATOM     69  C   UNL A   1      48.130  27.682  30.934  1.00  0.00     0.198 A 
ATOM     70  F   UNL A   1      46.094  28.090  32.042  1.00  0.00    -0.203 F 
ATOM     71  F   UNL A   1      49.179  28.465  27.554  1.00  0.00    -0.200 F 
ATOM     72  C   UNL A   1      48.921  27.774  29.798  1.00  0.00     0.200 A 
ATOM     73  F   UNL A   1      48.609  27.088  32.035  1.00  0.00    -0.200 F 
ATOM     74  F   UNL A   1      50.156  27.257  29.796  1.00  0.00    -0.200 F 
ENDBRANCH  50  64
BRANCH  51  75
ATOM     75  C   UNL A   1      37.032  32.562  29.810  1.00  0.00     0.064 A 
ATOM     76  C   UNL A   1      36.185  32.381  30.913  1.00  0.00     0.173 A 
ATOM     77  C   UNL A   1      36.542  33.303  28.726  1.00  0.00     0.173 A 
ATOM     78  F   UNL A   1      36.603  31.664  31.966  1.00  0.00    -0.203 F 
ATOM     79  C   UNL A   1      34.897  32.911  30.926  1.00  0.00     0.198 A 
ATOM     80  C   UNL A   1      35.262  33.853  28.751  1.00  0.00     0.198 A 
ATOM     81  F   UNL A   1      37.315  33.510  27.649  1.00  0.00    -0.203 F 
ATOM     82  F   UNL A   1      34.098  32.696  31.980  1.00  0.00    -0.200 F 
ATOM     83  C   UNL A   1      34.439  33.652  29.848  1.00  0.00     0.200 A 
ATOM     84  F   UNL A   1      34.827  34.582  27.713  1.00  0.00    -0.200 F 
ATOM     85  F   UNL A   1      33.203  34.170  29.865  1.00  0.00    -0.200 F 
ENDBRANCH  51  75
BRANCH  63  86
ATOM     86  C   UNL A   1      43.267  35.085  31.678  1.00  0.00     0.064 A 
ATOM     87  C   UNL A   1      43.685  36.129  30.843  1.00  0.00     0.173 A 
ATOM     88  C   UNL A   1      43.177  35.335  33.055  1.00  0.00     0.173 A 
ATOM     89  F   UNL A   1      43.799  35.933  29.520  1.00  0.00    -0.203 F 
ATOM     90  C   UNL A   1      44.002  37.379  31.367  1.00  0.00     0.198 A 
ATOM     91  C   UNL A   1      43.468  36.593  33.573  1.00  0.00     0.198 A 
ATOM     92  F   UNL A   1      42.773  34.369  33.893  1.00  0.00    -0.203 F 
ATOM     93  F   UNL A   1      44.422  38.358  30.554  1.00  0.00    -0.200 F 
ATOM     94  C   UNL A   1      43.881  37.614  32.729  1.00  0.00     0.200 A 
ATOM     95  F   UNL A   1      43.335  36.823  34.887  1.00  0.00    -0.200 F 
ATOM     96  F   UNL A   1      44.164  38.824  33.230  1.00  0.00    -0.200 F 
ENDBRANCH  63  86
ENDBRANCH  37  38
ENDBRANCH  29  32
ENDBRANCH  27  28
ENDBRANCH   1  27
TORSDOF 13
ENDMDL
MODEL 2
REMARK VINA RESULT:     -12.4      4.154      7.915
REMARK SMILES Cc1cc(OC(F)(F)F)cc2c1O[C@H](C(F)(F)F)C(C(=O)NCCCNC(=O)c1ccc(-c3c4nc(c(-c5c(F)c(F)c(F)c(F)c5F)c5ccc([nH]5)c(-c5c(F)c(F)c(F)c(F)c5F)c5nc(c(-c6c(F)c(F)c(F)c(F)c6F)c6ccc3[nH]6)C=C5)C=C4)cc1)=C2
REMARK SMILES IDX 24 1 23 2 22 3 20 4 21 5 19 7 1 8 2 9 3 10 12 11 4 12 11 13
REMARK SMILES IDX 13 14 10 15 92 16 14 17 5 18 6 19 7 20 8 21 9 22 15 23 16 24
REMARK SMILES IDX 17 25 18 26 25 27 26 28 27 29 28 31 29 32 30 33 91 34 31 35
REMARK SMILES IDX 90 36 32 37 33 38 34 39 84 40 35 41 89 42 83 43 85 44 36 45
REMARK SMILES IDX 88 46 82 47 81 48 37 50 69 51 49 52 68 53 50 54 53 55 67 56
REMARK SMILES IDX 86 57 51 58 52 59 66 61 87 62 54 63 38 64 39 65 47 66 40 67
REMARK SMILES IDX 41 68 45 69 48 70 42 71 43 72 46 73 44 74 70 75 71 76 79 77
REMARK SMILES IDX 72 78 73 79 77 80 80 81 74 82 75 83 78 84 76 85 55 86 56 87
REMARK SMILES IDX 64 88 57 89 58 90 62 91 65 92 59 93 60 94 63 95 61 96
REMARK H PARENT 22 6 26 30 85 49 53 60
REMARK Flexibility Score: inf
ROOT
ATOM      1  C   UNL A   1      31.306  31.931  26.445  1.00  0.00     0.042 C 
ENDROOT
BRANCH   1   2
ATOM      2  C   UNL A   1      31.400  30.423  26.257  1.00  0.00     0.118 C 
BRANCH   2   3
ATOM      3  N   UNL A   1      32.172  30.076  25.074  1.00  0.00    -0.352 N 
ATOM      4  C   UNL A   1      32.598  28.948  24.461  1.00  0.00     0.251 C 
ATOM      5  O   UNL A   1      33.279  29.129  23.446  1.00  0.00    -0.270 OA
ATOM      6  H   UNL A   1      32.464  30.880  24.588  1.00  0.00     0.163 HD
BRANCH   4   7
ATOM      7  C   UNL A   1      32.306  27.559  24.918  1.00  0.00     0.067 C 
ATOM      8  C   UNL A   1      30.275  23.279  26.875  1.00  0.00     0.048 C 
ATOM      9  C   UNL A   1      31.632  23.681  26.372  1.00  0.00    -0.005 A 
ATOM     10  C   UNL A   1      32.679  22.748  26.342  1.00  0.00     0.054 A 
ATOM     11  C   UNL A   1      31.885  24.993  25.959  1.00  0.00     0.131 A 
ATOM     12  C   UNL A   1      33.951  23.116  25.896  1.00  0.00     0.130 A 
ATOM     13  C   UNL A   1      33.149  25.375  25.502  1.00  0.00     0.021 A 
ATOM     14  O   UNL A   1      30.861  25.894  26.062  1.00  0.00    -0.475 OA
ATOM     15  C   UNL A   1      34.177  24.430  25.472  1.00  0.00     0.058 A 
ATOM     16  C   UNL A   1      33.373  26.756  25.091  1.00  0.00     0.025 C 
ATOM     17  C   UNL A   1      30.924  27.023  25.153  1.00  0.00     0.314 C 
BRANCH  12  18
ATOM     18  O   UNL A   1      35.048  22.303  25.823  1.00  0.00    -0.406 OA
BRANCH  18  19
ATOM     19  C   UNL A   1      35.237  21.557  24.632  1.00  0.00     0.573 C 
ATOM     20  F   UNL A   1      35.644  20.298  24.905  1.00  0.00    -0.132 F 
ATOM     21  F   UNL A   1      34.105  21.515  23.899  1.00  0.00    -0.132 F 
ATOM     22  F   UNL A   1      36.195  22.156  23.892  1.00  0.00    -0.132 F 
ENDBRANCH  18  19
ENDBRANCH  12  18
BRANCH  17  23
ATOM     23  C   UNL A   1      30.186  26.671  23.845  1.00  0.00     0.429 C 
ATOM     24  F   UNL A   1      29.215  25.753  24.088  1.00  0.00    -0.167 F 
ATOM     25  F   UNL A   1      29.570  27.742  23.292  1.00  0.00    -0.167 F 
ATOM     26  F   UNL A   1      31.003  26.156  22.900  1.00  0.00    -0.167 F 
ENDBRANCH  17  23
ENDBRANCH   4   7
ENDBRANCH   2   3
ENDBRANCH   1   2
BRANCH   1  27
ATOM     27  C   UNL A   1      32.637  32.528  26.886  1.00  0.00     0.118 C 
BRANCH  27  28
ATOM     28  N   UNL A   1      32.477  33.907  27.342  1.00  0.00    -0.352 N 
ATOM     29  C   UNL A   1      33.037  34.537  28.423  1.00  0.00     0.251 C 
ATOM     30  H   UNL A   1      31.880  34.464  26.793  1.00  0.00     0.163 HD
ATOM     31  O   UNL A   1      32.569  35.598  28.834  1.00  0.00    -0.269 OA
BRANCH  29  32
ATOM     32  C   UNL A   1      34.207  33.941  29.089  1.00  0.00     0.039 A 
ATOM     33  C   UNL A   1      35.491  34.384  28.756  1.00  0.00     0.014 A 
ATOM     34  C   UNL A   1      34.029  32.918  30.022  1.00  0.00     0.014 A 
ATOM     35  C   UNL A   1      36.595  33.833  29.406  1.00  0.00     0.010 A 
ATOM     36  C   UNL A   1      35.121  32.425  30.723  1.00  0.00     0.010 A 
ATOM     37  C   UNL A   1      36.413  32.864  30.407  1.00  0.00    -0.014 A 
BRANCH  37  38
ATOM     38  C   UNL A   1      37.565  32.247  31.100  1.00  0.00     0.031 A 
ATOM     39  C   UNL A   1      38.315  31.133  30.430  1.00  0.00     0.074 A 
ATOM     40  C   UNL A   1      37.889  32.645  32.344  1.00  0.00     0.049 A 
ATOM     41  N   UNL A   1      39.306  30.412  30.886  1.00  0.00    -0.248 NA
ATOM     42  C   UNL A   1      37.874  30.759  29.075  1.00  0.00     0.031 C 
ATOM     43  C   UNL A   1      37.202  33.690  33.103  1.00  0.00     0.029 A 
ATOM     44  N   UNL A   1      38.874  32.208  33.192  1.00  0.00    -0.354 N 
ATOM     45  C   UNL A   1      39.602  29.504  29.879  1.00  0.00     0.074 A 
ATOM     46  C   UNL A   1      38.646  29.716  28.815  1.00  0.00     0.031 C 
ATOM     47  C   UNL A   1      37.800  33.830  34.297  1.00  0.00     0.029 A 
ATOM     48  C   UNL A   1      38.892  32.866  34.397  1.00  0.00     0.049 A 
ATOM     49  H   UNL A   1      39.508  31.492  32.959  1.00  0.00     0.167 HD
ATOM     50  C   UNL A   1      40.604  28.597  29.833  1.00  0.00     0.037 A 
ATOM     51  C   UNL A   1      39.702  32.704  35.461  1.00  0.00     0.037 A 
ATOM     52  C   UNL A   1      41.566  28.412  30.884  1.00  0.00     0.049 A 
ATOM     53  C   UNL A   1      40.795  31.671  35.394  1.00  0.00     0.074 A 
ATOM     54  C   UNL A   1      42.654  27.558  30.916  1.00  0.00     0.029 A 
ATOM     55  N   UNL A   1      41.554  29.096  32.091  1.00  0.00    -0.354 N 
ATOM     56  N   UNL A   1      41.108  30.861  34.413  1.00  0.00    -0.248 NA
ATOM     57  C   UNL A   1      41.652  31.532  36.581  1.00  0.00     0.031 C 
ATOM     58  C   UNL A   1      43.278  27.697  32.159  1.00  0.00     0.029 A 
ATOM     59  C   UNL A   1      42.604  28.669  32.885  1.00  0.00     0.049 A 
ATOM     60  H   UNL A   1      40.896  29.783  32.345  1.00  0.00     0.167 HD
ATOM     61  C   UNL A   1      42.206  30.134  34.850  1.00  0.00     0.074 A 
ATOM     62  C   UNL A   1      42.515  30.608  36.184  1.00  0.00     0.031 C 
ATOM     63  C   UNL A   1      42.897  29.161  34.206  1.00  0.00     0.037 A 
BRANCH  50  64
ATOM     64  C   UNL A   1      40.724  27.754  28.599  1.00  0.00     0.064 A 
ATOM     65  C   UNL A   1      40.036  26.538  28.477  1.00  0.00     0.173 A 
ATOM     66  C   UNL A   1      41.493  28.186  27.509  1.00  0.00     0.173 A 
ATOM     67  F   UNL A   1      39.299  26.074  29.498  1.00  0.00    -0.203 F 
ATOM     68  C   UNL A   1      40.129  25.774  27.317  1.00  0.00     0.198 A 
ATOM     69  C   UNL A   1      41.562  27.434  26.339  1.00  0.00     0.198 A 
ATOM     70  F   UNL A   1      42.170  29.343  27.573  1.00  0.00    -0.203 F 
ATOM     71  F   UNL A   1      39.495  24.596  27.240  1.00  0.00    -0.200 F 
ATOM     72  C   UNL A   1      40.884  26.227  26.245  1.00  0.00     0.200 A 
ATOM     73  F   UNL A   1      42.284  27.877  25.300  1.00  0.00    -0.200 F 
ATOM     74  F   UNL A   1      40.963  25.498  25.125  1.00  0.00    -0.200 F 
ENDBRANCH  50  64
BRANCH  51  75
ATOM     75  C   UNL A   1      39.535  33.569  36.656  1.00  0.00     0.064 A 
ATOM     76  C   UNL A   1      40.166  34.819  36.727  1.00  0.00     0.173 A 
ATOM     77  C   UNL A   1      38.728  33.183  37.735  1.00  0.00     0.173 A 
ATOM     78  F   UNL A   1      40.961  35.224  35.726  1.00  0.00    -0.203 F 
ATOM     79  C   UNL A   1      40.005  35.645  37.837  1.00  0.00     0.198 A 
ATOM     80  C   UNL A   1      38.549  34.021  38.835  1.00  0.00     0.198 A 
ATOM     81  F   UNL A   1      38.097  31.999  37.713  1.00  0.00    -0.203 F 
ATOM     82  F   UNL A   1      40.646  36.821  37.892  1.00  0.00    -0.200 F 
ATOM     83  C   UNL A   1      39.192  35.248  38.887  1.00  0.00     0.200 A 
ATOM     84  F   UNL A   1      37.751  33.640  39.842  1.00  0.00    -0.200 F 
ATOM     85  F   UNL A   1      39.030  36.047  39.951  1.00  0.00    -0.200 F 
ENDBRANCH  51  75
BRANCH  63  86
ATOM     86  C   UNL A   1      44.064  28.548  34.919  1.00  0.00     0.064 A 
ATOM     87  C   UNL A   1      45.334  29.140  34.879  1.00  0.00     0.173 A 
ATOM     88  C   UNL A   1      43.887  27.416  35.727  1.00  0.00     0.173 A 
ATOM     89  F   UNL A   1      45.553  30.217  34.109  1.00  0.00    -0.203 F 
ATOM     90  C   UNL A   1      46.388  28.616  35.621  1.00  0.00     0.198 A 
ATOM     91  C   UNL A   1      44.937  26.911  36.489  1.00  0.00     0.198 A 
ATOM     92  F   UNL A   1      42.688  26.820  35.805  1.00  0.00    -0.203 F 
ATOM     93  F   UNL A   1      47.601  29.183  35.551  1.00  0.00    -0.200 F 
ATOM     94  C   UNL A   1      46.187  27.511  36.435  1.00  0.00     0.200 A 
ATOM     95  F   UNL A   1      44.736  25.853  37.287  1.00  0.00    -0.200 F 
ATOM     96  F   UNL A   1      47.197  27.022  37.166  1.00  0.00    -0.200 F 
ENDBRANCH  63  86
ENDBRANCH  37  38
ENDBRANCH  29  32
ENDBRANCH  27  28
ENDBRANCH   1  27
TORSDOF 13
ENDMDL
MODEL 3
REMARK VINA RESULT:     -12.3      3.050      8.328
REMARK SMILES Cc1cc(OC(F)(F)F)cc2c1O[C@H](C(F)(F)F)C(C(=O)NCCCNC(=O)c1ccc(-c3c4nc(c(-c5c(F)c(F)c(F)c(F)c5F)c5ccc([nH]5)c(-c5c(F)c(F)c(F)c(F)c5F)c5nc(c(-c6c(F)c(F)c(F)c(F)c6F)c6ccc3[nH]6)C=C5)C=C4)cc1)=C2
REMARK SMILES IDX 24 1 23 2 22 3 20 4 21 5 19 7 1 8 2 9 3 10 12 11 4 12 11 13
REMARK SMILES IDX 13 14 10 15 92 16 14 17 5 18 6 19 7 20 8 21 9 22 15 23 16 24
REMARK SMILES IDX 17 25 18 26 25 27 26 28 27 29 28 31 29 32 30 33 91 34 31 35
REMARK SMILES IDX 90 36 32 37 33 38 34 39 84 40 35 41 89 42 83 43 85 44 36 45
REMARK SMILES IDX 88 46 82 47 81 48 37 50 69 51 49 52 68 53 50 54 53 55 67 56
REMARK SMILES IDX 86 57 51 58 52 59 66 61 87 62 54 63 38 64 39 65 47 66 40 67
REMARK SMILES IDX 41 68 45 69 48 70 42 71 43 72 46 73 44 74 70 75 71 76 79 77
REMARK SMILES IDX 72 78 73 79 77 80 80 81 74 82 75 83 78 84 76 85 55 86 56 87
REMARK SMILES IDX 64 88 57 89 58 90 62 91 65 92 59 93 60 94 63 95 61 96
REMARK H PARENT 22 6 26 30 85 49 53 60
REMARK Flexibility Score: inf
ROOT
ATOM      1  C   UNL A   1      37.873  19.575  24.983  1.00  0.00     0.042 C 
ENDROOT
BRANCH   1   2
ATOM      2  C   UNL A   1      36.803  20.611  24.667  1.00  0.00     0.118 C 
BRANCH   2   3
ATOM      3  N   UNL A   1      35.871  20.775  25.771  1.00  0.00    -0.352 N 
ATOM      4  C   UNL A   1      34.887  21.635  26.122  1.00  0.00     0.251 C 
ATOM      5  O   UNL A   1      34.347  21.398  27.208  1.00  0.00    -0.270 OA
ATOM      6  H   UNL A   1      35.986  20.068  26.446  1.00  0.00     0.163 HD
BRANCH   4   7
ATOM      7  C   UNL A   1      34.436  22.802  25.310  1.00  0.00     0.067 C 
ATOM      8  C   UNL A   1      33.152  26.092  21.595  1.00  0.00     0.048 C 
ATOM      9  C   UNL A   1      33.361  26.189  23.080  1.00  0.00    -0.005 A 
ATOM     10  C   UNL A   1      33.155  27.408  23.742  1.00  0.00     0.054 A 
ATOM     11  C   UNL A   1      33.795  25.083  23.818  1.00  0.00     0.131 A 
ATOM     12  C   UNL A   1      33.366  27.516  25.120  1.00  0.00     0.130 A 
ATOM     13  C   UNL A   1      34.003  25.173  25.197  1.00  0.00     0.021 A 
ATOM     14  O   UNL A   1      34.050  23.929  23.131  1.00  0.00    -0.475 OA
ATOM     15  C   UNL A   1      33.786  26.393  25.841  1.00  0.00     0.058 A 
ATOM     16  C   UNL A   1      34.467  23.999  25.927  1.00  0.00     0.025 C 
ATOM     17  C   UNL A   1      33.935  22.703  23.899  1.00  0.00     0.314 C 
BRANCH  12  18
ATOM     18  O   UNL A   1      33.204  28.644  25.876  1.00  0.00    -0.406 OA
BRANCH  18  19
ATOM     19  C   UNL A   1      31.879  29.060  26.162  1.00  0.00     0.573 C 
ATOM     20  F   UNL A   1      31.824  29.750  27.321  1.00  0.00    -0.132 F 
ATOM     21  F   UNL A   1      31.381  29.818  25.163  1.00  0.00    -0.132 F 
ATOM     22  F   UNL A   1      31.098  27.965  26.288  1.00  0.00    -0.132 F 
ENDBRANCH  18  19
ENDBRANCH  12  18
BRANCH  17  23
ATOM     23  C   UNL A   1      32.490  22.175  23.811  1.00  0.00     0.429 C 
ATOM     24  F   UNL A   1      32.487  20.817  23.786  1.00  0.00    -0.167 F 
ATOM     25  F   UNL A   1      31.738  22.538  24.877  1.00  0.00    -0.167 F 
ATOM     26  F   UNL A   1      31.838  22.602  22.707  1.00  0.00    -0.167 F 
ENDBRANCH  17  23
ENDBRANCH   4   7
ENDBRANCH   2   3
ENDBRANCH   1   2
BRANCH   1  27
ATOM     27  C   UNL A   1      39.027  20.179  25.774  1.00  0.00     0.118 C 
BRANCH  27  28
ATOM     28  N   UNL A   1      40.107  19.214  25.961  1.00  0.00    -0.352 N 
ATOM     29  C   UNL A   1      41.454  19.429  26.096  1.00  0.00     0.251 C 
ATOM     30  H   UNL A   1      39.828  18.271  25.994  1.00  0.00     0.163 HD
ATOM     31  O   UNL A   1      42.250  18.504  25.943  1.00  0.00    -0.269 OA
BRANCH  29  32
ATOM     32  C   UNL A   1      41.947  20.776  26.431  1.00  0.00     0.039 A 
ATOM     33  C   UNL A   1      42.231  21.097  27.762  1.00  0.00     0.014 A 
ATOM     34  C   UNL A   1      42.095  21.732  25.424  1.00  0.00     0.014 A 
ATOM     35  C   UNL A   1      42.719  22.366  28.072  1.00  0.00     0.010 A 
ATOM     36  C   UNL A   1      42.653  22.968  25.721  1.00  0.00     0.010 A 
ATOM     37  C   UNL A   1      42.951  23.301  27.049  1.00  0.00    -0.014 A 
BRANCH  37  38
ATOM     38  C   UNL A   1      43.450  24.661  27.348  1.00  0.00     0.031 A 
ATOM     39  C   UNL A   1      42.502  25.686  27.902  1.00  0.00     0.074 A 
ATOM     40  C   UNL A   1      44.724  24.985  27.064  1.00  0.00     0.049 A 
ATOM     41  N   UNL A   1      42.713  26.948  28.169  1.00  0.00    -0.248 NA
ATOM     42  C   UNL A   1      41.123  25.239  28.164  1.00  0.00     0.031 C 
ATOM     43  C   UNL A   1      45.717  24.078  26.486  1.00  0.00     0.029 A 
ATOM     44  N   UNL A   1      45.399  26.169  27.213  1.00  0.00    -0.354 N 
ATOM     45  C   UNL A   1      41.499  27.442  28.626  1.00  0.00     0.074 A 
ATOM     46  C   UNL A   1      40.538  26.365  28.539  1.00  0.00     0.031 C 
ATOM     47  C   UNL A   1      46.881  24.733  26.350  1.00  0.00     0.029 A 
ATOM     48  C   UNL A   1      46.708  26.111  26.803  1.00  0.00     0.049 A 
ATOM     49  H   UNL A   1      44.984  26.983  27.579  1.00  0.00     0.167 HD
ATOM     50  C   UNL A   1      41.221  28.674  29.108  1.00  0.00     0.037 A 
ATOM     51  C   UNL A   1      47.657  27.066  26.797  1.00  0.00     0.037 A 
ATOM     52  C   UNL A   1      42.191  29.730  29.217  1.00  0.00     0.049 A 
ATOM     53  C   UNL A   1      47.316  28.437  27.317  1.00  0.00     0.074 A 
ATOM     54  C   UNL A   1      42.027  30.999  29.742  1.00  0.00     0.029 A 
ATOM     55  N   UNL A   1      43.508  29.634  28.793  1.00  0.00    -0.354 N 
ATOM     56  N   UNL A   1      46.183  28.876  27.807  1.00  0.00    -0.248 NA
ATOM     57  C   UNL A   1      48.387  29.444  27.287  1.00  0.00     0.031 C 
ATOM     58  C   UNL A   1      43.236  31.686  29.599  1.00  0.00     0.029 A 
ATOM     59  C   UNL A   1      44.165  30.831  29.025  1.00  0.00     0.049 A 
ATOM     60  H   UNL A   1      43.916  28.835  28.387  1.00  0.00     0.167 HD
ATOM     61  C   UNL A   1      46.407  30.198  28.165  1.00  0.00     0.074 A 
ATOM     62  C   UNL A   1      47.791  30.487  27.846  1.00  0.00     0.031 C 
ATOM     63  C   UNL A   1      45.545  31.092  28.707  1.00  0.00     0.037 A 
BRANCH  50  64
ATOM     64  C   UNL A   1      39.822  28.940  29.576  1.00  0.00     0.064 A 
ATOM     65  C   UNL A   1      38.841  29.426  28.699  1.00  0.00     0.173 A 
ATOM     66  C   UNL A   1      39.443  28.661  30.896  1.00  0.00     0.173 A 
ATOM     67  F   UNL A   1      39.157  29.722  27.429  1.00  0.00    -0.203 F 
ATOM     68  C   UNL A   1      37.536  29.643  29.132  1.00  0.00     0.198 A 
ATOM     69  C   UNL A   1      38.130  28.852  31.320  1.00  0.00     0.198 A 
ATOM     70  F   UNL A   1      40.343  28.192  31.775  1.00  0.00    -0.203 F 
ATOM     71  F   UNL A   1      36.626  30.146  28.287  1.00  0.00    -0.200 F 
ATOM     72  C   UNL A   1      37.179  29.347  30.440  1.00  0.00     0.200 A 
ATOM     73  F   UNL A   1      37.784  28.556  32.581  1.00  0.00    -0.200 F 
ATOM     74  F   UNL A   1      35.920  29.543  30.852  1.00  0.00    -0.200 F 
ENDBRANCH  50  64
BRANCH  51  75
ATOM     75  C   UNL A   1      49.027  26.743  26.322  1.00  0.00     0.064 A 
ATOM     76  C   UNL A   1      49.391  26.967  24.987  1.00  0.00     0.173 A 
ATOM     77  C   UNL A   1      50.002  26.231  27.188  1.00  0.00     0.173 A 
ATOM     78  F   UNL A   1      48.487  27.439  24.117  1.00  0.00    -0.203 F 
ATOM     79  C   UNL A   1      50.677  26.680  24.533  1.00  0.00     0.198 A 
ATOM     80  C   UNL A   1      51.296  25.967  26.739  1.00  0.00     0.198 A 
ATOM     81  F   UNL A   1      49.706  26.005  28.476  1.00  0.00    -0.203 F 
ATOM     82  F   UNL A   1      50.989  26.874  23.245  1.00  0.00    -0.200 F 
ATOM     83  C   UNL A   1      51.629  26.187  25.411  1.00  0.00     0.200 A 
ATOM     84  F   UNL A   1      52.218  25.504  27.593  1.00  0.00    -0.200 F 
ATOM     85  F   UNL A   1      52.869  25.920  24.977  1.00  0.00    -0.200 F 
ENDBRANCH  51  75
BRANCH  63  86
ATOM     86  C   UNL A   1      46.065  32.465  29.009  1.00  0.00     0.064 A 
ATOM     87  C   UNL A   1      46.707  32.750  30.221  1.00  0.00     0.173 A 
ATOM     88  C   UNL A   1      46.007  33.476  28.037  1.00  0.00     0.173 A 
ATOM     89  F   UNL A   1      46.776  31.819  31.185  1.00  0.00    -0.203 F 
ATOM     90  C   UNL A   1      47.271  34.002  30.452  1.00  0.00     0.198 A 
ATOM     91  C   UNL A   1      46.595  34.717  28.262  1.00  0.00     0.198 A 
ATOM     92  F   UNL A   1      45.411  33.247  26.858  1.00  0.00    -0.203 F 
ATOM     93  F   UNL A   1      47.860  34.261  31.628  1.00  0.00    -0.200 F 
ATOM     94  C   UNL A   1      47.226  34.979  29.469  1.00  0.00     0.200 A 
ATOM     95  F   UNL A   1      46.565  35.654  27.305  1.00  0.00    -0.200 F 
ATOM     96  F   UNL A   1      47.789  36.175  29.685  1.00  0.00    -0.200 F 
ENDBRANCH  63  86
ENDBRANCH  37  38
ENDBRANCH  29  32
ENDBRANCH  27  28
ENDBRANCH   1  27
TORSDOF 13
ENDMDL
