MODEL 1
REMARK VINA RESULT:     -11.8      0.000      0.000
REMARK SMILES CC(C)Cc1ccc([C@H](CF)C(=O)NCCCNC(=O)c2ccc(-c3c4nc(c(-c5c(F)c(F)c(F)c(F)c5F)c5ccc([nH]5)c(-c5c(F)c(F)c(F)c(F)c5F)c5nc(c(-c6c(F)c(F)c(F)c(F)c6F)c6ccc3[nH]6)C=C5)C=C4)cc2)cc1
REMARK SMILES IDX 15 1 14 2 12 3 13 4 9 6 8 7 5 8 6 9 85 10 7 11 84 12 4 13
REMARK SMILES IDX 2 14 1 15 3 16 10 17 11 18 16 19 17 20 18 21 19 22 20 24
REMARK SMILES IDX 21 25 22 26 83 27 23 28 82 29 24 30 25 31 26 32 76 33 27 34
REMARK SMILES IDX 81 35 75 36 77 37 28 38 80 39 74 40 73 41 29 43 61 44 41 45
REMARK SMILES IDX 60 46 42 47 45 48 59 49 78 50 43 51 44 52 58 54 79 55 46 56
REMARK SMILES IDX 30 57 31 58 39 59 32 60 33 61 37 62 40 63 34 64 35 65 38 66
REMARK SMILES IDX 36 67 62 68 63 69 71 70 64 71 65 72 69 73 72 74 66 75 67 76
REMARK SMILES IDX 70 77 68 78 47 79 48 80 56 81 49 82 50 83 54 84 57 85 51 86
REMARK SMILES IDX 52 87 55 88 53 89
REMARK H PARENT 14 5 18 23 77 42 45 53
REMARK Flexibility Score: inf
ROOT
ATOM      1  C   UNL A   1      32.355  27.781  27.064  1.00  0.00     0.117 C 
ENDROOT
BRANCH   1   2
ATOM      2  N   UNL A   1      31.296  26.788  27.080  1.00  0.00    -0.355 N 
ATOM      3  C   UNL A   1      30.869  25.915  26.123  1.00  0.00     0.230 C 
ATOM      4  O   UNL A   1      30.035  25.074  26.478  1.00  0.00    -0.274 OA
ATOM      5  H   UNL A   1      30.802  26.734  27.929  1.00  0.00     0.163 HD
BRANCH   3   6
ATOM      6  C   UNL A   1      31.376  25.943  24.677  1.00  0.00     0.139 C 
BRANCH   6   7
ATOM      7  C   UNL A   1      30.702  27.024  23.839  1.00  0.00    -0.033 A 
ATOM      8  C   UNL A   1      29.539  29.256  22.559  1.00  0.00    -0.048 A 
ATOM      9  C   UNL A   1      28.735  28.233  23.068  1.00  0.00     0.004 A 
ATOM     10  C   UNL A   1      30.929  29.117  22.618  1.00  0.00     0.004 A 
ATOM     11  C   UNL A   1      29.310  27.116  23.678  1.00  0.00     0.005 A 
ATOM     12  C   UNL A   1      31.504  28.019  23.257  1.00  0.00     0.005 A 
BRANCH   8  13
ATOM     13  C   UNL A   1      28.916  30.522  22.023  1.00  0.00     0.038 C 
BRANCH  13  14
ATOM     14  C   UNL A   1      28.715  31.597  23.114  1.00  0.00    -0.013 C 
ATOM     15  C   UNL A   1      28.870  33.020  22.570  1.00  0.00     0.008 C 
ATOM     16  C   UNL A   1      27.332  31.442  23.751  1.00  0.00     0.008 C 
ENDBRANCH  13  14
ENDBRANCH   8  13
ENDBRANCH   6   7
BRANCH   6  17
ATOM     17  C   UNL A   1      31.368  24.531  24.102  1.00  0.00     0.232 C 
ATOM     18  F   UNL A   1      31.086  24.573  22.771  1.00  0.00    -0.250 F 
ENDBRANCH   6  17
ENDBRANCH   3   6
ENDBRANCH   1   2
BRANCH   1  19
ATOM     19  C   UNL A   1      31.836  29.189  26.814  1.00  0.00     0.042 C 
BRANCH  19  20
ATOM     20  C   UNL A   1      32.867  30.115  26.187  1.00  0.00     0.118 C 
BRANCH  20  21
ATOM     21  N   UNL A   1      32.640  31.516  26.521  1.00  0.00    -0.352 N 
ATOM     22  C   UNL A   1      33.326  32.348  27.372  1.00  0.00     0.251 C 
ATOM     23  H   UNL A   1      31.875  31.932  26.062  1.00  0.00     0.163 HD
ATOM     24  O   UNL A   1      32.863  33.446  27.666  1.00  0.00    -0.269 OA
BRANCH  22  25
ATOM     25  C   UNL A   1      34.611  31.913  27.958  1.00  0.00     0.039 A 
ATOM     26  C   UNL A   1      35.682  32.811  27.998  1.00  0.00     0.014 A 
ATOM     27  C   UNL A   1      34.761  30.621  28.465  1.00  0.00     0.014 A 
ATOM     28  C   UNL A   1      36.873  32.442  28.629  1.00  0.00     0.010 A 
ATOM     29  C   UNL A   1      35.910  30.287  29.170  1.00  0.00     0.010 A 
ATOM     30  C   UNL A   1      36.978  31.193  29.261  1.00  0.00    -0.014 A 
BRANCH  30  31
ATOM     31  C   UNL A   1      38.187  30.791  30.024  1.00  0.00     0.031 A 
ATOM     32  C   UNL A   1      39.145  29.800  29.424  1.00  0.00     0.074 A 
ATOM     33  C   UNL A   1      38.360  31.223  31.287  1.00  0.00     0.049 A 
ATOM     34  N   UNL A   1      40.149  29.173  29.982  1.00  0.00    -0.248 NA
ATOM     35  C   UNL A   1      38.920  29.439  28.015  1.00  0.00     0.031 C 
ATOM     36  C   UNL A   1      37.485  32.162  31.989  1.00  0.00     0.029 A 
ATOM     37  N   UNL A   1      39.319  30.905  32.218  1.00  0.00    -0.354 N 
ATOM     38  C   UNL A   1      40.653  28.327  29.005  1.00  0.00     0.074 A 
ATOM     39  C   UNL A   1      39.818  28.484  27.834  1.00  0.00     0.031 C 
ATOM     40  C   UNL A   1      37.949  32.349  33.236  1.00  0.00     0.029 A 
ATOM     41  C   UNL A   1      39.122  31.505  33.438  1.00  0.00     0.049 A 
ATOM     42  H   UNL A   1      40.075  30.304  32.028  1.00  0.00     0.167 HD
ATOM     43  C   UNL A   1      41.728  27.505  29.073  1.00  0.00     0.037 A 
ATOM     44  C   UNL A   1      39.795  31.367  34.597  1.00  0.00     0.037 A 
ATOM     45  C   UNL A   1      42.571  27.378  30.232  1.00  0.00     0.049 A 
ATOM     46  C   UNL A   1      40.974  30.432  34.655  1.00  0.00     0.074 A 
ATOM     47  C   UNL A   1      43.717  26.619  30.384  1.00  0.00     0.029 A 
ATOM     48  N   UNL A   1      42.356  28.027  31.439  1.00  0.00    -0.354 N 
ATOM     49  N   UNL A   1      41.475  29.675  33.709  1.00  0.00    -0.248 NA
ATOM     50  C   UNL A   1      41.680  30.329  35.940  1.00  0.00     0.031 C 
ATOM     51  C   UNL A   1      44.168  26.770  31.699  1.00  0.00     0.029 A 
ATOM     52  C   UNL A   1      43.337  27.669  32.348  1.00  0.00     0.049 A 
ATOM     53  H   UNL A   1      41.616  28.651  31.622  1.00  0.00     0.167 HD
ATOM     54  C   UNL A   1      42.575  29.040  34.270  1.00  0.00     0.074 A 
ATOM     55  C   UNL A   1      42.669  29.498  35.640  1.00  0.00     0.031 C 
ATOM     56  C   UNL A   1      43.431  28.159  33.700  1.00  0.00     0.037 A 
BRANCH  43  57
ATOM     57  C   UNL A   1      42.052  26.678  27.863  1.00  0.00     0.064 A 
ATOM     58  C   UNL A   1      42.929  27.137  26.869  1.00  0.00     0.173 A 
ATOM     59  C   UNL A   1      41.508  25.393  27.715  1.00  0.00     0.173 A 
ATOM     60  F   UNL A   1      43.469  28.362  26.958  1.00  0.00    -0.203 F 
ATOM     61  C   UNL A   1      43.225  26.354  25.756  1.00  0.00     0.198 A 
ATOM     62  C   UNL A   1      41.833  24.599  26.617  1.00  0.00     0.198 A 
ATOM     63  F   UNL A   1      40.669  24.901  28.639  1.00  0.00    -0.203 F 
ATOM     64  F   UNL A   1      44.025  26.835  24.795  1.00  0.00    -0.200 F 
ATOM     65  C   UNL A   1      42.684  25.084  25.636  1.00  0.00     0.200 A 
ATOM     66  F   UNL A   1      41.320  23.365  26.510  1.00  0.00    -0.200 F 
ATOM     67  F   UNL A   1      42.977  24.328  24.568  1.00  0.00    -0.200 F 
ENDBRANCH  43  57
BRANCH  44  68
ATOM     68  C   UNL A   1      39.377  32.142  35.796  1.00  0.00     0.064 A 
ATOM     69  C   UNL A   1      38.414  31.633  36.679  1.00  0.00     0.173 A 
ATOM     70  C   UNL A   1      39.924  33.401  36.083  1.00  0.00     0.173 A 
ATOM     71  F   UNL A   1      37.847  30.442  36.438  1.00  0.00    -0.203 F 
ATOM     72  C   UNL A   1      38.000  32.363  37.791  1.00  0.00     0.198 A 
ATOM     73  C   UNL A   1      39.531  34.117  37.212  1.00  0.00     0.198 A 
ATOM     74  F   UNL A   1      40.854  33.930  35.274  1.00  0.00    -0.203 F 
ATOM     75  F   UNL A   1      37.045  31.873  38.593  1.00  0.00    -0.200 F 
ATOM     76  C   UNL A   1      38.563  33.602  38.061  1.00  0.00     0.200 A 
ATOM     77  F   UNL A   1      40.089  35.305  37.478  1.00  0.00    -0.200 F 
ATOM     78  F   UNL A   1      38.168  34.301  39.133  1.00  0.00    -0.200 F 
ENDBRANCH  44  68
BRANCH  56  79
ATOM     79  C   UNL A   1      44.586  27.672  34.525  1.00  0.00     0.064 A 
ATOM     80  C   UNL A   1      45.795  28.376  34.593  1.00  0.00     0.173 A 
ATOM     81  C   UNL A   1      44.443  26.528  35.325  1.00  0.00     0.173 A 
ATOM     82  F   UNL A   1      45.986  29.468  33.834  1.00  0.00    -0.203 F 
ATOM     83  C   UNL A   1      46.824  27.949  35.428  1.00  0.00     0.198 A 
ATOM     84  C   UNL A   1      45.463  26.120  36.180  1.00  0.00     0.198 A 
ATOM     85  F   UNL A   1      43.303  25.823  35.299  1.00  0.00    -0.203 F 
ATOM     86  F   UNL A   1      47.984  28.620  35.456  1.00  0.00    -0.200 F 
ATOM     87  C   UNL A   1      46.653  26.829  36.229  1.00  0.00     0.200 A 
ATOM     88  F   UNL A   1      45.288  25.047  36.965  1.00  0.00    -0.200 F 
ATOM     89  F   UNL A   1      47.637  26.433  37.049  1.00  0.00    -0.200 F 
ENDBRANCH  56  79
ENDBRANCH  30  31
ENDBRANCH  22  25
ENDBRANCH  20  21
ENDBRANCH  19  20
ENDBRANCH   1  19
TORSDOF 14
ENDMDL
MODEL 2
REMARK VINA RESULT:     -11.7      0.729      2.130
REMARK SMILES CC(C)Cc1ccc([C@H](CF)C(=O)NCCCNC(=O)c2ccc(-c3c4nc(c(-c5c(F)c(F)c(F)c(F)c5F)c5ccc([nH]5)c(-c5c(F)c(F)c(F)c(F)c5F)c5nc(c(-c6c(F)c(F)c(F)c(F)c6F)c6ccc3[nH]6)C=C5)C=C4)cc2)cc1
REMARK SMILES IDX 15 1 14 2 12 3 13 4 9 6 8 7 5 8 6 9 85 10 7 11 84 12 4 13
REMARK SMILES IDX 2 14 1 15 3 16 10 17 11 18 16 19 17 20 18 21 19 22 20 24
REMARK SMILES IDX 21 25 22 26 83 27 23 28 82 29 24 30 25 31 26 32 76 33 27 34
REMARK SMILES IDX 81 35 75 36 77 37 28 38 80 39 74 40 73 41 29 43 61 44 41 45
REMARK SMILES IDX 60 46 42 47 45 48 59 49 78 50 43 51 44 52 58 54 79 55 46 56
REMARK SMILES IDX 30 57 31 58 39 59 32 60 33 61 37 62 40 63 34 64 35 65 38 66
REMARK SMILES IDX 36 67 62 68 63 69 71 70 64 71 65 72 69 73 72 74 66 75 67 76
REMARK SMILES IDX 70 77 68 78 47 79 48 80 56 81 49 82 50 83 54 84 57 85 51 86
REMARK SMILES IDX 52 87 55 88 53 89
REMARK H PARENT 14 5 18 23 77 42 45 53
REMARK Flexibility Score: inf
ROOT
ATOM      1  C   UNL A   1      31.415  27.931  26.600  1.00  0.00     0.117 C 
ENDROOT
BRANCH   1   2
ATOM      2  N   UNL A   1      30.775  26.657  26.874  1.00  0.00    -0.355 N 
ATOM      3  C   UNL A   1      30.605  25.552  26.094  1.00  0.00     0.230 C 
ATOM      4  O   UNL A   1      30.148  24.548  26.653  1.00  0.00    -0.274 OA
ATOM      5  H   UNL A   1      30.398  26.578  27.779  1.00  0.00     0.163 HD
BRANCH   3   6
ATOM      6  C   UNL A   1      30.956  25.516  24.603  1.00  0.00     0.139 C 
BRANCH   6   7
ATOM      7  C   UNL A   1      30.226  26.588  23.802  1.00  0.00    -0.033 A 
ATOM      8  C   UNL A   1      29.022  28.815  22.550  1.00  0.00    -0.048 A 
ATOM      9  C   UNL A   1      28.248  27.908  23.278  1.00  0.00     0.004 A 
ATOM     10  C   UNL A   1      30.386  28.559  22.381  1.00  0.00     0.004 A 
ATOM     11  C   UNL A   1      28.838  26.792  23.875  1.00  0.00     0.005 A 
ATOM     12  C   UNL A   1      30.983  27.464  23.006  1.00  0.00     0.005 A 
BRANCH   8  13
ATOM     13  C   UNL A   1      28.409  30.090  22.021  1.00  0.00     0.038 C 
BRANCH  13  14
ATOM     14  C   UNL A   1      28.540  31.270  23.009  1.00  0.00    -0.013 C 
ATOM     15  C   UNL A   1      28.775  32.606  22.295  1.00  0.00     0.008 C 
ATOM     16  C   UNL A   1      27.284  31.368  23.876  1.00  0.00     0.008 C 
ENDBRANCH  13  14
ENDBRANCH   8  13
ENDBRANCH   6   7
BRANCH   6  17
ATOM     17  C   UNL A   1      30.850  24.087  24.083  1.00  0.00     0.232 C 
ATOM     18  F   UNL A   1      30.326  24.087  22.827  1.00  0.00    -0.250 F 
ENDBRANCH   6  17
ENDBRANCH   3   6
ENDBRANCH   1   2
BRANCH   1  19
ATOM     19  C   UNL A   1      32.909  27.796  26.351  1.00  0.00     0.042 C 
BRANCH  19  20
ATOM     20  C   UNL A   1      33.502  28.954  25.563  1.00  0.00     0.118 C 
BRANCH  20  21
ATOM     21  N   UNL A   1      33.025  30.252  26.026  1.00  0.00    -0.352 N 
ATOM     22  C   UNL A   1      33.515  31.078  27.008  1.00  0.00     0.251 C 
ATOM     23  H   UNL A   1      32.225  30.589  25.562  1.00  0.00     0.163 HD
ATOM     24  O   UNL A   1      32.859  32.046  27.382  1.00  0.00    -0.269 OA
BRANCH  22  25
ATOM     25  C   UNL A   1      34.823  30.793  27.633  1.00  0.00     0.039 A 
ATOM     26  C   UNL A   1      35.787  31.804  27.694  1.00  0.00     0.014 A 
ATOM     27  C   UNL A   1      35.100  29.529  28.157  1.00  0.00     0.014 A 
ATOM     28  C   UNL A   1      36.992  31.573  28.361  1.00  0.00     0.010 A 
ATOM     29  C   UNL A   1      36.258  29.329  28.897  1.00  0.00     0.010 A 
ATOM     30  C   UNL A   1      37.216  30.348  29.009  1.00  0.00    -0.014 A 
BRANCH  30  31
ATOM     31  C   UNL A   1      38.440  30.087  29.809  1.00  0.00     0.031 A 
ATOM     32  C   UNL A   1      39.471  29.124  29.291  1.00  0.00     0.074 A 
ATOM     33  C   UNL A   1      38.566  30.620  31.039  1.00  0.00     0.049 A 
ATOM     34  N   UNL A   1      40.509  28.610  29.903  1.00  0.00    -0.248 NA
ATOM     35  C   UNL A   1      39.290  28.646  27.911  1.00  0.00     0.031 C 
ATOM     36  C   UNL A   1      37.619  31.545  31.662  1.00  0.00     0.029 A 
ATOM     37  N   UNL A   1      39.532  30.438  31.998  1.00  0.00    -0.354 N 
ATOM     38  C   UNL A   1      41.083  27.732  28.994  1.00  0.00     0.074 A 
ATOM     39  C   UNL A   1      40.254  27.745  27.808  1.00  0.00     0.031 C 
ATOM     40  C   UNL A   1      38.053  31.855  32.896  1.00  0.00     0.029 A 
ATOM     41  C   UNL A   1      39.278  31.110  33.169  1.00  0.00     0.049 A 
ATOM     42  H   UNL A   1      40.330  29.879  31.859  1.00  0.00     0.167 HD
ATOM     43  C   UNL A   1      42.210  26.994  29.131  1.00  0.00     0.037 A 
ATOM     44  C   UNL A   1      39.944  31.104  34.341  1.00  0.00     0.037 A 
ATOM     45  C   UNL A   1      43.044  27.010  30.304  1.00  0.00     0.049 A 
ATOM     46  C   UNL A   1      41.183  30.260  34.477  1.00  0.00     0.074 A 
ATOM     47  C   UNL A   1      44.237  26.345  30.520  1.00  0.00     0.029 A 
ATOM     48  N   UNL A   1      42.769  27.729  31.457  1.00  0.00    -0.354 N 
ATOM     49  N   UNL A   1      41.747  29.472  33.594  1.00  0.00    -0.248 NA
ATOM     50  C   UNL A   1      41.877  30.300  35.772  1.00  0.00     0.031 C 
ATOM     51  C   UNL A   1      44.660  26.622  31.824  1.00  0.00     0.029 A 
ATOM     52  C   UNL A   1      43.760  27.507  32.398  1.00  0.00     0.049 A 
ATOM     53  H   UNL A   1      41.986  28.311  31.588  1.00  0.00     0.167 HD
ATOM     54  C   UNL A   1      42.880  28.958  34.209  1.00  0.00     0.074 A 
ATOM     55  C   UNL A   1      42.925  29.520  35.541  1.00  0.00     0.031 C 
ATOM     56  C   UNL A   1      43.803  28.099  33.711  1.00  0.00     0.037 A 
BRANCH  43  57
ATOM     57  C   UNL A   1      42.606  26.106  27.988  1.00  0.00     0.064 A 
ATOM     58  C   UNL A   1      42.063  24.822  27.830  1.00  0.00     0.173 A 
ATOM     59  C   UNL A   1      43.511  26.559  27.016  1.00  0.00     0.173 A 
ATOM     60  F   UNL A   1      41.200  24.337  28.736  1.00  0.00    -0.203 F 
ATOM     61  C   UNL A   1      42.434  24.013  26.758  1.00  0.00     0.198 A 
ATOM     62  C   UNL A   1      43.855  25.760  25.928  1.00  0.00     0.198 A 
ATOM     63  F   UNL A   1      44.055  27.781  27.115  1.00  0.00    -0.203 F 
ATOM     64  F   UNL A   1      41.942  22.771  26.657  1.00  0.00    -0.200 F 
ATOM     65  C   UNL A   1      43.323  24.486  25.805  1.00  0.00     0.200 A 
ATOM     66  F   UNL A   1      44.703  26.224  24.999  1.00  0.00    -0.200 F 
ATOM     67  F   UNL A   1      43.673  23.709  24.770  1.00  0.00    -0.200 F 
ENDBRANCH  43  57
BRANCH  44  68
ATOM     68  C   UNL A   1      39.458  31.933  35.476  1.00  0.00     0.064 A 
ATOM     69  C   UNL A   1      39.900  33.254  35.639  1.00  0.00     0.173 A 
ATOM     70  C   UNL A   1      38.552  31.428  36.419  1.00  0.00     0.173 A 
ATOM     71  F   UNL A   1      40.782  33.777  34.776  1.00  0.00    -0.203 F 
ATOM     72  C   UNL A   1      39.468  34.030  36.713  1.00  0.00     0.198 A 
ATOM     73  C   UNL A   1      38.097  32.215  37.476  1.00  0.00     0.198 A 
ATOM     74  F   UNL A   1      38.093  30.173  36.305  1.00  0.00    -0.203 F 
ATOM     75  F   UNL A   1      39.941  35.274  36.871  1.00  0.00    -0.200 F 
ATOM     76  C   UNL A   1      38.563  33.512  37.627  1.00  0.00     0.200 A 
ATOM     77  F   UNL A   1      37.210  31.717  38.347  1.00  0.00    -0.200 F 
ATOM     78  F   UNL A   1      38.144  34.260  38.657  1.00  0.00    -0.200 F 
ENDBRANCH  44  68
BRANCH  56  79
ATOM     79  C   UNL A   1      44.978  27.755  34.579  1.00  0.00     0.064 A 
ATOM     80  C   UNL A   1      44.997  26.601  35.374  1.00  0.00     0.173 A 
ATOM     81  C   UNL A   1      46.134  28.551  34.543  1.00  0.00     0.173 A 
ATOM     82  F   UNL A   1      43.911  25.817  35.453  1.00  0.00    -0.203 F 
ATOM     83  C   UNL A   1      46.130  26.260  36.108  1.00  0.00     0.198 A 
ATOM     84  C   UNL A   1      47.273  28.191  35.256  1.00  0.00     0.198 A 
ATOM     85  F   UNL A   1      46.166  29.662  33.793  1.00  0.00    -0.203 F 
ATOM     86  F   UNL A   1      46.118  25.168  36.885  1.00  0.00    -0.200 F 
ATOM     87  C   UNL A   1      47.270  27.048  36.039  1.00  0.00     0.200 A 
ATOM     88  F   UNL A   1      48.378  28.945  35.175  1.00  0.00    -0.200 F 
ATOM     89  F   UNL A   1      48.366  26.704  36.730  1.00  0.00    -0.200 F 
ENDBRANCH  56  79
ENDBRANCH  30  31
ENDBRANCH  22  25
ENDBRANCH  20  21
ENDBRANCH  19  20
ENDBRANCH   1  19
TORSDOF 14
ENDMDL
MODEL 3
REMARK VINA RESULT:     -11.6      2.046      3.635
REMARK SMILES CC(C)Cc1ccc([C@H](CF)C(=O)NCCCNC(=O)c2ccc(-c3c4nc(c(-c5c(F)c(F)c(F)c(F)c5F)c5ccc([nH]5)c(-c5c(F)c(F)c(F)c(F)c5F)c5nc(c(-c6c(F)c(F)c(F)c(F)c6F)c6ccc3[nH]6)C=C5)C=C4)cc2)cc1
REMARK SMILES IDX 15 1 14 2 12 3 13 4 9 6 8 7 5 8 6 9 85 10 7 11 84 12 4 13
REMARK SMILES IDX 2 14 1 15 3 16 10 17 11 18 16 19 17 20 18 21 19 22 20 24
REMARK SMILES IDX 21 25 22 26 83 27 23 28 82 29 24 30 25 31 26 32 76 33 27 34
REMARK SMILES IDX 81 35 75 36 77 37 28 38 80 39 74 40 73 41 29 43 61 44 41 45
REMARK SMILES IDX 60 46 42 47 45 48 59 49 78 50 43 51 44 52 58 54 79 55 46 56
REMARK SMILES IDX 30 57 31 58 39 59 32 60 33 61 37 62 40 63 34 64 35 65 38 66
REMARK SMILES IDX 36 67 62 68 63 69 71 70 64 71 65 72 69 73 72 74 66 75 67 76
REMARK SMILES IDX 70 77 68 78 47 79 48 80 56 81 49 82 50 83 54 84 57 85 51 86
REMARK SMILES IDX 52 87 55 88 53 89
REMARK H PARENT 14 5 18 23 77 42 45 53
REMARK Flexibility Score: inf
ROOT
ATOM      1  C   UNL A   1      31.758  30.394  26.389  1.00  0.00     0.117 C 
ENDROOT
BRANCH   1   2
ATOM      2  N   UNL A   1      32.053  30.101  24.998  1.00  0.00    -0.355 N 
ATOM      3  C   UNL A   1      31.708  29.044  24.210  1.00  0.00     0.230 C 
ATOM      4  O   UNL A   1      31.980  29.141  23.008  1.00  0.00    -0.274 OA
ATOM      5  H   UNL A   1      32.597  30.785  24.546  1.00  0.00     0.163 HD
BRANCH   3   6
ATOM      6  C   UNL A   1      31.016  27.787  24.750  1.00  0.00     0.139 C 
BRANCH   6   7
ATOM      7  C   UNL A   1      32.004  26.750  25.270  1.00  0.00    -0.033 A 
ATOM      8  C   UNL A   1      33.834  24.692  25.894  1.00  0.00    -0.048 A 
ATOM      9  C   UNL A   1      32.533  24.660  26.401  1.00  0.00     0.004 A 
ATOM     10  C   UNL A   1      34.242  25.798  25.144  1.00  0.00     0.004 A 
ATOM     11  C   UNL A   1      31.635  25.691  26.115  1.00  0.00     0.005 A 
ATOM     12  C   UNL A   1      33.336  26.811  24.828  1.00  0.00     0.005 A 
BRANCH   8  13
ATOM     13  C   UNL A   1      34.759  23.514  26.091  1.00  0.00     0.038 C 
BRANCH  13  14
ATOM     14  C   UNL A   1      35.766  23.346  24.932  1.00  0.00    -0.013 C 
ATOM     15  C   UNL A   1      37.202  23.677  25.352  1.00  0.00     0.008 C 
ATOM     16  C   UNL A   1      35.709  21.915  24.394  1.00  0.00     0.008 C 
ENDBRANCH  13  14
ENDBRANCH   8  13
ENDBRANCH   6   7
BRANCH   6  17
ATOM     17  C   UNL A   1      29.981  27.298  23.743  1.00  0.00     0.232 C 
ATOM     18  F   UNL A   1      30.412  26.147  23.157  1.00  0.00    -0.250 F 
ENDBRANCH   6  17
ENDBRANCH   3   6
ENDBRANCH   1   2
BRANCH   1  19
ATOM     19  C   UNL A   1      31.518  31.875  26.639  1.00  0.00     0.042 C 
BRANCH  19  20
ATOM     20  C   UNL A   1      32.711  32.588  27.258  1.00  0.00     0.118 C 
BRANCH  20  21
ATOM     21  N   UNL A   1      32.430  33.985  27.570  1.00  0.00    -0.352 N 
ATOM     22  C   UNL A   1      32.985  34.811  28.516  1.00  0.00     0.251 C 
ATOM     23  H   UNL A   1      31.733  34.402  27.014  1.00  0.00     0.163 HD
ATOM     24  O   UNL A   1      32.479  35.905  28.753  1.00  0.00    -0.269 OA
BRANCH  22  25
ATOM     25  C   UNL A   1      34.180  34.377  29.271  1.00  0.00     0.039 A 
ATOM     26  C   UNL A   1      34.015  33.747  30.508  1.00  0.00     0.014 A 
ATOM     27  C   UNL A   1      35.461  34.593  28.760  1.00  0.00     0.014 A 
ATOM     28  C   UNL A   1      35.131  33.253  31.188  1.00  0.00     0.010 A 
ATOM     29  C   UNL A   1      36.559  34.023  29.391  1.00  0.00     0.010 A 
ATOM     30  C   UNL A   1      36.407  33.346  30.610  1.00  0.00    -0.014 A 
BRANCH  30  31
ATOM     31  C   UNL A   1      37.610  32.755  31.249  1.00  0.00     0.031 A 
ATOM     32  C   UNL A   1      38.307  31.599  30.586  1.00  0.00     0.074 A 
ATOM     33  C   UNL A   1      38.002  33.176  32.466  1.00  0.00     0.049 A 
ATOM     34  N   UNL A   1      39.248  30.818  31.054  1.00  0.00    -0.248 NA
ATOM     35  C   UNL A   1      37.860  31.254  29.227  1.00  0.00     0.031 C 
ATOM     36  C   UNL A   1      37.389  34.268  33.223  1.00  0.00     0.029 A 
ATOM     37  N   UNL A   1      38.995  32.715  33.296  1.00  0.00    -0.354 N 
ATOM     38  C   UNL A   1      39.482  29.877  30.061  1.00  0.00     0.074 A 
ATOM     39  C   UNL A   1      38.554  30.153  28.986  1.00  0.00     0.031 C 
ATOM     40  C   UNL A   1      38.022  34.397  34.401  1.00  0.00     0.029 A 
ATOM     41  C   UNL A   1      39.048  33.365  34.505  1.00  0.00     0.049 A 
ATOM     42  H   UNL A   1      39.610  31.987  33.047  1.00  0.00     0.167 HD
ATOM     43  C   UNL A   1      40.401  28.882  30.042  1.00  0.00     0.037 A 
ATOM     44  C   UNL A   1      39.820  33.136  35.586  1.00  0.00     0.037 A 
ATOM     45  C   UNL A   1      41.339  28.634  31.104  1.00  0.00     0.049 A 
ATOM     46  C   UNL A   1      40.819  32.011  35.549  1.00  0.00     0.074 A 
ATOM     47  C   UNL A   1      42.349  27.689  31.157  1.00  0.00     0.029 A 
ATOM     48  N   UNL A   1      41.382  29.336  32.299  1.00  0.00    -0.354 N 
ATOM     49  N   UNL A   1      41.069  31.158  34.585  1.00  0.00    -0.248 NA
ATOM     50  C   UNL A   1      41.644  31.813  36.750  1.00  0.00     0.031 C 
ATOM     51  C   UNL A   1      42.970  27.786  32.406  1.00  0.00     0.029 A 
ATOM     52  C   UNL A   1      42.387  28.830  33.106  1.00  0.00     0.049 A 
ATOM     53  H   UNL A   1      40.787  30.082  32.538  1.00  0.00     0.167 HD
ATOM     54  C   UNL A   1      42.102  30.353  35.044  1.00  0.00     0.074 A 
ATOM     55  C   UNL A   1      42.434  30.816  36.375  1.00  0.00     0.031 C 
ATOM     56  C   UNL A   1      42.722  29.324  34.418  1.00  0.00     0.037 A 
BRANCH  43  57
ATOM     57  C   UNL A   1      40.434  27.986  28.838  1.00  0.00     0.064 A 
ATOM     58  C   UNL A   1      41.194  28.304  27.703  1.00  0.00     0.173 A 
ATOM     59  C   UNL A   1      39.727  26.774  28.835  1.00  0.00     0.173 A 
ATOM     60  F   UNL A   1      41.881  29.456  27.650  1.00  0.00    -0.203 F 
ATOM     61  C   UNL A   1      41.220  27.458  26.597  1.00  0.00     0.198 A 
ATOM     62  C   UNL A   1      39.782  25.914  27.740  1.00  0.00     0.198 A 
ATOM     63  F   UNL A   1      38.989  26.417  29.898  1.00  0.00    -0.203 F 
ATOM     64  F   UNL A   1      41.911  27.808  25.504  1.00  0.00    -0.200 F 
ATOM     65  C   UNL A   1      40.522  26.261  26.620  1.00  0.00     0.200 A 
ATOM     66  F   UNL A   1      39.118  24.750  27.771  1.00  0.00    -0.200 F 
ATOM     67  F   UNL A   1      40.555  25.443  25.558  1.00  0.00    -0.200 F 
ENDBRANCH  43  57
BRANCH  44  68
ATOM     68  C   UNL A   1      39.684  33.997  36.791  1.00  0.00     0.064 A 
ATOM     69  C   UNL A   1      38.867  33.608  37.862  1.00  0.00     0.173 A 
ATOM     70  C   UNL A   1      40.361  35.220  36.899  1.00  0.00     0.173 A 
ATOM     71  F   UNL A   1      38.183  32.456  37.799  1.00  0.00    -0.203 F 
ATOM     72  C   UNL A   1      38.716  34.420  38.984  1.00  0.00     0.198 A 
ATOM     73  C   UNL A   1      40.233  36.017  38.035  1.00  0.00     0.198 A 
ATOM     74  F   UNL A   1      41.161  35.635  35.905  1.00  0.00    -0.203 F 
ATOM     75  F   UNL A   1      37.892  34.045  39.973  1.00  0.00    -0.200 F 
ATOM     76  C   UNL A   1      39.404  35.621  39.073  1.00  0.00     0.200 A 
ATOM     77  F   UNL A   1      40.912  37.168  38.124  1.00  0.00    -0.200 F 
ATOM     78  F   UNL A   1      39.263  36.398  40.154  1.00  0.00    -0.200 F 
ENDBRANCH  44  68
BRANCH  56  79
ATOM     79  C   UNL A   1      43.866  28.661  35.127  1.00  0.00     0.064 A 
ATOM     80  C   UNL A   1      45.188  29.094  34.966  1.00  0.00     0.173 A 
ATOM     81  C   UNL A   1      43.617  27.630  36.049  1.00  0.00     0.173 A 
ATOM     82  F   UNL A   1      45.478  30.065  34.086  1.00  0.00    -0.203 F 
ATOM     83  C   UNL A   1      46.223  28.516  35.696  1.00  0.00     0.198 A 
ATOM     84  C   UNL A   1      44.650  27.075  36.797  1.00  0.00     0.198 A 
ATOM     85  F   UNL A   1      42.367  27.185  36.242  1.00  0.00    -0.203 F 
ATOM     86  F   UNL A   1      47.485  28.925  35.506  1.00  0.00    -0.200 F 
ATOM     87  C   UNL A   1      45.951  27.516  36.619  1.00  0.00     0.200 A 
ATOM     88  F   UNL A   1      44.382  26.120  37.700  1.00  0.00    -0.200 F 
ATOM     89  F   UNL A   1      46.947  26.976  37.337  1.00  0.00    -0.200 F 
ENDBRANCH  56  79
ENDBRANCH  30  31
ENDBRANCH  22  25
ENDBRANCH  20  21
ENDBRANCH  19  20
ENDBRANCH   1  19
TORSDOF 14
ENDMDL
