MODEL 1
REMARK VINA RESULT:     -11.1      0.000      0.000
REMARK SMILES O=C(NCCCNC(=O)[C@@H](CO)NC(=O)[C@H]1CCCc2ccccc21)c1ccc(-c2c3nc(c(-c4c(F)c(F)c(F)c(F)c4F)c4ccc([nH]4)c(-c4c(F)c(F)c(F)c(F)c4F)c4nc(c(-c5c(F)c(F)c(F)c(F)c5F)c5ccc2[nH]5)C=C4)C=C3)cc1
REMARK SMILES IDX 5 1 4 2 3 3 1 4 2 5 26 7 27 8 88 9 28 10 87 11 29 12 30 13
REMARK SMILES IDX 31 14 81 15 32 16 86 17 80 18 82 19 33 20 85 21 79 22 78 23
REMARK SMILES IDX 34 25 66 26 46 27 65 28 47 29 50 30 64 31 83 32 48 33 49 34
REMARK SMILES IDX 63 36 84 37 51 38 35 39 36 40 44 41 37 42 38 43 42 44 45 45
REMARK SMILES IDX 39 46 40 47 43 48 41 49 67 50 68 51 76 52 69 53 70 54 74 55
REMARK SMILES IDX 77 56 71 57 72 58 75 59 73 60 52 61 53 62 61 63 54 64 55 65
REMARK SMILES IDX 59 66 62 67 56 68 57 69 60 70 58 71 6 72 7 73 8 74 9 76
REMARK SMILES IDX 10 77 11 78 12 79 13 81 14 82 15 84 16 85 17 86 25 87 18 88
REMARK SMILES IDX 20 89 24 90 19 91 21 92 23 93 22 94
REMARK H PARENT 3 6 82 24 50 35 7 75 12 80 13 83
REMARK Flexibility Score: inf
ROOT
ATOM      1  C   UNL A   1      35.127  34.259  28.882  1.00  0.00     0.042 C 
ENDROOT
BRANCH   1   2
ATOM      2  C   UNL A   1      35.590  33.126  27.983  1.00  0.00     0.118 C 
BRANCH   2   3
ATOM      3  N   UNL A   1      34.603  32.064  27.897  1.00  0.00    -0.352 N 
ATOM      4  O   UNL A   1      33.885  29.970  27.472  1.00  0.00    -0.269 OA
ATOM      5  C   UNL A   1      34.799  30.709  27.815  1.00  0.00     0.251 C 
ATOM      6  H   UNL A   1      33.662  32.357  27.896  1.00  0.00     0.163 HD
BRANCH   5   7
ATOM      7  C   UNL A   1      36.122  30.147  28.154  1.00  0.00     0.039 A 
ATOM      8  C   UNL A   1      37.184  30.269  27.255  1.00  0.00     0.014 A 
ATOM      9  C   UNL A   1      36.319  29.545  29.399  1.00  0.00     0.014 A 
ATOM     10  C   UNL A   1      38.407  29.686  27.543  1.00  0.00     0.010 A 
ATOM     11  C   UNL A   1      37.586  29.066  29.740  1.00  0.00     0.010 A 
ATOM     12  C   UNL A   1      38.638  29.142  28.815  1.00  0.00    -0.014 A 
BRANCH  12  13
ATOM     13  C   UNL A   1      40.034  28.841  29.210  1.00  0.00     0.031 A 
ATOM     14  C   UNL A   1      40.851  29.808  30.009  1.00  0.00     0.074 A 
ATOM     15  C   UNL A   1      40.549  27.660  28.811  1.00  0.00     0.049 A 
ATOM     16  N   UNL A   1      42.097  29.703  30.391  1.00  0.00    -0.248 NA
ATOM     17  C   UNL A   1      40.196  31.057  30.428  1.00  0.00     0.031 C 
ATOM     18  C   UNL A   1      39.834  26.659  28.008  1.00  0.00     0.029 A 
ATOM     19  N   UNL A   1      41.778  27.093  29.020  1.00  0.00    -0.354 N 
ATOM     20  C   UNL A   1      42.387  30.877  31.072  1.00  0.00     0.074 A 
ATOM     21  C   UNL A   1      41.188  31.688  31.047  1.00  0.00     0.031 C 
ATOM     22  C   UNL A   1      40.621  25.592  27.826  1.00  0.00     0.029 A 
ATOM     23  C   UNL A   1      41.921  25.867  28.416  1.00  0.00     0.049 A 
ATOM     24  H   UNL A   1      42.487  27.521  29.551  1.00  0.00     0.167 HD
ATOM     25  C   UNL A   1      43.554  31.232  31.658  1.00  0.00     0.037 A 
ATOM     26  C   UNL A   1      42.999  25.071  28.305  1.00  0.00     0.037 A 
ATOM     27  C   UNL A   1      44.729  30.397  31.687  1.00  0.00     0.049 A 
ATOM     28  C   UNL A   1      44.284  25.518  28.937  1.00  0.00     0.074 A 
ATOM     29  C   UNL A   1      45.936  30.633  32.322  1.00  0.00     0.029 A 
ATOM     30  N   UNL A   1      44.849  29.174  31.043  1.00  0.00    -0.354 N 
ATOM     31  N   UNL A   1      44.525  26.598  29.639  1.00  0.00    -0.248 NA
ATOM     32  C   UNL A   1      45.449  24.644  28.753  1.00  0.00     0.031 C 
ATOM     33  C   UNL A   1      46.808  29.587  32.005  1.00  0.00     0.029 A 
ATOM     34  C   UNL A   1      46.127  28.668  31.225  1.00  0.00     0.049 A 
ATOM     35  H   UNL A   1      44.133  28.732  30.533  1.00  0.00     0.167 HD
ATOM     36  C   UNL A   1      45.865  26.532  29.987  1.00  0.00     0.074 A 
ATOM     37  C   UNL A   1      46.375  25.287  29.450  1.00  0.00     0.031 C 
ATOM     38  C   UNL A   1      46.612  27.428  30.676  1.00  0.00     0.037 A 
BRANCH  25  39
ATOM     39  C   UNL A   1      43.650  32.585  32.300  1.00  0.00     0.064 A 
ATOM     40  C   UNL A   1      44.067  33.716  31.584  1.00  0.00     0.173 A 
ATOM     41  C   UNL A   1      43.213  32.768  33.621  1.00  0.00     0.173 A 
ATOM     42  F   UNL A   1      44.502  33.595  30.321  1.00  0.00    -0.203 F 
ATOM     43  C   UNL A   1      44.044  34.981  32.169  1.00  0.00     0.198 A 
ATOM     44  C   UNL A   1      43.169  34.035  34.194  1.00  0.00     0.198 A 
ATOM     45  F   UNL A   1      42.799  31.719  34.347  1.00  0.00    -0.203 F 
ATOM     46  F   UNL A   1      44.462  36.046  31.473  1.00  0.00    -0.200 F 
ATOM     47  C   UNL A   1      43.584  35.141  33.468  1.00  0.00     0.200 A 
ATOM     48  F   UNL A   1      42.709  34.189  35.444  1.00  0.00    -0.200 F 
ATOM     49  F   UNL A   1      43.538  36.361  34.019  1.00  0.00    -0.200 F 
ENDBRANCH  25  39
BRANCH  26  50
ATOM     50  C   UNL A   1      42.921  23.811  27.518  1.00  0.00     0.064 A 
ATOM     51  C   UNL A   1      43.229  23.789  26.152  1.00  0.00     0.173 A 
ATOM     52  C   UNL A   1      42.515  22.607  28.114  1.00  0.00     0.173 A 
ATOM     53  F   UNL A   1      43.607  24.916  25.532  1.00  0.00    -0.203 F 
ATOM     54  C   UNL A   1      43.102  22.618  25.406  1.00  0.00     0.198 A 
ATOM     55  C   UNL A   1      42.427  21.430  27.376  1.00  0.00     0.198 A 
ATOM     56  F   UNL A   1      42.215  22.571  29.421  1.00  0.00    -0.203 F 
ATOM     57  F   UNL A   1      43.342  22.639  24.088  1.00  0.00    -0.200 F 
ATOM     58  C   UNL A   1      42.707  21.439  26.019  1.00  0.00     0.200 A 
ATOM     59  F   UNL A   1      42.065  20.290  27.980  1.00  0.00    -0.200 F 
ATOM     60  F   UNL A   1      42.584  20.315  25.301  1.00  0.00    -0.200 F 
ENDBRANCH  26  50
BRANCH  38  61
ATOM     61  C   UNL A   1      48.054  27.082  30.892  1.00  0.00     0.064 A 
ATOM     62  C   UNL A   1      49.055  27.549  30.027  1.00  0.00     0.173 A 
ATOM     63  C   UNL A   1      48.444  26.301  31.989  1.00  0.00     0.173 A 
ATOM     64  F   UNL A   1      48.730  28.281  28.950  1.00  0.00    -0.203 F 
ATOM     65  C   UNL A   1      50.392  27.223  30.239  1.00  0.00     0.198 A 
ATOM     66  C   UNL A   1      49.785  26.007  32.218  1.00  0.00     0.198 A 
ATOM     67  F   UNL A   1      47.525  25.833  32.847  1.00  0.00    -0.203 F 
ATOM     68  F   UNL A   1      51.325  27.635  29.369  1.00  0.00    -0.200 F 
ATOM     69  C   UNL A   1      50.756  26.462  31.338  1.00  0.00     0.200 A 
ATOM     70  F   UNL A   1      50.136  25.281  33.289  1.00  0.00    -0.200 F 
ATOM     71  F   UNL A   1      52.044  26.157  31.547  1.00  0.00    -0.200 F 
ENDBRANCH  38  61
ENDBRANCH  12  13
ENDBRANCH   5   7
ENDBRANCH   2   3
ENDBRANCH   1   2
BRANCH   1  72
ATOM     72  C   UNL A   1      34.511  33.774  30.189  1.00  0.00     0.117 C 
BRANCH  72  73
ATOM     73  N   UNL A   1      33.362  34.579  30.544  1.00  0.00    -0.354 N 
ATOM     74  C   UNL A   1      33.131  35.328  31.650  1.00  0.00     0.244 C 
ATOM     75  H   UNL A   1      32.636  34.585  29.879  1.00  0.00     0.163 HD
ATOM     76  O   UNL A   1      31.943  35.559  31.911  1.00  0.00    -0.273 OA
BRANCH  74  77
ATOM     77  C   UNL A   1      34.242  35.815  32.593  1.00  0.00     0.197 C 
BRANCH  77  78
ATOM     78  C   UNL A   1      34.109  37.287  33.019  1.00  0.00     0.191 C 
BRANCH  78  79
ATOM     79  O   UNL A   1      33.362  38.084  32.103  1.00  0.00    -0.394 OA
ATOM     80  H   UNL A   1      32.452  38.182  32.426  1.00  0.00     0.210 HD
ENDBRANCH  78  79
ENDBRANCH  77  78
BRANCH  77  81
ATOM     81  N   UNL A   1      34.524  34.929  33.728  1.00  0.00    -0.342 N 
ATOM     82  C   UNL A   1      35.604  34.186  34.083  1.00  0.00     0.228 C 
ATOM     83  H   UNL A   1      33.775  34.859  34.364  1.00  0.00     0.164 HD
ATOM     84  O   UNL A   1      35.512  33.623  35.185  1.00  0.00    -0.274 OA
BRANCH  82  85
ATOM     85  C   UNL A   1      36.855  33.910  33.218  1.00  0.00     0.109 C 
ATOM     86  C   UNL A   1      37.925  34.938  33.653  1.00  0.00     0.018 C 
ATOM     87  C   UNL A   1      37.363  32.480  33.145  1.00  0.00    -0.032 A 
ATOM     88  C   UNL A   1      39.342  34.478  33.351  1.00  0.00     0.006 C 
ATOM     89  C   UNL A   1      38.613  32.122  33.690  1.00  0.00    -0.044 A 
ATOM     90  C   UNL A   1      36.552  31.474  32.597  1.00  0.00     0.005 A 
ATOM     91  C   UNL A   1      39.614  33.174  34.092  1.00  0.00     0.036 C 
ATOM     92  C   UNL A   1      38.915  30.770  33.895  1.00  0.00     0.004 A 
ATOM     93  C   UNL A   1      36.880  30.127  32.775  1.00  0.00     0.000 A 
ATOM     94  C   UNL A   1      38.035  29.777  33.468  1.00  0.00     0.000 A 
ENDBRANCH  82  85
ENDBRANCH  77  81
ENDBRANCH  74  77
ENDBRANCH  72  73
ENDBRANCH   1  72
TORSDOF 14
ENDMDL
MODEL 2
REMARK VINA RESULT:     -11.0      4.284     10.547
REMARK SMILES O=C(NCCCNC(=O)[C@@H](CO)NC(=O)[C@H]1CCCc2ccccc21)c1ccc(-c2c3nc(c(-c4c(F)c(F)c(F)c(F)c4F)c4ccc([nH]4)c(-c4c(F)c(F)c(F)c(F)c4F)c4nc(c(-c5c(F)c(F)c(F)c(F)c5F)c5ccc2[nH]5)C=C4)C=C3)cc1
REMARK SMILES IDX 5 1 4 2 3 3 1 4 2 5 26 7 27 8 88 9 28 10 87 11 29 12 30 13
REMARK SMILES IDX 31 14 81 15 32 16 86 17 80 18 82 19 33 20 85 21 79 22 78 23
REMARK SMILES IDX 34 25 66 26 46 27 65 28 47 29 50 30 64 31 83 32 48 33 49 34
REMARK SMILES IDX 63 36 84 37 51 38 35 39 36 40 44 41 37 42 38 43 42 44 45 45
REMARK SMILES IDX 39 46 40 47 43 48 41 49 67 50 68 51 76 52 69 53 70 54 74 55
REMARK SMILES IDX 77 56 71 57 72 58 75 59 73 60 52 61 53 62 61 63 54 64 55 65
REMARK SMILES IDX 59 66 62 67 56 68 57 69 60 70 58 71 6 72 7 73 8 74 9 76
REMARK SMILES IDX 10 77 11 78 12 79 13 81 14 82 15 84 16 85 17 86 25 87 18 88
REMARK SMILES IDX 20 89 24 90 19 91 21 92 23 93 22 94
REMARK H PARENT 3 6 82 24 50 35 7 75 12 80 13 83
REMARK Flexibility Score: inf
ROOT
ATOM      1  C   UNL A   1      31.517  32.067  26.686  1.00  0.00     0.042 C 
ENDROOT
BRANCH   1   2
ATOM      2  C   UNL A   1      32.694  32.700  27.409  1.00  0.00     0.118 C 
BRANCH   2   3
ATOM      3  N   UNL A   1      32.485  34.117  27.650  1.00  0.00    -0.352 N 
ATOM      4  O   UNL A   1      32.555  36.017  28.860  1.00  0.00    -0.269 OA
ATOM      5  C   UNL A   1      33.037  34.918  28.616  1.00  0.00     0.251 C 
ATOM      6  H   UNL A   1      31.860  34.564  27.034  1.00  0.00     0.163 HD
BRANCH   5   7
ATOM      7  C   UNL A   1      34.226  34.447  29.355  1.00  0.00     0.039 A 
ATOM      8  C   UNL A   1      34.074  33.799  30.584  1.00  0.00     0.014 A 
ATOM      9  C   UNL A   1      35.495  34.601  28.793  1.00  0.00     0.014 A 
ATOM     10  C   UNL A   1      35.190  33.415  31.308  1.00  0.00     0.010 A 
ATOM     11  C   UNL A   1      36.612  34.103  29.467  1.00  0.00     0.010 A 
ATOM     12  C   UNL A   1      36.463  33.500  30.726  1.00  0.00    -0.014 A 
BRANCH  12  13
ATOM     13  C   UNL A   1      37.583  32.777  31.371  1.00  0.00     0.031 A 
ATOM     14  C   UNL A   1      38.249  31.609  30.713  1.00  0.00     0.074 A 
ATOM     15  C   UNL A   1      37.976  33.207  32.589  1.00  0.00     0.049 A 
ATOM     16  N   UNL A   1      39.210  30.852  31.173  1.00  0.00    -0.248 NA
ATOM     17  C   UNL A   1      37.776  31.233  29.372  1.00  0.00     0.031 C 
ATOM     18  C   UNL A   1      37.372  34.326  33.322  1.00  0.00     0.029 A 
ATOM     19  N   UNL A   1      38.969  32.768  33.424  1.00  0.00    -0.354 N 
ATOM     20  C   UNL A   1      39.443  29.895  30.195  1.00  0.00     0.074 A 
ATOM     21  C   UNL A   1      38.516  30.160  29.115  1.00  0.00     0.031 C 
ATOM     22  C   UNL A   1      38.027  34.507  34.474  1.00  0.00     0.029 A 
ATOM     23  C   UNL A   1      39.034  33.467  34.605  1.00  0.00     0.049 A 
ATOM     24  H   UNL A   1      39.576  32.027  33.200  1.00  0.00     0.167 HD
ATOM     25  C   UNL A   1      40.349  28.891  30.214  1.00  0.00     0.037 A 
ATOM     26  C   UNL A   1      39.788  33.261  35.700  1.00  0.00     0.037 A 
ATOM     27  C   UNL A   1      41.275  28.659  31.294  1.00  0.00     0.049 A 
ATOM     28  C   UNL A   1      40.755  32.114  35.694  1.00  0.00     0.074 A 
ATOM     29  C   UNL A   1      42.286  27.716  31.373  1.00  0.00     0.029 A 
ATOM     30  N   UNL A   1      41.297  29.368  32.487  1.00  0.00    -0.354 N 
ATOM     31  N   UNL A   1      41.014  31.259  34.735  1.00  0.00    -0.248 NA
ATOM     32  C   UNL A   1      41.526  31.894  36.924  1.00  0.00     0.031 C 
ATOM     33  C   UNL A   1      42.871  27.809  32.639  1.00  0.00     0.029 A 
ATOM     34  C   UNL A   1      42.270  28.850  33.327  1.00  0.00     0.049 A 
ATOM     35  H   UNL A   1      40.708  30.126  32.703  1.00  0.00     0.167 HD
ATOM     36  C   UNL A   1      41.981  30.404  35.240  1.00  0.00     0.074 A 
ATOM     37  C   UNL A   1      42.289  30.868  36.578  1.00  0.00     0.031 C 
ATOM     38  C   UNL A   1      42.553  29.324  34.656  1.00  0.00     0.037 A 
BRANCH  25  39
ATOM     39  C   UNL A   1      40.386  27.938  29.054  1.00  0.00     0.064 A 
ATOM     40  C   UNL A   1      39.613  26.769  29.031  1.00  0.00     0.173 A 
ATOM     41  C   UNL A   1      41.124  28.261  27.904  1.00  0.00     0.173 A 
ATOM     42  F   UNL A   1      38.896  26.411  30.107  1.00  0.00    -0.203 F 
ATOM     43  C   UNL A   1      39.579  25.956  27.899  1.00  0.00     0.198 A 
ATOM     44  C   UNL A   1      41.069  27.460  26.768  1.00  0.00     0.198 A 
ATOM     45  F   UNL A   1      41.876  29.371  27.873  1.00  0.00    -0.203 F 
ATOM     46  F   UNL A   1      38.847  24.835  27.905  1.00  0.00    -0.200 F 
ATOM     47  C   UNL A   1      40.297  26.309  26.766  1.00  0.00     0.200 A 
ATOM     48  F   UNL A   1      41.751  27.810  25.668  1.00  0.00    -0.200 F 
ATOM     49  F   UNL A   1      40.242  25.539  25.670  1.00  0.00    -0.200 F 
ENDBRANCH  25  39
BRANCH  26  50
ATOM     50  C   UNL A   1      39.612  34.119  36.901  1.00  0.00     0.064 A 
ATOM     51  C   UNL A   1      40.251  35.361  37.006  1.00  0.00     0.173 A 
ATOM     52  C   UNL A   1      38.814  33.704  37.980  1.00  0.00     0.173 A 
ATOM     53  F   UNL A   1      41.036  35.796  36.010  1.00  0.00    -0.203 F 
ATOM     54  C   UNL A   1      40.127  36.138  38.157  1.00  0.00     0.198 A 
ATOM     55  C   UNL A   1      38.659  34.499  39.112  1.00  0.00     0.198 A 
ATOM     56  F   UNL A   1      38.173  32.526  37.928  1.00  0.00    -0.203 F 
ATOM     57  F   UNL A   1      40.800  37.292  38.257  1.00  0.00    -0.200 F 
ATOM     58  C   UNL A   1      39.327  35.709  39.205  1.00  0.00     0.200 A 
ATOM     59  F   UNL A   1      37.868  34.088  40.112  1.00  0.00    -0.200 F 
ATOM     60  F   UNL A   1      39.209  36.456  40.311  1.00  0.00    -0.200 F 
ENDBRANCH  26  50
BRANCH  38  61
ATOM     61  C   UNL A   1      43.575  28.582  35.464  1.00  0.00     0.064 A 
ATOM     62  C   UNL A   1      43.201  27.578  36.371  1.00  0.00     0.173 A 
ATOM     63  C   UNL A   1      44.942  28.854  35.310  1.00  0.00     0.173 A 
ATOM     64  F   UNL A   1      41.903  27.297  36.569  1.00  0.00    -0.203 F 
ATOM     65  C   UNL A   1      44.158  26.893  37.113  1.00  0.00     0.198 A 
ATOM     66  C   UNL A   1      45.898  28.143  36.028  1.00  0.00     0.198 A 
ATOM     67  F   UNL A   1      45.350  29.802  34.453  1.00  0.00    -0.203 F 
ATOM     68  F   UNL A   1      43.775  25.977  38.012  1.00  0.00    -0.200 F 
ATOM     69  C   UNL A   1      45.505  27.169  36.934  1.00  0.00     0.200 A 
ATOM     70  F   UNL A   1      47.201  28.401  35.844  1.00  0.00    -0.200 F 
ATOM     71  F   UNL A   1      46.427  26.502  37.642  1.00  0.00    -0.200 F 
ENDBRANCH  38  61
ENDBRANCH  12  13
ENDBRANCH   5   7
ENDBRANCH   2   3
ENDBRANCH   1   2
BRANCH   1  72
ATOM     72  C   UNL A   1      31.829  30.681  26.133  1.00  0.00     0.117 C 
BRANCH  72  73
ATOM     73  N   UNL A   1      33.130  30.232  26.581  1.00  0.00    -0.354 N 
ATOM     74  C   UNL A   1      33.575  28.978  26.844  1.00  0.00     0.244 C 
ATOM     75  H   UNL A   1      33.794  30.946  26.714  1.00  0.00     0.163 HD
ATOM     76  O   UNL A   1      34.549  28.897  27.604  1.00  0.00    -0.273 OA
BRANCH  74  77
ATOM     77  C   UNL A   1      32.896  27.707  26.313  1.00  0.00     0.197 C 
BRANCH  77  78
ATOM     78  C   UNL A   1      31.547  27.386  26.981  1.00  0.00     0.191 C 
BRANCH  78  79
ATOM     79  O   UNL A   1      31.396  27.964  28.276  1.00  0.00    -0.394 OA
ATOM     80  H   UNL A   1      30.456  27.980  28.515  1.00  0.00     0.210 HD
ENDBRANCH  78  79
ENDBRANCH  77  78
BRANCH  77  81
ATOM     81  N   UNL A   1      32.832  27.602  24.852  1.00  0.00    -0.342 N 
ATOM     82  C   UNL A   1      32.612  26.566  24.001  1.00  0.00     0.228 C 
ATOM     83  H   UNL A   1      32.979  28.461  24.391  1.00  0.00     0.164 HD
ATOM     84  O   UNL A   1      32.537  26.880  22.803  1.00  0.00    -0.274 OA
BRANCH  82  85
ATOM     85  C   UNL A   1      32.548  25.068  24.374  1.00  0.00     0.109 C 
ATOM     86  C   UNL A   1      31.505  24.425  23.433  1.00  0.00     0.018 C 
ATOM     87  C   UNL A   1      33.859  24.304  24.461  1.00  0.00    -0.032 A 
ATOM     88  C   UNL A   1      31.713  22.929  23.254  1.00  0.00     0.006 C 
ATOM     89  C   UNL A   1      34.161  23.270  23.552  1.00  0.00    -0.044 A 
ATOM     90  C   UNL A   1      34.826  24.674  25.408  1.00  0.00     0.005 A 
ATOM     91  C   UNL A   1      33.096  22.684  22.662  1.00  0.00     0.036 C 
ATOM     92  C   UNL A   1      35.479  22.805  23.448  1.00  0.00     0.004 A 
ATOM     93  C   UNL A   1      36.129  24.178  25.319  1.00  0.00     0.000 A 
ATOM     94  C   UNL A   1      36.466  23.283  24.307  1.00  0.00     0.000 A 
ENDBRANCH  82  85
ENDBRANCH  77  81
ENDBRANCH  74  77
ENDBRANCH  72  73
ENDBRANCH   1  72
TORSDOF 14
ENDMDL
MODEL 3
REMARK VINA RESULT:     -11.0      4.274     10.531
REMARK SMILES O=C(NCCCNC(=O)[C@@H](CO)NC(=O)[C@H]1CCCc2ccccc21)c1ccc(-c2c3nc(c(-c4c(F)c(F)c(F)c(F)c4F)c4ccc([nH]4)c(-c4c(F)c(F)c(F)c(F)c4F)c4nc(c(-c5c(F)c(F)c(F)c(F)c5F)c5ccc2[nH]5)C=C4)C=C3)cc1
REMARK SMILES IDX 5 1 4 2 3 3 1 4 2 5 26 7 27 8 88 9 28 10 87 11 29 12 30 13
REMARK SMILES IDX 31 14 81 15 32 16 86 17 80 18 82 19 33 20 85 21 79 22 78 23
REMARK SMILES IDX 34 25 66 26 46 27 65 28 47 29 50 30 64 31 83 32 48 33 49 34
REMARK SMILES IDX 63 36 84 37 51 38 35 39 36 40 44 41 37 42 38 43 42 44 45 45
REMARK SMILES IDX 39 46 40 47 43 48 41 49 67 50 68 51 76 52 69 53 70 54 74 55
REMARK SMILES IDX 77 56 71 57 72 58 75 59 73 60 52 61 53 62 61 63 54 64 55 65
REMARK SMILES IDX 59 66 62 67 56 68 57 69 60 70 58 71 6 72 7 73 8 74 9 76
REMARK SMILES IDX 10 77 11 78 12 79 13 81 14 82 15 84 16 85 17 86 25 87 18 88
REMARK SMILES IDX 20 89 24 90 19 91 21 92 23 93 22 94
REMARK H PARENT 3 6 82 24 50 35 7 75 12 80 13 83
REMARK Flexibility Score: inf
ROOT
ATOM      1  C   UNL A   1      31.549  32.078  26.625  1.00  0.00     0.042 C 
ENDROOT
BRANCH   1   2
ATOM      2  C   UNL A   1      32.691  32.692  27.418  1.00  0.00     0.118 C 
BRANCH   2   3
ATOM      3  N   UNL A   1      32.480  34.107  27.666  1.00  0.00    -0.352 N 
ATOM      4  O   UNL A   1      32.548  36.001  28.886  1.00  0.00    -0.269 OA
ATOM      5  C   UNL A   1      33.032  34.904  28.636  1.00  0.00     0.251 C 
ATOM      6  H   UNL A   1      31.853  34.556  27.053  1.00  0.00     0.163 HD
BRANCH   5   7
ATOM      7  C   UNL A   1      34.222  34.431  29.371  1.00  0.00     0.039 A 
ATOM      8  C   UNL A   1      34.071  33.763  30.589  1.00  0.00     0.014 A 
ATOM      9  C   UNL A   1      35.492  34.605  28.816  1.00  0.00     0.014 A 
ATOM     10  C   UNL A   1      35.189  33.377  31.311  1.00  0.00     0.010 A 
ATOM     11  C   UNL A   1      36.611  34.105  29.485  1.00  0.00     0.010 A 
ATOM     12  C   UNL A   1      36.462  33.481  30.734  1.00  0.00    -0.014 A 
BRANCH  12  13
ATOM     13  C   UNL A   1      37.586  32.758  31.372  1.00  0.00     0.031 A 
ATOM     14  C   UNL A   1      38.257  31.599  30.703  1.00  0.00     0.074 A 
ATOM     15  C   UNL A   1      37.979  33.178  32.593  1.00  0.00     0.049 A 
ATOM     16  N   UNL A   1      39.222  30.842  31.154  1.00  0.00    -0.248 NA
ATOM     17  C   UNL A   1      37.785  31.233  29.358  1.00  0.00     0.031 C 
ATOM     18  C   UNL A   1      37.370  34.287  33.336  1.00  0.00     0.029 A 
ATOM     19  N   UNL A   1      38.974  32.736  33.423  1.00  0.00    -0.354 N 
ATOM     20  C   UNL A   1      39.458  29.895  30.168  1.00  0.00     0.074 A 
ATOM     21  C   UNL A   1      38.529  30.166  29.091  1.00  0.00     0.031 C 
ATOM     22  C   UNL A   1      38.025  34.461  34.490  1.00  0.00     0.029 A 
ATOM     23  C   UNL A   1      39.037  33.424  34.611  1.00  0.00     0.049 A 
ATOM     24  H   UNL A   1      39.585  32.000  33.191  1.00  0.00     0.167 HD
ATOM     25  C   UNL A   1      40.369  28.895  30.176  1.00  0.00     0.037 A 
ATOM     26  C   UNL A   1      39.793  33.211  35.702  1.00  0.00     0.037 A 
ATOM     27  C   UNL A   1      41.298  28.658  31.253  1.00  0.00     0.049 A 
ATOM     28  C   UNL A   1      40.765  32.069  35.685  1.00  0.00     0.074 A 
ATOM     29  C   UNL A   1      42.312  27.718  31.323  1.00  0.00     0.029 A 
ATOM     30  N   UNL A   1      41.317  29.355  32.452  1.00  0.00    -0.354 N 
ATOM     31  N   UNL A   1      41.027  31.224  34.718  1.00  0.00    -0.248 NA
ATOM     32  C   UNL A   1      41.538  31.842  36.912  1.00  0.00     0.031 C 
ATOM     33  C   UNL A   1      42.898  27.802  32.589  1.00  0.00     0.029 A 
ATOM     34  C   UNL A   1      42.293  28.834  33.287  1.00  0.00     0.049 A 
ATOM     35  H   UNL A   1      40.724  30.109  32.676  1.00  0.00     0.167 HD
ATOM     36  C   UNL A   1      41.999  30.369  35.215  1.00  0.00     0.074 A 
ATOM     37  C   UNL A   1      42.306  30.822  36.556  1.00  0.00     0.031 C 
ATOM     38  C   UNL A   1      42.575  29.297  34.620  1.00  0.00     0.037 A 
BRANCH  25  39
ATOM     39  C   UNL A   1      40.409  27.953  29.008  1.00  0.00     0.064 A 
ATOM     40  C   UNL A   1      39.634  26.786  28.970  1.00  0.00     0.173 A 
ATOM     41  C   UNL A   1      41.153  28.285  27.864  1.00  0.00     0.173 A 
ATOM     42  F   UNL A   1      38.912  26.419  30.040  1.00  0.00    -0.203 F 
ATOM     43  C   UNL A   1      39.603  25.984  27.830  1.00  0.00     0.198 A 
ATOM     44  C   UNL A   1      41.101  27.495  26.720  1.00  0.00     0.198 A 
ATOM     45  F   UNL A   1      41.907  29.394  27.847  1.00  0.00    -0.203 F 
ATOM     46  F   UNL A   1      38.869  24.864  27.822  1.00  0.00    -0.200 F 
ATOM     47  C   UNL A   1      40.327  26.345  26.703  1.00  0.00     0.200 A 
ATOM     48  F   UNL A   1      41.789  27.854  25.626  1.00  0.00    -0.200 F 
ATOM     49  F   UNL A   1      40.275  25.586  25.600  1.00  0.00    -0.200 F 
ENDBRANCH  25  39
BRANCH  26  50
ATOM     50  C   UNL A   1      39.614  34.057  36.912  1.00  0.00     0.064 A 
ATOM     51  C   UNL A   1      38.831  33.626  37.990  1.00  0.00     0.173 A 
ATOM     52  C   UNL A   1      40.208  35.326  37.005  1.00  0.00     0.173 A 
ATOM     53  F   UNL A   1      38.229  32.428  37.943  1.00  0.00    -0.203 F 
ATOM     54  C   UNL A   1      38.621  34.444  39.099  1.00  0.00     0.198 A 
ATOM     55  C   UNL A   1      40.031  36.126  38.131  1.00  0.00     0.198 A 
ATOM     56  F   UNL A   1      40.975  35.785  36.005  1.00  0.00    -0.203 F 
ATOM     57  F   UNL A   1      37.816  34.032  40.087  1.00  0.00    -0.200 F 
ATOM     58  C   UNL A   1      39.225  35.690  39.171  1.00  0.00     0.200 A 
ATOM     59  F   UNL A   1      40.635  37.319  38.203  1.00  0.00    -0.200 F 
ATOM     60  F   UNL A   1      39.022  36.476  40.237  1.00  0.00    -0.200 F 
ENDBRANCH  26  50
BRANCH  38  61
ATOM     61  C   UNL A   1      43.601  28.552  35.420  1.00  0.00     0.064 A 
ATOM     62  C   UNL A   1      44.969  28.839  35.301  1.00  0.00     0.173 A 
ATOM     63  C   UNL A   1      43.213  27.562  36.334  1.00  0.00     0.173 A 
ATOM     64  F   UNL A   1      45.392  29.763  34.424  1.00  0.00    -0.203 F 
ATOM     65  C   UNL A   1      45.913  28.143  36.051  1.00  0.00     0.198 A 
ATOM     66  C   UNL A   1      44.157  26.892  37.106  1.00  0.00     0.198 A 
ATOM     67  F   UNL A   1      41.917  27.252  36.486  1.00  0.00    -0.203 F 
ATOM     68  F   UNL A   1      47.218  28.396  35.882  1.00  0.00    -0.200 F 
ATOM     69  C   UNL A   1      45.506  27.178  36.958  1.00  0.00     0.200 A 
ATOM     70  F   UNL A   1      43.760  25.969  37.994  1.00  0.00    -0.200 F 
ATOM     71  F   UNL A   1      46.415  26.515  37.687  1.00  0.00    -0.200 F 
ENDBRANCH  38  61
ENDBRANCH  12  13
ENDBRANCH   5   7
ENDBRANCH   2   3
ENDBRANCH   1   2
BRANCH   1  72
ATOM     72  C   UNL A   1      31.818  30.636  26.208  1.00  0.00     0.117 C 
BRANCH  72  73
ATOM     73  N   UNL A   1      33.134  30.215  26.637  1.00  0.00    -0.354 N 
ATOM     74  C   UNL A   1      33.614  28.971  26.884  1.00  0.00     0.244 C 
ATOM     75  H   UNL A   1      33.782  30.944  26.768  1.00  0.00     0.163 HD
ATOM     76  O   UNL A   1      34.598  28.907  27.632  1.00  0.00    -0.273 OA
BRANCH  74  77
ATOM     77  C   UNL A   1      32.959  27.687  26.350  1.00  0.00     0.197 C 
BRANCH  77  78
ATOM     78  C   UNL A   1      31.612  27.344  27.011  1.00  0.00     0.191 C 
BRANCH  78  79
ATOM     79  O   UNL A   1      31.455  27.898  28.315  1.00  0.00    -0.394 OA
ATOM     80  H   UNL A   1      30.522  28.119  28.462  1.00  0.00     0.210 HD
ENDBRANCH  78  79
ENDBRANCH  77  78
BRANCH  77  81
ATOM     81  N   UNL A   1      32.907  27.580  24.889  1.00  0.00    -0.342 N 
ATOM     82  C   UNL A   1      32.694  26.543  24.039  1.00  0.00     0.228 C 
ATOM     83  H   UNL A   1      33.057  28.438  24.428  1.00  0.00     0.164 HD
ATOM     84  O   UNL A   1      32.627  26.854  22.839  1.00  0.00    -0.274 OA
BRANCH  82  85
ATOM     85  C   UNL A   1      32.630  25.045  24.414  1.00  0.00     0.109 C 
ATOM     86  C   UNL A   1      31.576  24.403  23.482  1.00  0.00     0.018 C 
ATOM     87  C   UNL A   1      33.938  24.277  24.490  1.00  0.00    -0.032 A 
ATOM     88  C   UNL A   1      31.779  22.907  23.302  1.00  0.00     0.006 C 
ATOM     89  C   UNL A   1      34.230  23.241  23.579  1.00  0.00    -0.044 A 
ATOM     90  C   UNL A   1      34.915  24.646  25.429  1.00  0.00     0.005 A 
ATOM     91  C   UNL A   1      33.157  22.657  22.699  1.00  0.00     0.036 C 
ATOM     92  C   UNL A   1      35.546  22.773  23.465  1.00  0.00     0.004 A 
ATOM     93  C   UNL A   1      36.216  24.146  25.329  1.00  0.00     0.000 A 
ATOM     94  C   UNL A   1      36.541  23.249  24.315  1.00  0.00     0.000 A 
ENDBRANCH  82  85
ENDBRANCH  77  81
ENDBRANCH  74  77
ENDBRANCH  72  73
ENDBRANCH   1  72
TORSDOF 14
ENDMDL
