MODEL 1
REMARK VINA RESULT:     -11.0      0.000      0.000
REMARK SMILES CC(C)c1ncc(SC[C@H](O)CO)c(C(=O)NCCCNC(=O)c2ccc(-c3c4nc(c(-c5c(F)c(F)c(F)c(F)c5F)c5ccc([nH]5)c(-c5c(F)c(F)c(F)c(F)c5F)c5nc(c(-c6c(F)c(F)c(F)c(F)c6F)c6ccc3[nH]6)C=C5)C=C4)cc2)n1
REMARK SMILES IDX 15 1 16 2 17 3 14 5 4 6 5 7 87 8 6 9 7 10 2 11 1 12 3 13
REMARK SMILES IDX 8 14 9 15 10 16 12 17 13 18 11 20 18 22 19 23 20 24 21 25
REMARK SMILES IDX 22 26 23 28 24 29 25 30 86 31 26 32 85 33 27 34 28 35 29 36
REMARK SMILES IDX 79 37 30 38 84 39 78 40 80 41 31 42 83 43 77 44 76 45 32 47
REMARK SMILES IDX 64 48 44 49 63 50 45 51 48 52 62 53 81 54 46 55 47 56 61 58
REMARK SMILES IDX 82 59 49 60 33 61 34 62 42 63 35 64 36 65 40 66 43 67 37 68
REMARK SMILES IDX 38 69 41 70 39 71 65 72 66 73 74 74 67 75 68 76 72 77 75 78
REMARK SMILES IDX 69 79 70 80 73 81 71 82 50 83 51 84 59 85 52 86 53 87 57 88
REMARK SMILES IDX 60 89 54 90 55 91 58 92 56 93
REMARK H PARENT 17 4 13 19 11 21 21 27 80 46 48 57
REMARK Flexibility Score: inf
ROOT
ATOM      1  C   UNL A   1      32.254  29.451  24.644  1.00  0.00     0.271 C 
ATOM      2  O   UNL A   1      33.218  29.334  23.877  1.00  0.00    -0.267 OA
ATOM      3  N   UNL A   1      32.468  30.309  25.694  1.00  0.00    -0.351 N 
ATOM      4  H   UNL A   1      33.325  30.788  25.619  1.00  0.00     0.163 HD
ENDROOT
BRANCH   1   5
ATOM      5  C   UNL A   1      30.980  28.718  24.293  1.00  0.00     0.145 A 
ATOM      6  C   UNL A   1      28.956  29.138  23.211  1.00  0.00     0.131 A 
ATOM      7  N   UNL A   1      28.643  27.837  23.181  1.00  0.00    -0.240 NA
ATOM      8  N   UNL A   1      30.066  29.603  23.796  1.00  0.00    -0.226 NA
ATOM      9  C   UNL A   1      29.553  26.984  23.691  1.00  0.00     0.130 A 
ATOM     10  C   UNL A   1      30.757  27.345  24.279  1.00  0.00     0.057 A 
BRANCH   6  11
ATOM     11  C   UNL A   1      28.032  30.118  22.512  1.00  0.00     0.051 C 
ATOM     12  C   UNL A   1      27.579  31.254  23.437  1.00  0.00     0.016 C 
ATOM     13  C   UNL A   1      28.711  30.728  21.278  1.00  0.00     0.016 C 
ENDBRANCH   6  11
BRANCH  10  14
ATOM     14  S   UNL A   1      31.873  26.067  24.751  1.00  0.00    -0.119 SA
BRANCH  14  15
ATOM     15  C   UNL A   1      33.291  26.162  23.593  1.00  0.00     0.109 C 
BRANCH  15  16
ATOM     16  C   UNL A   1      33.222  26.098  22.053  1.00  0.00     0.150 C 
BRANCH  16  17
ATOM     17  C   UNL A   1      32.114  25.300  21.370  1.00  0.00     0.188 C 
BRANCH  17  18
ATOM     18  O   UNL A   1      31.779  25.942  20.136  1.00  0.00    -0.394 OA
ATOM     19  H   UNL A   1      31.308  26.770  20.320  1.00  0.00     0.210 HD
ENDBRANCH  17  18
ENDBRANCH  16  17
BRANCH  16  20
ATOM     20  O   UNL A   1      33.081  27.454  21.567  1.00  0.00    -0.390 OA
ATOM     21  H   UNL A   1      32.821  27.438  20.632  1.00  0.00     0.211 HD
ENDBRANCH  16  20
ENDBRANCH  15  16
ENDBRANCH  14  15
ENDBRANCH  10  14
ENDBRANCH   1   5
BRANCH   3  22
ATOM     22  C   UNL A   1      31.732  30.679  26.886  1.00  0.00     0.118 C 
BRANCH  22  23
ATOM     23  C   UNL A   1      31.482  32.190  26.901  1.00  0.00     0.042 C 
BRANCH  23  24
ATOM     24  C   UNL A   1      32.750  33.031  26.917  1.00  0.00     0.118 C 
BRANCH  24  25
ATOM     25  N   UNL A   1      32.547  34.287  27.617  1.00  0.00    -0.352 N 
ATOM     26  C   UNL A   1      33.100  34.757  28.784  1.00  0.00     0.251 C 
ATOM     27  H   UNL A   1      31.911  34.902  27.184  1.00  0.00     0.163 HD
ATOM     28  O   UNL A   1      32.580  35.721  29.340  1.00  0.00    -0.269 OA
BRANCH  26  29
ATOM     29  C   UNL A   1      34.299  34.127  29.393  1.00  0.00     0.039 A 
ATOM     30  C   UNL A   1      34.117  33.240  30.462  1.00  0.00     0.014 A 
ATOM     31  C   UNL A   1      35.597  34.456  28.995  1.00  0.00     0.014 A 
ATOM     32  C   UNL A   1      35.222  32.659  31.094  1.00  0.00     0.010 A 
ATOM     33  C   UNL A   1      36.695  33.810  29.566  1.00  0.00     0.010 A 
ATOM     34  C   UNL A   1      36.522  32.919  30.635  1.00  0.00    -0.014 A 
BRANCH  34  35
ATOM     35  C   UNL A   1      37.713  32.302  31.281  1.00  0.00     0.031 A 
ATOM     36  C   UNL A   1      38.488  31.226  30.567  1.00  0.00     0.074 A 
ATOM     37  C   UNL A   1      38.062  32.661  32.531  1.00  0.00     0.049 A 
ATOM     38  N   UNL A   1      39.493  30.503  30.996  1.00  0.00    -0.248 NA
ATOM     39  C   UNL A   1      38.058  30.899  29.198  1.00  0.00     0.031 C 
ATOM     40  C   UNL A   1      37.370  33.658  33.348  1.00  0.00     0.029 A 
ATOM     41  N   UNL A   1      39.079  32.217  33.339  1.00  0.00    -0.354 N 
ATOM     42  C   UNL A   1      39.793  29.622  29.964  1.00  0.00     0.074 A 
ATOM     43  C   UNL A   1      38.838  29.869  28.906  1.00  0.00     0.031 C 
ATOM     44  C   UNL A   1      37.994  33.764  34.534  1.00  0.00     0.029 A 
ATOM     45  C   UNL A   1      39.104  32.817  34.575  1.00  0.00     0.049 A 
ATOM     46  H   UNL A   1      39.730  31.533  33.060  1.00  0.00     0.167 HD
ATOM     47  C   UNL A   1      40.788  28.705  29.895  1.00  0.00     0.037 A 
ATOM     48  C   UNL A   1      39.923  32.621  35.625  1.00  0.00     0.037 A 
ATOM     49  C   UNL A   1      41.764  28.488  30.930  1.00  0.00     0.049 A 
ATOM     50  C   UNL A   1      41.031  31.609  35.517  1.00  0.00     0.074 A 
ATOM     51  C   UNL A   1      42.852  27.631  30.926  1.00  0.00     0.029 A 
ATOM     52  N   UNL A   1      41.773  29.140  32.154  1.00  0.00    -0.354 N 
ATOM     53  N   UNL A   1      41.341  30.825  34.514  1.00  0.00    -0.248 NA
ATOM     54  C   UNL A   1      41.908  31.459  36.687  1.00  0.00     0.031 C 
ATOM     55  C   UNL A   1      43.497  27.737  32.163  1.00  0.00     0.029 A 
ATOM     56  C   UNL A   1      42.838  28.692  32.920  1.00  0.00     0.049 A 
ATOM     57  H   UNL A   1      41.120  29.819  32.437  1.00  0.00     0.167 HD
ATOM     58  C   UNL A   1      42.459  30.110  34.919  1.00  0.00     0.074 A 
ATOM     59  C   UNL A   1      42.784  30.562  36.256  1.00  0.00     0.031 C 
ATOM     60  C   UNL A   1      43.153  29.161  34.245  1.00  0.00     0.037 A 
BRANCH  47  61
ATOM     61  C   UNL A   1      40.877  27.867  28.652  1.00  0.00     0.064 A 
ATOM     62  C   UNL A   1      40.178  26.657  28.528  1.00  0.00     0.173 A 
ATOM     63  C   UNL A   1      41.641  28.298  27.556  1.00  0.00     0.173 A 
ATOM     64  F   UNL A   1      39.441  26.196  29.550  1.00  0.00    -0.203 F 
ATOM     65  C   UNL A   1      40.266  25.894  27.366  1.00  0.00     0.198 A 
ATOM     66  C   UNL A   1      41.704  27.546  26.385  1.00  0.00     0.198 A 
ATOM     67  F   UNL A   1      42.324  29.451  27.618  1.00  0.00    -0.203 F 
ATOM     68  F   UNL A   1      39.629  24.717  27.291  1.00  0.00    -0.200 F 
ATOM     69  C   UNL A   1      41.022  26.341  26.294  1.00  0.00     0.200 A 
ATOM     70  F   UNL A   1      42.425  27.987  25.345  1.00  0.00    -0.200 F 
ATOM     71  F   UNL A   1      41.101  25.609  25.175  1.00  0.00    -0.200 F 
ENDBRANCH  47  61
BRANCH  48  72
ATOM     72  C   UNL A   1      39.743  33.421  36.864  1.00  0.00     0.064 A 
ATOM     73  C   UNL A   1      38.904  32.972  37.893  1.00  0.00     0.173 A 
ATOM     74  C   UNL A   1      40.405  34.643  37.048  1.00  0.00     0.173 A 
ATOM     75  F   UNL A   1      38.234  31.818  37.755  1.00  0.00    -0.203 F 
ATOM     76  C   UNL A   1      38.721  33.722  39.052  1.00  0.00     0.198 A 
ATOM     77  C   UNL A   1      40.242  35.381  38.219  1.00  0.00     0.198 A 
ATOM     78  F   UNL A   1      41.224  35.114  36.095  1.00  0.00    -0.203 F 
ATOM     79  F   UNL A   1      37.882  33.289  40.003  1.00  0.00    -0.200 F 
ATOM     80  C   UNL A   1      39.395  34.924  39.217  1.00  0.00     0.200 A 
ATOM     81  F   UNL A   1      40.906  36.533  38.381  1.00  0.00    -0.200 F 
ATOM     82  F   UNL A   1      39.224  35.642  40.335  1.00  0.00    -0.200 F 
ENDBRANCH  48  72
BRANCH  60  83
ATOM     83  C   UNL A   1      44.353  28.573  34.926  1.00  0.00     0.064 A 
ATOM     84  C   UNL A   1      45.622  29.158  34.812  1.00  0.00     0.173 A 
ATOM     85  C   UNL A   1      44.223  27.435  35.737  1.00  0.00     0.173 A 
ATOM     86  F   UNL A   1      45.801  30.238  34.036  1.00  0.00    -0.203 F 
ATOM     87  C   UNL A   1      46.723  28.611  35.467  1.00  0.00     0.198 A 
ATOM     88  C   UNL A   1      45.320  26.907  36.411  1.00  0.00     0.198 A 
ATOM     89  F   UNL A   1      43.029  26.842  35.882  1.00  0.00    -0.203 F 
ATOM     90  F   UNL A   1      47.935  29.160  35.308  1.00  0.00    -0.200 F 
ATOM     91  C   UNL A   1      46.570  27.491  36.271  1.00  0.00     0.200 A 
ATOM     92  F   UNL A   1      45.167  25.832  37.196  1.00  0.00    -0.200 F 
ATOM     93  F   UNL A   1      47.629  26.970  36.905  1.00  0.00    -0.200 F 
ENDBRANCH  60  83
ENDBRANCH  34  35
ENDBRANCH  26  29
ENDBRANCH  24  25
ENDBRANCH  23  24
ENDBRANCH  22  23
ENDBRANCH   3  22
TORSDOF 17
ENDMDL
MODEL 2
REMARK VINA RESULT:     -10.9      2.952      8.367
REMARK SMILES CC(C)c1ncc(SC[C@H](O)CO)c(C(=O)NCCCNC(=O)c2ccc(-c3c4nc(c(-c5c(F)c(F)c(F)c(F)c5F)c5ccc([nH]5)c(-c5c(F)c(F)c(F)c(F)c5F)c5nc(c(-c6c(F)c(F)c(F)c(F)c6F)c6ccc3[nH]6)C=C5)C=C4)cc2)n1
REMARK SMILES IDX 15 1 16 2 17 3 14 5 4 6 5 7 87 8 6 9 7 10 2 11 1 12 3 13
REMARK SMILES IDX 8 14 9 15 10 16 12 17 13 18 11 20 18 22 19 23 20 24 21 25
REMARK SMILES IDX 22 26 23 28 24 29 25 30 86 31 26 32 85 33 27 34 28 35 29 36
REMARK SMILES IDX 79 37 30 38 84 39 78 40 80 41 31 42 83 43 77 44 76 45 32 47
REMARK SMILES IDX 64 48 44 49 63 50 45 51 48 52 62 53 81 54 46 55 47 56 61 58
REMARK SMILES IDX 82 59 49 60 33 61 34 62 42 63 35 64 36 65 40 66 43 67 37 68
REMARK SMILES IDX 38 69 41 70 39 71 65 72 66 73 74 74 67 75 68 76 72 77 75 78
REMARK SMILES IDX 69 79 70 80 73 81 71 82 50 83 51 84 59 85 52 86 53 87 57 88
REMARK SMILES IDX 60 89 54 90 55 91 58 92 56 93
REMARK H PARENT 17 4 13 19 11 21 21 27 80 46 48 57
REMARK Flexibility Score: inf
ROOT
ATOM      1  C   UNL A   1      30.533  26.239  25.902  1.00  0.00     0.271 C 
ATOM      2  O   UNL A   1      29.867  25.240  26.201  1.00  0.00    -0.267 OA
ATOM      3  N   UNL A   1      31.136  26.855  26.971  1.00  0.00    -0.351 N 
ATOM      4  H   UNL A   1      31.035  26.344  27.807  1.00  0.00     0.163 HD
ENDROOT
BRANCH   1   5
ATOM      5  C   UNL A   1      30.657  26.594  24.439  1.00  0.00     0.145 A 
ATOM      6  C   UNL A   1      29.690  28.057  22.901  1.00  0.00     0.131 A 
ATOM      7  N   UNL A   1      30.637  27.806  21.989  1.00  0.00    -0.240 NA
ATOM      8  N   UNL A   1      29.643  27.439  24.087  1.00  0.00    -0.226 NA
ATOM      9  C   UNL A   1      31.617  26.958  22.354  1.00  0.00     0.130 A 
ATOM     10  C   UNL A   1      31.700  26.295  23.570  1.00  0.00     0.057 A 
BRANCH   6  11
ATOM     11  C   UNL A   1      28.652  29.121  22.590  1.00  0.00     0.051 C 
ATOM     12  C   UNL A   1      27.263  28.756  23.128  1.00  0.00     0.016 C 
ATOM     13  C   UNL A   1      29.066  30.479  23.173  1.00  0.00     0.016 C 
ENDBRANCH   6  11
BRANCH  10  14
ATOM     14  S   UNL A   1      33.143  25.342  23.906  1.00  0.00    -0.119 SA
BRANCH  14  15
ATOM     15  C   UNL A   1      32.612  23.588  23.937  1.00  0.00     0.109 C 
BRANCH  15  16
ATOM     16  C   UNL A   1      32.925  22.517  22.870  1.00  0.00     0.150 C 
BRANCH  16  17
ATOM     17  C   UNL A   1      32.142  21.207  22.850  1.00  0.00     0.188 C 
BRANCH  17  18
ATOM     18  O   UNL A   1      31.497  21.077  21.579  1.00  0.00    -0.394 OA
ATOM     19  H   UNL A   1      32.052  21.481  20.893  1.00  0.00     0.210 HD
ENDBRANCH  17  18
ENDBRANCH  16  17
BRANCH  16  20
ATOM     20  O   UNL A   1      32.710  23.121  21.572  1.00  0.00    -0.390 OA
ATOM     21  H   UNL A   1      32.141  22.543  21.038  1.00  0.00     0.211 HD
ENDBRANCH  16  20
ENDBRANCH  15  16
ENDBRANCH  14  15
ENDBRANCH  10  14
ENDBRANCH   1   5
BRANCH   3  22
ATOM     22  C   UNL A   1      31.887  28.080  27.161  1.00  0.00     0.118 C 
BRANCH  22  23
ATOM     23  C   UNL A   1      33.375  27.828  26.903  1.00  0.00     0.042 C 
BRANCH  23  24
ATOM     24  C   UNL A   1      34.036  28.865  26.006  1.00  0.00     0.118 C 
BRANCH  24  25
ATOM     25  N   UNL A   1      33.847  30.210  26.518  1.00  0.00    -0.352 N 
ATOM     26  C   UNL A   1      34.477  30.870  27.546  1.00  0.00     0.251 C 
ATOM     27  H   UNL A   1      33.157  30.735  26.052  1.00  0.00     0.163 HD
ATOM     28  O   UNL A   1      33.970  31.897  27.990  1.00  0.00    -0.269 OA
BRANCH  26  29
ATOM     29  C   UNL A   1      35.744  30.370  28.140  1.00  0.00     0.039 A 
ATOM     30  C   UNL A   1      36.928  30.513  27.405  1.00  0.00     0.014 A 
ATOM     31  C   UNL A   1      35.776  29.687  29.358  1.00  0.00     0.014 A 
ATOM     32  C   UNL A   1      38.135  30.017  27.908  1.00  0.00     0.010 A 
ATOM     33  C   UNL A   1      36.993  29.270  29.900  1.00  0.00     0.010 A 
ATOM     34  C   UNL A   1      38.184  29.412  29.174  1.00  0.00    -0.014 A 
BRANCH  34  35
ATOM     35  C   UNL A   1      39.458  28.889  29.737  1.00  0.00     0.031 A 
ATOM     36  C   UNL A   1      40.144  29.618  30.861  1.00  0.00     0.074 A 
ATOM     37  C   UNL A   1      40.033  27.795  29.199  1.00  0.00     0.049 A 
ATOM     38  N   UNL A   1      41.303  29.376  31.425  1.00  0.00    -0.248 NA
ATOM     39  C   UNL A   1      39.448  30.794  31.409  1.00  0.00     0.031 C 
ATOM     40  C   UNL A   1      39.495  27.022  28.080  1.00  0.00     0.029 A 
ATOM     41  N   UNL A   1      41.205  27.154  29.514  1.00  0.00    -0.354 N 
ATOM     42  C   UNL A   1      41.483  30.381  32.367  1.00  0.00     0.074 A 
ATOM     43  C   UNL A   1      40.339  31.262  32.270  1.00  0.00     0.031 C 
ATOM     44  C   UNL A   1      40.324  25.999  27.813  1.00  0.00     0.029 A 
ATOM     45  C   UNL A   1      41.469  26.067  28.716  1.00  0.00     0.049 A 
ATOM     46  H   UNL A   1      41.799  27.444  30.242  1.00  0.00     0.167 HD
ATOM     47  C   UNL A   1      42.500  30.545  33.247  1.00  0.00     0.037 A 
ATOM     48  C   UNL A   1      42.519  25.224  28.708  1.00  0.00     0.037 A 
ATOM     49  C   UNL A   1      43.617  29.646  33.372  1.00  0.00     0.049 A 
ATOM     50  C   UNL A   1      43.627  25.416  29.708  1.00  0.00     0.074 A 
ATOM     51  C   UNL A   1      44.662  29.688  34.279  1.00  0.00     0.029 A 
ATOM     52  N   UNL A   1      43.832  28.539  32.566  1.00  0.00    -0.354 N 
ATOM     53  N   UNL A   1      43.757  26.336  30.632  1.00  0.00    -0.248 NA
ATOM     54  C   UNL A   1      44.733  24.449  29.666  1.00  0.00     0.031 C 
ATOM     55  C   UNL A   1      45.529  28.627  33.997  1.00  0.00     0.029 A 
ATOM     56  C   UNL A   1      45.001  27.899  32.944  1.00  0.00     0.049 A 
ATOM     57  H   UNL A   1      43.241  28.251  31.833  1.00  0.00     0.167 HD
ATOM     58  C   UNL A   1      44.940  26.046  31.297  1.00  0.00     0.074 A 
ATOM     59  C   UNL A   1      45.486  24.855  30.679  1.00  0.00     0.031 C 
ATOM     60  C   UNL A   1      45.524  26.708  32.325  1.00  0.00     0.037 A 
BRANCH  47  61
ATOM     61  C   UNL A   1      42.449  31.741  34.154  1.00  0.00     0.064 A 
ATOM     62  C   UNL A   1      41.816  31.690  35.405  1.00  0.00     0.173 A 
ATOM     63  C   UNL A   1      43.071  32.943  33.783  1.00  0.00     0.173 A 
ATOM     64  F   UNL A   1      41.197  30.568  35.803  1.00  0.00    -0.203 F 
ATOM     65  C   UNL A   1      41.781  32.806  36.237  1.00  0.00     0.198 A 
ATOM     66  C   UNL A   1      43.060  34.049  34.631  1.00  0.00     0.198 A 
ATOM     67  F   UNL A   1      43.697  33.045  32.601  1.00  0.00    -0.203 F 
ATOM     68  F   UNL A   1      41.128  32.746  37.406  1.00  0.00    -0.200 F 
ATOM     69  C   UNL A   1      42.408  33.981  35.853  1.00  0.00     0.200 A 
ATOM     70  F   UNL A   1      43.677  35.179  34.263  1.00  0.00    -0.200 F 
ATOM     71  F   UNL A   1      42.380  35.052  36.658  1.00  0.00    -0.200 F 
ENDBRANCH  47  61
BRANCH  48  72
ATOM     72  C   UNL A   1      42.560  24.102  27.736  1.00  0.00     0.064 A 
ATOM     73  C   UNL A   1      43.022  24.301  26.427  1.00  0.00     0.173 A 
ATOM     74  C   UNL A   1      42.146  22.810  28.092  1.00  0.00     0.173 A 
ATOM     75  F   UNL A   1      43.411  25.524  26.034  1.00  0.00    -0.203 F 
ATOM     76  C   UNL A   1      43.052  23.257  25.507  1.00  0.00     0.198 A 
ATOM     77  C   UNL A   1      42.201  21.760  27.178  1.00  0.00     0.198 A 
ATOM     78  F   UNL A   1      41.701  22.565  29.333  1.00  0.00    -0.203 F 
ATOM     79  F   UNL A   1      43.460  23.484  24.251  1.00  0.00    -0.200 F 
ATOM     80  C   UNL A   1      42.647  21.985  25.885  1.00  0.00     0.200 A 
ATOM     81  F   UNL A   1      41.823  20.529  27.550  1.00  0.00    -0.200 F 
ATOM     82  F   UNL A   1      42.682  20.978  25.001  1.00  0.00    -0.200 F 
ENDBRANCH  48  72
BRANCH  60  83
ATOM     83  C   UNL A   1      46.801  26.140  32.872  1.00  0.00     0.064 A 
ATOM     84  C   UNL A   1      46.803  25.237  33.944  1.00  0.00     0.173 A 
ATOM     85  C   UNL A   1      48.032  26.472  32.287  1.00  0.00     0.173 A 
ATOM     86  F   UNL A   1      45.652  24.901  34.546  1.00  0.00    -0.203 F 
ATOM     87  C   UNL A   1      47.996  24.704  34.427  1.00  0.00     0.198 A 
ATOM     88  C   UNL A   1      49.219  25.917  32.755  1.00  0.00     0.198 A 
ATOM     89  F   UNL A   1      48.082  27.327  31.255  1.00  0.00    -0.203 F 
ATOM     90  F   UNL A   1      47.979  23.877  35.481  1.00  0.00    -0.200 F 
ATOM     91  C   UNL A   1      49.202  25.039  33.828  1.00  0.00     0.200 A 
ATOM     92  F   UNL A   1      50.382  26.233  32.168  1.00  0.00    -0.200 F 
ATOM     93  F   UNL A   1      50.347  24.520  34.290  1.00  0.00    -0.200 F 
ENDBRANCH  60  83
ENDBRANCH  34  35
ENDBRANCH  26  29
ENDBRANCH  24  25
ENDBRANCH  23  24
ENDBRANCH  22  23
ENDBRANCH   3  22
TORSDOF 17
ENDMDL
MODEL 3
REMARK VINA RESULT:     -10.9      2.156      3.842
REMARK SMILES CC(C)c1ncc(SC[C@H](O)CO)c(C(=O)NCCCNC(=O)c2ccc(-c3c4nc(c(-c5c(F)c(F)c(F)c(F)c5F)c5ccc([nH]5)c(-c5c(F)c(F)c(F)c(F)c5F)c5nc(c(-c6c(F)c(F)c(F)c(F)c6F)c6ccc3[nH]6)C=C5)C=C4)cc2)n1
REMARK SMILES IDX 15 1 16 2 17 3 14 5 4 6 5 7 87 8 6 9 7 10 2 11 1 12 3 13
REMARK SMILES IDX 8 14 9 15 10 16 12 17 13 18 11 20 18 22 19 23 20 24 21 25
REMARK SMILES IDX 22 26 23 28 24 29 25 30 86 31 26 32 85 33 27 34 28 35 29 36
REMARK SMILES IDX 79 37 30 38 84 39 78 40 80 41 31 42 83 43 77 44 76 45 32 47
REMARK SMILES IDX 64 48 44 49 63 50 45 51 48 52 62 53 81 54 46 55 47 56 61 58
REMARK SMILES IDX 82 59 49 60 33 61 34 62 42 63 35 64 36 65 40 66 43 67 37 68
REMARK SMILES IDX 38 69 41 70 39 71 65 72 66 73 74 74 67 75 68 76 72 77 75 78
REMARK SMILES IDX 69 79 70 80 73 81 71 82 50 83 51 84 59 85 52 86 53 87 57 88
REMARK SMILES IDX 60 89 54 90 55 91 58 92 56 93
REMARK H PARENT 17 4 13 19 11 21 21 27 80 46 48 57
REMARK Flexibility Score: inf
ROOT
ATOM      1  C   UNL A   1      32.039  26.347  21.881  1.00  0.00     0.271 C 
ATOM      2  O   UNL A   1      31.352  26.208  20.860  1.00  0.00    -0.267 OA
ATOM      3  N   UNL A   1      32.972  27.352  21.800  1.00  0.00    -0.351 N 
ATOM      4  H   UNL A   1      32.882  27.883  20.976  1.00  0.00     0.163 HD
ENDROOT
BRANCH   1   5
ATOM      5  C   UNL A   1      31.718  25.475  23.072  1.00  0.00     0.145 A 
ATOM      6  C   UNL A   1      32.783  23.916  24.442  1.00  0.00     0.131 A 
ATOM      7  N   UNL A   1      31.781  23.933  25.328  1.00  0.00    -0.240 NA
ATOM      8  N   UNL A   1      32.757  24.618  23.303  1.00  0.00    -0.226 NA
ATOM      9  C   UNL A   1      30.761  24.775  25.071  1.00  0.00     0.130 A 
ATOM     10  C   UNL A   1      30.646  25.585  23.950  1.00  0.00     0.057 A 
BRANCH   6  11
ATOM     11  C   UNL A   1      34.020  23.099  24.767  1.00  0.00     0.051 C 
ATOM     12  C   UNL A   1      35.000  23.029  23.589  1.00  0.00     0.016 C 
ATOM     13  C   UNL A   1      34.754  23.674  25.986  1.00  0.00     0.016 C 
ENDBRANCH   6  11
BRANCH  10  14
ATOM     14  S   UNL A   1      29.304  26.723  23.876  1.00  0.00    -0.119 SA
BRANCH  14  15
ATOM     15  C   UNL A   1      30.029  28.355  23.464  1.00  0.00     0.109 C 
BRANCH  15  16
ATOM     16  C   UNL A   1      29.646  29.252  22.267  1.00  0.00     0.150 C 
BRANCH  16  17
ATOM     17  C   UNL A   1      28.837  30.526  22.495  1.00  0.00     0.188 C 
BRANCH  17  18
ATOM     18  O   UNL A   1      29.643  31.653  22.134  1.00  0.00    -0.394 OA
ATOM     19  H   UNL A   1      29.558  31.818  21.182  1.00  0.00     0.210 HD
ENDBRANCH  17  18
ENDBRANCH  16  17
BRANCH  16  20
ATOM     20  O   UNL A   1      30.876  29.679  21.634  1.00  0.00    -0.390 OA
ATOM     21  H   UNL A   1      30.937  29.286  20.748  1.00  0.00     0.211 HD
ENDBRANCH  16  20
ENDBRANCH  15  16
ENDBRANCH  14  15
ENDBRANCH  10  14
ENDBRANCH   1   5
BRANCH   3  22
ATOM     22  C   UNL A   1      34.057  27.815  22.640  1.00  0.00     0.118 C 
BRANCH  22  23
ATOM     23  C   UNL A   1      33.652  29.107  23.355  1.00  0.00     0.042 C 
BRANCH  23  24
ATOM     24  C   UNL A   1      33.496  28.963  24.862  1.00  0.00     0.118 C 
BRANCH  24  25
ATOM     25  N   UNL A   1      32.873  30.136  25.448  1.00  0.00    -0.352 N 
ATOM     26  C   UNL A   1      33.144  30.797  26.622  1.00  0.00     0.251 C 
ATOM     27  H   UNL A   1      32.138  30.521  24.918  1.00  0.00     0.163 HD
ATOM     28  O   UNL A   1      32.316  31.592  27.059  1.00  0.00    -0.269 OA
BRANCH  26  29
ATOM     29  C   UNL A   1      34.402  30.569  27.379  1.00  0.00     0.039 A 
ATOM     30  C   UNL A   1      34.626  29.303  27.935  1.00  0.00     0.014 A 
ATOM     31  C   UNL A   1      35.319  31.594  27.626  1.00  0.00     0.014 A 
ATOM     32  C   UNL A   1      35.776  29.058  28.693  1.00  0.00     0.010 A 
ATOM     33  C   UNL A   1      36.508  31.327  28.306  1.00  0.00     0.010 A 
ATOM     34  C   UNL A   1      36.742  30.062  28.865  1.00  0.00    -0.014 A 
BRANCH  34  35
ATOM     35  C   UNL A   1      37.981  29.822  29.654  1.00  0.00     0.031 A 
ATOM     36  C   UNL A   1      39.050  28.905  29.123  1.00  0.00     0.074 A 
ATOM     37  C   UNL A   1      38.120  30.376  30.874  1.00  0.00     0.049 A 
ATOM     38  N   UNL A   1      40.155  28.496  29.696  1.00  0.00    -0.248 NA
ATOM     39  C   UNL A   1      38.837  28.351  27.776  1.00  0.00     0.031 C 
ATOM     40  C   UNL A   1      37.140  31.247  31.523  1.00  0.00     0.029 A 
ATOM     41  N   UNL A   1      39.135  30.276  31.792  1.00  0.00    -0.354 N 
ATOM     42  C   UNL A   1      40.749  27.620  28.796  1.00  0.00     0.074 A 
ATOM     43  C   UNL A   1      39.862  27.521  27.656  1.00  0.00     0.031 C 
ATOM     44  C   UNL A   1      37.609  31.618  32.725  1.00  0.00     0.029 A 
ATOM     45  C   UNL A   1      38.904  30.981  32.948  1.00  0.00     0.049 A 
ATOM     46  H   UNL A   1      39.952  29.750  31.637  1.00  0.00     0.167 HD
ATOM     47  C   UNL A   1      41.934  26.974  28.899  1.00  0.00     0.037 A 
ATOM     48  C   UNL A   1      39.647  31.096  34.065  1.00  0.00     0.037 A 
ATOM     49  C   UNL A   1      42.836  27.105  30.013  1.00  0.00     0.049 A 
ATOM     50  C   UNL A   1      40.969  30.382  34.148  1.00  0.00     0.074 A 
ATOM     51  C   UNL A   1      44.092  26.545  30.180  1.00  0.00     0.029 A 
ATOM     52  N   UNL A   1      42.578  27.855  31.151  1.00  0.00    -0.354 N 
ATOM     53  N   UNL A   1      41.545  29.604  33.265  1.00  0.00    -0.248 NA
ATOM     54  C   UNL A   1      41.746  30.567  35.382  1.00  0.00     0.031 C 
ATOM     55  C   UNL A   1      44.577  26.926  31.435  1.00  0.00     0.029 A 
ATOM     56  C   UNL A   1      43.645  27.759  32.031  1.00  0.00     0.049 A 
ATOM     57  H   UNL A   1      41.759  28.377  31.310  1.00  0.00     0.167 HD
ATOM     58  C   UNL A   1      42.759  29.228  33.823  1.00  0.00     0.074 A 
ATOM     59  C   UNL A   1      42.845  29.874  35.116  1.00  0.00     0.031 C 
ATOM     60  C   UNL A   1      43.717  28.418  33.310  1.00  0.00     0.037 A 
BRANCH  47  61
ATOM     61  C   UNL A   1      42.332  26.066  27.771  1.00  0.00     0.064 A 
ATOM     62  C   UNL A   1      43.148  26.512  26.720  1.00  0.00     0.173 A 
ATOM     63  C   UNL A   1      41.921  24.724  27.757  1.00  0.00     0.173 A 
ATOM     64  F   UNL A   1      43.560  27.788  26.680  1.00  0.00    -0.203 F 
ATOM     65  C   UNL A   1      43.513  25.657  25.683  1.00  0.00     0.198 A 
ATOM     66  C   UNL A   1      42.313  23.864  26.733  1.00  0.00     0.198 A 
ATOM     67  F   UNL A   1      41.146  24.244  28.741  1.00  0.00    -0.203 F 
ATOM     68  F   UNL A   1      44.253  26.120  24.666  1.00  0.00    -0.200 F 
ATOM     69  C   UNL A   1      43.101  24.334  25.694  1.00  0.00     0.200 A 
ATOM     70  F   UNL A   1      41.924  22.582  26.752  1.00  0.00    -0.200 F 
ATOM     71  F   UNL A   1      43.458  23.510  24.698  1.00  0.00    -0.200 F 
ENDBRANCH  47  61
BRANCH  48  72
ATOM     72  C   UNL A   1      39.170  31.944  35.188  1.00  0.00     0.064 A 
ATOM     73  C   UNL A   1      38.445  31.388  36.250  1.00  0.00     0.173 A 
ATOM     74  C   UNL A   1      39.432  33.321  35.227  1.00  0.00     0.173 A 
ATOM     75  F   UNL A   1      38.153  30.078  36.248  1.00  0.00    -0.203 F 
ATOM     76  C   UNL A   1      37.984  32.178  37.300  1.00  0.00     0.198 A 
ATOM     77  C   UNL A   1      38.993  34.107  36.290  1.00  0.00     0.198 A 
ATOM     78  F   UNL A   1      40.127  33.901  34.237  1.00  0.00    -0.203 F 
ATOM     79  F   UNL A   1      37.259  31.628  38.283  1.00  0.00    -0.200 F 
ATOM     80  C   UNL A   1      38.264  33.537  37.322  1.00  0.00     0.200 A 
ATOM     81  F   UNL A   1      39.278  35.416  36.316  1.00  0.00    -0.200 F 
ATOM     82  F   UNL A   1      37.827  34.296  38.336  1.00  0.00    -0.200 F 
ENDBRANCH  48  72
BRANCH  60  83
ATOM     83  C   UNL A   1      44.956  28.212  34.132  1.00  0.00     0.064 A 
ATOM     84  C   UNL A   1      46.064  29.062  34.014  1.00  0.00     0.173 A 
ATOM     85  C   UNL A   1      45.016  27.178  35.077  1.00  0.00     0.173 A 
ATOM     86  F   UNL A   1      46.061  30.056  33.113  1.00  0.00    -0.203 F 
ATOM     87  C   UNL A   1      47.199  28.869  34.798  1.00  0.00     0.198 A 
ATOM     88  C   UNL A   1      46.141  27.004  35.878  1.00  0.00     0.198 A 
ATOM     89  F   UNL A   1      43.979  26.341  35.232  1.00  0.00    -0.203 F 
ATOM     90  F   UNL A   1      48.265  29.666  34.638  1.00  0.00    -0.200 F 
ATOM     91  C   UNL A   1      47.234  27.845  35.734  1.00  0.00     0.200 A 
ATOM     92  F   UNL A   1      46.168  26.022  36.789  1.00  0.00    -0.200 F 
ATOM     93  F   UNL A   1      48.324  27.666  36.492  1.00  0.00    -0.200 F 
ENDBRANCH  60  83
ENDBRANCH  34  35
ENDBRANCH  26  29
ENDBRANCH  24  25
ENDBRANCH  23  24
ENDBRANCH  22  23
ENDBRANCH   3  22
TORSDOF 17
ENDMDL
