MODEL 1
REMARK VINA RESULT:     -13.6      0.000      0.000
REMARK SMILES Cc1cccc(NC(=O)C[C@H]([NH2+]C(C)C)C(=O)NCCCNC(=O)c2ccc(-c3c4nc(c(-c5c(F)c(F)c(F)c(F)c5F)c5ccc([nH]5)c(-c5c(F)c(F)c(F)c(F)c5F)c5nc(c(-c6c(F)c(F)c(F)c(F)c6F)c6ccc3[nH]6)C=C5)C=C4)cc2)c1
REMARK SMILES IDX 19 1 18 2 16 3 17 4 11 6 10 7 8 8 7 9 9 11 6 12 1 13 2 14
REMARK SMILES IDX 3 15 88 16 4 17 5 18 12 19 13 22 14 23 15 24 20 25 21 26
REMARK SMILES IDX 22 27 23 28 24 30 25 31 26 32 87 33 27 34 86 35 28 36 29 37
REMARK SMILES IDX 30 38 80 39 31 40 85 41 79 42 81 43 32 44 84 45 78 46 77 47
REMARK SMILES IDX 33 49 65 50 45 51 64 52 46 53 49 54 63 55 82 56 47 57 48 58
REMARK SMILES IDX 62 60 83 61 50 62 34 63 35 64 43 65 36 66 37 67 41 68 44 69
REMARK SMILES IDX 38 70 39 71 42 72 40 73 66 74 67 75 75 76 68 77 69 78 73 79
REMARK SMILES IDX 76 80 70 81 71 82 74 83 72 84 51 85 52 86 60 87 53 88 54 89
REMARK SMILES IDX 58 90 61 91 55 92 56 93 59 94 57 95
REMARK H PARENT 18 5 7 10 12 20 12 21 22 29 81 48 49 59
REMARK Flexibility Score: inf
ROOT
ATOM      1  C   UNL A   1      33.189  28.273  25.571  1.00  0.00     0.118 C 
ENDROOT
BRANCH   1   2
ATOM      2  N   UNL A   1      32.068  27.137  24.235  1.00  0.00    -0.351 N 
ATOM      3  C   UNL A   1      31.352  26.040  23.761  1.00  0.00     0.278 C 
ATOM      4  O   UNL A   1      30.715  26.312  22.721  1.00  0.00    -0.268 OA
ATOM      5  H   UNL A   1      32.005  27.751  23.468  1.00  0.00     0.163 HD
BRANCH   3   6
ATOM      6  C   UNL A   1      31.269  24.594  24.263  1.00  0.00     0.282 C 
BRANCH   6   7
ATOM      7  C   UNL A   1      32.185  24.234  25.461  1.00  0.00     0.175 C 
BRANCH   7   8
ATOM      8  C   UNL A   1      31.539  23.593  26.700  1.00  0.00     0.230 C 
ATOM      9  N   UNL A   1      32.004  22.437  27.272  1.00  0.00    -0.326 N 
ATOM     10  H   UNL A   1      31.423  21.991  27.929  1.00  0.00     0.169 HD
ATOM     11  O   UNL A   1      30.548  24.122  27.215  1.00  0.00    -0.274 OA
BRANCH   9  12
ATOM     12  C   UNL A   1      33.242  21.841  26.997  1.00  0.00     0.041 A 
ATOM     13  C   UNL A   1      37.139  23.755  25.974  1.00  0.00     0.044 C 
ATOM     14  C   UNL A   1      36.083  22.726  25.996  1.00  0.00    -0.049 A 
ATOM     15  C   UNL A   1      36.055  21.391  24.773  1.00  0.00     0.003 A 
ATOM     16  C   UNL A   1      34.651  22.969  27.095  1.00  0.00     0.029 A 
ATOM     17  C   UNL A   1      34.668  20.222  24.740  1.00  0.00     0.002 A 
ATOM     18  C   UNL A   1      33.291  20.411  25.881  1.00  0.00     0.026 A 
ENDBRANCH   9  12
ENDBRANCH   7   8
ENDBRANCH   6   7
BRANCH   6  19
ATOM     19  N   UNL A   1      31.212  23.591  23.134  1.00  0.00    -0.334 N 
ATOM     20  H   UNL A   1      31.114  24.108  22.259  1.00  0.00     0.347 HD
ATOM     21  H   UNL A   1      30.423  22.980  23.343  1.00  0.00     0.347 HD
BRANCH  19  22
ATOM     22  C   UNL A   1      32.393  22.699  23.006  1.00  0.00     0.176 C 
ATOM     23  C   UNL A   1      31.971  21.365  22.371  1.00  0.00     0.075 C 
ATOM     24  C   UNL A   1      33.629  23.256  22.311  1.00  0.00     0.075 C 
ENDBRANCH  19  22
ENDBRANCH   6  19
ENDBRANCH   3   6
ENDBRANCH   1   2
BRANCH   1  25
ATOM     25  C   UNL A   1      33.231  29.985  25.908  1.00  0.00     0.042 C 
BRANCH  25  26
ATOM     26  C   UNL A   1      33.065  30.371  27.374  1.00  0.00     0.118 C 
BRANCH  26  27
ATOM     27  N   UNL A   1      33.987  31.381  27.845  1.00  0.00    -0.352 N 
ATOM     28  C   UNL A   1      35.116  31.238  28.626  1.00  0.00     0.251 C 
ATOM     29  H   UNL A   1      33.778  32.303  27.570  1.00  0.00     0.163 HD
ATOM     30  O   UNL A   1      35.535  32.217  29.236  1.00  0.00    -0.269 OA
BRANCH  28  31
ATOM     31  C   UNL A   1      35.958  30.010  28.543  1.00  0.00     0.039 A 
ATOM     32  C   UNL A   1      36.330  29.471  29.783  1.00  0.00     0.014 A 
ATOM     33  C   UNL A   1      36.734  29.744  27.430  1.00  0.00     0.014 A 
ATOM     34  C   UNL A   1      37.635  29.047  29.978  1.00  0.00     0.010 A 
ATOM     35  C   UNL A   1      38.066  29.499  27.642  1.00  0.00     0.010 A 
ATOM     36  C   UNL A   1      38.525  29.223  28.934  1.00  0.00    -0.014 A 
BRANCH  36  37
ATOM     37  C   UNL A   1      39.934  28.917  29.003  1.00  0.00     0.031 A 
ATOM     38  C   UNL A   1      40.241  27.522  28.640  1.00  0.00     0.074 A 
ATOM     39  C   UNL A   1      40.857  29.867  29.279  1.00  0.00     0.049 A 
ATOM     40  N   UNL A   1      41.330  26.938  28.954  1.00  0.00    -0.248 NA
ATOM     41  C   UNL A   1      39.304  26.626  27.957  1.00  0.00     0.031 C 
ATOM     42  C   UNL A   1      42.307  29.806  29.113  1.00  0.00     0.029 A 
ATOM     43  N   UNL A   1      40.656  31.084  29.946  1.00  0.00    -0.354 N 
ATOM     44  C   UNL A   1      41.370  25.729  28.297  1.00  0.00     0.074 A 
ATOM     45  C   UNL A   1      40.052  25.539  27.764  1.00  0.00     0.031 C 
ATOM     46  C   UNL A   1      42.882  30.725  29.912  1.00  0.00     0.029 A 
ATOM     47  C   UNL A   1      41.825  31.334  30.695  1.00  0.00     0.049 A 
ATOM     48  H   UNL A   1      39.854  31.654  29.901  1.00  0.00     0.167 HD
ATOM     49  C   UNL A   1      42.583  25.126  28.209  1.00  0.00     0.037 A 
ATOM     50  C   UNL A   1      41.757  31.400  32.055  1.00  0.00     0.037 A 
ATOM     51  C   UNL A   1      43.541  25.896  28.999  1.00  0.00     0.049 A 
ATOM     52  C   UNL A   1      42.516  30.255  32.674  1.00  0.00     0.074 A 
ATOM     53  C   UNL A   1      44.428  26.909  28.676  1.00  0.00     0.029 A 
ATOM     54  N   UNL A   1      43.330  25.979  30.368  1.00  0.00    -0.354 N 
ATOM     55  N   UNL A   1      42.755  29.124  32.059  1.00  0.00    -0.248 NA
ATOM     56  C   UNL A   1      43.159  30.331  33.977  1.00  0.00     0.031 C 
ATOM     57  C   UNL A   1      44.760  27.594  29.878  1.00  0.00     0.029 A 
ATOM     58  C   UNL A   1      44.084  26.987  30.925  1.00  0.00     0.049 A 
ATOM     59  H   UNL A   1      42.720  25.395  30.874  1.00  0.00     0.167 HD
ATOM     60  C   UNL A   1      43.616  28.365  32.812  1.00  0.00     0.074 A 
ATOM     61  C   UNL A   1      43.830  29.166  34.003  1.00  0.00     0.031 C 
ATOM     62  C   UNL A   1      44.102  27.160  32.372  1.00  0.00     0.037 A 
BRANCH  49  63
ATOM     63  C   UNL A   1      42.980  24.008  27.283  1.00  0.00     0.064 A 
ATOM     64  C   UNL A   1      42.533  22.696  27.559  1.00  0.00     0.173 A 
ATOM     65  C   UNL A   1      43.803  24.123  26.148  1.00  0.00     0.173 A 
ATOM     66  F   UNL A   1      41.720  22.434  28.590  1.00  0.00    -0.203 F 
ATOM     67  C   UNL A   1      42.910  21.593  26.792  1.00  0.00     0.198 A 
ATOM     68  C   UNL A   1      44.198  23.013  25.391  1.00  0.00     0.198 A 
ATOM     69  F   UNL A   1      44.232  25.304  25.698  1.00  0.00    -0.203 F 
ATOM     70  F   UNL A   1      42.455  20.375  27.115  1.00  0.00    -0.200 F 
ATOM     71  C   UNL A   1      43.752  21.750  25.712  1.00  0.00     0.200 A 
ATOM     72  F   UNL A   1      45.012  23.185  24.338  1.00  0.00    -0.200 F 
ATOM     73  F   UNL A   1      44.119  20.691  24.979  1.00  0.00    -0.200 F 
ENDBRANCH  49  63
BRANCH  50  74
ATOM     74  C   UNL A   1      40.469  32.032  32.487  1.00  0.00     0.064 A 
ATOM     75  C   UNL A   1      39.544  31.148  33.093  1.00  0.00     0.173 A 
ATOM     76  C   UNL A   1      40.423  33.373  32.889  1.00  0.00     0.173 A 
ATOM     77  F   UNL A   1      39.502  29.863  32.708  1.00  0.00    -0.203 F 
ATOM     78  C   UNL A   1      38.839  31.517  34.237  1.00  0.00     0.198 A 
ATOM     79  C   UNL A   1      39.651  33.754  33.993  1.00  0.00     0.198 A 
ATOM     80  F   UNL A   1      41.249  34.274  32.338  1.00  0.00    -0.203 F 
ATOM     81  F   UNL A   1      38.168  30.589  34.938  1.00  0.00    -0.200 F 
ATOM     82  C   UNL A   1      38.937  32.809  34.718  1.00  0.00     0.200 A 
ATOM     83  F   UNL A   1      39.681  35.024  34.418  1.00  0.00    -0.200 F 
ATOM     84  F   UNL A   1      38.390  33.125  35.902  1.00  0.00    -0.200 F 
ENDBRANCH  50  74
BRANCH  62  85
ATOM     85  C   UNL A   1      44.706  26.031  33.204  1.00  0.00     0.064 A 
ATOM     86  C   UNL A   1      46.049  25.633  33.162  1.00  0.00     0.173 A 
ATOM     87  C   UNL A   1      43.942  25.386  34.223  1.00  0.00     0.173 A 
ATOM     88  F   UNL A   1      46.938  26.213  32.351  1.00  0.00    -0.203 F 
ATOM     89  C   UNL A   1      46.567  24.648  34.011  1.00  0.00     0.198 A 
ATOM     90  C   UNL A   1      44.485  24.480  35.130  1.00  0.00     0.198 A 
ATOM     91  F   UNL A   1      42.638  25.622  34.413  1.00  0.00    -0.203 F 
ATOM     92  F   UNL A   1      47.844  24.268  33.872  1.00  0.00    -0.200 F 
ATOM     93  C   UNL A   1      45.793  24.089  35.008  1.00  0.00     0.200 A 
ATOM     94  F   UNL A   1      43.726  24.008  36.130  1.00  0.00    -0.200 F 
ATOM     95  F   UNL A   1      46.313  23.192  35.855  1.00  0.00    -0.200 F 
ENDBRANCH  62  85
ENDBRANCH  36  37
ENDBRANCH  28  31
ENDBRANCH  26  27
ENDBRANCH  25  26
ENDBRANCH   1  25
TORSDOF 15
ENDMDL
MODEL 2
REMARK VINA RESULT:     -13.6      1.012      2.253
REMARK SMILES Cc1cccc(NC(=O)C[C@H]([NH2+]C(C)C)C(=O)NCCCNC(=O)c2ccc(-c3c4nc(c(-c5c(F)c(F)c(F)c(F)c5F)c5ccc([nH]5)c(-c5c(F)c(F)c(F)c(F)c5F)c5nc(c(-c6c(F)c(F)c(F)c(F)c6F)c6ccc3[nH]6)C=C5)C=C4)cc2)c1
REMARK SMILES IDX 19 1 18 2 16 3 17 4 11 6 10 7 8 8 7 9 9 11 6 12 1 13 2 14
REMARK SMILES IDX 3 15 88 16 4 17 5 18 12 19 13 22 14 23 15 24 20 25 21 26
REMARK SMILES IDX 22 27 23 28 24 30 25 31 26 32 87 33 27 34 86 35 28 36 29 37
REMARK SMILES IDX 30 38 80 39 31 40 85 41 79 42 81 43 32 44 84 45 78 46 77 47
REMARK SMILES IDX 33 49 65 50 45 51 64 52 46 53 49 54 63 55 82 56 47 57 48 58
REMARK SMILES IDX 62 60 83 61 50 62 34 63 35 64 43 65 36 66 37 67 41 68 44 69
REMARK SMILES IDX 38 70 39 71 42 72 40 73 66 74 67 75 75 76 68 77 69 78 73 79
REMARK SMILES IDX 76 80 70 81 71 82 74 83 72 84 51 85 52 86 60 87 53 88 54 89
REMARK SMILES IDX 58 90 61 91 55 92 56 93 59 94 57 95
REMARK H PARENT 18 5 7 10 12 20 12 21 22 29 81 48 49 59
REMARK Flexibility Score: inf
ROOT
ATOM      1  C   UNL A   1      32.438  28.455  27.480  1.00  0.00     0.118 C 
ENDROOT
BRANCH   1   2
ATOM      2  N   UNL A   1      31.171  26.937  26.831  1.00  0.00    -0.351 N 
ATOM      3  C   UNL A   1      30.521  26.099  25.928  1.00  0.00     0.278 C 
ATOM      4  O   UNL A   1      29.963  25.139  26.499  1.00  0.00    -0.268 OA
ATOM      5  H   UNL A   1      30.811  26.609  27.687  1.00  0.00     0.163 HD
BRANCH   3   6
ATOM      6  C   UNL A   1      30.341  26.196  24.409  1.00  0.00     0.282 C 
BRANCH   6   7
ATOM      7  C   UNL A   1      30.740  24.939  23.593  1.00  0.00     0.175 C 
BRANCH   7   8
ATOM      8  C   UNL A   1      31.895  25.065  22.586  1.00  0.00     0.230 C 
ATOM      9  N   UNL A   1      33.176  24.663  22.865  1.00  0.00    -0.326 N 
ATOM     10  H   UNL A   1      33.887  24.958  22.251  1.00  0.00     0.169 HD
ATOM     11  O   UNL A   1      31.684  25.556  21.472  1.00  0.00    -0.274 OA
BRANCH   9  12
ATOM     12  C   UNL A   1      33.554  23.865  23.952  1.00  0.00     0.041 A 
ATOM     13  C   UNL A   1      37.445  23.709  26.127  1.00  0.00     0.044 C 
ATOM     14  C   UNL A   1      36.164  23.231  25.579  1.00  0.00    -0.049 A 
ATOM     15  C   UNL A   1      35.826  21.459  25.406  1.00  0.00     0.003 A 
ATOM     16  C   UNL A   1      35.033  24.439  24.819  1.00  0.00     0.029 A 
ATOM     17  C   UNL A   1      34.299  20.903  24.600  1.00  0.00     0.002 A 
ATOM     18  C   UNL A   1      33.139  22.099  23.922  1.00  0.00     0.026 A 
ENDBRANCH   9  12
ENDBRANCH   7   8
ENDBRANCH   6   7
BRANCH   6  19
ATOM     19  N   UNL A   1      30.793  27.528  23.855  1.00  0.00    -0.334 N 
ATOM     20  H   UNL A   1      31.411  27.346  23.064  1.00  0.00     0.347 HD
ATOM     21  H   UNL A   1      31.247  28.012  24.630  1.00  0.00     0.347 HD
BRANCH  19  22
ATOM     22  C   UNL A   1      29.711  28.433  23.391  1.00  0.00     0.176 C 
ATOM     23  C   UNL A   1      30.183  29.221  22.160  1.00  0.00     0.075 C 
ATOM     24  C   UNL A   1      28.337  27.823  23.143  1.00  0.00     0.075 C 
ENDBRANCH  19  22
ENDBRANCH   6  19
ENDBRANCH   3   6
ENDBRANCH   1   2
BRANCH   1  25
ATOM     25  C   UNL A   1      32.383  30.190  27.293  1.00  0.00     0.042 C 
BRANCH  25  26
ATOM     26  C   UNL A   1      33.667  30.837  26.783  1.00  0.00     0.118 C 
BRANCH  26  27
ATOM     27  N   UNL A   1      34.373  31.637  27.759  1.00  0.00    -0.352 N 
ATOM     28  C   UNL A   1      35.195  31.232  28.791  1.00  0.00     0.251 C 
ATOM     29  H   UNL A   1      34.248  32.610  27.676  1.00  0.00     0.163 HD
ATOM     30  O   UNL A   1      35.380  32.001  29.730  1.00  0.00    -0.269 OA
BRANCH  28  31
ATOM     31  C   UNL A   1      36.039  30.009  28.667  1.00  0.00     0.039 A 
ATOM     32  C   UNL A   1      36.375  29.404  29.887  1.00  0.00     0.014 A 
ATOM     33  C   UNL A   1      36.849  29.802  27.565  1.00  0.00     0.014 A 
ATOM     34  C   UNL A   1      37.674  28.968  30.097  1.00  0.00     0.010 A 
ATOM     35  C   UNL A   1      38.173  29.545  27.803  1.00  0.00     0.010 A 
ATOM     36  C   UNL A   1      38.594  29.199  29.091  1.00  0.00    -0.014 A 
BRANCH  36  37
ATOM     37  C   UNL A   1      40.000  28.887  29.185  1.00  0.00     0.031 A 
ATOM     38  C   UNL A   1      40.316  27.508  28.776  1.00  0.00     0.074 A 
ATOM     39  C   UNL A   1      40.917  29.824  29.522  1.00  0.00     0.049 A 
ATOM     40  N   UNL A   1      41.396  26.910  29.095  1.00  0.00    -0.248 NA
ATOM     41  C   UNL A   1      39.396  26.640  28.034  1.00  0.00     0.031 C 
ATOM     42  C   UNL A   1      42.371  29.768  29.392  1.00  0.00     0.029 A 
ATOM     43  N   UNL A   1      40.699  31.015  30.230  1.00  0.00    -0.354 N 
ATOM     44  C   UNL A   1      41.452  25.727  28.393  1.00  0.00     0.074 A 
ATOM     45  C   UNL A   1      40.148  25.560  27.818  1.00  0.00     0.031 C 
ATOM     46  C   UNL A   1      42.925  30.653  30.242  1.00  0.00     0.029 A 
ATOM     47  C   UNL A   1      41.849  31.233  31.019  1.00  0.00     0.049 A 
ATOM     48  H   UNL A   1      39.899  31.587  30.187  1.00  0.00     0.167 HD
ATOM     49  C   UNL A   1      42.666  25.126  28.314  1.00  0.00     0.037 A 
ATOM     50  C   UNL A   1      41.744  31.246  32.379  1.00  0.00     0.037 A 
ATOM     51  C   UNL A   1      43.604  25.863  29.158  1.00  0.00     0.049 A 
ATOM     52  C   UNL A   1      42.486  30.076  32.972  1.00  0.00     0.074 A 
ATOM     53  C   UNL A   1      44.500  26.886  28.898  1.00  0.00     0.029 A 
ATOM     54  N   UNL A   1      43.357  25.893  30.523  1.00  0.00    -0.354 N 
ATOM     55  N   UNL A   1      42.740  28.970  32.320  1.00  0.00    -0.248 NA
ATOM     56  C   UNL A   1      43.095  30.100  34.294  1.00  0.00     0.031 C 
ATOM     57  C   UNL A   1      44.801  27.522  30.134  1.00  0.00     0.029 A 
ATOM     58  C   UNL A   1      44.097  26.876  31.139  1.00  0.00     0.049 A 
ATOM     59  H   UNL A   1      42.734  25.290  30.990  1.00  0.00     0.167 HD
ATOM     60  C   UNL A   1      43.581  28.180  33.065  1.00  0.00     0.074 A 
ATOM     61  C   UNL A   1      43.764  28.934  34.292  1.00  0.00     0.031 C 
ATOM     62  C   UNL A   1      44.077  26.993  32.591  1.00  0.00     0.037 A 
BRANCH  49  63
ATOM     63  C   UNL A   1      43.087  24.044  27.356  1.00  0.00     0.064 A 
ATOM     64  C   UNL A   1      43.889  24.384  26.243  1.00  0.00     0.173 A 
ATOM     65  C   UNL A   1      42.732  22.684  27.431  1.00  0.00     0.173 A 
ATOM     66  F   UNL A   1      44.330  25.635  26.052  1.00  0.00    -0.203 F 
ATOM     67  C   UNL A   1      44.266  23.457  25.271  1.00  0.00     0.198 A 
ATOM     68  C   UNL A   1      43.093  21.758  26.445  1.00  0.00     0.198 A 
ATOM     69  F   UNL A   1      42.057  22.183  28.467  1.00  0.00    -0.203 F 
ATOM     70  F   UNL A   1      45.021  23.850  24.237  1.00  0.00    -0.200 F 
ATOM     71  C   UNL A   1      43.859  22.144  25.366  1.00  0.00     0.200 A 
ATOM     72  F   UNL A   1      42.694  20.482  26.557  1.00  0.00    -0.200 F 
ATOM     73  F   UNL A   1      44.215  21.253  24.432  1.00  0.00    -0.200 F 
ENDBRANCH  49  63
BRANCH  50  74
ATOM     74  C   UNL A   1      40.446  31.863  32.801  1.00  0.00     0.064 A 
ATOM     75  C   UNL A   1      39.529  30.970  33.405  1.00  0.00     0.173 A 
ATOM     76  C   UNL A   1      40.381  33.205  33.198  1.00  0.00     0.173 A 
ATOM     77  F   UNL A   1      39.506  29.683  33.024  1.00  0.00    -0.203 F 
ATOM     78  C   UNL A   1      38.813  31.334  34.544  1.00  0.00     0.198 A 
ATOM     79  C   UNL A   1      39.597  33.580  34.296  1.00  0.00     0.198 A 
ATOM     80  F   UNL A   1      41.198  34.115  32.648  1.00  0.00    -0.203 F 
ATOM     81  F   UNL A   1      38.150  30.400  35.244  1.00  0.00    -0.200 F 
ATOM     82  C   UNL A   1      38.891  32.629  35.020  1.00  0.00     0.200 A 
ATOM     83  F   UNL A   1      39.609  34.852  34.716  1.00  0.00    -0.200 F 
ATOM     84  F   UNL A   1      38.334  32.942  36.200  1.00  0.00    -0.200 F 
ENDBRANCH  50  74
BRANCH  62  85
ATOM     85  C   UNL A   1      44.658  25.831  33.394  1.00  0.00     0.064 A 
ATOM     86  C   UNL A   1      45.990  25.400  33.333  1.00  0.00     0.173 A 
ATOM     87  C   UNL A   1      43.885  25.184  34.406  1.00  0.00     0.173 A 
ATOM     88  F   UNL A   1      46.887  25.973  32.527  1.00  0.00    -0.203 F 
ATOM     89  C   UNL A   1      46.488  24.383  34.156  1.00  0.00     0.198 A 
ATOM     90  C   UNL A   1      44.411  24.245  35.288  1.00  0.00     0.198 A 
ATOM     91  F   UNL A   1      42.589  25.450  34.611  1.00  0.00    -0.203 F 
ATOM     92  F   UNL A   1      47.754  23.974  33.999  1.00  0.00    -0.200 F 
ATOM     93  C   UNL A   1      45.708  23.823  35.147  1.00  0.00     0.200 A 
ATOM     94  F   UNL A   1      43.648  23.772  36.284  1.00  0.00    -0.200 F 
ATOM     95  F   UNL A   1      46.211  22.896  35.971  1.00  0.00    -0.200 F 
ENDBRANCH  62  85
ENDBRANCH  36  37
ENDBRANCH  28  31
ENDBRANCH  26  27
ENDBRANCH  25  26
ENDBRANCH   1  25
TORSDOF 15
ENDMDL
MODEL 3
REMARK VINA RESULT:     -13.6      3.491      9.248
REMARK SMILES Cc1cccc(NC(=O)C[C@H]([NH2+]C(C)C)C(=O)NCCCNC(=O)c2ccc(-c3c4nc(c(-c5c(F)c(F)c(F)c(F)c5F)c5ccc([nH]5)c(-c5c(F)c(F)c(F)c(F)c5F)c5nc(c(-c6c(F)c(F)c(F)c(F)c6F)c6ccc3[nH]6)C=C5)C=C4)cc2)c1
REMARK SMILES IDX 19 1 18 2 16 3 17 4 11 6 10 7 8 8 7 9 9 11 6 12 1 13 2 14
REMARK SMILES IDX 3 15 88 16 4 17 5 18 12 19 13 22 14 23 15 24 20 25 21 26
REMARK SMILES IDX 22 27 23 28 24 30 25 31 26 32 87 33 27 34 86 35 28 36 29 37
REMARK SMILES IDX 30 38 80 39 31 40 85 41 79 42 81 43 32 44 84 45 78 46 77 47
REMARK SMILES IDX 33 49 65 50 45 51 64 52 46 53 49 54 63 55 82 56 47 57 48 58
REMARK SMILES IDX 62 60 83 61 50 62 34 63 35 64 43 65 36 66 37 67 41 68 44 69
REMARK SMILES IDX 38 70 39 71 42 72 40 73 66 74 67 75 75 76 68 77 69 78 73 79
REMARK SMILES IDX 76 80 70 81 71 82 74 83 72 84 51 85 52 86 60 87 53 88 54 89
REMARK SMILES IDX 58 90 61 91 55 92 56 93 59 94 57 95
REMARK H PARENT 18 5 7 10 12 20 12 21 22 29 81 48 49 59
REMARK Flexibility Score: inf
ROOT
ATOM      1  C   UNL A   1      37.297  23.584  26.155  1.00  0.00     0.118 C 
ENDROOT
BRANCH   1   2
ATOM      2  N   UNL A   1      35.384  23.070  26.795  1.00  0.00    -0.351 N 
ATOM      3  C   UNL A   1      33.992  23.049  26.806  1.00  0.00     0.278 C 
ATOM      4  O   UNL A   1      33.544  22.151  27.550  1.00  0.00    -0.268 OA
ATOM      5  H   UNL A   1      35.589  22.478  27.555  1.00  0.00     0.163 HD
BRANCH   3   6
ATOM      6  C   UNL A   1      32.962  23.955  26.121  1.00  0.00     0.282 C 
BRANCH   6   7
ATOM      7  C   UNL A   1      31.565  23.330  25.869  1.00  0.00     0.175 C 
BRANCH   7   8
ATOM      8  C   UNL A   1      30.361  23.923  26.620  1.00  0.00     0.230 C 
ATOM      9  N   UNL A   1      29.941  25.217  26.454  1.00  0.00    -0.326 N 
ATOM     10  H   UNL A   1      29.298  25.573  27.110  1.00  0.00     0.169 HD
ATOM     11  O   UNL A   1      29.733  23.221  27.420  1.00  0.00    -0.274 OA
BRANCH   9  12
ATOM     12  C   UNL A   1      30.351  26.075  25.425  1.00  0.00     0.041 A 
ATOM     13  C   UNL A   1      32.152  30.147  25.689  1.00  0.00     0.044 C 
ATOM     14  C   UNL A   1      31.378  29.027  25.125  1.00  0.00    -0.049 A 
ATOM     15  C   UNL A   1      30.170  29.299  23.803  1.00  0.00     0.003 A 
ATOM     16  C   UNL A   1      31.446  27.411  25.961  1.00  0.00     0.029 A 
ATOM     17  C   UNL A   1      29.133  27.927  23.227  1.00  0.00     0.002 A 
ATOM     18  C   UNL A   1      29.258  26.306  23.995  1.00  0.00     0.026 A 
ENDBRANCH   9  12
ENDBRANCH   7   8
ENDBRANCH   6   7
BRANCH   6  19
ATOM     19  N   UNL A   1      33.557  24.753  24.984  1.00  0.00    -0.334 N 
ATOM     20  H   UNL A   1      34.571  24.642  25.020  1.00  0.00     0.347 HD
ATOM     21  H   UNL A   1      33.241  25.713  25.123  1.00  0.00     0.347 HD
BRANCH  19  22
ATOM     22  C   UNL A   1      33.104  24.369  23.623  1.00  0.00     0.176 C 
ATOM     23  C   UNL A   1      32.991  25.621  22.739  1.00  0.00     0.075 C 
ATOM     24  C   UNL A   1      33.879  23.273  22.903  1.00  0.00     0.075 C 
ENDBRANCH  19  22
ENDBRANCH   6  19
ENDBRANCH   3   6
ENDBRANCH   1   2
BRANCH   1  25
ATOM     25  C   UNL A   1      38.806  23.784  27.009  1.00  0.00     0.042 C 
BRANCH  25  26
ATOM     26  C   UNL A   1      40.065  23.653  26.158  1.00  0.00     0.118 C 
BRANCH  26  27
ATOM     27  N   UNL A   1      40.618  22.318  26.094  1.00  0.00    -0.352 N 
ATOM     28  C   UNL A   1      41.936  21.913  26.173  1.00  0.00     0.251 C 
ATOM     29  H   UNL A   1      39.961  21.595  25.977  1.00  0.00     0.163 HD
ATOM     30  O   UNL A   1      42.240  20.816  25.715  1.00  0.00    -0.269 OA
BRANCH  28  31
ATOM     31  C   UNL A   1      42.921  22.659  27.007  1.00  0.00     0.039 A 
ATOM     32  C   UNL A   1      42.714  22.556  28.390  1.00  0.00     0.014 A 
ATOM     33  C   UNL A   1      43.607  23.751  26.506  1.00  0.00     0.014 A 
ATOM     34  C   UNL A   1      42.813  23.690  29.181  1.00  0.00     0.010 A 
ATOM     35  C   UNL A   1      43.541  24.914  27.227  1.00  0.00     0.010 A 
ATOM     36  C   UNL A   1      43.072  24.890  28.544  1.00  0.00    -0.014 A 
BRANCH  36  37
ATOM     37  C   UNL A   1      43.120  26.171  29.208  1.00  0.00     0.031 A 
ATOM     38  C   UNL A   1      41.857  26.923  29.108  1.00  0.00     0.074 A 
ATOM     39  C   UNL A   1      44.199  26.561  29.925  1.00  0.00     0.049 A 
ATOM     40  N   UNL A   1      41.770  28.180  29.302  1.00  0.00    -0.248 NA
ATOM     41  C   UNL A   1      40.581  26.333  28.692  1.00  0.00     0.031 C 
ATOM     42  C   UNL A   1      44.313  27.666  30.876  1.00  0.00     0.029 A 
ATOM     43  N   UNL A   1      45.517  26.098  29.805  1.00  0.00    -0.354 N 
ATOM     44  C   UNL A   1      40.436  28.517  29.323  1.00  0.00     0.074 A 
ATOM     45  C   UNL A   1      39.739  27.356  28.849  1.00  0.00     0.031 C 
ATOM     46  C   UNL A   1      45.609  28.006  31.005  1.00  0.00     0.029 A 
ATOM     47  C   UNL A   1      46.359  27.200  30.062  1.00  0.00     0.049 A 
ATOM     48  H   UNL A   1      45.800  25.181  29.584  1.00  0.00     0.167 HD
ATOM     49  C   UNL A   1      40.122  29.720  29.868  1.00  0.00     0.037 A 
ATOM     50  C   UNL A   1      47.191  27.659  29.083  1.00  0.00     0.037 A 
ATOM     51  C   UNL A   1      41.364  30.428  30.172  1.00  0.00     0.049 A 
ATOM     52  C   UNL A   1      46.778  29.041  28.650  1.00  0.00     0.074 A 
ATOM     53  C   UNL A   1      42.137  30.521  31.317  1.00  0.00     0.029 A 
ATOM     54  N   UNL A   1      42.188  30.769  29.110  1.00  0.00    -0.354 N 
ATOM     55  N   UNL A   1      45.566  29.515  28.789  1.00  0.00    -0.248 NA
ATOM     56  C   UNL A   1      47.711  30.033  28.136  1.00  0.00     0.031 C 
ATOM     57  C   UNL A   1      43.439  30.941  30.926  1.00  0.00     0.029 A 
ATOM     58  C   UNL A   1      43.446  31.113  29.550  1.00  0.00     0.049 A 
ATOM     59  H   UNL A   1      41.910  30.767  28.165  1.00  0.00     0.167 HD
ATOM     60  C   UNL A   1      45.554  30.851  28.471  1.00  0.00     0.074 A 
ATOM     61  C   UNL A   1      46.922  31.119  28.063  1.00  0.00     0.031 C 
ATOM     62  C   UNL A   1      44.429  31.624  28.603  1.00  0.00     0.037 A 
BRANCH  49  63
ATOM     63  C   UNL A   1      38.767  30.188  30.326  1.00  0.00     0.064 A 
ATOM     64  C   UNL A   1      37.809  30.569  29.360  1.00  0.00     0.173 A 
ATOM     65  C   UNL A   1      38.342  30.322  31.661  1.00  0.00     0.173 A 
ATOM     66  F   UNL A   1      38.058  30.470  28.047  1.00  0.00    -0.203 F 
ATOM     67  C   UNL A   1      36.555  31.078  29.699  1.00  0.00     0.198 A 
ATOM     68  C   UNL A   1      37.091  30.852  32.001  1.00  0.00     0.198 A 
ATOM     69  F   UNL A   1      39.091  29.919  32.689  1.00  0.00    -0.203 F 
ATOM     70  F   UNL A   1      35.697  31.427  28.731  1.00  0.00    -0.200 F 
ATOM     71  C   UNL A   1      36.199  31.230  31.021  1.00  0.00     0.200 A 
ATOM     72  F   UNL A   1      36.759  30.987  33.294  1.00  0.00    -0.200 F 
ATOM     73  F   UNL A   1      34.998  31.724  31.349  1.00  0.00    -0.200 F 
ENDBRANCH  49  63
BRANCH  50  74
ATOM     74  C   UNL A   1      47.714  26.520  28.262  1.00  0.00     0.064 A 
ATOM     75  C   UNL A   1      47.261  26.494  26.921  1.00  0.00     0.173 A 
ATOM     76  C   UNL A   1      48.976  25.967  28.517  1.00  0.00     0.173 A 
ATOM     77  F   UNL A   1      46.037  26.959  26.623  1.00  0.00    -0.203 F 
ATOM     78  C   UNL A   1      48.135  26.217  25.870  1.00  0.00     0.198 A 
ATOM     79  C   UNL A   1      49.821  25.617  27.457  1.00  0.00     0.198 A 
ATOM     80  F   UNL A   1      49.459  25.930  29.767  1.00  0.00    -0.203 F 
ATOM     81  F   UNL A   1      47.752  26.446  24.604  1.00  0.00    -0.200 F 
ATOM     82  C   UNL A   1      49.434  25.830  26.141  1.00  0.00     0.200 A 
ATOM     83  F   UNL A   1      51.056  25.166  27.714  1.00  0.00    -0.200 F 
ATOM     84  F   UNL A   1      50.319  25.717  25.140  1.00  0.00    -0.200 F 
ENDBRANCH  50  74
BRANCH  62  85
ATOM     85  C   UNL A   1      44.125  32.962  27.933  1.00  0.00     0.064 A 
ATOM     86  C   UNL A   1      44.030  33.163  26.549  1.00  0.00     0.173 A 
ATOM     87  C   UNL A   1      43.758  34.101  28.711  1.00  0.00     0.173 A 
ATOM     88  F   UNL A   1      44.223  32.175  25.672  1.00  0.00    -0.203 F 
ATOM     89  C   UNL A   1      43.664  34.394  25.994  1.00  0.00     0.198 A 
ATOM     90  C   UNL A   1      43.299  35.292  28.156  1.00  0.00     0.198 A 
ATOM     91  F   UNL A   1      43.796  34.110  30.050  1.00  0.00    -0.203 F 
ATOM     92  F   UNL A   1      43.659  34.536  24.662  1.00  0.00    -0.200 F 
ATOM     93  C   UNL A   1      43.277  35.450  26.794  1.00  0.00     0.200 A 
ATOM     94  F   UNL A   1      42.864  36.274  28.960  1.00  0.00    -0.200 F 
ATOM     95  F   UNL A   1      42.869  36.604  26.253  1.00  0.00    -0.200 F 
ENDBRANCH  62  85
ENDBRANCH  36  37
ENDBRANCH  28  31
ENDBRANCH  26  27
ENDBRANCH  25  26
ENDBRANCH   1  25
TORSDOF 15
ENDMDL
