MODEL 1
REMARK VINA RESULT:     -12.7      0.000      0.000
REMARK SMILES C[C@@H](C(=O)NCCCNC(=O)c1ccc(-c2c3nc(c(-c4c(F)c(F)c(F)c(F)c4F)c4ccc([nH]4)c(-c4c(F)c(F)c(F)c(F)c4F)c4nc(c(-c5c(F)c(F)c(F)c(F)c5F)c5ccc2[nH]5)C=C4)C=C3)cc1)c1ccc(N[C@H]2CCC[C@@H]2O)cc1F
REMARK SMILES IDX 6 1 5 2 3 3 4 4 2 6 1 7 75 8 76 9 87 10 77 11 86 12 88 13
REMARK SMILES IDX 78 14 79 15 80 17 81 18 84 19 82 20 83 21 85 22 7 24 8 25
REMARK SMILES IDX 9 26 10 27 11 29 12 30 13 31 74 32 14 33 73 34 15 35 16 36
REMARK SMILES IDX 17 37 67 38 18 39 72 40 66 41 68 42 19 43 71 44 65 45 64 46
REMARK SMILES IDX 20 48 52 49 32 50 51 51 33 52 36 53 50 54 69 55 34 56 35 57
REMARK SMILES IDX 49 59 70 60 37 61 21 62 22 63 30 64 23 65 24 66 28 67 31 68
REMARK SMILES IDX 25 69 26 70 29 71 27 72 53 73 54 74 62 75 55 76 56 77 60 78
REMARK SMILES IDX 63 79 57 80 58 81 61 82 59 83 38 84 39 85 47 86 40 87 41 88
REMARK SMILES IDX 45 89 48 90 42 91 43 92 46 93 44 94
REMARK H PARENT 5 5 79 16 85 23 9 28 68 47 36 58
REMARK Flexibility Score: inf
ROOT
ATOM      1  C   UNL A   1      31.429  30.778  26.614  1.00  0.00     0.117 C 
ENDROOT
BRANCH   1   2
ATOM      2  N   UNL A   1      31.930  30.174  25.393  1.00  0.00    -0.356 N 
ATOM      3  C   UNL A   1      32.930  29.263  25.211  1.00  0.00     0.227 C 
ATOM      4  O   UNL A   1      33.385  29.174  24.068  1.00  0.00    -0.274 OA
ATOM      5  H   UNL A   1      31.477  30.467  24.569  1.00  0.00     0.163 HD
BRANCH   3   6
ATOM      6  C   UNL A   1      33.424  28.411  26.395  1.00  0.00     0.108 C 
ATOM      7  C   UNL A   1      34.904  28.746  26.614  1.00  0.00     0.023 C 
BRANCH   6   8
ATOM      8  C   UNL A   1      33.152  26.912  26.232  1.00  0.00     0.000 A 
ATOM      9  C   UNL A   1      34.154  26.037  25.792  1.00  0.00     0.009 A 
ATOM     10  C   UNL A   1      31.897  26.341  26.462  1.00  0.00     0.129 A 
ATOM     11  C   UNL A   1      33.935  24.654  25.710  1.00  0.00     0.026 A 
ATOM     12  C   UNL A   1      31.678  24.964  26.372  1.00  0.00     0.065 A 
ATOM     13  F   UNL A   1      30.842  27.104  26.780  1.00  0.00    -0.207 F 
ATOM     14  C   UNL A   1      32.703  24.083  26.022  1.00  0.00     0.037 A 
BRANCH  14  15
ATOM     15  N   UNL A   1      32.443  22.729  26.016  1.00  0.00    -0.380 N 
ATOM     16  H   UNL A   1      32.670  22.251  26.846  1.00  0.00     0.160 HD
BRANCH  15  17
ATOM     17  C   UNL A   1      31.877  21.905  24.953  1.00  0.00     0.107 C 
ATOM     18  C   UNL A   1      31.799  22.599  23.590  1.00  0.00     0.027 C 
ATOM     19  C   UNL A   1      32.613  20.572  24.726  1.00  0.00     0.136 C 
ATOM     20  C   UNL A   1      32.322  21.581  22.574  1.00  0.00     0.005 C 
ATOM     21  C   UNL A   1      32.273  20.235  23.283  1.00  0.00     0.034 C 
BRANCH  19  22
ATOM     22  O   UNL A   1      32.146  19.558  25.606  1.00  0.00    -0.391 OA
ATOM     23  H   UNL A   1      31.176  19.576  25.637  1.00  0.00     0.211 HD
ENDBRANCH  19  22
ENDBRANCH  15  17
ENDBRANCH  14  15
ENDBRANCH   6   8
ENDBRANCH   3   6
ENDBRANCH   1   2
BRANCH   1  24
ATOM     24  C   UNL A   1      31.496  32.304  26.540  1.00  0.00     0.042 C 
BRANCH  24  25
ATOM     25  C   UNL A   1      32.618  32.923  27.370  1.00  0.00     0.118 C 
BRANCH  25  26
ATOM     26  N   UNL A   1      32.363  34.316  27.702  1.00  0.00    -0.352 N 
ATOM     27  C   UNL A   1      32.962  35.116  28.641  1.00  0.00     0.251 C 
ATOM     28  H   UNL A   1      31.655  34.749  27.172  1.00  0.00     0.163 HD
ATOM     29  O   UNL A   1      32.473  36.212  28.913  1.00  0.00    -0.269 OA
BRANCH  27  30
ATOM     30  C   UNL A   1      34.175  34.659  29.352  1.00  0.00     0.039 A 
ATOM     31  C   UNL A   1      34.045  34.140  30.642  1.00  0.00     0.014 A 
ATOM     32  C   UNL A   1      35.437  34.745  28.756  1.00  0.00     0.014 A 
ATOM     33  C   UNL A   1      35.166  33.626  31.301  1.00  0.00     0.010 A 
ATOM     34  C   UNL A   1      36.539  34.169  29.385  1.00  0.00     0.010 A 
ATOM     35  C   UNL A   1      36.412  33.592  30.657  1.00  0.00    -0.014 A 
BRANCH  35  36
ATOM     36  C   UNL A   1      37.584  32.917  31.275  1.00  0.00     0.031 A 
ATOM     37  C   UNL A   1      38.204  31.715  30.619  1.00  0.00     0.074 A 
ATOM     38  C   UNL A   1      38.028  33.335  32.478  1.00  0.00     0.049 A 
ATOM     39  N   UNL A   1      39.152  30.929  31.062  1.00  0.00    -0.248 NA
ATOM     40  C   UNL A   1      37.674  31.331  29.301  1.00  0.00     0.031 C 
ATOM     41  C   UNL A   1      37.483  34.464  33.234  1.00  0.00     0.029 A 
ATOM     42  N   UNL A   1      39.024  32.845  33.289  1.00  0.00    -0.354 N 
ATOM     43  C   UNL A   1      39.315  29.948  30.092  1.00  0.00     0.074 A 
ATOM     44  C   UNL A   1      38.349  30.218  29.050  1.00  0.00     0.031 C 
ATOM     45  C   UNL A   1      38.152  34.584  34.392  1.00  0.00     0.029 A 
ATOM     46  C   UNL A   1      39.137  33.511  34.486  1.00  0.00     0.049 A 
ATOM     47  H   UNL A   1      39.600  32.088  33.036  1.00  0.00     0.167 HD
ATOM     48  C   UNL A   1      40.200  28.923  30.073  1.00  0.00     0.037 A 
ATOM     49  C   UNL A   1      39.923  33.268  35.553  1.00  0.00     0.037 A 
ATOM     50  C   UNL A   1      41.183  28.681  31.097  1.00  0.00     0.049 A 
ATOM     51  C   UNL A   1      40.878  32.104  35.509  1.00  0.00     0.074 A 
ATOM     52  C   UNL A   1      42.190  27.732  31.115  1.00  0.00     0.029 A 
ATOM     53  N   UNL A   1      41.273  29.383  32.290  1.00  0.00    -0.354 N 
ATOM     54  N   UNL A   1      41.093  31.246  34.542  1.00  0.00    -0.248 NA
ATOM     55  C   UNL A   1      41.698  31.871  36.707  1.00  0.00     0.031 C 
ATOM     56  C   UNL A   1      42.844  27.813  32.347  1.00  0.00     0.029 A 
ATOM     57  C   UNL A   1      42.287  28.853  33.071  1.00  0.00     0.049 A 
ATOM     58  H   UNL A   1      40.702  30.144  32.542  1.00  0.00     0.167 HD
ATOM     59  C   UNL A   1      42.085  30.391  35.003  1.00  0.00     0.074 A 
ATOM     60  C   UNL A   1      42.446  30.845  36.328  1.00  0.00     0.031 C 
ATOM     61  C   UNL A   1      42.643  29.321  34.386  1.00  0.00     0.037 A 
BRANCH  48  62
ATOM     62  C   UNL A   1      40.157  27.970  28.915  1.00  0.00     0.064 A 
ATOM     63  C   UNL A   1      40.861  28.216  27.727  1.00  0.00     0.173 A 
ATOM     64  C   UNL A   1      39.476  26.747  29.033  1.00  0.00     0.173 A 
ATOM     65  F   UNL A   1      41.523  29.371  27.560  1.00  0.00    -0.203 F 
ATOM     66  C   UNL A   1      40.872  27.280  26.695  1.00  0.00     0.198 A 
ATOM     67  C   UNL A   1      39.514  25.802  28.012  1.00  0.00     0.198 A 
ATOM     68  F   UNL A   1      38.795  26.459  30.153  1.00  0.00    -0.203 F 
ATOM     69  F   UNL A   1      41.526  27.549  25.557  1.00  0.00    -0.200 F 
ATOM     70  C   UNL A   1      40.208  26.071  26.842  1.00  0.00     0.200 A 
ATOM     71  F   UNL A   1      38.886  24.629  28.164  1.00  0.00    -0.200 F 
ATOM     72  F   UNL A   1      40.239  25.163  25.858  1.00  0.00    -0.200 F 
ENDBRANCH  48  62
BRANCH  49  73
ATOM     73  C   UNL A   1      39.831  34.123  36.767  1.00  0.00     0.064 A 
ATOM     74  C   UNL A   1      40.621  35.273  36.902  1.00  0.00     0.173 A 
ATOM     75  C   UNL A   1      38.984  33.787  37.834  1.00  0.00     0.173 A 
ATOM     76  F   UNL A   1      41.464  35.626  35.920  1.00  0.00    -0.203 F 
ATOM     77  C   UNL A   1      40.594  36.034  38.070  1.00  0.00     0.198 A 
ATOM     78  C   UNL A   1      38.931  34.569  38.986  1.00  0.00     0.198 A 
ATOM     79  F   UNL A   1      38.203  32.700  37.757  1.00  0.00    -0.203 F 
ATOM     80  F   UNL A   1      41.408  37.090  38.198  1.00  0.00    -0.200 F 
ATOM     81  C   UNL A   1      39.746  35.683  39.110  1.00  0.00     0.200 A 
ATOM     82  F   UNL A   1      38.098  34.235  39.981  1.00  0.00    -0.200 F 
ATOM     83  F   UNL A   1      39.724  36.411  40.234  1.00  0.00    -0.200 F 
ENDBRANCH  49  73
BRANCH  61  84
ATOM     84  C   UNL A   1      43.719  28.579  35.122  1.00  0.00     0.064 A 
ATOM     85  C   UNL A   1      43.426  27.470  35.928  1.00  0.00     0.173 A 
ATOM     86  C   UNL A   1      45.066  28.942  34.968  1.00  0.00     0.173 A 
ATOM     87  F   UNL A   1      42.153  27.093  36.121  1.00  0.00    -0.203 F 
ATOM     88  C   UNL A   1      44.440  26.761  36.567  1.00  0.00     0.198 A 
ATOM     89  C   UNL A   1      46.080  28.211  35.582  1.00  0.00     0.198 A 
ATOM     90  F   UNL A   1      45.401  29.992  34.203  1.00  0.00    -0.203 F 
ATOM     91  F   UNL A   1      44.134  25.729  37.365  1.00  0.00    -0.200 F 
ATOM     92  C   UNL A   1      45.766  27.126  36.384  1.00  0.00     0.200 A 
ATOM     93  F   UNL A   1      47.361  28.556  35.391  1.00  0.00    -0.200 F 
ATOM     94  F   UNL A   1      46.742  26.431  36.985  1.00  0.00    -0.200 F 
ENDBRANCH  61  84
ENDBRANCH  35  36
ENDBRANCH  27  30
ENDBRANCH  25  26
ENDBRANCH  24  25
ENDBRANCH   1  24
TORSDOF 14
ENDMDL
MODEL 2
REMARK VINA RESULT:     -12.5      0.407      7.355
REMARK SMILES C[C@@H](C(=O)NCCCNC(=O)c1ccc(-c2c3nc(c(-c4c(F)c(F)c(F)c(F)c4F)c4ccc([nH]4)c(-c4c(F)c(F)c(F)c(F)c4F)c4nc(c(-c5c(F)c(F)c(F)c(F)c5F)c5ccc2[nH]5)C=C4)C=C3)cc1)c1ccc(N[C@H]2CCC[C@@H]2O)cc1F
REMARK SMILES IDX 6 1 5 2 3 3 4 4 2 6 1 7 75 8 76 9 87 10 77 11 86 12 88 13
REMARK SMILES IDX 78 14 79 15 80 17 81 18 84 19 82 20 83 21 85 22 7 24 8 25
REMARK SMILES IDX 9 26 10 27 11 29 12 30 13 31 74 32 14 33 73 34 15 35 16 36
REMARK SMILES IDX 17 37 67 38 18 39 72 40 66 41 68 42 19 43 71 44 65 45 64 46
REMARK SMILES IDX 20 48 52 49 32 50 51 51 33 52 36 53 50 54 69 55 34 56 35 57
REMARK SMILES IDX 49 59 70 60 37 61 21 62 22 63 30 64 23 65 24 66 28 67 31 68
REMARK SMILES IDX 25 69 26 70 29 71 27 72 53 73 54 74 62 75 55 76 56 77 60 78
REMARK SMILES IDX 63 79 57 80 58 81 61 82 59 83 38 84 39 85 47 86 40 87 41 88
REMARK SMILES IDX 45 89 48 90 42 91 43 92 46 93 44 94
REMARK H PARENT 5 5 79 16 85 23 9 28 68 47 36 58
REMARK Flexibility Score: inf
ROOT
ATOM      1  C   UNL A   1      31.312  30.994  26.586  1.00  0.00     0.117 C 
ENDROOT
BRANCH   1   2
ATOM      2  N   UNL A   1      31.838  30.361  25.390  1.00  0.00    -0.356 N 
ATOM      3  C   UNL A   1      32.814  29.417  25.254  1.00  0.00     0.227 C 
ATOM      4  O   UNL A   1      33.307  29.300  24.130  1.00  0.00    -0.274 OA
ATOM      5  H   UNL A   1      31.425  30.659  24.547  1.00  0.00     0.163 HD
BRANCH   3   6
ATOM      6  C   UNL A   1      33.238  28.564  26.464  1.00  0.00     0.108 C 
ATOM      7  C   UNL A   1      34.690  28.930  26.796  1.00  0.00     0.023 C 
BRANCH   6   8
ATOM      8  C   UNL A   1      33.015  27.061  26.268  1.00  0.00     0.000 A 
ATOM      9  C   UNL A   1      34.043  26.228  25.807  1.00  0.00     0.009 A 
ATOM     10  C   UNL A   1      31.778  26.446  26.486  1.00  0.00     0.129 A 
ATOM     11  C   UNL A   1      33.867  24.842  25.695  1.00  0.00     0.026 A 
ATOM     12  C   UNL A   1      31.603  25.064  26.365  1.00  0.00     0.065 A 
ATOM     13  F   UNL A   1      30.700  27.167  26.822  1.00  0.00    -0.207 F 
ATOM     14  C   UNL A   1      32.656  24.224  25.995  1.00  0.00     0.037 A 
BRANCH  14  15
ATOM     15  N   UNL A   1      32.438  22.863  25.959  1.00  0.00    -0.380 N 
ATOM     16  H   UNL A   1      32.706  22.371  26.767  1.00  0.00     0.160 HD
BRANCH  15  17
ATOM     17  C   UNL A   1      31.867  22.050  24.890  1.00  0.00     0.107 C 
ATOM     18  C   UNL A   1      31.812  22.746  23.528  1.00  0.00     0.027 C 
ATOM     19  C   UNL A   1      32.581  20.705  24.668  1.00  0.00     0.136 C 
ATOM     20  C   UNL A   1      32.325  21.721  22.515  1.00  0.00     0.005 C 
ATOM     21  C   UNL A   1      32.247  20.375  23.221  1.00  0.00     0.034 C 
BRANCH  19  22
ATOM     22  O   UNL A   1      32.089  19.699  25.543  1.00  0.00    -0.391 OA
ATOM     23  H   UNL A   1      31.803  20.105  26.377  1.00  0.00     0.211 HD
ENDBRANCH  19  22
ENDBRANCH  15  17
ENDBRANCH  14  15
ENDBRANCH   6   8
ENDBRANCH   3   6
ENDBRANCH   1   2
BRANCH   1  24
ATOM     24  C   UNL A   1      31.460  32.515  26.513  1.00  0.00     0.042 C 
BRANCH  24  25
ATOM     25  C   UNL A   1      32.645  33.068  27.299  1.00  0.00     0.118 C 
BRANCH  25  26
ATOM     26  N   UNL A   1      32.443  34.447  27.717  1.00  0.00    -0.352 N 
ATOM     27  C   UNL A   1      33.022  35.143  28.748  1.00  0.00     0.251 C 
ATOM     28  H   UNL A   1      31.794  34.956  27.180  1.00  0.00     0.163 HD
ATOM     29  O   UNL A   1      32.574  36.243  29.070  1.00  0.00    -0.269 OA
BRANCH  27  30
ATOM     30  C   UNL A   1      34.161  34.569  29.495  1.00  0.00     0.039 A 
ATOM     31  C   UNL A   1      33.928  34.006  30.752  1.00  0.00     0.014 A 
ATOM     32  C   UNL A   1      35.455  34.586  28.965  1.00  0.00     0.014 A 
ATOM     33  C   UNL A   1      34.974  33.385  31.440  1.00  0.00     0.010 A 
ATOM     34  C   UNL A   1      36.479  33.905  29.619  1.00  0.00     0.010 A 
ATOM     35  C   UNL A   1      36.246  33.286  30.856  1.00  0.00    -0.014 A 
BRANCH  35  36
ATOM     36  C   UNL A   1      37.333  32.501  31.498  1.00  0.00     0.031 A 
ATOM     37  C   UNL A   1      37.878  32.909  32.838  1.00  0.00     0.074 A 
ATOM     38  C   UNL A   1      37.892  31.474  30.826  1.00  0.00     0.049 A 
ATOM     39  N   UNL A   1      38.896  32.420  33.500  1.00  0.00    -0.248 NA
ATOM     40  C   UNL A   1      37.206  34.029  33.516  1.00  0.00     0.031 C 
ATOM     41  C   UNL A   1      37.478  31.008  29.501  1.00  0.00     0.029 A 
ATOM     42  N   UNL A   1      38.943  30.651  31.151  1.00  0.00    -0.354 N 
ATOM     43  C   UNL A   1      39.001  33.185  34.655  1.00  0.00     0.074 A 
ATOM     44  C   UNL A   1      37.962  34.190  34.593  1.00  0.00     0.031 C 
ATOM     45  C   UNL A   1      38.261  29.981  29.130  1.00  0.00     0.029 A 
ATOM     46  C   UNL A   1      39.264  29.750  30.165  1.00  0.00     0.049 A 
ATOM     47  H   UNL A   1      39.421  30.703  32.010  1.00  0.00     0.167 HD
ATOM     48  C   UNL A   1      39.878  33.049  35.678  1.00  0.00     0.037 A 
ATOM     49  C   UNL A   1      40.270  28.858  30.086  1.00  0.00     0.037 A 
ATOM     50  C   UNL A   1      40.886  32.024  35.750  1.00  0.00     0.049 A 
ATOM     51  C   UNL A   1      41.245  28.751  31.230  1.00  0.00     0.074 A 
ATOM     52  C   UNL A   1      41.752  31.742  36.792  1.00  0.00     0.029 A 
ATOM     53  N   UNL A   1      41.174  31.123  34.736  1.00  0.00    -0.354 N 
ATOM     54  N   UNL A   1      41.269  29.411  32.361  1.00  0.00    -0.248 NA
ATOM     55  C   UNL A   1      42.336  27.776  31.085  1.00  0.00     0.031 C 
ATOM     56  C   UNL A   1      42.610  30.717  36.382  1.00  0.00     0.029 A 
ATOM     57  C   UNL A   1      42.238  30.319  35.110  1.00  0.00     0.049 A 
ATOM     58  H   UNL A   1      40.693  31.065  33.879  1.00  0.00     0.167 HD
ATOM     59  C   UNL A   1      42.356  28.917  33.069  1.00  0.00     0.074 A 
ATOM     60  C   UNL A   1      42.956  27.887  32.251  1.00  0.00     0.031 C 
ATOM     61  C   UNL A   1      42.820  29.289  34.287  1.00  0.00     0.037 A 
BRANCH  48  62
ATOM     62  C   UNL A   1      39.805  34.030  36.811  1.00  0.00     0.064 A 
ATOM     63  C   UNL A   1      39.011  33.795  37.943  1.00  0.00     0.173 A 
ATOM     64  C   UNL A   1      40.614  35.178  36.802  1.00  0.00     0.173 A 
ATOM     65  F   UNL A   1      38.215  32.718  37.999  1.00  0.00    -0.203 F 
ATOM     66  C   UNL A   1      39.020  34.681  39.018  1.00  0.00     0.198 A 
ATOM     67  C   UNL A   1      40.643  36.044  37.891  1.00  0.00     0.198 A 
ATOM     68  F   UNL A   1      41.399  35.443  35.747  1.00  0.00    -0.203 F 
ATOM     69  F   UNL A   1      38.231  34.452  40.078  1.00  0.00    -0.200 F 
ATOM     70  C   UNL A   1      39.842  35.798  38.996  1.00  0.00     0.200 A 
ATOM     71  F   UNL A   1      41.451  37.113  37.874  1.00  0.00    -0.200 F 
ATOM     72  F   UNL A   1      39.866  36.636  40.041  1.00  0.00    -0.200 F 
ENDBRANCH  48  62
BRANCH  49  73
ATOM     73  C   UNL A   1      40.432  28.008  28.876  1.00  0.00     0.064 A 
ATOM     74  C   UNL A   1      41.202  28.440  27.787  1.00  0.00     0.173 A 
ATOM     75  C   UNL A   1      39.788  26.766  28.764  1.00  0.00     0.173 A 
ATOM     76  F   UNL A   1      41.820  29.630  27.834  1.00  0.00    -0.203 F 
ATOM     77  C   UNL A   1      41.292  27.681  26.621  1.00  0.00     0.198 A 
ATOM     78  C   UNL A   1      39.909  25.992  27.613  1.00  0.00     0.198 A 
ATOM     79  F   UNL A   1      39.042  26.302  29.778  1.00  0.00    -0.203 F 
ATOM     80  F   UNL A   1      41.980  28.150  25.572  1.00  0.00    -0.200 F 
ATOM     81  C   UNL A   1      40.649  26.456  26.536  1.00  0.00     0.200 A 
ATOM     82  F   UNL A   1      39.298  24.801  27.542  1.00  0.00    -0.200 F 
ATOM     83  F   UNL A   1      40.732  25.729  25.413  1.00  0.00    -0.200 F 
ENDBRANCH  49  73
BRANCH  61  84
ATOM     84  C   UNL A   1      44.020  28.564  34.824  1.00  0.00     0.064 A 
ATOM     85  C   UNL A   1      43.893  27.368  35.543  1.00  0.00     0.173 A 
ATOM     86  C   UNL A   1      45.314  29.040  34.559  1.00  0.00     0.173 A 
ATOM     87  F   UNL A   1      42.678  26.882  35.837  1.00  0.00    -0.203 F 
ATOM     88  C   UNL A   1      45.018  26.681  35.993  1.00  0.00     0.198 A 
ATOM     89  C   UNL A   1      46.436  28.333  34.982  1.00  0.00     0.198 A 
ATOM     90  F   UNL A   1      45.490  30.177  33.870  1.00  0.00    -0.203 F 
ATOM     91  F   UNL A   1      44.873  25.561  36.714  1.00  0.00    -0.200 F 
ATOM     92  C   UNL A   1      46.288  27.158  35.703  1.00  0.00     0.200 A 
ATOM     93  F   UNL A   1      47.662  28.788  34.687  1.00  0.00    -0.200 F 
ATOM     94  F   UNL A   1      47.369  26.486  36.122  1.00  0.00    -0.200 F 
ENDBRANCH  61  84
ENDBRANCH  35  36
ENDBRANCH  27  30
ENDBRANCH  25  26
ENDBRANCH  24  25
ENDBRANCH   1  24
TORSDOF 14
ENDMDL
MODEL 3
REMARK VINA RESULT:     -12.5      5.798     11.275
REMARK SMILES C[C@@H](C(=O)NCCCNC(=O)c1ccc(-c2c3nc(c(-c4c(F)c(F)c(F)c(F)c4F)c4ccc([nH]4)c(-c4c(F)c(F)c(F)c(F)c4F)c4nc(c(-c5c(F)c(F)c(F)c(F)c5F)c5ccc2[nH]5)C=C4)C=C3)cc1)c1ccc(N[C@H]2CCC[C@@H]2O)cc1F
REMARK SMILES IDX 6 1 5 2 3 3 4 4 2 6 1 7 75 8 76 9 87 10 77 11 86 12 88 13
REMARK SMILES IDX 78 14 79 15 80 17 81 18 84 19 82 20 83 21 85 22 7 24 8 25
REMARK SMILES IDX 9 26 10 27 11 29 12 30 13 31 74 32 14 33 73 34 15 35 16 36
REMARK SMILES IDX 17 37 67 38 18 39 72 40 66 41 68 42 19 43 71 44 65 45 64 46
REMARK SMILES IDX 20 48 52 49 32 50 51 51 33 52 36 53 50 54 69 55 34 56 35 57
REMARK SMILES IDX 49 59 70 60 37 61 21 62 22 63 30 64 23 65 24 66 28 67 31 68
REMARK SMILES IDX 25 69 26 70 29 71 27 72 53 73 54 74 62 75 55 76 56 77 60 78
REMARK SMILES IDX 63 79 57 80 58 81 61 82 59 83 38 84 39 85 47 86 40 87 41 88
REMARK SMILES IDX 45 89 48 90 42 91 43 92 46 93 44 94
REMARK H PARENT 5 5 79 16 85 23 9 28 68 47 36 58
REMARK Flexibility Score: inf
ROOT
ATOM      1  C   UNL A   1      36.810  20.726  25.107  1.00  0.00     0.117 C 
ENDROOT
BRANCH   1   2
ATOM      2  N   UNL A   1      37.017  21.809  24.164  1.00  0.00    -0.356 N 
ATOM      3  C   UNL A   1      36.114  22.657  23.590  1.00  0.00     0.227 C 
ATOM      4  O   UNL A   1      36.491  23.252  22.578  1.00  0.00    -0.274 OA
ATOM      5  H   UNL A   1      37.953  21.956  23.898  1.00  0.00     0.163 HD
BRANCH   3   6
ATOM      6  C   UNL A   1      34.716  22.834  24.212  1.00  0.00     0.108 C 
ATOM      7  C   UNL A   1      33.882  21.607  23.820  1.00  0.00     0.023 C 
BRANCH   6   8
ATOM      8  C   UNL A   1      34.048  24.167  23.860  1.00  0.00     0.000 A 
ATOM      9  C   UNL A   1      33.325  24.325  22.671  1.00  0.00     0.009 A 
ATOM     10  C   UNL A   1      34.157  25.303  24.667  1.00  0.00     0.129 A 
ATOM     11  C   UNL A   1      32.650  25.518  22.376  1.00  0.00     0.026 A 
ATOM     12  C   UNL A   1      33.491  26.495  24.367  1.00  0.00     0.065 A 
ATOM     13  F   UNL A   1      34.917  25.294  25.771  1.00  0.00    -0.207 F 
ATOM     14  C   UNL A   1      32.695  26.620  23.226  1.00  0.00     0.037 A 
BRANCH  14  15
ATOM     15  N   UNL A   1      32.008  27.798  23.021  1.00  0.00    -0.380 N 
ATOM     16  H   UNL A   1      32.484  28.616  23.287  1.00  0.00     0.160 HD
BRANCH  15  17
ATOM     17  C   UNL A   1      30.674  28.000  22.466  1.00  0.00     0.107 C 
ATOM     18  C   UNL A   1      29.562  27.251  23.203  1.00  0.00     0.027 C 
ATOM     19  C   UNL A   1      30.237  29.474  22.391  1.00  0.00     0.136 C 
ATOM     20  C   UNL A   1      28.425  28.260  23.379  1.00  0.00     0.005 C 
ATOM     21  C   UNL A   1      28.719  29.382  22.393  1.00  0.00     0.034 C 
BRANCH  19  22
ATOM     22  O   UNL A   1      30.704  30.102  21.205  1.00  0.00    -0.391 OA
ATOM     23  H   UNL A   1      30.027  30.712  20.873  1.00  0.00     0.211 HD
ENDBRANCH  19  22
ENDBRANCH  15  17
ENDBRANCH  14  15
ENDBRANCH   6   8
ENDBRANCH   3   6
ENDBRANCH   1   2
BRANCH   1  24
ATOM     24  C   UNL A   1      37.952  19.711  25.037  1.00  0.00     0.042 C 
BRANCH  24  25
ATOM     25  C   UNL A   1      39.248  20.179  25.694  1.00  0.00     0.118 C 
BRANCH  25  26
ATOM     26  N   UNL A   1      40.223  19.108  25.830  1.00  0.00    -0.352 N 
ATOM     27  C   UNL A   1      41.570  19.178  26.081  1.00  0.00     0.251 C 
ATOM     28  H   UNL A   1      39.862  18.198  25.727  1.00  0.00     0.163 HD
ATOM     29  O   UNL A   1      42.266  18.170  25.962  1.00  0.00    -0.269 OA
BRANCH  27  30
ATOM     30  C   UNL A   1      42.196  20.460  26.465  1.00  0.00     0.039 A 
ATOM     31  C   UNL A   1      42.815  21.231  25.478  1.00  0.00     0.014 A 
ATOM     32  C   UNL A   1      42.181  20.903  27.791  1.00  0.00     0.014 A 
ATOM     33  C   UNL A   1      43.342  22.484  25.803  1.00  0.00     0.010 A 
ATOM     34  C   UNL A   1      42.642  22.181  28.099  1.00  0.00     0.010 A 
ATOM     35  C   UNL A   1      43.215  22.989  27.106  1.00  0.00    -0.014 A 
BRANCH  35  36
ATOM     36  C   UNL A   1      43.630  24.377  27.442  1.00  0.00     0.031 A 
ATOM     37  C   UNL A   1      42.616  25.385  27.903  1.00  0.00     0.074 A 
ATOM     38  C   UNL A   1      44.910  24.750  27.238  1.00  0.00     0.049 A 
ATOM     39  N   UNL A   1      42.767  26.666  28.131  1.00  0.00    -0.248 NA
ATOM     40  C   UNL A   1      41.244  24.897  28.117  1.00  0.00     0.031 C 
ATOM     41  C   UNL A   1      45.979  23.874  26.755  1.00  0.00     0.029 A 
ATOM     42  N   UNL A   1      45.527  25.969  27.389  1.00  0.00    -0.354 N 
ATOM     43  C   UNL A   1      41.512  27.138  28.489  1.00  0.00     0.074 A 
ATOM     44  C   UNL A   1      40.601  26.016  28.421  1.00  0.00     0.031 C 
ATOM     45  C   UNL A   1      47.117  24.580  26.653  1.00  0.00     0.029 A 
ATOM     46  C   UNL A   1      46.849  25.968  27.014  1.00  0.00     0.049 A 
ATOM     47  H   UNL A   1      45.064  26.767  27.732  1.00  0.00     0.167 HD
ATOM     48  C   UNL A   1      41.157  28.394  28.853  1.00  0.00     0.037 A 
ATOM     49  C   UNL A   1      47.739  26.977  26.940  1.00  0.00     0.037 A 
ATOM     50  C   UNL A   1      42.076  29.498  28.952  1.00  0.00     0.049 A 
ATOM     51  C   UNL A   1      47.305  28.367  27.326  1.00  0.00     0.074 A 
ATOM     52  C   UNL A   1      41.831  30.780  29.412  1.00  0.00     0.029 A 
ATOM     53  N   UNL A   1      43.410  29.456  28.574  1.00  0.00    -0.354 N 
ATOM     54  N   UNL A   1      46.140  28.779  27.762  1.00  0.00    -0.248 NA
ATOM     55  C   UNL A   1      48.310  29.434  27.207  1.00  0.00     0.031 C 
ATOM     56  C   UNL A   1      42.997  31.533  29.246  1.00  0.00     0.029 A 
ATOM     57  C   UNL A   1      43.985  30.705  28.743  1.00  0.00     0.049 A 
ATOM     58  H   UNL A   1      43.876  28.658  28.237  1.00  0.00     0.167 HD
ATOM     59  C   UNL A   1      46.278  30.141  27.990  1.00  0.00     0.074 A 
ATOM     60  C   UNL A   1      47.645  30.485  27.667  1.00  0.00     0.031 C 
ATOM     61  C   UNL A   1      45.352  31.030  28.425  1.00  0.00     0.037 A 
BRANCH  48  62
ATOM     62  C   UNL A   1      39.715  28.662  29.168  1.00  0.00     0.064 A 
ATOM     63  C   UNL A   1      39.198  28.501  30.462  1.00  0.00     0.173 A 
ATOM     64  C   UNL A   1      38.861  29.175  28.178  1.00  0.00     0.173 A 
ATOM     65  F   UNL A   1      39.970  28.009  31.442  1.00  0.00    -0.203 F 
ATOM     66  C   UNL A   1      37.876  28.832  30.750  1.00  0.00     0.198 A 
ATOM     67  C   UNL A   1      37.549  29.532  28.476  1.00  0.00     0.198 A 
ATOM     68  F   UNL A   1      39.309  29.356  26.926  1.00  0.00    -0.203 F 
ATOM     69  F   UNL A   1      37.395  28.644  31.986  1.00  0.00    -0.200 F 
ATOM     70  C   UNL A   1      37.057  29.357  29.761  1.00  0.00     0.200 A 
ATOM     71  F   UNL A   1      36.765  30.054  27.524  1.00  0.00    -0.200 F 
ATOM     72  F   UNL A   1      35.792  29.695  30.046  1.00  0.00    -0.200 F 
ENDBRANCH  48  62
BRANCH  49  73
ATOM     73  C   UNL A   1      49.125  26.726  26.459  1.00  0.00     0.064 A 
ATOM     74  C   UNL A   1      49.469  26.920  25.114  1.00  0.00     0.173 A 
ATOM     75  C   UNL A   1      50.122  26.247  27.323  1.00  0.00     0.173 A 
ATOM     76  F   UNL A   1      48.547  27.356  24.243  1.00  0.00    -0.203 F 
ATOM     77  C   UNL A   1      50.745  26.613  24.644  1.00  0.00     0.198 A 
ATOM     78  C   UNL A   1      51.407  25.974  26.859  1.00  0.00     0.198 A 
ATOM     79  F   UNL A   1      49.849  26.047  28.620  1.00  0.00    -0.203 F 
ATOM     80  F   UNL A   1      51.026  26.746  23.341  1.00  0.00    -0.200 F 
ATOM     81  C   UNL A   1      51.714  26.143  25.518  1.00  0.00     0.200 A 
ATOM     82  F   UNL A   1      52.344  25.536  27.710  1.00  0.00    -0.200 F 
ATOM     83  F   UNL A   1      52.938  25.843  25.065  1.00  0.00    -0.200 F 
ENDBRANCH  49  73
BRANCH  61  84
ATOM     84  C   UNL A   1      45.787  32.456  28.600  1.00  0.00     0.064 A 
ATOM     85  C   UNL A   1      45.651  33.396  27.569  1.00  0.00     0.173 A 
ATOM     86  C   UNL A   1      46.287  32.900  29.834  1.00  0.00     0.173 A 
ATOM     87  F   UNL A   1      45.194  33.018  26.366  1.00  0.00    -0.203 F 
ATOM     88  C   UNL A   1      46.014  34.727  27.762  1.00  0.00     0.198 A 
ATOM     89  C   UNL A   1      46.618  34.238  30.032  1.00  0.00     0.198 A 
ATOM     90  F   UNL A   1      46.432  32.042  30.855  1.00  0.00    -0.203 F 
ATOM     91  F   UNL A   1      45.913  35.600  26.750  1.00  0.00    -0.200 F 
ATOM     92  C   UNL A   1      46.487  35.148  28.996  1.00  0.00     0.200 A 
ATOM     93  F   UNL A   1      47.060  34.646  31.231  1.00  0.00    -0.200 F 
ATOM     94  F   UNL A   1      46.819  36.433  29.184  1.00  0.00    -0.200 F 
ENDBRANCH  61  84
ENDBRANCH  35  36
ENDBRANCH  27  30
ENDBRANCH  25  26
ENDBRANCH  24  25
ENDBRANCH   1  24
TORSDOF 14
ENDMDL
