MODEL 1
REMARK VINA RESULT:     -13.6      0.000      0.000
REMARK SMILES O=C(NCCCNC(=O)c1ccc([C@H]2CCCN(C(=O)c3ccc4[nH]ccc4c3)C2)cc1)c1ccc(-c2c3nc(c(-c4c(F)c(F)c(F)c(F)c4F)c4ccc([nH]4)c(-c4c(F)c(F)c(F)c(F)c4F)c4nc(c(-c5c(F)c(F)c(F)c(F)c5F)c5ccc2[nH]5)C=C4)C=C3)cc1
REMARK SMILES IDX 5 1 4 2 3 3 1 4 2 5 33 7 34 8 95 9 35 10 94 11 36 12 37 13
REMARK SMILES IDX 38 14 88 15 39 16 93 17 87 18 89 19 40 20 92 21 86 22 85 23
REMARK SMILES IDX 41 25 73 26 53 27 72 28 54 29 57 30 71 31 90 32 55 33 56 34
REMARK SMILES IDX 70 36 91 37 58 38 42 39 43 40 51 41 44 42 45 43 49 44 52 45
REMARK SMILES IDX 46 46 47 47 50 48 48 49 74 50 75 51 83 52 76 53 77 54 81 55
REMARK SMILES IDX 84 56 78 57 79 58 82 59 80 60 59 61 60 62 68 63 61 64 62 65
REMARK SMILES IDX 66 66 69 67 63 68 64 69 67 70 65 71 6 72 7 73 8 74 9 76
REMARK SMILES IDX 10 77 11 78 32 79 12 80 31 81 13 82 14 83 15 84 30 85 16 86
REMARK SMILES IDX 18 87 17 88 19 89 20 90 21 91 22 92 29 93 23 94 28 95 24 96
REMARK SMILES IDX 27 97 25 98 26 99
REMARK H PARENT 3 6 89 24 57 35 7 75 25 100
REMARK Flexibility Score: inf
ROOT
ATOM      1  C   UNL A   1      33.097  35.080  28.712  1.00  0.00     0.042 C 
ENDROOT
BRANCH   1   2
ATOM      2  C   UNL A   1      33.460  36.277  29.575  1.00  0.00     0.118 C 
BRANCH   2   3
ATOM      3  N   UNL A   1      32.523  36.493  30.672  1.00  0.00    -0.352 N 
ATOM      4  O   UNL A   1      31.529  36.164  32.665  1.00  0.00    -0.269 OA
ATOM      5  C   UNL A   1      32.505  35.981  31.949  1.00  0.00     0.251 C 
ATOM      6  H   UNL A   1      31.782  37.107  30.465  1.00  0.00     0.163 HD
BRANCH   5   7
ATOM      7  C   UNL A   1      33.649  35.189  32.453  1.00  0.00     0.039 A 
ATOM      8  C   UNL A   1      34.923  35.748  32.526  1.00  0.00     0.014 A 
ATOM      9  C   UNL A   1      33.444  33.871  32.874  1.00  0.00     0.014 A 
ATOM     10  C   UNL A   1      36.013  34.944  32.824  1.00  0.00     0.010 A 
ATOM     11  C   UNL A   1      34.530  33.095  33.298  1.00  0.00     0.010 A 
ATOM     12  C   UNL A   1      35.830  33.615  33.239  1.00  0.00    -0.014 A 
BRANCH  12  13
ATOM     13  C   UNL A   1      37.025  32.842  33.667  1.00  0.00     0.031 A 
ATOM     14  C   UNL A   1      37.678  31.832  32.766  1.00  0.00     0.074 A 
ATOM     15  C   UNL A   1      37.567  33.128  34.868  1.00  0.00     0.049 A 
ATOM     16  N   UNL A   1      38.777  31.146  32.960  1.00  0.00    -0.248 NA
ATOM     17  C   UNL A   1      37.013  31.543  31.486  1.00  0.00     0.031 C 
ATOM     18  C   UNL A   1      37.003  34.070  35.840  1.00  0.00     0.029 A 
ATOM     19  N   UNL A   1      38.723  32.695  35.463  1.00  0.00    -0.354 N 
ATOM     20  C   UNL A   1      38.931  30.343  31.839  1.00  0.00     0.074 A 
ATOM     21  C   UNL A   1      37.795  30.599  30.980  1.00  0.00     0.031 C 
ATOM     22  C   UNL A   1      37.848  34.200  36.871  1.00  0.00     0.029 A 
ATOM     23  C   UNL A   1      38.975  33.298  36.671  1.00  0.00     0.049 A 
ATOM     24  H   UNL A   1      39.316  32.018  35.063  1.00  0.00     0.167 HD
ATOM     25  C   UNL A   1      39.937  29.483  31.549  1.00  0.00     0.037 A 
ATOM     26  C   UNL A   1      39.996  33.138  37.532  1.00  0.00     0.037 A 
ATOM     27  C   UNL A   1      41.070  29.238  32.407  1.00  0.00     0.049 A 
ATOM     28  C   UNL A   1      41.096  32.180  37.180  1.00  0.00     0.074 A 
ATOM     29  C   UNL A   1      42.143  28.387  32.200  1.00  0.00     0.029 A 
ATOM     30  N   UNL A   1      41.279  29.848  33.636  1.00  0.00    -0.354 N 
ATOM     31  N   UNL A   1      41.237  31.443  36.106  1.00  0.00    -0.248 NA
ATOM     32  C   UNL A   1      42.177  32.029  38.162  1.00  0.00     0.031 C 
ATOM     33  C   UNL A   1      42.980  28.454  33.320  1.00  0.00     0.029 A 
ATOM     34  C   UNL A   1      42.455  29.383  34.203  1.00  0.00     0.049 A 
ATOM     35  H   UNL A   1      40.678  30.513  34.044  1.00  0.00     0.167 HD
ATOM     36  C   UNL A   1      42.421  30.744  36.278  1.00  0.00     0.074 A 
ATOM     37  C   UNL A   1      42.980  31.175  37.544  1.00  0.00     0.031 C 
ATOM     38  C   UNL A   1      42.989  29.817  35.468  1.00  0.00     0.037 A 
BRANCH  25  39
ATOM     39  C   UNL A   1      39.863  28.732  30.251  1.00  0.00     0.064 A 
ATOM     40  C   UNL A   1      40.417  29.250  29.070  1.00  0.00     0.173 A 
ATOM     41  C   UNL A   1      39.286  27.453  30.197  1.00  0.00     0.173 A 
ATOM     42  F   UNL A   1      40.970  30.472  29.065  1.00  0.00    -0.203 F 
ATOM     43  C   UNL A   1      40.383  28.524  27.882  1.00  0.00     0.198 A 
ATOM     44  C   UNL A   1      39.278  26.719  29.012  1.00  0.00     0.198 A 
ATOM     45  F   UNL A   1      38.748  26.907  31.297  1.00  0.00    -0.203 F 
ATOM     46  F   UNL A   1      40.889  29.054  26.760  1.00  0.00    -0.200 F 
ATOM     47  C   UNL A   1      39.822  27.256  27.856  1.00  0.00     0.200 A 
ATOM     48  F   UNL A   1      38.747  25.488  28.992  1.00  0.00    -0.200 F 
ATOM     49  F   UNL A   1      39.802  26.554  26.714  1.00  0.00    -0.200 F 
ENDBRANCH  25  39
BRANCH  26  50
ATOM     50  C   UNL A   1      40.010  33.897  38.810  1.00  0.00     0.064 A 
ATOM     51  C   UNL A   1      39.324  33.434  39.940  1.00  0.00     0.173 A 
ATOM     52  C   UNL A   1      40.720  35.102  38.926  1.00  0.00     0.173 A 
ATOM     53  F   UNL A   1      38.616  32.296  39.874  1.00  0.00    -0.203 F 
ATOM     54  C   UNL A   1      39.330  34.157  41.131  1.00  0.00     0.198 A 
ATOM     55  C   UNL A   1      40.755  35.805  40.126  1.00  0.00     0.198 A 
ATOM     56  F   UNL A   1      41.401  35.585  37.875  1.00  0.00    -0.203 F 
ATOM     57  F   UNL A   1      38.626  33.717  42.182  1.00  0.00    -0.200 F 
ATOM     58  C   UNL A   1      40.053  35.337  41.225  1.00  0.00     0.200 A 
ATOM     59  F   UNL A   1      41.471  36.934  40.217  1.00  0.00    -0.200 F 
ATOM     60  F   UNL A   1      40.065  36.027  42.373  1.00  0.00    -0.200 F 
ENDBRANCH  26  50
BRANCH  38  61
ATOM     61  C   UNL A   1      44.286  29.223  35.932  1.00  0.00     0.064 A 
ATOM     62  C   UNL A   1      45.517  29.825  35.629  1.00  0.00     0.173 A 
ATOM     63  C   UNL A   1      44.300  28.040  36.684  1.00  0.00     0.173 A 
ATOM     64  F   UNL A   1      45.556  30.948  34.897  1.00  0.00    -0.203 F 
ATOM     65  C   UNL A   1      46.716  29.244  36.032  1.00  0.00     0.198 A 
ATOM     66  C   UNL A   1      45.500  27.478  37.111  1.00  0.00     0.198 A 
ATOM     67  F   UNL A   1      43.150  27.428  37.004  1.00  0.00    -0.203 F 
ATOM     68  F   UNL A   1      47.882  29.803  35.679  1.00  0.00    -0.200 F 
ATOM     69  C   UNL A   1      46.706  28.074  36.775  1.00  0.00     0.200 A 
ATOM     70  F   UNL A   1      45.489  26.352  37.839  1.00  0.00    -0.200 F 
ATOM     71  F   UNL A   1      47.861  27.512  37.160  1.00  0.00    -0.200 F 
ENDBRANCH  38  61
ENDBRANCH  12  13
ENDBRANCH   5   7
ENDBRANCH   2   3
ENDBRANCH   1   2
BRANCH   1  72
ATOM     72  C   UNL A   1      33.788  33.795  29.134  1.00  0.00     0.118 C 
BRANCH  72  73
ATOM     73  N   UNL A   1      35.181  33.749  28.707  1.00  0.00    -0.352 N 
ATOM     74  C   UNL A   1      35.924  32.693  28.238  1.00  0.00     0.251 C 
ATOM     75  H   UNL A   1      35.663  34.606  28.761  1.00  0.00     0.163 HD
ATOM     76  O   UNL A   1      37.143  32.792  28.143  1.00  0.00    -0.269 OA
BRANCH  74  77
ATOM     77  C   UNL A   1      35.251  31.428  27.883  1.00  0.00     0.039 A 
ATOM     78  C   UNL A   1      33.883  31.432  27.625  1.00  0.00     0.014 A 
ATOM     79  C   UNL A   1      35.972  30.238  27.805  1.00  0.00     0.014 A 
ATOM     80  C   UNL A   1      33.268  30.267  27.161  1.00  0.00     0.005 A 
ATOM     81  C   UNL A   1      35.364  29.089  27.305  1.00  0.00     0.005 A 
ATOM     82  C   UNL A   1      34.013  29.095  26.923  1.00  0.00    -0.043 A 
BRANCH  82  83
ATOM     83  C   UNL A   1      33.341  27.881  26.282  1.00  0.00     0.039 C 
ATOM     84  C   UNL A   1      31.829  27.830  26.626  1.00  0.00     0.012 C 
ATOM     85  C   UNL A   1      33.498  27.809  24.745  1.00  0.00     0.128 C 
ATOM     86  C   UNL A   1      31.123  26.644  25.966  1.00  0.00     0.022 C 
ATOM     87  N   UNL A   1      32.795  26.660  24.189  1.00  0.00    -0.338 N 
ATOM     88  C   UNL A   1      31.361  26.620  24.462  1.00  0.00     0.120 C 
BRANCH  87  89
ATOM     89  C   UNL A   1      33.533  25.672  23.547  1.00  0.00     0.253 C 
ATOM     90  O   UNL A   1      34.024  25.795  22.429  1.00  0.00    -0.269 OA
BRANCH  89  91
ATOM     91  C   UNL A   1      33.780  24.411  24.259  1.00  0.00     0.040 A 
ATOM     92  C   UNL A   1      34.569  24.444  25.410  1.00  0.00     0.016 A 
ATOM     93  C   UNL A   1      33.250  23.216  23.755  1.00  0.00     0.024 A 
ATOM     94  C   UNL A   1      34.833  23.270  26.116  1.00  0.00     0.027 A 
ATOM     95  C   UNL A   1      33.514  22.026  24.455  1.00  0.00     0.000 A 
ATOM     96  C   UNL A   1      34.290  22.079  25.615  1.00  0.00     0.045 A 
ATOM     97  C   UNL A   1      33.161  20.663  24.250  1.00  0.00     0.028 A 
ATOM     98  N   UNL A   1      34.393  20.792  26.092  1.00  0.00    -0.361 N 
ATOM     99  C   UNL A   1      33.717  19.927  25.273  1.00  0.00     0.083 A 
ATOM    100  H   UNL A   1      34.881  20.530  26.906  1.00  0.00     0.166 HD
ENDBRANCH  89  91
ENDBRANCH  87  89
ENDBRANCH  82  83
ENDBRANCH  74  77
ENDBRANCH  72  73
ENDBRANCH   1  72
TORSDOF 13
ENDMDL
MODEL 2
REMARK VINA RESULT:     -13.4      5.680     11.293
REMARK SMILES O=C(NCCCNC(=O)c1ccc([C@H]2CCCN(C(=O)c3ccc4[nH]ccc4c3)C2)cc1)c1ccc(-c2c3nc(c(-c4c(F)c(F)c(F)c(F)c4F)c4ccc([nH]4)c(-c4c(F)c(F)c(F)c(F)c4F)c4nc(c(-c5c(F)c(F)c(F)c(F)c5F)c5ccc2[nH]5)C=C4)C=C3)cc1
REMARK SMILES IDX 5 1 4 2 3 3 1 4 2 5 33 7 34 8 95 9 35 10 94 11 36 12 37 13
REMARK SMILES IDX 38 14 88 15 39 16 93 17 87 18 89 19 40 20 92 21 86 22 85 23
REMARK SMILES IDX 41 25 73 26 53 27 72 28 54 29 57 30 71 31 90 32 55 33 56 34
REMARK SMILES IDX 70 36 91 37 58 38 42 39 43 40 51 41 44 42 45 43 49 44 52 45
REMARK SMILES IDX 46 46 47 47 50 48 48 49 74 50 75 51 83 52 76 53 77 54 81 55
REMARK SMILES IDX 84 56 78 57 79 58 82 59 80 60 59 61 60 62 68 63 61 64 62 65
REMARK SMILES IDX 66 66 69 67 63 68 64 69 67 70 65 71 6 72 7 73 8 74 9 76
REMARK SMILES IDX 10 77 11 78 32 79 12 80 31 81 13 82 14 83 15 84 30 85 16 86
REMARK SMILES IDX 18 87 17 88 19 89 20 90 21 91 22 92 29 93 23 94 28 95 24 96
REMARK SMILES IDX 27 97 25 98 26 99
REMARK H PARENT 3 6 89 24 57 35 7 75 25 100
REMARK Flexibility Score: inf
ROOT
ATOM      1  C   UNL A   1      38.309  19.439  25.082  1.00  0.00     0.042 C 
ENDROOT
BRANCH   1   2
ATOM      2  C   UNL A   1      39.445  19.810  26.020  1.00  0.00     0.118 C 
BRANCH   2   3
ATOM      3  N   UNL A   1      40.591  18.913  25.910  1.00  0.00    -0.352 N 
ATOM      4  O   UNL A   1      42.746  18.293  25.709  1.00  0.00    -0.269 OA
ATOM      5  C   UNL A   1      41.940  19.168  25.997  1.00  0.00     0.251 C 
ATOM      6  H   UNL A   1      40.361  17.970  25.748  1.00  0.00     0.163 HD
BRANCH   5   7
ATOM      7  C   UNL A   1      42.422  20.504  26.412  1.00  0.00     0.039 A 
ATOM      8  C   UNL A   1      42.490  20.847  27.761  1.00  0.00     0.014 A 
ATOM      9  C   UNL A   1      42.829  21.425  25.441  1.00  0.00     0.014 A 
ATOM     10  C   UNL A   1      42.767  22.156  28.127  1.00  0.00     0.010 A 
ATOM     11  C   UNL A   1      43.233  22.710  25.820  1.00  0.00     0.010 A 
ATOM     12  C   UNL A   1      43.168  23.099  27.166  1.00  0.00    -0.014 A 
BRANCH  12  13
ATOM     13  C   UNL A   1      43.574  24.449  27.633  1.00  0.00     0.031 A 
ATOM     14  C   UNL A   1      45.010  24.892  27.618  1.00  0.00     0.074 A 
ATOM     15  C   UNL A   1      42.604  25.311  28.000  1.00  0.00     0.049 A 
ATOM     16  N   UNL A   1      45.511  26.068  27.907  1.00  0.00    -0.248 NA
ATOM     17  C   UNL A   1      46.019  23.890  27.242  1.00  0.00     0.031 C 
ATOM     18  C   UNL A   1      41.177  24.982  28.080  1.00  0.00     0.029 A 
ATOM     19  N   UNL A   1      42.655  26.639  28.333  1.00  0.00    -0.354 N 
ATOM     20  C   UNL A   1      46.885  25.946  27.757  1.00  0.00     0.074 A 
ATOM     21  C   UNL A   1      47.147  24.573  27.384  1.00  0.00     0.031 C 
ATOM     22  C   UNL A   1      40.485  26.092  28.366  1.00  0.00     0.029 A 
ATOM     23  C   UNL A   1      41.419  27.192  28.561  1.00  0.00     0.049 A 
ATOM     24  H   UNL A   1      43.496  27.147  28.402  1.00  0.00     0.167 HD
ATOM     25  C   UNL A   1      47.837  26.900  27.903  1.00  0.00     0.037 A 
ATOM     26  C   UNL A   1      41.072  28.448  28.900  1.00  0.00     0.037 A 
ATOM     27  C   UNL A   1      47.569  28.269  28.268  1.00  0.00     0.049 A 
ATOM     28  C   UNL A   1      42.150  29.480  29.051  1.00  0.00     0.074 A 
ATOM     29  C   UNL A   1      48.465  29.310  28.439  1.00  0.00     0.029 A 
ATOM     30  N   UNL A   1      46.306  28.787  28.516  1.00  0.00    -0.354 N 
ATOM     31  N   UNL A   1      43.443  29.354  28.885  1.00  0.00    -0.248 NA
ATOM     32  C   UNL A   1      41.720  30.829  29.439  1.00  0.00     0.031 C 
ATOM     33  C   UNL A   1      47.749  30.448  28.827  1.00  0.00     0.029 A 
ATOM     34  C   UNL A   1      46.401  30.130  28.850  1.00  0.00     0.049 A 
ATOM     35  H   UNL A   1      45.465  28.276  28.463  1.00  0.00     0.167 HD
ATOM     36  C   UNL A   1      43.984  30.605  29.144  1.00  0.00     0.074 A 
ATOM     37  C   UNL A   1      42.871  31.485  29.440  1.00  0.00     0.031 C 
ATOM     38  C   UNL A   1      45.283  30.987  29.151  1.00  0.00     0.037 A 
BRANCH  25  39
ATOM     39  C   UNL A   1      49.267  26.501  27.674  1.00  0.00     0.064 A 
ATOM     40  C   UNL A   1      49.809  26.418  26.382  1.00  0.00     0.173 A 
ATOM     41  C   UNL A   1      50.124  26.259  28.759  1.00  0.00     0.173 A 
ATOM     42  F   UNL A   1      49.030  26.629  25.310  1.00  0.00    -0.203 F 
ATOM     43  C   UNL A   1      51.149  26.092  26.184  1.00  0.00     0.198 A 
ATOM     44  C   UNL A   1      51.470  25.960  28.559  1.00  0.00     0.198 A 
ATOM     45  F   UNL A   1      49.661  26.332  30.016  1.00  0.00    -0.203 F 
ATOM     46  F   UNL A   1      51.634  25.986  24.939  1.00  0.00    -0.200 F 
ATOM     47  C   UNL A   1      51.980  25.873  27.273  1.00  0.00     0.200 A 
ATOM     48  F   UNL A   1      52.276  25.761  29.611  1.00  0.00    -0.200 F 
ATOM     49  F   UNL A   1      53.272  25.572  27.080  1.00  0.00    -0.200 F 
ENDBRANCH  25  39
BRANCH  26  50
ATOM     50  C   UNL A   1      39.642  28.782  29.128  1.00  0.00     0.064 A 
ATOM     51  C   UNL A   1      39.055  28.646  30.393  1.00  0.00     0.173 A 
ATOM     52  C   UNL A   1      38.835  29.253  28.081  1.00  0.00     0.173 A 
ATOM     53  F   UNL A   1      39.781  28.183  31.422  1.00  0.00    -0.203 F 
ATOM     54  C   UNL A   1      37.711  28.949  30.597  1.00  0.00     0.198 A 
ATOM     55  C   UNL A   1      37.502  29.588  28.294  1.00  0.00     0.198 A 
ATOM     56  F   UNL A   1      39.352  29.408  26.852  1.00  0.00    -0.203 F 
ATOM     57  F   UNL A   1      37.161  28.765  31.805  1.00  0.00    -0.200 F 
ATOM     58  C   UNL A   1      36.938  29.427  29.549  1.00  0.00     0.200 A 
ATOM     59  F   UNL A   1      36.765  30.069  27.283  1.00  0.00    -0.200 F 
ATOM     60  F   UNL A   1      35.647  29.726  29.749  1.00  0.00    -0.200 F 
ENDBRANCH  26  50
BRANCH  38  61
ATOM     61  C   UNL A   1      45.561  32.424  29.479  1.00  0.00     0.064 A 
ATOM     62  C   UNL A   1      45.791  32.843  30.799  1.00  0.00     0.173 A 
ATOM     63  C   UNL A   1      45.597  33.393  28.466  1.00  0.00     0.173 A 
ATOM     64  F   UNL A   1      45.748  31.956  31.804  1.00  0.00    -0.203 F 
ATOM     65  C   UNL A   1      46.010  34.185  31.096  1.00  0.00     0.198 A 
ATOM     66  C   UNL A   1      45.847  34.730  28.763  1.00  0.00     0.198 A 
ATOM     67  F   UNL A   1      45.389  33.044  27.188  1.00  0.00    -0.203 F 
ATOM     68  F   UNL A   1      46.165  34.571  32.370  1.00  0.00    -0.200 F 
ATOM     69  C   UNL A   1      46.041  35.126  30.078  1.00  0.00     0.200 A 
ATOM     70  F   UNL A   1      45.888  35.637  27.778  1.00  0.00    -0.200 F 
ATOM     71  F   UNL A   1      46.248  36.418  30.365  1.00  0.00    -0.200 F 
ENDBRANCH  38  61
ENDBRANCH  12  13
ENDBRANCH   5   7
ENDBRANCH   2   3
ENDBRANCH   1   2
BRANCH   1  72
ATOM     72  C   UNL A   1      37.240  20.513  24.968  1.00  0.00     0.118 C 
BRANCH  72  73
ATOM     73  N   UNL A   1      35.898  19.951  24.876  1.00  0.00    -0.352 N 
ATOM     74  C   UNL A   1      34.676  20.563  25.014  1.00  0.00     0.251 C 
ATOM     75  H   UNL A   1      35.862  18.986  24.685  1.00  0.00     0.163 HD
ATOM     76  O   UNL A   1      33.659  19.887  25.129  1.00  0.00    -0.269 OA
BRANCH  74  77
ATOM     77  C   UNL A   1      34.599  22.036  25.058  1.00  0.00     0.039 A 
ATOM     78  C   UNL A   1      34.324  22.740  23.889  1.00  0.00     0.014 A 
ATOM     79  C   UNL A   1      34.797  22.722  26.255  1.00  0.00     0.014 A 
ATOM     80  C   UNL A   1      34.119  24.121  23.951  1.00  0.00     0.005 A 
ATOM     81  C   UNL A   1      34.554  24.092  26.320  1.00  0.00     0.005 A 
ATOM     82  C   UNL A   1      34.158  24.809  25.179  1.00  0.00    -0.043 A 
BRANCH  82  83
ATOM     83  C   UNL A   1      33.790  26.291  25.235  1.00  0.00     0.039 C 
ATOM     84  C   UNL A   1      33.989  26.971  23.855  1.00  0.00     0.012 C 
ATOM     85  C   UNL A   1      32.347  26.568  25.717  1.00  0.00     0.128 C 
ATOM     86  C   UNL A   1      33.592  28.449  23.873  1.00  0.00     0.022 C 
ATOM     87  N   UNL A   1      32.042  27.993  25.701  1.00  0.00    -0.338 N 
ATOM     88  C   UNL A   1      32.176  28.640  24.399  1.00  0.00     0.120 C 
BRANCH  87  89
ATOM     89  C   UNL A   1      31.751  28.627  26.903  1.00  0.00     0.253 C 
ATOM     90  O   UNL A   1      31.237  28.072  27.870  1.00  0.00    -0.269 OA
BRANCH  89  91
ATOM     91  C   UNL A   1      32.112  30.044  27.050  1.00  0.00     0.040 A 
ATOM     92  C   UNL A   1      31.186  31.008  26.650  1.00  0.00     0.016 A 
ATOM     93  C   UNL A   1      33.374  30.388  27.551  1.00  0.00     0.024 A 
ATOM     94  C   UNL A   1      31.487  32.365  26.768  1.00  0.00     0.027 A 
ATOM     95  C   UNL A   1      33.692  31.752  27.669  1.00  0.00     0.000 A 
ATOM     96  C   UNL A   1      32.746  32.705  27.282  1.00  0.00     0.045 A 
ATOM     97  C   UNL A   1      34.841  32.462  28.115  1.00  0.00     0.028 A 
ATOM     98  N   UNL A   1      33.308  33.943  27.496  1.00  0.00    -0.361 N 
ATOM     99  C   UNL A   1      34.576  33.808  27.997  1.00  0.00     0.083 A 
ATOM    100  H   UNL A   1      32.863  34.803  27.316  1.00  0.00     0.166 HD
ENDBRANCH  89  91
ENDBRANCH  87  89
ENDBRANCH  82  83
ENDBRANCH  74  77
ENDBRANCH  72  73
ENDBRANCH   1  72
TORSDOF 13
ENDMDL
MODEL 3
REMARK VINA RESULT:     -13.3      2.281      7.990
REMARK SMILES O=C(NCCCNC(=O)c1ccc([C@H]2CCCN(C(=O)c3ccc4[nH]ccc4c3)C2)cc1)c1ccc(-c2c3nc(c(-c4c(F)c(F)c(F)c(F)c4F)c4ccc([nH]4)c(-c4c(F)c(F)c(F)c(F)c4F)c4nc(c(-c5c(F)c(F)c(F)c(F)c5F)c5ccc2[nH]5)C=C4)C=C3)cc1
REMARK SMILES IDX 5 1 4 2 3 3 1 4 2 5 33 7 34 8 95 9 35 10 94 11 36 12 37 13
REMARK SMILES IDX 38 14 88 15 39 16 93 17 87 18 89 19 40 20 92 21 86 22 85 23
REMARK SMILES IDX 41 25 73 26 53 27 72 28 54 29 57 30 71 31 90 32 55 33 56 34
REMARK SMILES IDX 70 36 91 37 58 38 42 39 43 40 51 41 44 42 45 43 49 44 52 45
REMARK SMILES IDX 46 46 47 47 50 48 48 49 74 50 75 51 83 52 76 53 77 54 81 55
REMARK SMILES IDX 84 56 78 57 79 58 82 59 80 60 59 61 60 62 68 63 61 64 62 65
REMARK SMILES IDX 66 66 69 67 63 68 64 69 67 70 65 71 6 72 7 73 8 74 9 76
REMARK SMILES IDX 10 77 11 78 32 79 12 80 31 81 13 82 14 83 15 84 30 85 16 86
REMARK SMILES IDX 18 87 17 88 19 89 20 90 21 91 22 92 29 93 23 94 28 95 24 96
REMARK SMILES IDX 27 97 25 98 26 99
REMARK H PARENT 3 6 89 24 57 35 7 75 25 100
REMARK Flexibility Score: inf
ROOT
ATOM      1  C   UNL A   1      31.556  32.300  26.601  1.00  0.00     0.042 C 
ENDROOT
BRANCH   1   2
ATOM      2  C   UNL A   1      32.786  32.963  27.197  1.00  0.00     0.118 C 
BRANCH   2   3
ATOM      3  N   UNL A   1      32.517  34.297  27.721  1.00  0.00    -0.352 N 
ATOM      4  O   UNL A   1      32.585  36.030  29.157  1.00  0.00    -0.269 OA
ATOM      5  C   UNL A   1      33.074  34.972  28.783  1.00  0.00     0.251 C 
ATOM      6  H   UNL A   1      31.824  34.798  27.234  1.00  0.00     0.163 HD
BRANCH   5   7
ATOM      7  C   UNL A   1      34.246  34.412  29.491  1.00  0.00     0.039 A 
ATOM      8  C   UNL A   1      35.535  34.615  29.003  1.00  0.00     0.014 A 
ATOM      9  C   UNL A   1      34.058  33.687  30.673  1.00  0.00     0.014 A 
ATOM     10  C   UNL A   1      36.603  33.935  29.570  1.00  0.00     0.010 A 
ATOM     11  C   UNL A   1      35.155  33.106  31.319  1.00  0.00     0.010 A 
ATOM     12  C   UNL A   1      36.433  33.193  30.750  1.00  0.00    -0.014 A 
BRANCH  12  13
ATOM     13  C   UNL A   1      37.637  32.592  31.381  1.00  0.00     0.031 A 
ATOM     14  C   UNL A   1      38.101  33.004  32.750  1.00  0.00     0.074 A 
ATOM     15  C   UNL A   1      38.266  31.597  30.725  1.00  0.00     0.049 A 
ATOM     16  N   UNL A   1      39.076  32.509  33.471  1.00  0.00    -0.248 NA
ATOM     17  C   UNL A   1      37.392  34.121  33.393  1.00  0.00     0.031 C 
ATOM     18  C   UNL A   1      37.921  31.131  29.378  1.00  0.00     0.029 A 
ATOM     19  N   UNL A   1      39.292  30.771  31.105  1.00  0.00    -0.354 N 
ATOM     20  C   UNL A   1      39.103  33.253  34.642  1.00  0.00     0.074 A 
ATOM     21  C   UNL A   1      38.070  34.259  34.524  1.00  0.00     0.031 C 
ATOM     22  C   UNL A   1      38.667  30.061  29.075  1.00  0.00     0.029 A 
ATOM     23  C   UNL A   1      39.593  29.809  30.172  1.00  0.00     0.049 A 
ATOM     24  H   UNL A   1      39.767  30.859  31.963  1.00  0.00     0.167 HD
ATOM     25  C   UNL A   1      39.909  33.100  35.721  1.00  0.00     0.037 A 
ATOM     26  C   UNL A   1      40.519  28.833  30.190  1.00  0.00     0.037 A 
ATOM     27  C   UNL A   1      40.934  32.091  35.834  1.00  0.00     0.049 A 
ATOM     28  C   UNL A   1      41.394  28.688  31.401  1.00  0.00     0.074 A 
ATOM     29  C   UNL A   1      41.800  31.853  36.888  1.00  0.00     0.029 A 
ATOM     30  N   UNL A   1      41.227  31.149  34.858  1.00  0.00    -0.354 N 
ATOM     31  N   UNL A   1      41.393  29.388  32.508  1.00  0.00    -0.248 NA
ATOM     32  C   UNL A   1      42.399  27.620  31.362  1.00  0.00     0.031 C 
ATOM     33  C   UNL A   1      42.642  30.792  36.534  1.00  0.00     0.029 A 
ATOM     34  C   UNL A   1      42.268  30.336  35.280  1.00  0.00     0.049 A 
ATOM     35  H   UNL A   1      40.763  31.069  33.993  1.00  0.00     0.167 HD
ATOM     36  C   UNL A   1      42.392  28.844  33.302  1.00  0.00     0.074 A 
ATOM     37  C   UNL A   1      42.952  27.731  32.562  1.00  0.00     0.031 C 
ATOM     38  C   UNL A   1      42.818  29.240  34.526  1.00  0.00     0.037 A 
BRANCH  25  39
ATOM     39  C   UNL A   1      39.725  34.047  36.872  1.00  0.00     0.064 A 
ATOM     40  C   UNL A   1      38.922  33.717  37.973  1.00  0.00     0.173 A 
ATOM     41  C   UNL A   1      40.408  35.273  36.904  1.00  0.00     0.173 A 
ATOM     42  F   UNL A   1      38.239  32.562  37.988  1.00  0.00    -0.203 F 
ATOM     43  C   UNL A   1      38.796  34.584  39.056  1.00  0.00     0.198 A 
ATOM     44  C   UNL A   1      40.301  36.126  38.001  1.00  0.00     0.198 A 
ATOM     45  F   UNL A   1      41.195  35.636  35.880  1.00  0.00    -0.203 F 
ATOM     46  F   UNL A   1      37.995  34.261  40.082  1.00  0.00    -0.200 F 
ATOM     47  C   UNL A   1      39.492  35.784  39.073  1.00  0.00     0.200 A 
ATOM     48  F   UNL A   1      40.984  37.279  38.021  1.00  0.00    -0.200 F 
ATOM     49  F   UNL A   1      39.379  36.611  40.122  1.00  0.00    -0.200 F 
ENDBRANCH  25  39
BRANCH  26  50
ATOM     50  C   UNL A   1      40.666  27.934  29.016  1.00  0.00     0.064 A 
ATOM     51  C   UNL A   1      41.612  28.191  28.016  1.00  0.00     0.173 A 
ATOM     52  C   UNL A   1      39.864  26.791  28.879  1.00  0.00     0.173 A 
ATOM     53  F   UNL A   1      42.390  29.280  28.094  1.00  0.00    -0.203 F 
ATOM     54  C   UNL A   1      41.736  27.350  26.911  1.00  0.00     0.198 A 
ATOM     55  C   UNL A   1      40.012  25.933  27.793  1.00  0.00     0.198 A 
ATOM     56  F   UNL A   1      38.948  26.495  29.814  1.00  0.00    -0.203 F 
ATOM     57  F   UNL A   1      42.615  27.644  25.944  1.00  0.00    -0.200 F 
ATOM     58  C   UNL A   1      40.942  26.218  26.806  1.00  0.00     0.200 A 
ATOM     59  F   UNL A   1      39.257  24.829  27.706  1.00  0.00    -0.200 F 
ATOM     60  F   UNL A   1      41.067  25.406  25.747  1.00  0.00    -0.200 F 
ENDBRANCH  26  50
BRANCH  38  61
ATOM     61  C   UNL A   1      43.937  28.449  35.137  1.00  0.00     0.064 A 
ATOM     62  C   UNL A   1      43.686  27.365  35.992  1.00  0.00     0.173 A 
ATOM     63  C   UNL A   1      45.273  28.778  34.867  1.00  0.00     0.173 A 
ATOM     64  F   UNL A   1      42.424  27.024  36.295  1.00  0.00    -0.203 F 
ATOM     65  C   UNL A   1      44.731  26.663  36.583  1.00  0.00     0.198 A 
ATOM     66  C   UNL A   1      46.317  28.054  35.435  1.00  0.00     0.198 A 
ATOM     67  F   UNL A   1      45.566  29.802  34.051  1.00  0.00    -0.203 F 
ATOM     68  F   UNL A   1      44.468  25.671  37.445  1.00  0.00    -0.200 F 
ATOM     69  C   UNL A   1      46.045  27.005  36.302  1.00  0.00     0.200 A 
ATOM     70  F   UNL A   1      47.586  28.378  35.154  1.00  0.00    -0.200 F 
ATOM     71  F   UNL A   1      47.052  26.331  36.874  1.00  0.00    -0.200 F 
ENDBRANCH  38  61
ENDBRANCH  12  13
ENDBRANCH   5   7
ENDBRANCH   2   3
ENDBRANCH   1   2
BRANCH   1  72
ATOM     72  C   UNL A   1      31.759  30.832  26.266  1.00  0.00     0.118 C 
BRANCH  72  73
ATOM     73  N   UNL A   1      30.921  30.397  25.156  1.00  0.00    -0.352 N 
ATOM     74  C   UNL A   1      31.010  29.270  24.374  1.00  0.00     0.251 C 
ATOM     75  H   UNL A   1      30.177  31.001  24.931  1.00  0.00     0.163 HD
ATOM     76  O   UNL A   1      30.355  29.184  23.341  1.00  0.00    -0.269 OA
BRANCH  74  77
ATOM     77  C   UNL A   1      31.924  28.180  24.769  1.00  0.00     0.039 A 
ATOM     78  C   UNL A   1      31.488  27.218  25.676  1.00  0.00     0.014 A 
ATOM     79  C   UNL A   1      33.212  28.108  24.241  1.00  0.00     0.014 A 
ATOM     80  C   UNL A   1      32.299  26.114  25.949  1.00  0.00     0.005 A 
ATOM     81  C   UNL A   1      34.002  26.987  24.486  1.00  0.00     0.005 A 
ATOM     82  C   UNL A   1      33.539  25.942  25.302  1.00  0.00    -0.043 A 
BRANCH  82  83
ATOM     83  C   UNL A   1      34.339  24.658  25.514  1.00  0.00     0.039 C 
ATOM     84  C   UNL A   1      33.702  23.776  26.621  1.00  0.00     0.012 C 
ATOM     85  C   UNL A   1      34.507  23.799  24.238  1.00  0.00     0.128 C 
ATOM     86  C   UNL A   1      34.462  22.464  26.828  1.00  0.00     0.022 C 
ATOM     87  N   UNL A   1      35.233  22.567  24.515  1.00  0.00    -0.338 N 
ATOM     88  C   UNL A   1      34.623  21.701  25.520  1.00  0.00     0.120 C 
BRANCH  87  89
ATOM     89  C   UNL A   1      36.460  22.361  23.895  1.00  0.00     0.253 C 
ATOM     90  O   UNL A   1      36.750  22.786  22.781  1.00  0.00    -0.269 OA
BRANCH  89  91
ATOM     91  C   UNL A   1      37.497  21.621  24.627  1.00  0.00     0.040 A 
ATOM     92  C   UNL A   1      37.543  20.233  24.488  1.00  0.00     0.016 A 
ATOM     93  C   UNL A   1      38.382  22.314  25.463  1.00  0.00     0.024 A 
ATOM     94  C   UNL A   1      38.508  19.489  25.168  1.00  0.00     0.027 A 
ATOM     95  C   UNL A   1      39.356  21.574  26.158  1.00  0.00     0.000 A 
ATOM     96  C   UNL A   1      39.400  20.188  25.992  1.00  0.00     0.045 A 
ATOM     97  C   UNL A   1      40.389  21.919  27.073  1.00  0.00     0.028 A 
ATOM     98  N   UNL A   1      40.430  19.720  26.776  1.00  0.00    -0.361 N 
ATOM     99  C   UNL A   1      41.033  20.758  27.436  1.00  0.00     0.083 A 
ATOM    100  H   UNL A   1      40.696  18.775  26.852  1.00  0.00     0.166 HD
ENDBRANCH  89  91
ENDBRANCH  87  89
ENDBRANCH  82  83
ENDBRANCH  74  77
ENDBRANCH  72  73
ENDBRANCH   1  72
TORSDOF 13
ENDMDL
