MODEL 1
REMARK VINA RESULT:     -13.6      0.000      0.000
REMARK SMILES CCc1ccccc1NC(=O)c1cc(S(=O)(=O)N2CCC[C@H](C(=O)NCCCNC(=O)c3ccc(-c4c5nc(c(-c6c(F)c(F)c(F)c(F)c6F)c6ccc([nH]6)c(-c6c(F)c(F)c(F)c(F)c6F)c6nc(c(-c7c(F)c(F)c(F)c(F)c7F)c7ccc4[nH]7)C=C6)C=C5)cc3)C2)ccc1F
REMARK SMILES IDX 23 1 24 2 25 3 22 5 18 6 19 7 95 8 20 9 21 10 15 11 16 12
REMARK SMILES IDX 17 13 14 14 12 15 13 16 98 17 97 18 99 19 96 20 10 21 9 22
REMARK SMILES IDX 11 24 8 25 3 26 4 27 5 28 7 29 6 30 2 31 1 32 26 33 27 34
REMARK SMILES IDX 28 35 29 36 30 37 31 39 32 40 33 41 94 42 34 43 93 44 35 45
REMARK SMILES IDX 36 46 37 47 87 48 38 49 92 50 86 51 88 52 39 53 91 54 85 55
REMARK SMILES IDX 84 56 40 58 72 59 52 60 71 61 53 62 56 63 70 64 89 65 54 66
REMARK SMILES IDX 55 67 69 69 90 70 57 71 41 72 42 73 50 74 43 75 44 76 48 77
REMARK SMILES IDX 51 78 45 79 46 80 49 81 47 82 73 83 74 84 82 85 75 86 76 87
REMARK SMILES IDX 80 88 83 89 77 90 78 91 81 92 79 93 58 94 59 95 67 96 60 97
REMARK SMILES IDX 61 98 65 99 68 100 62 101 63 102 66 103 64 104
REMARK H PARENT 25 4 9 23 29 38 88 57 56 68
REMARK Flexibility Score: inf
ROOT
ATOM      1  C   UNL A   1      31.406  28.755  24.198  1.00  0.00     0.224 C 
ATOM      2  O   UNL A   1      31.358  28.842  22.964  1.00  0.00    -0.275 OA
ATOM      3  N   UNL A   1      31.404  29.929  24.869  1.00  0.00    -0.356 N 
ATOM      4  H   UNL A   1      31.340  30.717  24.281  1.00  0.00     0.163 HD
ENDROOT
BRANCH   1   5
ATOM      5  C   UNL A   1      31.508  27.367  24.832  1.00  0.00     0.093 C 
ATOM      6  N   UNL A   1      32.130  25.446  23.321  1.00  0.00    -0.197 NA
ATOM      7  C   UNL A   1      30.821  24.793  23.505  1.00  0.00     0.102 C 
ATOM      8  C   UNL A   1      32.599  26.450  24.309  1.00  0.00     0.116 C 
ATOM      9  C   UNL A   1      29.741  25.772  23.929  1.00  0.00     0.018 C 
ATOM     10  C   UNL A   1      30.167  26.680  25.066  1.00  0.00     0.016 C 
BRANCH   6  11
ATOM     11  S   UNL A   1      33.337  24.549  22.523  1.00  0.00     0.243 S 
ATOM     12  O   UNL A   1      34.556  24.681  23.287  1.00  0.00    -0.207 OA
ATOM     13  O   UNL A   1      33.282  24.900  21.118  1.00  0.00    -0.207 OA
BRANCH  11  14
ATOM     14  C   UNL A   1      32.863  22.837  22.625  1.00  0.00     0.083 A 
ATOM     15  C   UNL A   1      32.797  20.841  23.979  1.00  0.00     0.077 A 
ATOM     16  C   UNL A   1      33.110  22.197  23.844  1.00  0.00     0.038 A 
ATOM     17  C   UNL A   1      32.153  20.160  22.947  1.00  0.00     0.136 A 
ATOM     18  C   UNL A   1      31.928  20.790  21.729  1.00  0.00     0.041 A 
ATOM     19  F   UNL A   1      31.783  18.879  23.082  1.00  0.00    -0.206 F 
ATOM     20  C   UNL A   1      32.304  22.123  21.559  1.00  0.00     0.025 A 
BRANCH  15  21
ATOM     21  C   UNL A   1      33.212  20.155  25.207  1.00  0.00     0.258 C 
ATOM     22  N   UNL A   1      34.405  20.447  25.827  1.00  0.00    -0.322 N 
ATOM     23  H   UNL A   1      34.633  19.843  26.569  1.00  0.00     0.170 HD
ATOM     24  O   UNL A   1      32.469  19.287  25.663  1.00  0.00    -0.269 OA
BRANCH  22  25
ATOM     25  C   UNL A   1      35.364  21.457  25.590  1.00  0.00     0.044 A 
ATOM     26  C   UNL A   1      35.303  22.645  26.346  1.00  0.00    -0.025 A 
ATOM     27  C   UNL A   1      36.343  23.588  26.220  1.00  0.00     0.006 A 
ATOM     28  C   UNL A   1      37.391  23.390  25.322  1.00  0.00     0.000 A 
ATOM     29  C   UNL A   1      36.374  21.321  24.626  1.00  0.00     0.026 A 
ATOM     30  C   UNL A   1      37.392  22.268  24.504  1.00  0.00     0.002 A 
BRANCH  26  31
ATOM     31  C   UNL A   1      34.180  22.953  27.312  1.00  0.00     0.034 C 
ATOM     32  C   UNL A   1      33.087  23.827  26.717  1.00  0.00     0.009 C 
ENDBRANCH  26  31
ENDBRANCH  22  25
ENDBRANCH  15  21
ENDBRANCH  11  14
ENDBRANCH   6  11
ENDBRANCH   1   5
BRANCH   3  33
ATOM     33  C   UNL A   1      31.476  30.265  26.277  1.00  0.00     0.117 C 
BRANCH  33  34
ATOM     34  C   UNL A   1      31.381  31.767  26.500  1.00  0.00     0.042 C 
BRANCH  34  35
ATOM     35  C   UNL A   1      32.709  32.396  26.877  1.00  0.00     0.118 C 
BRANCH  35  36
ATOM     36  N   UNL A   1      32.561  33.740  27.411  1.00  0.00    -0.352 N 
ATOM     37  C   UNL A   1      33.242  34.370  28.423  1.00  0.00     0.251 C 
ATOM     38  H   UNL A   1      31.863  34.285  26.978  1.00  0.00     0.163 HD
ATOM     39  O   UNL A   1      32.866  35.471  28.815  1.00  0.00    -0.269 OA
BRANCH  37  40
ATOM     40  C   UNL A   1      34.407  33.721  29.067  1.00  0.00     0.039 A 
ATOM     41  C   UNL A   1      34.187  32.605  29.879  1.00  0.00     0.014 A 
ATOM     42  C   UNL A   1      35.703  34.209  28.895  1.00  0.00     0.014 A 
ATOM     43  C   UNL A   1      35.269  31.957  30.476  1.00  0.00     0.010 A 
ATOM     44  C   UNL A   1      36.788  33.497  29.394  1.00  0.00     0.010 A 
ATOM     45  C   UNL A   1      36.582  32.380  30.215  1.00  0.00    -0.014 A 
BRANCH  45  46
ATOM     46  C   UNL A   1      37.748  31.706  30.839  1.00  0.00     0.031 A 
ATOM     47  C   UNL A   1      38.138  32.049  32.253  1.00  0.00     0.074 A 
ATOM     48  C   UNL A   1      38.474  30.821  30.128  1.00  0.00     0.049 A 
ATOM     49  N   UNL A   1      39.156  31.625  32.960  1.00  0.00    -0.248 NA
ATOM     50  C   UNL A   1      37.292  33.028  32.958  1.00  0.00     0.031 C 
ATOM     51  C   UNL A   1      38.227  30.446  28.734  1.00  0.00     0.029 A 
ATOM     52  N   UNL A   1      39.569  30.075  30.483  1.00  0.00    -0.354 N 
ATOM     53  C   UNL A   1      39.075  32.293  34.176  1.00  0.00     0.074 A 
ATOM     54  C   UNL A   1      37.957  33.205  34.087  1.00  0.00     0.031 C 
ATOM     55  C   UNL A   1      39.118  29.513  28.365  1.00  0.00     0.029 A 
ATOM     56  C   UNL A   1      40.020  29.248  29.480  1.00  0.00     0.049 A 
ATOM     57  H   UNL A   1      39.992  30.126  31.370  1.00  0.00     0.167 HD
ATOM     58  C   UNL A   1      39.836  32.131  35.284  1.00  0.00     0.037 A 
ATOM     59  C   UNL A   1      41.042  28.373  29.473  1.00  0.00     0.037 A 
ATOM     60  C   UNL A   1      40.923  31.195  35.382  1.00  0.00     0.049 A 
ATOM     61  C   UNL A   1      41.860  28.201  30.726  1.00  0.00     0.074 A 
ATOM     62  C   UNL A   1      41.752  30.939  36.460  1.00  0.00     0.029 A 
ATOM     63  N   UNL A   1      41.319  30.343  34.361  1.00  0.00    -0.354 N 
ATOM     64  N   UNL A   1      41.746  28.808  31.883  1.00  0.00    -0.248 NA
ATOM     65  C   UNL A   1      42.940  27.207  30.677  1.00  0.00     0.031 C 
ATOM     66  C   UNL A   1      42.663  29.946  36.084  1.00  0.00     0.029 A 
ATOM     67  C   UNL A   1      42.375  29.555  34.787  1.00  0.00     0.049 A 
ATOM     68  H   UNL A   1      40.908  30.305  33.467  1.00  0.00     0.167 HD
ATOM     69  C   UNL A   1      42.708  28.242  32.707  1.00  0.00     0.074 A 
ATOM     70  C   UNL A   1      43.385  27.231  31.924  1.00  0.00     0.031 C 
ATOM     71  C   UNL A   1      43.009  28.533  33.997  1.00  0.00     0.037 A 
BRANCH  58  72
ATOM     72  C   UNL A   1      39.496  32.962  36.487  1.00  0.00     0.064 A 
ATOM     73  C   UNL A   1      38.562  32.520  37.437  1.00  0.00     0.173 A 
ATOM     74  C   UNL A   1      40.130  34.192  36.714  1.00  0.00     0.173 A 
ATOM     75  F   UNL A   1      37.915  31.359  37.258  1.00  0.00    -0.203 F 
ATOM     76  C   UNL A   1      38.258  33.290  38.556  1.00  0.00     0.198 A 
ATOM     77  C   UNL A   1      39.846  34.945  37.851  1.00  0.00     0.198 A 
ATOM     78  F   UNL A   1      41.033  34.661  35.839  1.00  0.00    -0.203 F 
ATOM     79  F   UNL A   1      37.327  32.870  39.424  1.00  0.00    -0.200 F 
ATOM     80  C   UNL A   1      38.906  34.497  38.767  1.00  0.00     0.200 A 
ATOM     81  F   UNL A   1      40.481  36.107  38.059  1.00  0.00    -0.200 F 
ATOM     82  F   UNL A   1      38.619  35.233  39.851  1.00  0.00    -0.200 F 
ENDBRANCH  58  72
BRANCH  59  83
ATOM     83  C   UNL A   1      41.331  27.559  28.263  1.00  0.00     0.064 A 
ATOM     84  C   UNL A   1      40.673  26.340  28.044  1.00  0.00     0.173 A 
ATOM     85  C   UNL A   1      42.294  27.957  27.325  1.00  0.00     0.173 A 
ATOM     86  F   UNL A   1      39.757  25.907  28.922  1.00  0.00    -0.203 F 
ATOM     87  C   UNL A   1      40.996  25.532  26.956  1.00  0.00     0.198 A 
ATOM     88  C   UNL A   1      42.593  27.163  26.219  1.00  0.00     0.198 A 
ATOM     89  F   UNL A   1      42.946  29.118  27.482  1.00  0.00    -0.203 F 
ATOM     90  F   UNL A   1      40.398  24.341  26.808  1.00  0.00    -0.200 F 
ATOM     91  C   UNL A   1      41.954  25.945  26.043  1.00  0.00     0.200 A 
ATOM     92  F   UNL A   1      43.510  27.572  25.331  1.00  0.00    -0.200 F 
ATOM     93  F   UNL A   1      42.271  25.163  25.001  1.00  0.00    -0.200 F 
ENDBRANCH  59  83
BRANCH  71  94
ATOM     94  C   UNL A   1      44.071  27.702  34.653  1.00  0.00     0.064 A 
ATOM     95  C   UNL A   1      45.421  28.082  34.641  1.00  0.00     0.173 A 
ATOM     96  C   UNL A   1      43.726  26.514  35.317  1.00  0.00     0.173 A 
ATOM     97  F   UNL A   1      45.800  29.202  34.007  1.00  0.00    -0.203 F 
ATOM     98  C   UNL A   1      46.393  27.283  35.235  1.00  0.00     0.198 A 
ATOM     99  C   UNL A   1      44.696  25.735  35.938  1.00  0.00     0.198 A 
ATOM    100  F   UNL A   1      42.447  26.113  35.366  1.00  0.00    -0.203 F 
ATOM    101  F   UNL A   1      47.684  27.634  35.158  1.00  0.00    -0.200 F 
ATOM    102  C   UNL A   1      46.030  26.113  35.887  1.00  0.00     0.200 A 
ATOM    103  F   UNL A   1      44.344  24.612  36.579  1.00  0.00    -0.200 F 
ATOM    104  F   UNL A   1      46.968  25.345  36.457  1.00  0.00    -0.200 F 
ENDBRANCH  71  94
ENDBRANCH  45  46
ENDBRANCH  37  40
ENDBRANCH  35  36
ENDBRANCH  34  35
ENDBRANCH  33  34
ENDBRANCH   3  33
TORSDOF 15
ENDMDL
MODEL 2
REMARK VINA RESULT:     -13.6      4.810     10.916
REMARK SMILES CCc1ccccc1NC(=O)c1cc(S(=O)(=O)N2CCC[C@H](C(=O)NCCCNC(=O)c3ccc(-c4c5nc(c(-c6c(F)c(F)c(F)c(F)c6F)c6ccc([nH]6)c(-c6c(F)c(F)c(F)c(F)c6F)c6nc(c(-c7c(F)c(F)c(F)c(F)c7F)c7ccc4[nH]7)C=C6)C=C5)cc3)C2)ccc1F
REMARK SMILES IDX 23 1 24 2 25 3 22 5 18 6 19 7 95 8 20 9 21 10 15 11 16 12
REMARK SMILES IDX 17 13 14 14 12 15 13 16 98 17 97 18 99 19 96 20 10 21 9 22
REMARK SMILES IDX 11 24 8 25 3 26 4 27 5 28 7 29 6 30 2 31 1 32 26 33 27 34
REMARK SMILES IDX 28 35 29 36 30 37 31 39 32 40 33 41 94 42 34 43 93 44 35 45
REMARK SMILES IDX 36 46 37 47 87 48 38 49 92 50 86 51 88 52 39 53 91 54 85 55
REMARK SMILES IDX 84 56 40 58 72 59 52 60 71 61 53 62 56 63 70 64 89 65 54 66
REMARK SMILES IDX 55 67 69 69 90 70 57 71 41 72 42 73 50 74 43 75 44 76 48 77
REMARK SMILES IDX 51 78 45 79 46 80 49 81 47 82 73 83 74 84 82 85 75 86 76 87
REMARK SMILES IDX 80 88 83 89 77 90 78 91 81 92 79 93 58 94 59 95 67 96 60 97
REMARK SMILES IDX 61 98 65 99 68 100 62 101 63 102 66 103 64 104
REMARK H PARENT 25 4 9 23 29 38 88 57 56 68
REMARK Flexibility Score: inf
ROOT
ATOM      1  C   UNL A   1      35.311  21.882  26.099  1.00  0.00     0.224 C 
ATOM      2  O   UNL A   1      34.615  21.531  27.060  1.00  0.00    -0.275 OA
ATOM      3  N   UNL A   1      36.262  21.002  25.712  1.00  0.00    -0.356 N 
ATOM      4  H   UNL A   1      36.266  20.171  26.239  1.00  0.00     0.163 HD
ENDROOT
BRANCH   1   5
ATOM      5  C   UNL A   1      35.068  23.260  25.481  1.00  0.00     0.093 C 
ATOM      6  N   UNL A   1      32.674  24.020  25.252  1.00  0.00    -0.197 NA
ATOM      7  C   UNL A   1      32.748  24.020  23.779  1.00  0.00     0.102 C 
ATOM      8  C   UNL A   1      33.923  24.077  26.052  1.00  0.00     0.116 C 
ATOM      9  C   UNL A   1      33.842  23.108  23.255  1.00  0.00     0.018 C 
ATOM     10  C   UNL A   1      35.171  23.298  23.960  1.00  0.00     0.016 C 
BRANCH   6  11
ATOM     11  S   UNL A   1      31.291  24.718  25.957  1.00  0.00     0.243 S 
ATOM     12  O   UNL A   1      31.186  24.213  27.306  1.00  0.00    -0.207 OA
ATOM     13  O   UNL A   1      30.203  24.579  25.009  1.00  0.00    -0.207 OA
BRANCH  11  14
ATOM     14  C   UNL A   1      31.605  26.464  26.098  1.00  0.00     0.083 A 
ATOM     15  C   UNL A   1      31.932  28.553  24.935  1.00  0.00     0.077 A 
ATOM     16  C   UNL A   1      31.651  27.184  24.900  1.00  0.00     0.038 A 
ATOM     17  C   UNL A   1      32.063  29.214  26.156  1.00  0.00     0.136 A 
ATOM     18  C   UNL A   1      32.040  28.495  27.345  1.00  0.00     0.041 A 
ATOM     19  F   UNL A   1      32.265  30.537  26.213  1.00  0.00    -0.206 F 
ATOM     20  C   UNL A   1      31.833  27.115  27.315  1.00  0.00     0.025 A 
BRANCH  15  21
ATOM     21  C   UNL A   1      32.134  29.251  23.661  1.00  0.00     0.258 C 
ATOM     22  N   UNL A   1      31.073  29.614  22.863  1.00  0.00    -0.322 N 
ATOM     23  H   UNL A   1      31.333  29.965  21.981  1.00  0.00     0.170 HD
ATOM     24  O   UNL A   1      33.289  29.487  23.308  1.00  0.00    -0.269 OA
BRANCH  22  25
ATOM     25  C   UNL A   1      29.678  29.574  23.081  1.00  0.00     0.044 A 
ATOM     26  C   UNL A   1      29.011  30.760  23.446  1.00  0.00    -0.025 A 
ATOM     27  C   UNL A   1      27.604  30.758  23.516  1.00  0.00     0.006 A 
ATOM     28  C   UNL A   1      26.873  29.593  23.287  1.00  0.00     0.000 A 
ATOM     29  C   UNL A   1      28.932  28.393  22.948  1.00  0.00     0.026 A 
ATOM     30  C   UNL A   1      27.539  28.404  23.029  1.00  0.00     0.002 A 
BRANCH  26  31
ATOM     31  C   UNL A   1      29.734  32.055  23.749  1.00  0.00     0.034 C 
ATOM     32  C   UNL A   1      29.077  33.279  23.129  1.00  0.00     0.009 C 
ENDBRANCH  26  31
ENDBRANCH  22  25
ENDBRANCH  15  21
ENDBRANCH  11  14
ENDBRANCH   6  11
ENDBRANCH   1   5
BRANCH   3  33
ATOM     33  C   UNL A   1      37.279  21.034  24.679  1.00  0.00     0.117 C 
BRANCH  33  34
ATOM     34  C   UNL A   1      38.243  19.864  24.806  1.00  0.00     0.042 C 
BRANCH  34  35
ATOM     35  C   UNL A   1      39.094  19.929  26.059  1.00  0.00     0.118 C 
BRANCH  35  36
ATOM     36  N   UNL A   1      40.303  19.128  25.957  1.00  0.00    -0.352 N 
ATOM     37  C   UNL A   1      41.622  19.504  26.025  1.00  0.00     0.251 C 
ATOM     38  H   UNL A   1      40.153  18.164  25.819  1.00  0.00     0.163 HD
ATOM     39  O   UNL A   1      42.501  18.685  25.776  1.00  0.00    -0.269 OA
BRANCH  37  40
ATOM     40  C   UNL A   1      41.993  20.896  26.367  1.00  0.00     0.039 A 
ATOM     41  C   UNL A   1      42.304  21.199  27.696  1.00  0.00     0.014 A 
ATOM     42  C   UNL A   1      42.021  21.904  25.402  1.00  0.00     0.014 A 
ATOM     43  C   UNL A   1      42.686  22.496  28.042  1.00  0.00     0.010 A 
ATOM     44  C   UNL A   1      42.510  23.164  25.724  1.00  0.00     0.010 A 
ATOM     45  C   UNL A   1      42.820  23.484  27.053  1.00  0.00    -0.014 A 
BRANCH  45  46
ATOM     46  C   UNL A   1      43.223  24.870  27.397  1.00  0.00     0.031 A 
ATOM     47  C   UNL A   1      44.637  25.321  27.136  1.00  0.00     0.074 A 
ATOM     48  C   UNL A   1      42.338  25.705  27.973  1.00  0.00     0.049 A 
ATOM     49  N   UNL A   1      45.209  26.465  27.419  1.00  0.00    -0.248 NA
ATOM     50  C   UNL A   1      45.542  24.345  26.505  1.00  0.00     0.031 C 
ATOM     51  C   UNL A   1      40.956  25.367  28.323  1.00  0.00     0.029 A 
ATOM     52  N   UNL A   1      42.467  27.013  28.366  1.00  0.00    -0.354 N 
ATOM     53  C   UNL A   1      46.532  26.336  27.013  1.00  0.00     0.074 A 
ATOM     54  C   UNL A   1      46.700  24.982  26.536  1.00  0.00     0.031 C 
ATOM     55  C   UNL A   1      40.355  26.449  28.842  1.00  0.00     0.029 A 
ATOM     56  C   UNL A   1      41.315  27.546  28.894  1.00  0.00     0.049 A 
ATOM     57  H   UNL A   1      43.306  27.521  28.279  1.00  0.00     0.167 HD
ATOM     58  C   UNL A   1      47.509  27.273  27.000  1.00  0.00     0.037 A 
ATOM     59  C   UNL A   1      41.068  28.784  29.360  1.00  0.00     0.037 A 
ATOM     60  C   UNL A   1      47.328  28.630  27.440  1.00  0.00     0.049 A 
ATOM     61  C   UNL A   1      42.169  29.811  29.315  1.00  0.00     0.074 A 
ATOM     62  C   UNL A   1      48.245  29.665  27.457  1.00  0.00     0.029 A 
ATOM     63  N   UNL A   1      46.133  29.144  27.924  1.00  0.00    -0.354 N 
ATOM     64  N   UNL A   1      43.404  29.688  28.889  1.00  0.00    -0.248 NA
ATOM     65  C   UNL A   1      41.836  31.157  29.800  1.00  0.00     0.031 C 
ATOM     66  C   UNL A   1      47.611  30.801  27.972  1.00  0.00     0.029 A 
ATOM     67  C   UNL A   1      46.289  30.484  28.236  1.00  0.00     0.049 A 
ATOM     68  H   UNL A   1      45.299  28.631  28.030  1.00  0.00     0.167 HD
ATOM     69  C   UNL A   1      43.978  30.944  29.016  1.00  0.00     0.074 A 
ATOM     70  C   UNL A   1      42.953  31.820  29.542  1.00  0.00     0.031 C 
ATOM     71  C   UNL A   1      45.242  31.341  28.728  1.00  0.00     0.037 A 
BRANCH  58  72
ATOM     72  C   UNL A   1      48.850  26.869  26.461  1.00  0.00     0.064 A 
ATOM     73  C   UNL A   1      49.168  27.027  25.102  1.00  0.00     0.173 A 
ATOM     74  C   UNL A   1      49.840  26.352  27.309  1.00  0.00     0.173 A 
ATOM     75  F   UNL A   1      48.251  27.500  24.246  1.00  0.00    -0.203 F 
ATOM     76  C   UNL A   1      50.417  26.659  24.609  1.00  0.00     0.198 A 
ATOM     77  C   UNL A   1      51.099  26.015  26.818  1.00  0.00     0.198 A 
ATOM     78  F   UNL A   1      49.591  26.182  28.617  1.00  0.00    -0.203 F 
ATOM     79  F   UNL A   1      50.679  26.774  23.301  1.00  0.00    -0.200 F 
ATOM     80  C   UNL A   1      51.385  26.162  25.469  1.00  0.00     0.200 A 
ATOM     81  F   UNL A   1      52.038  25.544  27.652  1.00  0.00    -0.200 F 
ATOM     82  F   UNL A   1      52.591  25.818  24.995  1.00  0.00    -0.200 F 
ENDBRANCH  58  72
BRANCH  59  83
ATOM     83  C   UNL A   1      39.719  29.145  29.869  1.00  0.00     0.064 A 
ATOM     84  C   UNL A   1      39.391  28.973  31.222  1.00  0.00     0.173 A 
ATOM     85  C   UNL A   1      38.717  29.627  29.014  1.00  0.00     0.173 A 
ATOM     86  F   UNL A   1      40.309  28.497  32.077  1.00  0.00    -0.203 F 
ATOM     87  C   UNL A   1      38.106  29.231  31.692  1.00  0.00     0.198 A 
ATOM     88  C   UNL A   1      37.440  29.916  29.492  1.00  0.00     0.198 A 
ATOM     89  F   UNL A   1      38.979  29.819  27.713  1.00  0.00    -0.203 F 
ATOM     90  F   UNL A   1      37.805  28.994  32.977  1.00  0.00    -0.200 F 
ATOM     91  C   UNL A   1      37.132  29.704  30.827  1.00  0.00     0.200 A 
ATOM     92  F   UNL A   1      36.505  30.387  28.655  1.00  0.00    -0.200 F 
ATOM     93  F   UNL A   1      35.892  29.944  31.277  1.00  0.00    -0.200 F 
ENDBRANCH  59  83
BRANCH  71  94
ATOM     94  C   UNL A   1      45.560  32.794  28.914  1.00  0.00     0.064 A 
ATOM     95  C   UNL A   1      46.089  33.289  30.115  1.00  0.00     0.173 A 
ATOM     96  C   UNL A   1      45.345  33.703  27.865  1.00  0.00     0.173 A 
ATOM     97  F   UNL A   1      46.298  32.460  31.150  1.00  0.00    -0.203 F 
ATOM     98  C   UNL A   1      46.353  34.645  30.274  1.00  0.00     0.198 A 
ATOM     99  C   UNL A   1      45.640  35.053  28.017  1.00  0.00     0.198 A 
ATOM    100  F   UNL A   1      44.851  33.278  26.693  1.00  0.00    -0.203 F 
ATOM    101  F   UNL A   1      46.799  35.104  31.452  1.00  0.00    -0.200 F 
ATOM    102  C   UNL A   1      46.134  35.525  29.225  1.00  0.00     0.200 A 
ATOM    103  F   UNL A   1      45.441  35.900  26.999  1.00  0.00    -0.200 F 
ATOM    104  F   UNL A   1      46.387  36.832  29.381  1.00  0.00    -0.200 F 
ENDBRANCH  71  94
ENDBRANCH  45  46
ENDBRANCH  37  40
ENDBRANCH  35  36
ENDBRANCH  34  35
ENDBRANCH  33  34
ENDBRANCH   3  33
TORSDOF 15
ENDMDL
MODEL 3
REMARK VINA RESULT:     -13.5      5.042      9.537
REMARK SMILES CCc1ccccc1NC(=O)c1cc(S(=O)(=O)N2CCC[C@H](C(=O)NCCCNC(=O)c3ccc(-c4c5nc(c(-c6c(F)c(F)c(F)c(F)c6F)c6ccc([nH]6)c(-c6c(F)c(F)c(F)c(F)c6F)c6nc(c(-c7c(F)c(F)c(F)c(F)c7F)c7ccc4[nH]7)C=C6)C=C5)cc3)C2)ccc1F
REMARK SMILES IDX 23 1 24 2 25 3 22 5 18 6 19 7 95 8 20 9 21 10 15 11 16 12
REMARK SMILES IDX 17 13 14 14 12 15 13 16 98 17 97 18 99 19 96 20 10 21 9 22
REMARK SMILES IDX 11 24 8 25 3 26 4 27 5 28 7 29 6 30 2 31 1 32 26 33 27 34
REMARK SMILES IDX 28 35 29 36 30 37 31 39 32 40 33 41 94 42 34 43 93 44 35 45
REMARK SMILES IDX 36 46 37 47 87 48 38 49 92 50 86 51 88 52 39 53 91 54 85 55
REMARK SMILES IDX 84 56 40 58 72 59 52 60 71 61 53 62 56 63 70 64 89 65 54 66
REMARK SMILES IDX 55 67 69 69 90 70 57 71 41 72 42 73 50 74 43 75 44 76 48 77
REMARK SMILES IDX 51 78 45 79 46 80 49 81 47 82 73 83 74 84 82 85 75 86 76 87
REMARK SMILES IDX 80 88 83 89 77 90 78 91 81 92 79 93 58 94 59 95 67 96 60 97
REMARK SMILES IDX 61 98 65 99 68 100 62 101 63 102 66 103 64 104
REMARK H PARENT 25 4 9 23 29 38 88 57 56 68
REMARK Flexibility Score: inf
ROOT
ATOM      1  C   UNL A   1      37.080  22.826  25.865  1.00  0.00     0.224 C 
ATOM      2  O   UNL A   1      36.234  23.554  26.400  1.00  0.00    -0.275 OA
ATOM      3  N   UNL A   1      38.321  22.879  26.399  1.00  0.00    -0.356 N 
ATOM      4  H   UNL A   1      38.389  23.483  27.174  1.00  0.00     0.163 HD
ENDROOT
BRANCH   1   5
ATOM      5  C   UNL A   1      36.667  21.991  24.652  1.00  0.00     0.093 C 
ATOM      6  N   UNL A   1      34.336  22.328  23.753  1.00  0.00    -0.197 NA
ATOM      7  C   UNL A   1      33.932  20.953  24.102  1.00  0.00     0.102 C 
ATOM      8  C   UNL A   1      35.776  22.663  23.624  1.00  0.00     0.116 C 
ATOM      9  C   UNL A   1      34.790  20.362  25.206  1.00  0.00     0.018 C 
ATOM     10  C   UNL A   1      36.277  20.553  24.979  1.00  0.00     0.016 C 
BRANCH   6  11
ATOM     11  S   UNL A   1      33.260  23.228  22.787  1.00  0.00     0.243 S 
ATOM     12  O   UNL A   1      32.546  22.297  21.944  1.00  0.00    -0.207 OA
ATOM     13  O   UNL A   1      34.004  24.339  22.229  1.00  0.00    -0.207 OA
BRANCH  11  14
ATOM     14  C   UNL A   1      32.052  23.941  23.883  1.00  0.00     0.083 A 
ATOM     15  C   UNL A   1      30.574  25.797  24.318  1.00  0.00     0.077 A 
ATOM     16  C   UNL A   1      31.500  25.163  23.485  1.00  0.00     0.038 A 
ATOM     17  C   UNL A   1      30.128  25.172  25.482  1.00  0.00     0.136 A 
ATOM     18  C   UNL A   1      30.693  23.969  25.888  1.00  0.00     0.041 A 
ATOM     19  F   UNL A   1      29.191  25.732  26.258  1.00  0.00    -0.206 F 
ATOM     20  C   UNL A   1      31.673  23.363  25.099  1.00  0.00     0.025 A 
BRANCH  15  21
ATOM     21  C   UNL A   1      30.132  27.149  23.958  1.00  0.00     0.258 C 
ATOM     22  N   UNL A   1      30.675  28.265  24.553  1.00  0.00    -0.322 N 
ATOM     23  H   UNL A   1      30.219  29.107  24.323  1.00  0.00     0.170 HD
ATOM     24  O   UNL A   1      29.240  27.261  23.119  1.00  0.00    -0.269 OA
BRANCH  22  25
ATOM     25  C   UNL A   1      31.768  28.423  25.433  1.00  0.00     0.044 A 
ATOM     26  C   UNL A   1      32.997  28.884  24.919  1.00  0.00    -0.025 A 
ATOM     27  C   UNL A   1      34.041  29.186  25.815  1.00  0.00     0.006 A 
ATOM     28  C   UNL A   1      33.896  28.981  27.187  1.00  0.00     0.000 A 
ATOM     29  C   UNL A   1      31.675  28.134  26.803  1.00  0.00     0.026 A 
ATOM     30  C   UNL A   1      32.722  28.429  27.678  1.00  0.00     0.002 A 
BRANCH  26  31
ATOM     31  C   UNL A   1      33.247  29.096  23.442  1.00  0.00     0.034 C 
ATOM     32  C   UNL A   1      33.846  27.883  22.746  1.00  0.00     0.009 C 
ENDBRANCH  26  31
ENDBRANCH  22  25
ENDBRANCH  15  21
ENDBRANCH  11  14
ENDBRANCH   6  11
ENDBRANCH   1   5
BRANCH   3  33
ATOM     33  C   UNL A   1      39.572  22.227  26.064  1.00  0.00     0.117 C 
BRANCH  33  34
ATOM     34  C   UNL A   1      39.647  20.824  26.646  1.00  0.00     0.042 C 
BRANCH  34  35
ATOM     35  C   UNL A   1      39.803  19.750  25.588  1.00  0.00     0.118 C 
BRANCH  35  36
ATOM     36  N   UNL A   1      40.882  18.822  25.886  1.00  0.00    -0.352 N 
ATOM     37  C   UNL A   1      42.190  19.066  26.224  1.00  0.00     0.251 C 
ATOM     38  H   UNL A   1      40.636  17.869  25.840  1.00  0.00     0.163 HD
ATOM     39  O   UNL A   1      42.982  18.131  26.302  1.00  0.00    -0.269 OA
BRANCH  37  40
ATOM     40  C   UNL A   1      42.663  20.448  26.465  1.00  0.00     0.039 A 
ATOM     41  C   UNL A   1      43.085  21.212  25.372  1.00  0.00     0.014 A 
ATOM     42  C   UNL A   1      42.713  20.990  27.750  1.00  0.00     0.014 A 
ATOM     43  C   UNL A   1      43.508  22.528  25.567  1.00  0.00     0.010 A 
ATOM     44  C   UNL A   1      43.024  22.333  27.929  1.00  0.00     0.010 A 
ATOM     45  C   UNL A   1      43.454  23.109  26.844  1.00  0.00    -0.014 A 
BRANCH  45  46
ATOM     46  C   UNL A   1      43.900  24.506  27.075  1.00  0.00     0.031 A 
ATOM     47  C   UNL A   1      42.906  25.538  27.539  1.00  0.00     0.074 A 
ATOM     48  C   UNL A   1      45.179  24.853  26.834  1.00  0.00     0.049 A 
ATOM     49  N   UNL A   1      43.073  26.822  27.739  1.00  0.00    -0.248 NA
ATOM     50  C   UNL A   1      41.527  25.075  27.778  1.00  0.00     0.031 C 
ATOM     51  C   UNL A   1      46.221  23.954  26.332  1.00  0.00     0.029 A 
ATOM     52  N   UNL A   1      45.821  26.056  26.980  1.00  0.00    -0.354 N 
ATOM     53  C   UNL A   1      41.827  27.312  28.111  1.00  0.00     0.074 A 
ATOM     54  C   UNL A   1      40.896  26.209  28.036  1.00  0.00     0.031 C 
ATOM     55  C   UNL A   1      47.380  24.627  26.249  1.00  0.00     0.029 A 
ATOM     56  C   UNL A   1      47.157  26.010  26.657  1.00  0.00     0.049 A 
ATOM     57  H   UNL A   1      45.369  26.875  27.286  1.00  0.00     0.167 HD
ATOM     58  C   UNL A   1      41.495  28.560  28.519  1.00  0.00     0.037 A 
ATOM     59  C   UNL A   1      48.091  26.977  26.696  1.00  0.00     0.037 A 
ATOM     60  C   UNL A   1      42.431  29.646  28.629  1.00  0.00     0.049 A 
ATOM     61  C   UNL A   1      47.697  28.351  27.172  1.00  0.00     0.074 A 
ATOM     62  C   UNL A   1      42.205  30.946  29.044  1.00  0.00     0.029 A 
ATOM     63  N   UNL A   1      43.784  29.546  28.338  1.00  0.00    -0.354 N 
ATOM     64  N   UNL A   1      46.523  28.790  27.560  1.00  0.00    -0.248 NA
ATOM     65  C   UNL A   1      48.762  29.360  27.231  1.00  0.00     0.031 C 
ATOM     66  C   UNL A   1      43.419  31.640  28.984  1.00  0.00     0.029 A 
ATOM     67  C   UNL A   1      44.407  30.761  28.572  1.00  0.00     0.049 A 
ATOM     68  H   UNL A   1      44.234  28.733  28.013  1.00  0.00     0.167 HD
ATOM     69  C   UNL A   1      46.718  30.108  27.948  1.00  0.00     0.074 A 
ATOM     70  C   UNL A   1      48.126  30.392  27.763  1.00  0.00     0.031 C 
ATOM     71  C   UNL A   1      45.816  31.007  28.411  1.00  0.00     0.037 A 
BRANCH  58  72
ATOM     72  C   UNL A   1      40.066  28.805  28.907  1.00  0.00     0.064 A 
ATOM     73  C   UNL A   1      39.124  29.257  27.970  1.00  0.00     0.173 A 
ATOM     74  C   UNL A   1      39.623  28.556  30.214  1.00  0.00     0.173 A 
ATOM     75  F   UNL A   1      39.500  29.527  26.711  1.00  0.00    -0.203 F 
ATOM     76  C   UNL A   1      37.797  29.474  28.333  1.00  0.00     0.198 A 
ATOM     77  C   UNL A   1      38.288  28.745  30.566  1.00  0.00     0.198 A 
ATOM     78  F   UNL A   1      40.481  28.122  31.150  1.00  0.00    -0.203 F 
ATOM     79  F   UNL A   1      36.927  29.951  27.432  1.00  0.00    -0.200 F 
ATOM     80  C   UNL A   1      37.378  29.209  29.628  1.00  0.00     0.200 A 
ATOM     81  F   UNL A   1      37.882  28.478  31.815  1.00  0.00    -0.200 F 
ATOM     82  F   UNL A   1      36.098  29.408  29.973  1.00  0.00    -0.200 F 
ENDBRANCH  58  72
BRANCH  59  83
ATOM     83  C   UNL A   1      49.499  26.684  26.317  1.00  0.00     0.064 A 
ATOM     84  C   UNL A   1      50.423  26.239  27.275  1.00  0.00     0.173 A 
ATOM     85  C   UNL A   1      49.962  26.879  25.008  1.00  0.00     0.173 A 
ATOM     86  F   UNL A   1      50.033  26.055  28.545  1.00  0.00    -0.203 F 
ATOM     87  C   UNL A   1      51.762  26.039  26.947  1.00  0.00     0.198 A 
ATOM     88  C   UNL A   1      51.295  26.647  24.674  1.00  0.00     0.198 A 
ATOM     89  F   UNL A   1      49.118  27.294  24.052  1.00  0.00    -0.203 F 
ATOM     90  F   UNL A   1      52.635  25.678  27.898  1.00  0.00    -0.200 F 
ATOM     91  C   UNL A   1      52.196  26.242  25.646  1.00  0.00     0.200 A 
ATOM     92  F   UNL A   1      51.708  26.830  23.413  1.00  0.00    -0.200 F 
ATOM     93  F   UNL A   1      53.487  26.058  25.333  1.00  0.00    -0.200 F 
ENDBRANCH  59  83
BRANCH  71  94
ATOM     94  C   UNL A   1      46.338  32.354  28.811  1.00  0.00     0.064 A 
ATOM     95  C   UNL A   1      46.770  32.622  30.119  1.00  0.00     0.173 A 
ATOM     96  C   UNL A   1      46.420  33.388  27.865  1.00  0.00     0.173 A 
ATOM     97  F   UNL A   1      46.698  31.669  31.061  1.00  0.00    -0.203 F 
ATOM     98  C   UNL A   1      47.228  33.887  30.474  1.00  0.00     0.198 A 
ATOM     99  C   UNL A   1      46.909  34.642  28.216  1.00  0.00     0.198 A 
ATOM    100  F   UNL A   1      46.029  33.179  26.599  1.00  0.00    -0.203 F 
ATOM    101  F   UNL A   1      47.578  34.137  31.743  1.00  0.00    -0.200 F 
ATOM    102  C   UNL A   1      47.302  34.894  29.522  1.00  0.00     0.200 A 
ATOM    103  F   UNL A   1      46.993  35.610  27.294  1.00  0.00    -0.200 F 
ATOM    104  F   UNL A   1      47.742  36.111  29.868  1.00  0.00    -0.200 F 
ENDBRANCH  71  94
ENDBRANCH  45  46
ENDBRANCH  37  40
ENDBRANCH  35  36
ENDBRANCH  34  35
ENDBRANCH  33  34
ENDBRANCH   3  33
TORSDOF 15
ENDMDL
