MODEL 1
REMARK VINA RESULT:     -13.0      0.000      0.000
REMARK SMILES CN1C(=O)C[C@@H](C(=O)NCCCNC(=O)c2ccc(-c3c4nc(c(-c5c(F)c(F)c(F)c(F)c5F)c5ccc([nH]5)c(-c5c(F)c(F)c(F)c(F)c5F)c5nc(c(-c6c(F)c(F)c(F)c(F)c6F)c6ccc3[nH]6)C=C5)C=C4)cc2)C12CC[NH+](CCSc1ccccc1)CC2
REMARK SMILES IDX 10 1 9 2 7 3 8 4 6 6 1 7 2 8 3 9 79 10 4 11 5 12 80 13 93 14
REMARK SMILES IDX 81 15 92 16 82 17 83 19 84 20 85 21 86 22 87 23 91 24 88 25
REMARK SMILES IDX 90 26 89 27 11 28 12 29 13 30 14 31 15 33 16 34 17 35 78 36
REMARK SMILES IDX 18 37 77 38 19 39 20 40 21 41 71 42 22 43 76 44 70 45 72 46
REMARK SMILES IDX 23 47 75 48 69 49 68 50 24 52 56 53 36 54 55 55 37 56 40 57
REMARK SMILES IDX 54 58 73 59 38 60 39 61 53 63 74 64 41 65 25 66 26 67 34 68
REMARK SMILES IDX 27 69 28 70 32 71 35 72 29 73 30 74 33 75 31 76 57 77 58 78
REMARK SMILES IDX 66 79 59 80 60 81 64 82 67 83 61 84 62 85 65 86 63 87 42 88
REMARK SMILES IDX 43 89 51 90 44 91 45 92 49 93 52 94 46 95 47 96 50 97 48 98
REMARK H PARENT 9 5 82 18 13 32 72 51 40 62
REMARK Flexibility Score: inf
ROOT
ATOM      1  C   UNL A   1      31.367  30.929  26.364  1.00  0.00     0.117 C 
ENDROOT
BRANCH   1   2
ATOM      2  N   UNL A   1      30.699  30.541  25.138  1.00  0.00    -0.356 N 
ATOM      3  C   UNL A   1      31.062  29.705  24.145  1.00  0.00     0.226 C 
ATOM      4  O   UNL A   1      30.439  29.799  23.082  1.00  0.00    -0.275 OA
ATOM      5  H   UNL A   1      29.821  30.967  25.005  1.00  0.00     0.163 HD
BRANCH   3   6
ATOM      6  C   UNL A   1      32.153  28.676  24.276  1.00  0.00     0.114 C 
ATOM      7  C   UNL A   1      32.267  25.667  22.014  1.00  0.00     0.147 C 
ATOM      8  N   UNL A   1      32.441  26.901  22.764  1.00  0.00    -0.339 N 
ATOM      9  C   UNL A   1      33.415  27.826  22.428  1.00  0.00     0.223 C 
ATOM     10  C   UNL A   1      31.839  27.166  24.086  1.00  0.00     0.065 C 
ATOM     11  O   UNL A   1      34.169  27.769  21.460  1.00  0.00    -0.275 OA
ATOM     12  C   UNL A   1      33.415  28.933  23.443  1.00  0.00     0.116 C 
ATOM     13  C   UNL A   1      30.366  26.636  24.231  1.00  0.00     0.091 C 
ATOM     14  C   UNL A   1      32.695  26.488  25.147  1.00  0.00     0.091 C 
ATOM     15  C   UNL A   1      29.950  25.840  25.523  1.00  0.00     0.264 C 
ATOM     16  C   UNL A   1      31.950  26.593  26.467  1.00  0.00     0.264 C 
ATOM     17  N   UNL A   1      30.976  25.553  26.526  1.00  0.00    -0.334 N 
ATOM     18  H   UNL A   1      30.451  25.528  27.401  1.00  0.00     0.348 HD
BRANCH  17  19
ATOM     19  C   UNL A   1      31.596  24.210  26.613  1.00  0.00     0.273 C 
BRANCH  19  20
ATOM     20  C   UNL A   1      31.256  23.029  25.570  1.00  0.00     0.136 C 
BRANCH  20  21
ATOM     21  S   UNL A   1      32.317  21.471  25.354  1.00  0.00    -0.120 SA
BRANCH  21  22
ATOM     22  C   UNL A   1      33.980  21.967  24.785  1.00  0.00     0.007 A 
ATOM     23  C   UNL A   1      34.198  23.038  23.911  1.00  0.00     0.015 A 
ATOM     24  C   UNL A   1      35.085  21.128  25.043  1.00  0.00     0.015 A 
ATOM     25  C   UNL A   1      35.483  23.286  23.379  1.00  0.00     0.001 A 
ATOM     26  C   UNL A   1      36.379  21.428  24.601  1.00  0.00     0.001 A 
ATOM     27  C   UNL A   1      36.577  22.502  23.749  1.00  0.00     0.000 A 
ENDBRANCH  21  22
ENDBRANCH  20  21
ENDBRANCH  19  20
ENDBRANCH  17  19
ENDBRANCH   3   6
ENDBRANCH   1   2
BRANCH   1  28
ATOM     28  C   UNL A   1      31.454  32.442  26.494  1.00  0.00     0.042 C 
BRANCH  28  29
ATOM     29  C   UNL A   1      32.679  32.881  27.284  1.00  0.00     0.118 C 
BRANCH  29  30
ATOM     30  N   UNL A   1      32.591  34.297  27.602  1.00  0.00    -0.352 N 
ATOM     31  C   UNL A   1      33.076  34.924  28.717  1.00  0.00     0.251 C 
ATOM     32  H   UNL A   1      32.133  34.868  26.942  1.00  0.00     0.163 HD
ATOM     33  O   UNL A   1      32.571  35.969  29.119  1.00  0.00    -0.269 OA
BRANCH  31  34
ATOM     34  C   UNL A   1      34.230  34.330  29.415  1.00  0.00     0.039 A 
ATOM     35  C   UNL A   1      35.520  34.562  28.939  1.00  0.00     0.014 A 
ATOM     36  C   UNL A   1      34.014  33.513  30.530  1.00  0.00     0.014 A 
ATOM     37  C   UNL A   1      36.602  33.980  29.598  1.00  0.00     0.010 A 
ATOM     38  C   UNL A   1      35.096  33.011  31.238  1.00  0.00     0.010 A 
ATOM     39  C   UNL A   1      36.396  33.210  30.756  1.00  0.00    -0.014 A 
BRANCH  39  40
ATOM     40  C   UNL A   1      37.527  32.556  31.452  1.00  0.00     0.031 A 
ATOM     41  C   UNL A   1      38.247  31.413  30.791  1.00  0.00     0.074 A 
ATOM     42  C   UNL A   1      37.863  32.955  32.691  1.00  0.00     0.049 A 
ATOM     43  N   UNL A   1      39.231  30.680  31.245  1.00  0.00    -0.248 NA
ATOM     44  C   UNL A   1      37.775  31.016  29.453  1.00  0.00     0.031 C 
ATOM     45  C   UNL A   1      37.190  34.010  33.451  1.00  0.00     0.029 A 
ATOM     46  N   UNL A   1      38.850  32.516  33.533  1.00  0.00    -0.354 N 
ATOM     47  C   UNL A   1      39.479  29.732  30.261  1.00  0.00     0.074 A 
ATOM     48  C   UNL A   1      38.504  29.937  29.214  1.00  0.00     0.031 C 
ATOM     49  C   UNL A   1      37.805  34.159  34.634  1.00  0.00     0.029 A 
ATOM     50  C   UNL A   1      38.893  33.191  34.728  1.00  0.00     0.049 A 
ATOM     51  H   UNL A   1      39.471  31.788  33.304  1.00  0.00     0.167 HD
ATOM     52  C   UNL A   1      40.455  28.794  30.221  1.00  0.00     0.037 A 
ATOM     53  C   UNL A   1      39.722  33.042  35.777  1.00  0.00     0.037 A 
ATOM     54  C   UNL A   1      41.443  28.623  31.253  1.00  0.00     0.049 A 
ATOM     55  C   UNL A   1      40.812  32.009  35.698  1.00  0.00     0.074 A 
ATOM     56  C   UNL A   1      42.518  27.755  31.285  1.00  0.00     0.029 A 
ATOM     57  N   UNL A   1      41.471  29.345  32.439  1.00  0.00    -0.354 N 
ATOM     58  N   UNL A   1      41.089  31.170  34.730  1.00  0.00    -0.248 NA
ATOM     59  C   UNL A   1      41.712  31.910  36.855  1.00  0.00     0.031 C 
ATOM     60  C   UNL A   1      43.173  27.920  32.510  1.00  0.00     0.029 A 
ATOM     61  C   UNL A   1      42.535  28.925  33.220  1.00  0.00     0.049 A 
ATOM     62  H   UNL A   1      40.830  30.048  32.688  1.00  0.00     0.167 HD
ATOM     63  C   UNL A   1      42.206  30.460  35.147  1.00  0.00     0.074 A 
ATOM     64  C   UNL A   1      42.568  30.983  36.449  1.00  0.00     0.031 C 
ATOM     65  C   UNL A   1      42.873  29.463  34.513  1.00  0.00     0.037 A 
BRANCH  52  66
ATOM     66  C   UNL A   1      40.504  27.892  29.021  1.00  0.00     0.064 A 
ATOM     67  C   UNL A   1      39.755  26.708  28.957  1.00  0.00     0.173 A 
ATOM     68  C   UNL A   1      41.290  28.229  27.909  1.00  0.00     0.173 A 
ATOM     69  F   UNL A   1      38.997  26.331  29.998  1.00  0.00    -0.203 F 
ATOM     70  C   UNL A   1      39.817  25.877  27.840  1.00  0.00     0.198 A 
ATOM     71  C   UNL A   1      41.325  27.413  26.780  1.00  0.00     0.198 A 
ATOM     72  F   UNL A   1      42.024  29.352  27.914  1.00  0.00    -0.203 F 
ATOM     73  F   UNL A   1      39.135  24.723  27.827  1.00  0.00    -0.200 F 
ATOM     74  C   UNL A   1      40.595  26.234  26.750  1.00  0.00     0.200 A 
ATOM     75  F   UNL A   1      42.068  27.766  25.723  1.00  0.00    -0.200 F 
ATOM     76  F   UNL A   1      40.649  25.438  25.674  1.00  0.00    -0.200 F 
ENDBRANCH  52  66
BRANCH  53  77
ATOM     77  C   UNL A   1      39.575  33.919  36.967  1.00  0.00     0.064 A 
ATOM     78  C   UNL A   1      40.178  35.185  37.005  1.00  0.00     0.173 A 
ATOM     79  C   UNL A   1      38.824  33.522  38.082  1.00  0.00     0.173 A 
ATOM     80  F   UNL A   1      40.920  35.604  35.969  1.00  0.00    -0.203 F 
ATOM     81  C   UNL A   1      40.052  36.009  38.120  1.00  0.00     0.198 A 
ATOM     82  C   UNL A   1      38.674  34.359  39.185  1.00  0.00     0.198 A 
ATOM     83  F   UNL A   1      38.217  32.326  38.091  1.00  0.00    -0.203 F 
ATOM     84  F   UNL A   1      40.674  37.197  38.147  1.00  0.00    -0.200 F 
ATOM     85  C   UNL A   1      39.296  35.599  39.207  1.00  0.00     0.200 A 
ATOM     86  F   UNL A   1      37.926  33.966  40.225  1.00  0.00    -0.200 F 
ATOM     87  F   UNL A   1      39.168  36.396  40.277  1.00  0.00    -0.200 F 
ENDBRANCH  53  77
BRANCH  65  88
ATOM     88  C   UNL A   1      44.070  28.892  35.213  1.00  0.00     0.064 A 
ATOM     89  C   UNL A   1      45.356  29.418  35.015  1.00  0.00     0.173 A 
ATOM     90  C   UNL A   1      43.925  27.830  36.119  1.00  0.00     0.173 A 
ATOM     91  F   UNL A   1      45.547  30.423  34.148  1.00  0.00    -0.203 F 
ATOM     92  C   UNL A   1      46.456  28.881  35.675  1.00  0.00     0.198 A 
ATOM     93  C   UNL A   1      45.023  27.317  36.801  1.00  0.00     0.198 A 
ATOM     94  F   UNL A   1      42.716  27.299  36.349  1.00  0.00    -0.203 F 
ATOM     95  F   UNL A   1      47.682  29.364  35.432  1.00  0.00    -0.200 F 
ATOM     96  C   UNL A   1      46.289  27.837  36.573  1.00  0.00     0.200 A 
ATOM     97  F   UNL A   1      44.858  26.319  37.680  1.00  0.00    -0.200 F 
ATOM     98  F   UNL A   1      47.349  27.326  37.214  1.00  0.00    -0.200 F 
ENDBRANCH  65  88
ENDBRANCH  39  40
ENDBRANCH  31  34
ENDBRANCH  29  30
ENDBRANCH  28  29
ENDBRANCH   1  28
TORSDOF 14
ENDMDL
MODEL 2
REMARK VINA RESULT:     -13.0      0.738      7.283
REMARK SMILES CN1C(=O)C[C@@H](C(=O)NCCCNC(=O)c2ccc(-c3c4nc(c(-c5c(F)c(F)c(F)c(F)c5F)c5ccc([nH]5)c(-c5c(F)c(F)c(F)c(F)c5F)c5nc(c(-c6c(F)c(F)c(F)c(F)c6F)c6ccc3[nH]6)C=C5)C=C4)cc2)C12CC[NH+](CCSc1ccccc1)CC2
REMARK SMILES IDX 10 1 9 2 7 3 8 4 6 6 1 7 2 8 3 9 79 10 4 11 5 12 80 13 93 14
REMARK SMILES IDX 81 15 92 16 82 17 83 19 84 20 85 21 86 22 87 23 91 24 88 25
REMARK SMILES IDX 90 26 89 27 11 28 12 29 13 30 14 31 15 33 16 34 17 35 78 36
REMARK SMILES IDX 18 37 77 38 19 39 20 40 21 41 71 42 22 43 76 44 70 45 72 46
REMARK SMILES IDX 23 47 75 48 69 49 68 50 24 52 56 53 36 54 55 55 37 56 40 57
REMARK SMILES IDX 54 58 73 59 38 60 39 61 53 63 74 64 41 65 25 66 26 67 34 68
REMARK SMILES IDX 27 69 28 70 32 71 35 72 29 73 30 74 33 75 31 76 57 77 58 78
REMARK SMILES IDX 66 79 59 80 60 81 64 82 67 83 61 84 62 85 65 86 63 87 42 88
REMARK SMILES IDX 43 89 51 90 44 91 45 92 49 93 52 94 46 95 47 96 50 97 48 98
REMARK H PARENT 9 5 82 18 13 32 72 51 40 62
REMARK Flexibility Score: inf
ROOT
ATOM      1  C   UNL A   1      31.404  30.855  26.423  1.00  0.00     0.117 C 
ENDROOT
BRANCH   1   2
ATOM      2  N   UNL A   1      30.718  30.435  25.218  1.00  0.00    -0.356 N 
ATOM      3  C   UNL A   1      31.090  29.621  24.211  1.00  0.00     0.226 C 
ATOM      4  O   UNL A   1      30.428  29.684  23.169  1.00  0.00    -0.275 OA
ATOM      5  H   UNL A   1      29.815  30.816  25.116  1.00  0.00     0.163 HD
BRANCH   3   6
ATOM      6  C   UNL A   1      32.235  28.648  24.303  1.00  0.00     0.114 C 
ATOM      7  C   UNL A   1      32.464  25.690  21.984  1.00  0.00     0.147 C 
ATOM      8  N   UNL A   1      32.587  26.918  22.754  1.00  0.00    -0.339 N 
ATOM      9  C   UNL A   1      33.505  27.899  22.417  1.00  0.00     0.223 C 
ATOM     10  C   UNL A   1      31.997  27.127  24.091  1.00  0.00     0.065 C 
ATOM     11  O   UNL A   1      34.242  27.899  21.435  1.00  0.00    -0.275 OA
ATOM     12  C   UNL A   1      33.466  28.987  23.452  1.00  0.00     0.116 C 
ATOM     13  C   UNL A   1      30.557  26.517  24.253  1.00  0.00     0.091 C 
ATOM     14  C   UNL A   1      32.908  26.477  25.124  1.00  0.00     0.091 C 
ATOM     15  C   UNL A   1      30.209  25.679  25.537  1.00  0.00     0.264 C 
ATOM     16  C   UNL A   1      32.184  26.520  26.458  1.00  0.00     0.264 C 
ATOM     17  N   UNL A   1      31.267  25.429  26.516  1.00  0.00    -0.334 N 
ATOM     18  H   UNL A   1      30.761  25.360  27.399  1.00  0.00     0.348 HD
BRANCH  17  19
ATOM     19  C   UNL A   1      31.958  24.119  26.567  1.00  0.00     0.273 C 
BRANCH  19  20
ATOM     20  C   UNL A   1      31.471  22.848  25.703  1.00  0.00     0.136 C 
BRANCH  20  21
ATOM     21  S   UNL A   1      32.171  22.396  23.999  1.00  0.00    -0.120 SA
BRANCH  21  22
ATOM     22  C   UNL A   1      33.993  22.328  24.112  1.00  0.00     0.007 A 
ATOM     23  C   UNL A   1      34.834  23.179  23.385  1.00  0.00     0.015 A 
ATOM     24  C   UNL A   1      34.611  21.248  24.778  1.00  0.00     0.015 A 
ATOM     25  C   UNL A   1      36.233  22.986  23.388  1.00  0.00     0.001 A 
ATOM     26  C   UNL A   1      36.002  21.113  24.867  1.00  0.00     0.001 A 
ATOM     27  C   UNL A   1      36.818  21.975  24.153  1.00  0.00     0.000 A 
ENDBRANCH  21  22
ENDBRANCH  20  21
ENDBRANCH  19  20
ENDBRANCH  17  19
ENDBRANCH   3   6
ENDBRANCH   1   2
BRANCH   1  28
ATOM     28  C   UNL A   1      31.465  32.371  26.528  1.00  0.00     0.042 C 
BRANCH  28  29
ATOM     29  C   UNL A   1      32.803  32.857  27.069  1.00  0.00     0.118 C 
BRANCH  29  30
ATOM     30  N   UNL A   1      32.680  34.217  27.566  1.00  0.00    -0.352 N 
ATOM     31  C   UNL A   1      33.162  34.710  28.748  1.00  0.00     0.251 C 
ATOM     32  H   UNL A   1      32.199  34.854  26.989  1.00  0.00     0.163 HD
ATOM     33  O   UNL A   1      32.633  35.681  29.285  1.00  0.00    -0.269 OA
BRANCH  31  34
ATOM     34  C   UNL A   1      34.340  34.065  29.354  1.00  0.00     0.039 A 
ATOM     35  C   UNL A   1      35.620  34.480  28.989  1.00  0.00     0.014 A 
ATOM     36  C   UNL A   1      34.160  33.020  30.267  1.00  0.00     0.014 A 
ATOM     37  C   UNL A   1      36.727  33.850  29.556  1.00  0.00     0.010 A 
ATOM     38  C   UNL A   1      35.258  32.458  30.899  1.00  0.00     0.010 A 
ATOM     39  C   UNL A   1      36.551  32.843  30.521  1.00  0.00    -0.014 A 
BRANCH  39  40
ATOM     40  C   UNL A   1      37.711  32.138  31.112  1.00  0.00     0.031 A 
ATOM     41  C   UNL A   1      38.176  32.499  32.496  1.00  0.00     0.074 A 
ATOM     42  C   UNL A   1      38.368  31.218  30.384  1.00  0.00     0.049 A 
ATOM     43  N   UNL A   1      39.192  32.033  33.176  1.00  0.00    -0.248 NA
ATOM     44  C   UNL A   1      37.421  33.552  33.196  1.00  0.00     0.031 C 
ATOM     45  C   UNL A   1      38.041  30.837  29.009  1.00  0.00     0.029 A 
ATOM     46  N   UNL A   1      39.453  30.442  30.696  1.00  0.00    -0.354 N 
ATOM     47  C   UNL A   1      39.205  32.746  34.369  1.00  0.00     0.074 A 
ATOM     48  C   UNL A   1      38.140  33.721  34.295  1.00  0.00     0.031 C 
ATOM     49  C   UNL A   1      38.887  29.876  28.607  1.00  0.00     0.029 A 
ATOM     50  C   UNL A   1      39.833  29.597  29.683  1.00  0.00     0.049 A 
ATOM     51  H   UNL A   1      39.916  30.485  31.563  1.00  0.00     0.167 HD
ATOM     52  C   UNL A   1      40.014  32.580  35.441  1.00  0.00     0.037 A 
ATOM     53  C   UNL A   1      40.832  28.697  29.635  1.00  0.00     0.037 A 
ATOM     54  C   UNL A   1      41.047  31.582  35.516  1.00  0.00     0.049 A 
ATOM     55  C   UNL A   1      41.702  28.515  30.848  1.00  0.00     0.074 A 
ATOM     56  C   UNL A   1      41.879  31.277  36.577  1.00  0.00     0.029 A 
ATOM     57  N   UNL A   1      41.386  30.724  34.479  1.00  0.00    -0.354 N 
ATOM     58  N   UNL A   1      41.657  29.139  32.000  1.00  0.00    -0.248 NA
ATOM     59  C   UNL A   1      42.756  27.497  30.758  1.00  0.00     0.031 C 
ATOM     60  C   UNL A   1      42.751  30.263  36.169  1.00  0.00     0.029 A 
ATOM     61  C   UNL A   1      42.430  29.902  34.869  1.00  0.00     0.049 A 
ATOM     62  H   UNL A   1      40.950  30.703  33.597  1.00  0.00     0.167 HD
ATOM     63  C   UNL A   1      42.657  28.575  32.780  1.00  0.00     0.074 A 
ATOM     64  C   UNL A   1      43.279  27.543  31.975  1.00  0.00     0.031 C 
ATOM     65  C   UNL A   1      43.031  28.882  34.047  1.00  0.00     0.037 A 
BRANCH  52  66
ATOM     66  C   UNL A   1      39.805  33.490  36.617  1.00  0.00     0.064 A 
ATOM     67  C   UNL A   1      38.917  33.163  37.654  1.00  0.00     0.173 A 
ATOM     68  C   UNL A   1      40.520  34.692  36.724  1.00  0.00     0.173 A 
ATOM     69  F   UNL A   1      38.198  32.031  37.595  1.00  0.00    -0.203 F 
ATOM     70  C   UNL A   1      38.727  34.021  38.735  1.00  0.00     0.198 A 
ATOM     71  C   UNL A   1      40.353  35.532  37.823  1.00  0.00     0.198 A 
ATOM     72  F   UNL A   1      41.385  35.053  35.765  1.00  0.00    -0.203 F 
ATOM     73  F   UNL A   1      37.833  33.712  39.684  1.00  0.00    -0.200 F 
ATOM     74  C   UNL A   1      39.451  35.200  38.823  1.00  0.00     0.200 A 
ATOM     75  F   UNL A   1      41.061  36.666  37.912  1.00  0.00    -0.200 F 
ATOM     76  F   UNL A   1      39.272  36.021  39.867  1.00  0.00    -0.200 F 
ENDBRANCH  52  66
BRANCH  53  77
ATOM     77  C   UNL A   1      41.031  27.877  28.413  1.00  0.00     0.064 A 
ATOM     78  C   UNL A   1      40.357  26.658  28.248  1.00  0.00     0.173 A 
ATOM     79  C   UNL A   1      41.885  28.294  27.382  1.00  0.00     0.173 A 
ATOM     80  F   UNL A   1      39.540  26.210  29.213  1.00  0.00    -0.203 F 
ATOM     81  C   UNL A   1      40.545  25.880  27.109  1.00  0.00     0.198 A 
ATOM     82  C   UNL A   1      42.051  27.528  26.230  1.00  0.00     0.198 A 
ATOM     83  F   UNL A   1      42.545  29.456  27.486  1.00  0.00    -0.203 F 
ATOM     84  F   UNL A   1      39.920  24.699  26.995  1.00  0.00    -0.200 F 
ATOM     85  C   UNL A   1      41.387  26.318  26.098  1.00  0.00     0.200 A 
ATOM     86  F   UNL A   1      42.851  27.964  25.248  1.00  0.00    -0.200 F 
ATOM     87  F   UNL A   1      41.562  25.572  24.998  1.00  0.00    -0.200 F 
ENDBRANCH  53  77
BRANCH  65  88
ATOM     88  C   UNL A   1      44.148  28.078  34.642  1.00  0.00     0.064 A 
ATOM     89  C   UNL A   1      43.908  26.868  35.310  1.00  0.00     0.173 A 
ATOM     90  C   UNL A   1      45.479  28.506  34.511  1.00  0.00     0.173 A 
ATOM     91  F   UNL A   1      42.652  26.426  35.472  1.00  0.00    -0.203 F 
ATOM     92  C   UNL A   1      44.955  26.130  35.851  1.00  0.00     0.198 A 
ATOM     93  C   UNL A   1      46.527  27.749  35.026  1.00  0.00     0.198 A 
ATOM     94  F   UNL A   1      45.762  29.651  33.875  1.00  0.00    -0.203 F 
ATOM     95  F   UNL A   1      44.699  25.004  36.529  1.00  0.00    -0.200 F 
ATOM     96  C   UNL A   1      46.264  26.566  35.703  1.00  0.00     0.200 A 
ATOM     97  F   UNL A   1      47.791  28.164  34.869  1.00  0.00    -0.200 F 
ATOM     98  F   UNL A   1      47.273  25.851  36.219  1.00  0.00    -0.200 F 
ENDBRANCH  65  88
ENDBRANCH  39  40
ENDBRANCH  31  34
ENDBRANCH  29  30
ENDBRANCH  28  29
ENDBRANCH   1  28
TORSDOF 14
ENDMDL
MODEL 3
REMARK VINA RESULT:     -13.0      5.614     10.879
REMARK SMILES CN1C(=O)C[C@@H](C(=O)NCCCNC(=O)c2ccc(-c3c4nc(c(-c5c(F)c(F)c(F)c(F)c5F)c5ccc([nH]5)c(-c5c(F)c(F)c(F)c(F)c5F)c5nc(c(-c6c(F)c(F)c(F)c(F)c6F)c6ccc3[nH]6)C=C5)C=C4)cc2)C12CC[NH+](CCSc1ccccc1)CC2
REMARK SMILES IDX 10 1 9 2 7 3 8 4 6 6 1 7 2 8 3 9 79 10 4 11 5 12 80 13 93 14
REMARK SMILES IDX 81 15 92 16 82 17 83 19 84 20 85 21 86 22 87 23 91 24 88 25
REMARK SMILES IDX 90 26 89 27 11 28 12 29 13 30 14 31 15 33 16 34 17 35 78 36
REMARK SMILES IDX 18 37 77 38 19 39 20 40 21 41 71 42 22 43 76 44 70 45 72 46
REMARK SMILES IDX 23 47 75 48 69 49 68 50 24 52 56 53 36 54 55 55 37 56 40 57
REMARK SMILES IDX 54 58 73 59 38 60 39 61 53 63 74 64 41 65 25 66 26 67 34 68
REMARK SMILES IDX 27 69 28 70 32 71 35 72 29 73 30 74 33 75 31 76 57 77 58 78
REMARK SMILES IDX 66 79 59 80 60 81 64 82 67 83 61 84 62 85 65 86 63 87 42 88
REMARK SMILES IDX 43 89 51 90 44 91 45 92 49 93 52 94 46 95 47 96 50 97 48 98
REMARK H PARENT 9 5 82 18 13 32 72 51 40 62
REMARK Flexibility Score: inf
ROOT
ATOM      1  C   UNL A   1      36.767  20.460  24.939  1.00  0.00     0.117 C 
ENDROOT
BRANCH   1   2
ATOM      2  N   UNL A   1      37.110  21.546  24.044  1.00  0.00    -0.356 N 
ATOM      3  C   UNL A   1      36.527  22.740  23.817  1.00  0.00     0.226 C 
ATOM      4  O   UNL A   1      36.858  23.335  22.786  1.00  0.00    -0.275 OA
ATOM      5  H   UNL A   1      37.917  21.382  23.503  1.00  0.00     0.163 HD
BRANCH   3   6
ATOM      6  C   UNL A   1      35.528  23.373  24.749  1.00  0.00     0.114 C 
ATOM      7  C   UNL A   1      32.247  21.689  25.514  1.00  0.00     0.147 C 
ATOM      8  N   UNL A   1      33.570  22.292  25.468  1.00  0.00    -0.339 N 
ATOM      9  C   UNL A   1      34.446  22.206  26.538  1.00  0.00     0.223 C 
ATOM     10  C   UNL A   1      34.005  23.274  24.456  1.00  0.00     0.065 C 
ATOM     11  O   UNL A   1      34.265  21.580  27.578  1.00  0.00    -0.275 OA
ATOM     12  C   UNL A   1      35.678  23.010  26.232  1.00  0.00     0.116 C 
ATOM     13  C   UNL A   1      33.494  22.959  23.003  1.00  0.00     0.091 C 
ATOM     14  C   UNL A   1      33.476  24.644  24.859  1.00  0.00     0.091 C 
ATOM     15  C   UNL A   1      32.874  24.111  22.130  1.00  0.00     0.264 C 
ATOM     16  C   UNL A   1      33.752  25.594  23.707  1.00  0.00     0.264 C 
ATOM     17  N   UNL A   1      32.726  25.438  22.729  1.00  0.00    -0.334 N 
ATOM     18  H   UNL A   1      32.814  26.069  21.932  1.00  0.00     0.348 HD
BRANCH  17  19
ATOM     19  C   UNL A   1      31.408  25.904  23.221  1.00  0.00     0.273 C 
BRANCH  19  20
ATOM     20  C   UNL A   1      30.702  27.244  22.672  1.00  0.00     0.136 C 
BRANCH  20  21
ATOM     21  S   UNL A   1      30.618  28.871  23.644  1.00  0.00    -0.120 SA
BRANCH  21  22
ATOM     22  C   UNL A   1      31.816  28.794  25.021  1.00  0.00     0.007 A 
ATOM     23  C   UNL A   1      33.180  29.062  24.859  1.00  0.00     0.015 A 
ATOM     24  C   UNL A   1      31.425  28.235  26.257  1.00  0.00     0.015 A 
ATOM     25  C   UNL A   1      34.090  28.840  25.917  1.00  0.00     0.001 A 
ATOM     26  C   UNL A   1      32.303  28.110  27.340  1.00  0.00     0.001 A 
ATOM     27  C   UNL A   1      33.647  28.395  27.164  1.00  0.00     0.000 A 
ENDBRANCH  21  22
ENDBRANCH  20  21
ENDBRANCH  19  20
ENDBRANCH  17  19
ENDBRANCH   3   6
ENDBRANCH   1   2
BRANCH   1  28
ATOM     28  C   UNL A   1      37.926  19.489  25.104  1.00  0.00     0.042 C 
BRANCH  28  29
ATOM     29  C   UNL A   1      39.160  20.161  25.688  1.00  0.00     0.118 C 
BRANCH  29  30
ATOM     30  N   UNL A   1      40.173  19.166  26.004  1.00  0.00    -0.352 N 
ATOM     31  C   UNL A   1      41.525  19.359  26.070  1.00  0.00     0.251 C 
ATOM     32  H   UNL A   1      39.850  18.255  26.191  1.00  0.00     0.163 HD
ATOM     33  O   UNL A   1      42.302  18.427  25.877  1.00  0.00    -0.269 OA
BRANCH  31  34
ATOM     34  C   UNL A   1      42.032  20.703  26.399  1.00  0.00     0.039 A 
ATOM     35  C   UNL A   1      42.200  21.072  27.734  1.00  0.00     0.014 A 
ATOM     36  C   UNL A   1      42.309  21.606  25.367  1.00  0.00     0.014 A 
ATOM     37  C   UNL A   1      42.663  22.353  28.032  1.00  0.00     0.010 A 
ATOM     38  C   UNL A   1      42.856  22.845  25.662  1.00  0.00     0.010 A 
ATOM     39  C   UNL A   1      43.003  23.242  26.997  1.00  0.00    -0.014 A 
BRANCH  39  40
ATOM     40  C   UNL A   1      43.464  24.617  27.290  1.00  0.00     0.031 A 
ATOM     41  C   UNL A   1      42.483  25.641  27.791  1.00  0.00     0.074 A 
ATOM     42  C   UNL A   1      44.746  24.951  27.055  1.00  0.00     0.049 A 
ATOM     43  N   UNL A   1      42.673  26.906  28.066  1.00  0.00    -0.248 NA
ATOM     44  C   UNL A   1      41.091  25.194  27.972  1.00  0.00     0.031 C 
ATOM     45  C   UNL A   1      45.766  24.053  26.510  1.00  0.00     0.029 A 
ATOM     46  N   UNL A   1      45.407  26.136  27.237  1.00  0.00    -0.354 N 
ATOM     47  C   UNL A   1      41.429  27.403  28.433  1.00  0.00     0.074 A 
ATOM     48  C   UNL A   1      40.478  26.325  28.283  1.00  0.00     0.031 C 
ATOM     49  C   UNL A   1      46.932  24.711  26.433  1.00  0.00     0.029 A 
ATOM     50  C   UNL A   1      46.735  26.082  26.893  1.00  0.00     0.049 A 
ATOM     51  H   UNL A   1      44.973  26.949  27.583  1.00  0.00     0.167 HD
ATOM     52  C   UNL A   1      41.115  28.640  28.884  1.00  0.00     0.037 A 
ATOM     53  C   UNL A   1      47.682  27.036  26.947  1.00  0.00     0.037 A 
ATOM     54  C   UNL A   1      42.078  29.694  29.064  1.00  0.00     0.049 A 
ATOM     55  C   UNL A   1      47.314  28.395  27.475  1.00  0.00     0.074 A 
ATOM     56  C   UNL A   1      41.886  30.961  29.581  1.00  0.00     0.029 A 
ATOM     57  N   UNL A   1      43.422  29.594  28.729  1.00  0.00    -0.354 N 
ATOM     58  N   UNL A   1      46.152  28.833  27.894  1.00  0.00    -0.248 NA
ATOM     59  C   UNL A   1      48.391  29.390  27.546  1.00  0.00     0.031 C 
ATOM     60  C   UNL A   1      43.104  31.645  29.519  1.00  0.00     0.029 A 
ATOM     61  C   UNL A   1      44.067  30.787  29.010  1.00  0.00     0.049 A 
ATOM     62  H   UNL A   1      43.852  28.796  28.348  1.00  0.00     0.167 HD
ATOM     63  C   UNL A   1      46.360  30.143  28.301  1.00  0.00     0.074 A 
ATOM     64  C   UNL A   1      47.767  30.422  28.097  1.00  0.00     0.031 C 
ATOM     65  C   UNL A   1      45.469  31.038  28.796  1.00  0.00     0.037 A 
BRANCH  52  66
ATOM     66  C   UNL A   1      39.678  28.913  29.224  1.00  0.00     0.064 A 
ATOM     67  C   UNL A   1      39.177  28.720  30.520  1.00  0.00     0.173 A 
ATOM     68  C   UNL A   1      38.795  29.398  28.247  1.00  0.00     0.173 A 
ATOM     69  F   UNL A   1      39.975  28.245  31.489  1.00  0.00    -0.203 F 
ATOM     70  C   UNL A   1      37.839  28.969  30.819  1.00  0.00     0.198 A 
ATOM     71  C   UNL A   1      37.466  29.677  28.556  1.00  0.00     0.198 A 
ATOM     72  F   UNL A   1      39.221  29.604  26.992  1.00  0.00    -0.203 F 
ATOM     73  F   UNL A   1      37.372  28.724  32.051  1.00  0.00    -0.200 F 
ATOM     74  C   UNL A   1      36.987  29.455  29.839  1.00  0.00     0.200 A 
ATOM     75  F   UNL A   1      36.647  30.158  27.612  1.00  0.00    -0.200 F 
ATOM     76  F   UNL A   1      35.702  29.701  30.128  1.00  0.00    -0.200 F 
ENDBRANCH  52  66
BRANCH  53  77
ATOM     77  C   UNL A   1      49.073  26.722  26.529  1.00  0.00     0.064 A 
ATOM     78  C   UNL A   1      50.005  26.224  27.450  1.00  0.00     0.173 A 
ATOM     79  C   UNL A   1      49.497  26.900  25.204  1.00  0.00     0.173 A 
ATOM     80  F   UNL A   1      49.651  26.051  28.732  1.00  0.00    -0.203 F 
ATOM     81  C   UNL A   1      51.313  25.936  27.068  1.00  0.00     0.198 A 
ATOM     82  C   UNL A   1      50.797  26.584  24.815  1.00  0.00     0.198 A 
ATOM     83  F   UNL A   1      48.641  27.363  24.281  1.00  0.00    -0.203 F 
ATOM     84  F   UNL A   1      52.195  25.501  27.978  1.00  0.00    -0.200 F 
ATOM     85  C   UNL A   1      51.706  26.110  25.749  1.00  0.00     0.200 A 
ATOM     86  F   UNL A   1      51.167  26.736  23.537  1.00  0.00    -0.200 F 
ATOM     87  F   UNL A   1      52.962  25.825  25.380  1.00  0.00    -0.200 F 
ENDBRANCH  53  77
BRANCH  65  88
ATOM     88  C   UNL A   1      45.999  32.391  29.170  1.00  0.00     0.064 A 
ATOM     89  C   UNL A   1      46.003  33.456  28.256  1.00  0.00     0.173 A 
ATOM     90  C   UNL A   1      46.474  32.634  30.467  1.00  0.00     0.173 A 
ATOM     91  F   UNL A   1      45.572  33.268  27.000  1.00  0.00    -0.203 F 
ATOM     92  C   UNL A   1      46.492  34.706  28.619  1.00  0.00     0.198 A 
ATOM     93  C   UNL A   1      46.933  33.894  30.836  1.00  0.00     0.198 A 
ATOM     94  F   UNL A   1      46.484  31.651  31.379  1.00  0.00    -0.203 F 
ATOM     95  F   UNL A   1      46.536  35.695  27.716  1.00  0.00    -0.200 F 
ATOM     96  C   UNL A   1      46.950  34.927  29.910  1.00  0.00     0.200 A 
ATOM     97  F   UNL A   1      47.361  34.110  32.088  1.00  0.00    -0.200 F 
ATOM     98  F   UNL A   1      47.414  36.134  30.260  1.00  0.00    -0.200 F 
ENDBRANCH  65  88
ENDBRANCH  39  40
ENDBRANCH  31  34
ENDBRANCH  29  30
ENDBRANCH  28  29
ENDBRANCH   1  28
TORSDOF 14
ENDMDL
