MODEL 1
REMARK VINA RESULT:     -14.7      0.000      0.000
REMARK SMILES COc1ccc([C@H]2[NH2+][C@@H](C(=O)NCCCNC(=O)c3ccc(-c4c5nc(c(-c6c(F)c(F)c(F)c(F)c6F)c6ccc([nH]6)c(-c6c(F)c(F)c(F)c(F)c6F)c6nc(c(-c7c(F)c(F)c(F)c(F)c7F)c7ccc4[nH]7)C=C6)C=C5)cc3)CC3=c4ccccc4=N[C@H]32)cc1Cn1cc([N+](=O)[O-])cn1
REMARK SMILES IDX 13 1 12 2 10 3 11 4 9 6 7 7 8 8 91 9 83 12 90 13 82 14 84 15
REMARK SMILES IDX 89 16 85 17 88 18 86 19 87 20 6 21 3 22 4 23 93 24 5 25
REMARK SMILES IDX 92 26 2 27 1 28 94 29 95 30 96 31 102 32 97 33 101 34 98 35
REMARK SMILES IDX 99 36 100 37 14 38 15 39 16 40 17 41 18 43 19 44 20 45 81 46
REMARK SMILES IDX 21 47 80 48 22 49 23 50 24 51 74 52 25 53 79 54 73 55 75 56
REMARK SMILES IDX 26 57 78 58 72 59 71 60 27 62 59 63 39 64 58 65 40 66 43 67
REMARK SMILES IDX 57 68 76 69 41 70 42 71 56 73 77 74 44 75 28 76 29 77 37 78
REMARK SMILES IDX 30 79 31 80 35 81 38 82 32 83 33 84 36 85 34 86 60 87 61 88
REMARK SMILES IDX 69 89 62 90 63 91 67 92 70 93 64 94 65 95 68 96 66 97 45 98
REMARK SMILES IDX 46 99 54 100 47 101 48 102 52 103 55 104 49 105 50 106
REMARK SMILES IDX 53 107 51 108
REMARK H PARENT 12 5 8 10 8 11 16 42 75 61 43 72
REMARK Flexibility Score: inf
ROOT
ATOM      1  C   UNL A   1      35.214  23.425  22.932  1.00  0.00     0.118 C 
ENDROOT
BRANCH   1   2
ATOM      2  N   UNL A   1      34.403  24.700  23.207  1.00  0.00    -0.351 N 
ATOM      3  C   UNL A   1      33.792  25.586  24.041  1.00  0.00     0.278 C 
ATOM      4  O   UNL A   1      33.280  26.521  23.388  1.00  0.00    -0.268 OA
ATOM      5  H   UNL A   1      34.240  25.072  22.310  1.00  0.00     0.163 HD
BRANCH   3   6
ATOM      6  C   UNL A   1      33.586  25.636  25.585  1.00  0.00     0.277 C 
ATOM      7  C   UNL A   1      31.656  24.141  25.454  1.00  0.00     0.243 C 
ATOM      8  N   UNL A   1      32.859  24.527  26.242  1.00  0.00    -0.327 N 
ATOM      9  C   UNL A   1      30.788  25.657  25.563  1.00  0.00     0.196 C 
ATOM     10  H   UNL A   1      33.480  23.722  26.322  1.00  0.00     0.347 HD
ATOM     11  H   UNL A   1      32.558  24.837  27.167  1.00  0.00     0.347 HD
ATOM     12  C   UNL A   1      31.608  26.949  25.526  1.00  0.00    -0.024 C 
ATOM     13  N   UNL A   1      29.625  25.981  24.663  1.00  0.00    -0.270 NA
ATOM     14  C   UNL A   1      32.984  26.935  26.056  1.00  0.00     0.109 C 
ATOM     15  C   UNL A   1      31.096  27.867  24.715  1.00  0.00     0.002 A 
ATOM     16  C   UNL A   1      29.855  27.212  24.260  1.00  0.00     0.066 A 
ATOM     17  C   UNL A   1      31.761  28.902  23.965  1.00  0.00     0.010 A 
ATOM     18  C   UNL A   1      29.175  27.927  23.126  1.00  0.00     0.028 A 
ATOM     19  C   UNL A   1      31.209  29.298  22.809  1.00  0.00     0.001 A 
ATOM     20  C   UNL A   1      29.881  28.841  22.422  1.00  0.00     0.002 A 
BRANCH   7  21
ATOM     21  C   UNL A   1      32.307  22.952  24.526  1.00  0.00     0.012 A 
ATOM     22  C   UNL A   1      32.442  20.316  23.274  1.00  0.00     0.123 A 
ATOM     23  C   UNL A   1      31.678  21.386  22.745  1.00  0.00     0.047 A 
ATOM     24  C   UNL A   1      33.285  20.565  24.356  1.00  0.00     0.016 A 
ATOM     25  C   UNL A   1      31.617  22.667  23.337  1.00  0.00     0.014 A 
ATOM     26  C   UNL A   1      33.211  21.901  24.853  1.00  0.00     0.019 A 
BRANCH  22  27
ATOM     27  O   UNL A   1      32.153  19.154  22.619  1.00  0.00    -0.496 OA
ATOM     28  C   UNL A   1      32.152  19.067  21.209  1.00  0.00     0.278 C 
ENDBRANCH  22  27
BRANCH  24  29
ATOM     29  C   UNL A   1      34.004  19.472  25.200  1.00  0.00     0.183 C 
BRANCH  29  30
ATOM     30  N   UNL A   1      33.756  18.012  24.999  1.00  0.00    -0.261 N 
ATOM     31  C   UNL A   1      32.707  17.230  25.449  1.00  0.00     0.194 A 
ATOM     32  N   UNL A   1      34.405  17.348  23.998  1.00  0.00    -0.174 NA
ATOM     33  C   UNL A   1      33.068  15.930  25.162  1.00  0.00     0.307 A 
ATOM     34  C   UNL A   1      33.964  16.087  24.115  1.00  0.00     0.220 A 
BRANCH  33  35
ATOM     35  N   UNL A   1      32.642  14.704  25.765  1.00  0.00     0.066 N 
ATOM     36  O   UNL A   1      33.278  13.691  25.447  1.00  0.00    -0.258 OA
ATOM     37  O   UNL A   1      31.778  14.771  26.647  1.00  0.00    -0.258 OA
ENDBRANCH  33  35
ENDBRANCH  29  30
ENDBRANCH  24  29
ENDBRANCH   7  21
ENDBRANCH   3   6
ENDBRANCH   1   2
BRANCH   1  38
ATOM     38  C   UNL A   1      36.653  22.960  23.491  1.00  0.00     0.042 C 
BRANCH  38  39
ATOM     39  C   UNL A   1      36.822  22.331  24.911  1.00  0.00     0.118 C 
BRANCH  39  40
ATOM     40  N   UNL A   1      37.863  21.294  24.995  1.00  0.00    -0.352 N 
ATOM     41  C   UNL A   1      39.023  21.279  25.763  1.00  0.00     0.251 C 
ATOM     42  H   UNL A   1      37.719  20.502  24.429  1.00  0.00     0.163 HD
ATOM     43  O   UNL A   1      39.765  20.323  25.788  1.00  0.00    -0.269 OA
BRANCH  41  44
ATOM     44  C   UNL A   1      39.349  22.480  26.564  1.00  0.00     0.039 A 
ATOM     45  C   UNL A   1      40.442  22.478  27.429  1.00  0.00     0.014 A 
ATOM     46  C   UNL A   1      38.587  23.627  26.428  1.00  0.00     0.014 A 
ATOM     47  C   UNL A   1      40.878  23.686  28.002  1.00  0.00     0.010 A 
ATOM     48  C   UNL A   1      39.052  24.828  26.975  1.00  0.00     0.010 A 
ATOM     49  C   UNL A   1      40.265  24.910  27.677  1.00  0.00    -0.014 A 
BRANCH  49  50
ATOM     50  C   UNL A   1      40.945  26.235  27.951  1.00  0.00     0.031 A 
ATOM     51  C   UNL A   1      42.383  26.523  27.560  1.00  0.00     0.074 A 
ATOM     52  C   UNL A   1      40.322  27.180  28.700  1.00  0.00     0.049 A 
ATOM     53  N   UNL A   1      43.104  27.600  27.789  1.00  0.00    -0.248 NA
ATOM     54  C   UNL A   1      43.131  25.455  26.882  1.00  0.00     0.031 C 
ATOM     55  C   UNL A   1      39.006  27.048  29.330  1.00  0.00     0.029 A 
ATOM     56  N   UNL A   1      40.728  28.444  29.083  1.00  0.00    -0.354 N 
ATOM     57  C   UNL A   1      44.375  27.327  27.298  1.00  0.00     0.074 A 
ATOM     58  C   UNL A   1      44.362  25.944  26.874  1.00  0.00     0.031 C 
ATOM     59  C   UNL A   1      38.700  28.181  29.982  1.00  0.00     0.029 A 
ATOM     60  C   UNL A   1      39.803  29.124  29.845  1.00  0.00     0.049 A 
ATOM     61  H   UNL A   1      41.601  28.825  28.835  1.00  0.00     0.167 HD
ATOM     62  C   UNL A   1      45.438  28.154  27.131  1.00  0.00     0.037 A 
ATOM     63  C   UNL A   1      39.815  30.365  30.373  1.00  0.00     0.037 A 
ATOM     64  C   UNL A   1      45.468  29.554  27.466  1.00  0.00     0.049 A 
ATOM     65  C   UNL A   1      40.972  31.293  30.123  1.00  0.00     0.074 A 
ATOM     66  C   UNL A   1      46.461  30.484  27.199  1.00  0.00     0.029 A 
ATOM     67  N   UNL A   1      44.462  30.230  28.133  1.00  0.00    -0.354 N 
ATOM     68  N   UNL A   1      42.094  31.063  29.494  1.00  0.00    -0.248 NA
ATOM     69  C   UNL A   1      40.845  32.669  30.632  1.00  0.00     0.031 C 
ATOM     70  C   UNL A   1      46.064  31.719  27.724  1.00  0.00     0.029 A 
ATOM     71  C   UNL A   1      44.813  31.563  28.290  1.00  0.00     0.049 A 
ATOM     72  H   UNL A   1      43.622  29.826  28.448  1.00  0.00     0.167 HD
ATOM     73  C   UNL A   1      42.778  32.272  29.482  1.00  0.00     0.074 A 
ATOM     74  C   UNL A   1      41.950  33.236  30.171  1.00  0.00     0.031 C 
ATOM     75  C   UNL A   1      43.986  32.548  28.935  1.00  0.00     0.037 A 
BRANCH  62  76
ATOM     76  C   UNL A   1      46.652  27.577  26.459  1.00  0.00     0.064 A 
ATOM     77  C   UNL A   1      47.651  26.935  27.209  1.00  0.00     0.173 A 
ATOM     78  C   UNL A   1      46.803  27.621  25.066  1.00  0.00     0.173 A 
ATOM     79  F   UNL A   1      47.551  26.865  28.545  1.00  0.00    -0.203 F 
ATOM     80  C   UNL A   1      48.779  26.403  26.595  1.00  0.00     0.198 A 
ATOM     81  C   UNL A   1      47.917  27.054  24.451  1.00  0.00     0.198 A 
ATOM     82  F   UNL A   1      45.868  28.202  24.300  1.00  0.00    -0.203 F 
ATOM     83  F   UNL A   1      49.747  25.852  27.340  1.00  0.00    -0.200 F 
ATOM     84  C   UNL A   1      48.909  26.458  25.216  1.00  0.00     0.200 A 
ATOM     85  F   UNL A   1      48.035  27.089  23.116  1.00  0.00    -0.200 F 
ATOM     86  F   UNL A   1      49.995  25.940  24.625  1.00  0.00    -0.200 F 
ENDBRANCH  62  76
BRANCH  63  87
ATOM     87  C   UNL A   1      38.644  30.855  31.148  1.00  0.00     0.064 A 
ATOM     88  C   UNL A   1      37.571  31.484  30.500  1.00  0.00     0.173 A 
ATOM     89  C   UNL A   1      38.600  30.758  32.546  1.00  0.00     0.173 A 
ATOM     90  F   UNL A   1      37.585  31.626  29.166  1.00  0.00    -0.203 F 
ATOM     91  C   UNL A   1      36.514  32.030  31.224  1.00  0.00     0.198 A 
ATOM     92  C   UNL A   1      37.528  31.282  33.266  1.00  0.00     0.198 A 
ATOM     93  F   UNL A   1      39.603  30.166  33.210  1.00  0.00    -0.203 F 
ATOM     94  F   UNL A   1      35.533  32.683  30.584  1.00  0.00    -0.200 F 
ATOM     95  C   UNL A   1      36.493  31.928  32.607  1.00  0.00     0.200 A 
ATOM     96  F   UNL A   1      37.507  31.178  34.602  1.00  0.00    -0.200 F 
ATOM     97  F   UNL A   1      35.483  32.466  33.304  1.00  0.00    -0.200 F 
ENDBRANCH  63  87
BRANCH  75  98
ATOM     98  C   UNL A   1      44.472  33.967  28.982  1.00  0.00     0.064 A 
ATOM     99  C   UNL A   1      45.273  34.444  30.029  1.00  0.00     0.173 A 
ATOM    100  C   UNL A   1      44.164  34.853  27.937  1.00  0.00     0.173 A 
ATOM    101  F   UNL A   1      45.582  33.644  31.060  1.00  0.00    -0.203 F 
ATOM    102  C   UNL A   1      45.733  35.759  30.037  1.00  0.00     0.198 A 
ATOM    103  C   UNL A   1      44.648  36.159  27.935  1.00  0.00     0.198 A 
ATOM    104  F   UNL A   1      43.402  34.448  26.910  1.00  0.00    -0.203 F 
ATOM    105  F   UNL A   1      46.465  36.205  31.069  1.00  0.00    -0.200 F 
ATOM    106  C   UNL A   1      45.427  36.613  28.988  1.00  0.00     0.200 A 
ATOM    107  F   UNL A   1      44.359  36.979  26.915  1.00  0.00    -0.200 F 
ATOM    108  F   UNL A   1      45.878  37.874  28.994  1.00  0.00    -0.200 F 
ENDBRANCH  75  98
ENDBRANCH  49  50
ENDBRANCH  41  44
ENDBRANCH  39  40
ENDBRANCH  38  39
ENDBRANCH   1  38
TORSDOF 15
ENDMDL
MODEL 2
REMARK VINA RESULT:     -14.2      2.796      3.863
REMARK SMILES COc1ccc([C@H]2[NH2+][C@@H](C(=O)NCCCNC(=O)c3ccc(-c4c5nc(c(-c6c(F)c(F)c(F)c(F)c6F)c6ccc([nH]6)c(-c6c(F)c(F)c(F)c(F)c6F)c6nc(c(-c7c(F)c(F)c(F)c(F)c7F)c7ccc4[nH]7)C=C6)C=C5)cc3)CC3=c4ccccc4=N[C@H]32)cc1Cn1cc([N+](=O)[O-])cn1
REMARK SMILES IDX 13 1 12 2 10 3 11 4 9 6 7 7 8 8 91 9 83 12 90 13 82 14 84 15
REMARK SMILES IDX 89 16 85 17 88 18 86 19 87 20 6 21 3 22 4 23 93 24 5 25
REMARK SMILES IDX 92 26 2 27 1 28 94 29 95 30 96 31 102 32 97 33 101 34 98 35
REMARK SMILES IDX 99 36 100 37 14 38 15 39 16 40 17 41 18 43 19 44 20 45 81 46
REMARK SMILES IDX 21 47 80 48 22 49 23 50 24 51 74 52 25 53 79 54 73 55 75 56
REMARK SMILES IDX 26 57 78 58 72 59 71 60 27 62 59 63 39 64 58 65 40 66 43 67
REMARK SMILES IDX 57 68 76 69 41 70 42 71 56 73 77 74 44 75 28 76 29 77 37 78
REMARK SMILES IDX 30 79 31 80 35 81 38 82 32 83 33 84 36 85 34 86 60 87 61 88
REMARK SMILES IDX 69 89 62 90 63 91 67 92 70 93 64 94 65 95 68 96 66 97 45 98
REMARK SMILES IDX 46 99 54 100 47 101 48 102 52 103 55 104 49 105 50 106
REMARK SMILES IDX 53 107 51 108
REMARK H PARENT 12 5 8 10 8 11 16 42 75 61 43 72
REMARK Flexibility Score: inf
ROOT
ATOM      1  C   UNL A   1      35.768  23.347  23.118  1.00  0.00     0.118 C 
ENDROOT
BRANCH   1   2
ATOM      2  N   UNL A   1      34.798  24.517  23.350  1.00  0.00    -0.351 N 
ATOM      3  C   UNL A   1      34.048  25.322  24.150  1.00  0.00     0.278 C 
ATOM      4  O   UNL A   1      33.459  26.190  23.471  1.00  0.00    -0.268 OA
ATOM      5  H   UNL A   1      34.634  24.867  22.445  1.00  0.00     0.163 HD
BRANCH   3   6
ATOM      6  C   UNL A   1      33.765  25.346  25.683  1.00  0.00     0.277 C 
ATOM      7  C   UNL A   1      31.767  23.964  25.415  1.00  0.00     0.243 C 
ATOM      8  N   UNL A   1      32.947  24.263  26.272  1.00  0.00    -0.327 N 
ATOM      9  C   UNL A   1      30.978  25.524  25.522  1.00  0.00     0.196 C 
ATOM     10  H   UNL A   1      33.518  23.423  26.361  1.00  0.00     0.347 HD
ATOM     11  H   UNL A   1      32.616  24.566  27.189  1.00  0.00     0.347 HD
ATOM     12  C   UNL A   1      31.868  26.769  25.562  1.00  0.00    -0.024 C 
ATOM     13  N   UNL A   1      29.883  25.934  24.573  1.00  0.00    -0.270 NA
ATOM     14  C   UNL A   1      33.212  26.664  26.159  1.00  0.00     0.109 C 
ATOM     15  C   UNL A   1      31.450  27.733  24.751  1.00  0.00     0.002 A 
ATOM     16  C   UNL A   1      30.200  27.160  24.217  1.00  0.00     0.066 A 
ATOM     17  C   UNL A   1      32.208  28.747  24.065  1.00  0.00     0.010 A 
ATOM     18  C   UNL A   1      29.619  27.940  23.070  1.00  0.00     0.028 A 
ATOM     19  C   UNL A   1      31.738  29.203  22.893  1.00  0.00     0.001 A 
ATOM     20  C   UNL A   1      30.409  28.830  22.429  1.00  0.00     0.002 A 
BRANCH   7  21
ATOM     21  C   UNL A   1      32.399  22.764  24.487  1.00  0.00     0.012 A 
ATOM     22  C   UNL A   1      32.503  20.116  23.258  1.00  0.00     0.123 A 
ATOM     23  C   UNL A   1      31.737  21.186  22.731  1.00  0.00     0.047 A 
ATOM     24  C   UNL A   1      33.363  20.371  24.325  1.00  0.00     0.016 A 
ATOM     25  C   UNL A   1      31.690  22.471  23.312  1.00  0.00     0.014 A 
ATOM     26  C   UNL A   1      33.302  21.713  24.811  1.00  0.00     0.019 A 
BRANCH  22  27
ATOM     27  O   UNL A   1      32.200  18.950  22.618  1.00  0.00    -0.496 OA
ATOM     28  C   UNL A   1      32.148  18.858  21.209  1.00  0.00     0.278 C 
ENDBRANCH  22  27
BRANCH  24  29
ATOM     29  C   UNL A   1      34.090  19.283  25.168  1.00  0.00     0.183 C 
BRANCH  29  30
ATOM     30  N   UNL A   1      33.804  17.824  25.012  1.00  0.00    -0.261 N 
ATOM     31  C   UNL A   1      32.752  17.078  25.513  1.00  0.00     0.194 A 
ATOM     32  N   UNL A   1      34.406  17.121  24.009  1.00  0.00    -0.174 NA
ATOM     33  C   UNL A   1      33.075  15.763  25.249  1.00  0.00     0.307 A 
ATOM     34  C   UNL A   1      33.941  15.873  24.171  1.00  0.00     0.220 A 
BRANCH  33  35
ATOM     35  N   UNL A   1      32.640  14.562  25.896  1.00  0.00     0.066 N 
ATOM     36  O   UNL A   1      33.276  13.537  25.622  1.00  0.00    -0.258 OA
ATOM     37  O   UNL A   1      31.770  14.666  26.768  1.00  0.00    -0.258 OA
ENDBRANCH  33  35
ENDBRANCH  29  30
ENDBRANCH  24  29
ENDBRANCH   7  21
ENDBRANCH   3   6
ENDBRANCH   1   2
BRANCH   1  38
ATOM     38  C   UNL A   1      36.599  22.454  24.172  1.00  0.00     0.042 C 
BRANCH  38  39
ATOM     39  C   UNL A   1      37.427  23.102  25.328  1.00  0.00     0.118 C 
BRANCH  39  40
ATOM     40  N   UNL A   1      38.754  22.501  25.533  1.00  0.00    -0.352 N 
ATOM     41  C   UNL A   1      39.839  22.998  26.250  1.00  0.00     0.251 C 
ATOM     42  H   UNL A   1      38.895  21.627  25.104  1.00  0.00     0.163 HD
ATOM     43  O   UNL A   1      40.859  22.364  26.395  1.00  0.00    -0.269 OA
BRANCH  41  44
ATOM     44  C   UNL A   1      39.729  24.351  26.840  1.00  0.00     0.039 A 
ATOM     45  C   UNL A   1      39.054  24.545  28.043  1.00  0.00     0.014 A 
ATOM     46  C   UNL A   1      40.331  25.428  26.212  1.00  0.00     0.014 A 
ATOM     47  C   UNL A   1      39.155  25.781  28.707  1.00  0.00     0.010 A 
ATOM     48  C   UNL A   1      40.455  26.641  26.900  1.00  0.00     0.010 A 
ATOM     49  C   UNL A   1      39.971  26.812  28.207  1.00  0.00    -0.014 A 
BRANCH  49  50
ATOM     50  C   UNL A   1      40.411  27.970  29.078  1.00  0.00     0.031 A 
ATOM     51  C   UNL A   1      41.740  27.997  29.809  1.00  0.00     0.074 A 
ATOM     52  C   UNL A   1      39.548  28.981  29.355  1.00  0.00     0.049 A 
ATOM     53  N   UNL A   1      42.212  28.906  30.636  1.00  0.00    -0.248 NA
ATOM     54  C   UNL A   1      42.629  26.839  29.648  1.00  0.00     0.031 C 
ATOM     55  C   UNL A   1      38.157  29.073  28.904  1.00  0.00     0.029 A 
ATOM     56  N   UNL A   1      39.708  30.127  30.111  1.00  0.00    -0.354 N 
ATOM     57  C   UNL A   1      43.432  28.420  31.091  1.00  0.00     0.074 A 
ATOM     58  C   UNL A   1      43.568  27.085  30.550  1.00  0.00     0.031 C 
ATOM     59  C   UNL A   1      37.609  30.212  29.354  1.00  0.00     0.029 A 
ATOM     60  C   UNL A   1      38.594  30.934  30.151  1.00  0.00     0.049 A 
ATOM     61  H   UNL A   1      40.545  30.345  30.581  1.00  0.00     0.167 HD
ATOM     62  C   UNL A   1      44.396  29.036  31.820  1.00  0.00     0.037 A 
ATOM     63  C   UNL A   1      38.369  32.125  30.744  1.00  0.00     0.037 A 
ATOM     64  C   UNL A   1      44.335  30.388  32.312  1.00  0.00     0.049 A 
ATOM     65  C   UNL A   1      39.468  32.827  31.493  1.00  0.00     0.074 A 
ATOM     66  C   UNL A   1      45.329  31.124  32.938  1.00  0.00     0.029 A 
ATOM     67  N   UNL A   1      43.227  31.212  32.227  1.00  0.00    -0.354 N 
ATOM     68  N   UNL A   1      40.682  32.416  31.755  1.00  0.00    -0.248 NA
ATOM     69  C   UNL A   1      39.173  34.177  32.000  1.00  0.00     0.031 C 
ATOM     70  C   UNL A   1      44.815  32.386  33.253  1.00  0.00     0.029 A 
ATOM     71  C   UNL A   1      43.512  32.445  32.795  1.00  0.00     0.049 A 
ATOM     72  H   UNL A   1      42.365  30.961  31.825  1.00  0.00     0.167 HD
ATOM     73  C   UNL A   1      41.308  33.473  32.404  1.00  0.00     0.074 A 
ATOM     74  C   UNL A   1      40.343  34.544  32.503  1.00  0.00     0.031 C 
ATOM     75  C   UNL A   1      42.579  33.539  32.866  1.00  0.00     0.037 A 
BRANCH  62  76
ATOM     76  C   UNL A   1      45.667  28.270  32.057  1.00  0.00     0.064 A 
ATOM     77  C   UNL A   1      45.822  27.472  33.201  1.00  0.00     0.173 A 
ATOM     78  C   UNL A   1      46.714  28.293  31.125  1.00  0.00     0.173 A 
ATOM     79  F   UNL A   1      44.847  27.415  34.122  1.00  0.00    -0.203 F 
ATOM     80  C   UNL A   1      46.997  26.764  33.429  1.00  0.00     0.198 A 
ATOM     81  C   UNL A   1      47.876  27.553  31.339  1.00  0.00     0.198 A 
ATOM     82  F   UNL A   1      46.610  29.021  30.004  1.00  0.00    -0.203 F 
ATOM     83  F   UNL A   1      47.143  26.060  34.560  1.00  0.00    -0.200 F 
ATOM     84  C   UNL A   1      48.021  26.801  32.495  1.00  0.00     0.200 A 
ATOM     85  F   UNL A   1      48.859  27.572  30.428  1.00  0.00    -0.200 F 
ATOM     86  F   UNL A   1      49.151  26.114  32.714  1.00  0.00    -0.200 F 
ENDBRANCH  62  76
BRANCH  63  87
ATOM     87  C   UNL A   1      37.049  32.793  30.597  1.00  0.00     0.064 A 
ATOM     88  C   UNL A   1      36.081  32.691  31.607  1.00  0.00     0.173 A 
ATOM     89  C   UNL A   1      36.708  33.492  29.431  1.00  0.00     0.173 A 
ATOM     90  F   UNL A   1      36.353  32.005  32.728  1.00  0.00    -0.203 F 
ATOM     91  C   UNL A   1      34.808  33.232  31.441  1.00  0.00     0.198 A 
ATOM     92  C   UNL A   1      35.443  34.056  29.278  1.00  0.00     0.198 A 
ATOM     93  F   UNL A   1      37.600  33.616  28.438  1.00  0.00    -0.203 F 
ATOM     94  F   UNL A   1      33.882  33.064  32.395  1.00  0.00    -0.200 F 
ATOM     95  C   UNL A   1      34.491  33.914  30.276  1.00  0.00     0.200 A 
ATOM     96  F   UNL A   1      35.139  34.719  28.154  1.00  0.00    -0.200 F 
ATOM     97  F   UNL A   1      33.262  34.423  30.111  1.00  0.00    -0.200 F 
ENDBRANCH  63  87
BRANCH  75  98
ATOM     98  C   UNL A   1      43.046  34.836  33.459  1.00  0.00     0.064 A 
ATOM     99  C   UNL A   1      43.518  35.890  32.662  1.00  0.00     0.173 A 
ATOM    100  C   UNL A   1      42.979  35.042  34.846  1.00  0.00     0.173 A 
ATOM    101  F   UNL A   1      43.618  35.738  31.334  1.00  0.00    -0.203 F 
ATOM    102  C   UNL A   1      43.922  37.094  33.234  1.00  0.00     0.198 A 
ATOM    103  C   UNL A   1      43.359  36.257  35.412  1.00  0.00     0.198 A 
ATOM    104  F   UNL A   1      42.534  34.068  35.654  1.00  0.00    -0.203 F 
ATOM    105  F   UNL A   1      44.408  38.073  32.457  1.00  0.00    -0.200 F 
ATOM    106  C   UNL A   1      43.835  37.280  34.606  1.00  0.00     0.200 A 
ATOM    107  F   UNL A   1      43.264  36.438  36.736  1.00  0.00    -0.200 F 
ATOM    108  F   UNL A   1      44.216  38.443  35.153  1.00  0.00    -0.200 F 
ENDBRANCH  75  98
ENDBRANCH  49  50
ENDBRANCH  41  44
ENDBRANCH  39  40
ENDBRANCH  38  39
ENDBRANCH   1  38
TORSDOF 15
ENDMDL
MODEL 3
REMARK VINA RESULT:     -14.1      0.802      6.905
REMARK SMILES COc1ccc([C@H]2[NH2+][C@@H](C(=O)NCCCNC(=O)c3ccc(-c4c5nc(c(-c6c(F)c(F)c(F)c(F)c6F)c6ccc([nH]6)c(-c6c(F)c(F)c(F)c(F)c6F)c6nc(c(-c7c(F)c(F)c(F)c(F)c7F)c7ccc4[nH]7)C=C6)C=C5)cc3)CC3=c4ccccc4=N[C@H]32)cc1Cn1cc([N+](=O)[O-])cn1
REMARK SMILES IDX 13 1 12 2 10 3 11 4 9 6 7 7 8 8 91 9 83 12 90 13 82 14 84 15
REMARK SMILES IDX 89 16 85 17 88 18 86 19 87 20 6 21 3 22 4 23 93 24 5 25
REMARK SMILES IDX 92 26 2 27 1 28 94 29 95 30 96 31 102 32 97 33 101 34 98 35
REMARK SMILES IDX 99 36 100 37 14 38 15 39 16 40 17 41 18 43 19 44 20 45 81 46
REMARK SMILES IDX 21 47 80 48 22 49 23 50 24 51 74 52 25 53 79 54 73 55 75 56
REMARK SMILES IDX 26 57 78 58 72 59 71 60 27 62 59 63 39 64 58 65 40 66 43 67
REMARK SMILES IDX 57 68 76 69 41 70 42 71 56 73 77 74 44 75 28 76 29 77 37 78
REMARK SMILES IDX 30 79 31 80 35 81 38 82 32 83 33 84 36 85 34 86 60 87 61 88
REMARK SMILES IDX 69 89 62 90 63 91 67 92 70 93 64 94 65 95 68 96 66 97 45 98
REMARK SMILES IDX 46 99 54 100 47 101 48 102 52 103 55 104 49 105 50 106
REMARK SMILES IDX 53 107 51 108
REMARK H PARENT 12 5 8 10 8 11 16 42 75 61 43 72
REMARK Flexibility Score: inf
ROOT
ATOM      1  C   UNL A   1      35.361  23.466  23.223  1.00  0.00     0.118 C 
ENDROOT
BRANCH   1   2
ATOM      2  N   UNL A   1      34.494  24.720  23.416  1.00  0.00    -0.351 N 
ATOM      3  C   UNL A   1      33.783  25.589  24.186  1.00  0.00     0.278 C 
ATOM      4  O   UNL A   1      33.311  26.510  23.485  1.00  0.00    -0.268 OA
ATOM      5  H   UNL A   1      34.408  25.087  22.507  1.00  0.00     0.163 HD
BRANCH   3   6
ATOM      6  C   UNL A   1      33.429  25.633  25.704  1.00  0.00     0.277 C 
ATOM      7  C   UNL A   1      31.478  24.197  25.369  1.00  0.00     0.243 C 
ATOM      8  N   UNL A   1      32.609  24.541  26.274  1.00  0.00    -0.327 N 
ATOM      9  C   UNL A   1      30.648  25.739  25.410  1.00  0.00     0.196 C 
ATOM     10  H   UNL A   1      33.195  23.717  26.405  1.00  0.00     0.347 HD
ATOM     11  H   UNL A   1      32.229  24.852  27.169  1.00  0.00     0.347 HD
ATOM     12  C   UNL A   1      31.506  27.006  25.467  1.00  0.00    -0.024 C 
ATOM     13  N   UNL A   1      29.589  26.105  24.403  1.00  0.00    -0.270 NA
ATOM     14  C   UNL A   1      32.822  26.945  26.127  1.00  0.00     0.109 C 
ATOM     15  C   UNL A   1      31.103  27.945  24.619  1.00  0.00     0.002 A 
ATOM     16  C   UNL A   1      29.893  27.331  24.038  1.00  0.00     0.066 A 
ATOM     17  C   UNL A   1      31.868  28.965  23.949  1.00  0.00     0.010 A 
ATOM     18  C   UNL A   1      29.348  28.076  22.851  1.00  0.00     0.028 A 
ATOM     19  C   UNL A   1      31.443  29.387  22.749  1.00  0.00     0.001 A 
ATOM     20  C   UNL A   1      30.146  28.973  22.230  1.00  0.00     0.002 A 
BRANCH   7  21
ATOM     21  C   UNL A   1      32.181  22.997  24.495  1.00  0.00     0.012 A 
ATOM     22  C   UNL A   1      32.395  20.339  23.303  1.00  0.00     0.123 A 
ATOM     23  C   UNL A   1      31.649  21.392  22.719  1.00  0.00     0.047 A 
ATOM     24  C   UNL A   1      33.185  20.616  24.419  1.00  0.00     0.016 A 
ATOM     25  C   UNL A   1      31.550  22.683  23.282  1.00  0.00     0.014 A 
ATOM     26  C   UNL A   1      33.077  21.961  24.885  1.00  0.00     0.019 A 
BRANCH  22  27
ATOM     27  O   UNL A   1      32.147  19.162  22.659  1.00  0.00    -0.496 OA
ATOM     28  C   UNL A   1      32.088  19.075  21.250  1.00  0.00     0.278 C 
ENDBRANCH  22  27
BRANCH  24  29
ATOM     29  C   UNL A   1      33.873  19.546  25.316  1.00  0.00     0.183 C 
BRANCH  29  30
ATOM     30  N   UNL A   1      33.682  18.079  25.104  1.00  0.00    -0.261 N 
ATOM     31  C   UNL A   1      32.648  17.260  25.522  1.00  0.00     0.194 A 
ATOM     32  N   UNL A   1      34.381  17.442  24.120  1.00  0.00    -0.174 NA
ATOM     33  C   UNL A   1      33.063  15.973  25.242  1.00  0.00     0.307 A 
ATOM     34  C   UNL A   1      33.982  16.166  24.221  1.00  0.00     0.220 A 
BRANCH  33  35
ATOM     35  N   UNL A   1      32.663  14.731  25.830  1.00  0.00     0.066 N 
ATOM     36  O   UNL A   1      33.325  13.738  25.504  1.00  0.00    -0.258 OA
ATOM     37  O   UNL A   1      31.794  14.767  26.707  1.00  0.00    -0.258 OA
ENDBRANCH  33  35
ENDBRANCH  29  30
ENDBRANCH  24  29
ENDBRANCH   7  21
ENDBRANCH   3   6
ENDBRANCH   1   2
BRANCH   1  38
ATOM     38  C   UNL A   1      36.763  23.050  23.901  1.00  0.00     0.042 C 
BRANCH  38  39
ATOM     39  C   UNL A   1      36.826  22.181  25.198  1.00  0.00     0.118 C 
BRANCH  39  40
ATOM     40  N   UNL A   1      37.889  21.165  25.197  1.00  0.00    -0.352 N 
ATOM     41  C   UNL A   1      39.107  21.172  25.870  1.00  0.00     0.251 C 
ATOM     42  H   UNL A   1      37.716  20.370  24.643  1.00  0.00     0.163 HD
ATOM     43  O   UNL A   1      39.868  20.230  25.833  1.00  0.00    -0.269 OA
BRANCH  41  44
ATOM     44  C   UNL A   1      39.474  22.378  26.644  1.00  0.00     0.039 A 
ATOM     45  C   UNL A   1      40.530  22.342  27.552  1.00  0.00     0.014 A 
ATOM     46  C   UNL A   1      38.789  23.563  26.438  1.00  0.00     0.014 A 
ATOM     47  C   UNL A   1      41.015  23.542  28.103  1.00  0.00     0.010 A 
ATOM     48  C   UNL A   1      39.304  24.753  26.965  1.00  0.00     0.010 A 
ATOM     49  C   UNL A   1      40.491  24.788  27.714  1.00  0.00    -0.014 A 
BRANCH  49  50
ATOM     50  C   UNL A   1      41.239  26.079  27.972  1.00  0.00     0.031 A 
ATOM     51  C   UNL A   1      40.606  27.280  28.650  1.00  0.00     0.074 A 
ATOM     52  C   UNL A   1      42.484  26.259  27.463  1.00  0.00     0.049 A 
ATOM     53  N   UNL A   1      41.122  28.470  28.879  1.00  0.00    -0.248 NA
ATOM     54  C   UNL A   1      39.204  27.163  29.073  1.00  0.00     0.031 C 
ATOM     55  C   UNL A   1      43.218  25.306  26.627  1.00  0.00     0.029 A 
ATOM     56  N   UNL A   1      43.354  27.329  27.556  1.00  0.00    -0.354 N 
ATOM     57  C   UNL A   1      40.109  29.227  29.453  1.00  0.00     0.074 A 
ATOM     58  C   UNL A   1      38.917  28.408  29.422  1.00  0.00     0.031 C 
ATOM     59  C   UNL A   1      44.423  25.809  26.316  1.00  0.00     0.029 A 
ATOM     60  C   UNL A   1      44.554  27.136  26.908  1.00  0.00     0.049 A 
ATOM     61  H   UNL A   1      43.136  28.156  28.042  1.00  0.00     0.167 HD
ATOM     62  C   UNL A   1      40.161  30.455  30.030  1.00  0.00     0.037 A 
ATOM     63  C   UNL A   1      45.649  27.915  26.796  1.00  0.00     0.037 A 
ATOM     64  C   UNL A   1      41.341  31.270  30.152  1.00  0.00     0.049 A 
ATOM     65  C   UNL A   1      45.718  29.244  27.496  1.00  0.00     0.074 A 
ATOM     66  C   UNL A   1      41.500  32.461  30.844  1.00  0.00     0.029 A 
ATOM     67  N   UNL A   1      42.567  30.980  29.578  1.00  0.00    -0.354 N 
ATOM     68  N   UNL A   1      44.797  29.861  28.190  1.00  0.00    -0.248 NA
ATOM     69  C   UNL A   1      46.996  29.971  27.424  1.00  0.00     0.031 C 
ATOM     70  C   UNL A   1      42.816  32.902  30.670  1.00  0.00     0.029 A 
ATOM     71  C   UNL A   1      43.484  31.971  29.897  1.00  0.00     0.049 A 
ATOM     72  H   UNL A   1      42.760  30.187  29.027  1.00  0.00     0.167 HD
ATOM     73  C   UNL A   1      45.398  31.013  28.680  1.00  0.00     0.074 A 
ATOM     74  C   UNL A   1      46.762  31.017  28.203  1.00  0.00     0.031 C 
ATOM     75  C   UNL A   1      44.856  31.973  29.466  1.00  0.00     0.037 A 
BRANCH  62  76
ATOM     76  C   UNL A   1      38.900  30.962  30.671  1.00  0.00     0.064 A 
ATOM     77  C   UNL A   1      37.907  31.592  29.903  1.00  0.00     0.173 A 
ATOM     78  C   UNL A   1      38.657  30.783  32.040  1.00  0.00     0.173 A 
ATOM     79  F   UNL A   1      38.092  31.784  28.588  1.00  0.00    -0.203 F 
ATOM     80  C   UNL A   1      36.740  32.068  30.490  1.00  0.00     0.198 A 
ATOM     81  C   UNL A   1      37.470  31.229  32.618  1.00  0.00     0.198 A 
ATOM     82  F   UNL A   1      39.562  30.168  32.816  1.00  0.00    -0.203 F 
ATOM     83  F   UNL A   1      35.837  32.720  29.745  1.00  0.00    -0.200 F 
ATOM     84  C   UNL A   1      36.520  31.881  31.846  1.00  0.00     0.200 A 
ATOM     85  F   UNL A   1      37.247  31.033  33.925  1.00  0.00    -0.200 F 
ATOM     86  F   UNL A   1      35.392  32.337  32.409  1.00  0.00    -0.200 F 
ENDBRANCH  62  76
BRANCH  63  87
ATOM     87  C   UNL A   1      46.833  27.431  26.038  1.00  0.00     0.064 A 
ATOM     88  C   UNL A   1      47.877  26.763  26.695  1.00  0.00     0.173 A 
ATOM     89  C   UNL A   1      46.972  27.674  24.665  1.00  0.00     0.173 A 
ATOM     90  F   UNL A   1      47.800  26.534  28.014  1.00  0.00    -0.203 F 
ATOM     91  C   UNL A   1      49.032  26.387  26.013  1.00  0.00     0.198 A 
ATOM     92  C   UNL A   1      48.118  27.275  23.979  1.00  0.00     0.198 A 
ATOM     93  F   UNL A   1      46.001  28.310  23.994  1.00  0.00    -0.203 F 
ATOM     94  F   UNL A   1      50.042  25.808  26.678  1.00  0.00    -0.200 F 
ATOM     95  C   UNL A   1      49.151  26.644  24.656  1.00  0.00     0.200 A 
ATOM     96  F   UNL A   1      48.229  27.519  22.666  1.00  0.00    -0.200 F 
ATOM     97  F   UNL A   1      50.269  26.296  24.003  1.00  0.00    -0.200 F 
ENDBRANCH  63  87
BRANCH  75  98
ATOM     98  C   UNL A   1      45.749  33.085  29.936  1.00  0.00     0.064 A 
ATOM     99  C   UNL A   1      46.486  32.994  31.125  1.00  0.00     0.173 A 
ATOM    100  C   UNL A   1      45.900  34.244  29.158  1.00  0.00     0.173 A 
ATOM    101  F   UNL A   1      46.365  31.916  31.913  1.00  0.00    -0.203 F 
ATOM    102  C   UNL A   1      47.327  34.029  31.527  1.00  0.00     0.198 A 
ATOM    103  C   UNL A   1      46.763  35.266  29.549  1.00  0.00     0.198 A 
ATOM    104  F   UNL A   1      45.219  34.382  28.010  1.00  0.00    -0.203 F 
ATOM    105  F   UNL A   1      47.992  33.938  32.688  1.00  0.00    -0.200 F 
ATOM    106  C   UNL A   1      47.471  35.160  30.736  1.00  0.00     0.200 A 
ATOM    107  F   UNL A   1      46.907  36.352  28.779  1.00  0.00    -0.200 F 
ATOM    108  F   UNL A   1      48.288  36.150  31.121  1.00  0.00    -0.200 F 
ENDBRANCH  75  98
ENDBRANCH  49  50
ENDBRANCH  41  44
ENDBRANCH  39  40
ENDBRANCH  38  39
ENDBRANCH   1  38
TORSDOF 15
ENDMDL
