MODEL 1
REMARK VINA RESULT:     -11.5      0.000      0.000
REMARK SMILES CC(C)CN(CC(N)=O)C(=O)N1CC[C@H](C(=O)NCCCNC(=O)c2ccc(-c3c4nc(c(-c5c(F)c(F)c(F)c(F)c5F)c5ccc([nH]5)c(-c5c(F)c(F)c(F)c(F)c5F)c5nc(c(-c6c(F)c(F)c(F)c(F)c6F)c6ccc3[nH]6)C=C5)C=C4)cc2)[C@@H]1C
REMARK SMILES IDX 19 1 18 2 16 3 17 4 15 6 12 7 13 8 88 9 14 10 89 11 10 12
REMARK SMILES IDX 11 13 5 14 4 15 2 16 1 17 3 18 6 19 7 20 8 21 9 22 20 25
REMARK SMILES IDX 21 26 22 27 23 28 24 30 25 31 26 32 87 33 27 34 86 35 28 36
REMARK SMILES IDX 29 37 30 38 80 39 31 40 85 41 79 42 81 43 32 44 84 45 78 46
REMARK SMILES IDX 77 47 33 49 65 50 45 51 64 52 46 53 49 54 63 55 82 56 47 57
REMARK SMILES IDX 48 58 62 60 83 61 50 62 34 63 35 64 43 65 36 66 37 67 41 68
REMARK SMILES IDX 44 69 38 70 39 71 42 72 40 73 66 74 67 75 75 76 68 77 69 78
REMARK SMILES IDX 73 79 76 80 70 81 71 82 74 83 72 84 51 85 52 86 60 87 53 88
REMARK SMILES IDX 54 89 58 90 61 91 55 92 56 93 59 94 57 95
REMARK H PARENT 18 5 8 23 8 24 22 29 81 48 49 59
REMARK Flexibility Score: inf
ROOT
ATOM      1  C   UNL A   1      37.002  20.690  24.582  1.00  0.00     0.117 C 
ENDROOT
BRANCH   1   2
ATOM      2  N   UNL A   1      35.943  20.729  25.573  1.00  0.00    -0.356 N 
ATOM      3  C   UNL A   1      34.795  21.453  25.677  1.00  0.00     0.225 C 
ATOM      4  O   UNL A   1      34.279  21.437  26.800  1.00  0.00    -0.275 OA
ATOM      5  H   UNL A   1      36.083  20.106  26.323  1.00  0.00     0.163 HD
BRANCH   3   6
ATOM      6  C   UNL A   1      34.077  22.093  24.476  1.00  0.00     0.102 C 
ATOM      7  N   UNL A   1      32.481  23.911  24.539  1.00  0.00    -0.321 N 
ATOM      8  C   UNL A   1      31.844  22.738  25.095  1.00  0.00     0.122 C 
ATOM      9  C   UNL A   1      33.902  23.632  24.315  1.00  0.00     0.096 C 
ATOM     10  C   UNL A   1      32.604  21.603  24.437  1.00  0.00     0.037 C 
ATOM     11  C   UNL A   1      34.745  24.527  25.196  1.00  0.00     0.032 C 
BRANCH   7  12
ATOM     12  C   UNL A   1      31.986  25.160  24.847  1.00  0.00     0.320 C 
ATOM     13  O   UNL A   1      31.742  25.432  26.022  1.00  0.00    -0.248 OA
BRANCH  12  14
ATOM     14  N   UNL A   1      31.839  26.081  23.821  1.00  0.00    -0.315 N 
BRANCH  14  15
ATOM     15  C   UNL A   1      32.162  27.486  24.100  1.00  0.00     0.125 C 
BRANCH  15  16
ATOM     16  C   UNL A   1      33.669  27.803  24.220  1.00  0.00     0.002 C 
ATOM     17  C   UNL A   1      34.168  28.753  23.127  1.00  0.00     0.009 C 
ATOM     18  C   UNL A   1      33.950  28.442  25.584  1.00  0.00     0.009 C 
ENDBRANCH  15  16
ENDBRANCH  14  15
BRANCH  14  19
ATOM     19  C   UNL A   1      31.391  25.771  22.456  1.00  0.00     0.221 C 
BRANCH  19  20
ATOM     20  C   UNL A   1      32.531  25.703  21.416  1.00  0.00     0.237 C 
ATOM     21  N   UNL A   1      32.146  25.713  20.103  1.00  0.00    -0.368 N 
ATOM     22  O   UNL A   1      33.727  25.663  21.689  1.00  0.00    -0.273 OA
ATOM     23  H   UNL A   1      31.191  25.745  19.869  1.00  0.00     0.159 HD
ATOM     24  H   UNL A   1      32.827  25.689  19.391  1.00  0.00     0.159 HD
ENDBRANCH  19  20
ENDBRANCH  14  19
ENDBRANCH  12  14
ENDBRANCH   7  12
ENDBRANCH   3   6
ENDBRANCH   1   2
BRANCH   1  25
ATOM     25  C   UNL A   1      38.050  19.641  24.980  1.00  0.00     0.042 C 
BRANCH  25  26
ATOM     26  C   UNL A   1      39.202  20.170  25.818  1.00  0.00     0.118 C 
BRANCH  26  27
ATOM     27  N   UNL A   1      40.268  19.194  25.924  1.00  0.00    -0.352 N 
ATOM     28  C   UNL A   1      41.624  19.373  26.067  1.00  0.00     0.251 C 
ATOM     29  H   UNL A   1      39.977  18.254  25.886  1.00  0.00     0.163 HD
ATOM     30  O   UNL A   1      42.368  18.420  25.851  1.00  0.00    -0.269 OA
BRANCH  28  31
ATOM     31  C   UNL A   1      42.212  20.676  26.479  1.00  0.00     0.039 A 
ATOM     32  C   UNL A   1      42.236  20.997  27.842  1.00  0.00     0.014 A 
ATOM     33  C   UNL A   1      42.642  21.627  25.551  1.00  0.00     0.014 A 
ATOM     34  C   UNL A   1      42.699  22.250  28.268  1.00  0.00     0.010 A 
ATOM     35  C   UNL A   1      43.189  22.838  25.980  1.00  0.00     0.010 A 
ATOM     36  C   UNL A   1      43.189  23.179  27.340  1.00  0.00    -0.014 A 
BRANCH  36  37
ATOM     37  C   UNL A   1      43.620  24.543  27.751  1.00  0.00     0.031 A 
ATOM     38  C   UNL A   1      42.580  25.580  28.093  1.00  0.00     0.074 A 
ATOM     39  C   UNL A   1      44.926  24.872  27.771  1.00  0.00     0.049 A 
ATOM     40  N   UNL A   1      42.727  26.856  28.354  1.00  0.00    -0.248 NA
ATOM     41  C   UNL A   1      41.179  25.128  28.115  1.00  0.00     0.031 C 
ATOM     42  C   UNL A   1      46.031  23.974  27.437  1.00  0.00     0.029 A 
ATOM     43  N   UNL A   1      45.544  26.061  28.076  1.00  0.00    -0.354 N 
ATOM     44  C   UNL A   1      41.444  27.357  28.538  1.00  0.00     0.074 A 
ATOM     45  C   UNL A   1      40.526  26.263  28.312  1.00  0.00     0.031 C 
ATOM     46  C   UNL A   1      47.192  24.637  27.570  1.00  0.00     0.029 A 
ATOM     47  C   UNL A   1      46.912  26.016  27.962  1.00  0.00     0.049 A 
ATOM     48  H   UNL A   1      45.053  26.868  28.349  1.00  0.00     0.167 HD
ATOM     49  C   UNL A   1      41.065  28.610  28.888  1.00  0.00     0.037 A 
ATOM     50  C   UNL A   1      47.834  26.982  28.144  1.00  0.00     0.037 A 
ATOM     51  C   UNL A   1      41.979  29.685  29.162  1.00  0.00     0.049 A 
ATOM     52  C   UNL A   1      47.387  28.361  28.547  1.00  0.00     0.074 A 
ATOM     53  C   UNL A   1      41.696  30.980  29.564  1.00  0.00     0.029 A 
ATOM     54  N   UNL A   1      43.360  29.585  29.076  1.00  0.00    -0.354 N 
ATOM     55  N   UNL A   1      46.172  28.812  28.751  1.00  0.00    -0.248 NA
ATOM     56  C   UNL A   1      48.439  29.367  28.754  1.00  0.00     0.031 C 
ATOM     57  C   UNL A   1      42.905  31.670  29.697  1.00  0.00     0.029 A 
ATOM     58  C   UNL A   1      43.942  30.794  29.416  1.00  0.00     0.049 A 
ATOM     59  H   UNL A   1      43.852  28.774  28.812  1.00  0.00     0.167 HD
ATOM     60  C   UNL A   1      46.316  30.137  29.140  1.00  0.00     0.074 A 
ATOM     61  C   UNL A   1      47.737  30.417  29.155  1.00  0.00     0.031 C 
ATOM     62  C   UNL A   1      45.359  31.043  29.453  1.00  0.00     0.037 A 
BRANCH  49  63
ATOM     63  C   UNL A   1      39.594  28.883  29.012  1.00  0.00     0.064 A 
ATOM     64  C   UNL A   1      38.928  28.765  30.242  1.00  0.00     0.173 A 
ATOM     65  C   UNL A   1      38.850  29.311  27.902  1.00  0.00     0.173 A 
ATOM     66  F   UNL A   1      39.590  28.347  31.331  1.00  0.00    -0.203 F 
ATOM     67  C   UNL A   1      37.568  29.042  30.350  1.00  0.00     0.198 A 
ATOM     68  C   UNL A   1      37.497  29.616  28.020  1.00  0.00     0.198 A 
ATOM     69  F   UNL A   1      39.439  29.448  26.705  1.00  0.00    -0.203 F 
ATOM     70  F   UNL A   1      36.944  28.879  31.525  1.00  0.00    -0.200 F 
ATOM     71  C   UNL A   1      36.855  29.474  29.241  1.00  0.00     0.200 A 
ATOM     72  F   UNL A   1      36.811  30.045  26.951  1.00  0.00    -0.200 F 
ATOM     73  F   UNL A   1      35.548  29.750  29.350  1.00  0.00    -0.200 F 
ENDBRANCH  49  63
BRANCH  50  74
ATOM     74  C   UNL A   1      49.279  26.678  27.970  1.00  0.00     0.064 A 
ATOM     75  C   UNL A   1      49.848  26.604  26.691  1.00  0.00     0.173 A 
ATOM     76  C   UNL A   1      50.113  26.433  29.070  1.00  0.00     0.173 A 
ATOM     77  F   UNL A   1      49.086  26.806  25.606  1.00  0.00    -0.203 F 
ATOM     78  C   UNL A   1      51.190  26.270  26.517  1.00  0.00     0.198 A 
ATOM     79  C   UNL A   1      51.462  26.128  28.897  1.00  0.00     0.198 A 
ATOM     80  F   UNL A   1      49.618  26.493  30.316  1.00  0.00    -0.203 F 
ATOM     81  F   UNL A   1      51.695  26.153  25.281  1.00  0.00    -0.200 F 
ATOM     82  C   UNL A   1      51.997  26.037  27.620  1.00  0.00     0.200 A 
ATOM     83  F   UNL A   1      52.241  25.912  29.965  1.00  0.00    -0.200 F 
ATOM     84  F   UNL A   1      53.286  25.712  27.453  1.00  0.00    -0.200 F 
ENDBRANCH  50  74
BRANCH  62  85
ATOM     85  C   UNL A   1      45.814  32.403  29.892  1.00  0.00     0.064 A 
ATOM     86  C   UNL A   1      46.111  32.683  31.233  1.00  0.00     0.173 A 
ATOM     87  C   UNL A   1      46.002  33.423  28.947  1.00  0.00     0.173 A 
ATOM     88  F   UNL A   1      45.934  31.744  32.173  1.00  0.00    -0.203 F 
ATOM     89  C   UNL A   1      46.557  33.945  31.615  1.00  0.00     0.198 A 
ATOM     90  C   UNL A   1      46.473  34.675  29.330  1.00  0.00     0.198 A 
ATOM     91  F   UNL A   1      45.739  33.201  27.650  1.00  0.00    -0.203 F 
ATOM     92  F   UNL A   1      46.795  34.205  32.909  1.00  0.00    -0.200 F 
ATOM     93  C   UNL A   1      46.745  34.936  30.664  1.00  0.00     0.200 A 
ATOM     94  F   UNL A   1      46.666  35.629  28.407  1.00  0.00    -0.200 F 
ATOM     95  F   UNL A   1      47.182  36.148  31.035  1.00  0.00    -0.200 F 
ENDBRANCH  62  85
ENDBRANCH  36  37
ENDBRANCH  28  31
ENDBRANCH  26  27
ENDBRANCH  25  26
ENDBRANCH   1  25
TORSDOF 16
ENDMDL
MODEL 2
REMARK VINA RESULT:     -11.3      5.415     10.682
REMARK SMILES CC(C)CN(CC(N)=O)C(=O)N1CC[C@H](C(=O)NCCCNC(=O)c2ccc(-c3c4nc(c(-c5c(F)c(F)c(F)c(F)c5F)c5ccc([nH]5)c(-c5c(F)c(F)c(F)c(F)c5F)c5nc(c(-c6c(F)c(F)c(F)c(F)c6F)c6ccc3[nH]6)C=C5)C=C4)cc2)[C@@H]1C
REMARK SMILES IDX 19 1 18 2 16 3 17 4 15 6 12 7 13 8 88 9 14 10 89 11 10 12
REMARK SMILES IDX 11 13 5 14 4 15 2 16 1 17 3 18 6 19 7 20 8 21 9 22 20 25
REMARK SMILES IDX 21 26 22 27 23 28 24 30 25 31 26 32 87 33 27 34 86 35 28 36
REMARK SMILES IDX 29 37 30 38 80 39 31 40 85 41 79 42 81 43 32 44 84 45 78 46
REMARK SMILES IDX 77 47 33 49 65 50 45 51 64 52 46 53 49 54 63 55 82 56 47 57
REMARK SMILES IDX 48 58 62 60 83 61 50 62 34 63 35 64 43 65 36 66 37 67 41 68
REMARK SMILES IDX 44 69 38 70 39 71 42 72 40 73 66 74 67 75 75 76 68 77 69 78
REMARK SMILES IDX 73 79 76 80 70 81 71 82 74 83 72 84 51 85 52 86 60 87 53 88
REMARK SMILES IDX 54 89 58 90 61 91 55 92 56 93 59 94 57 95
REMARK H PARENT 18 5 8 23 8 24 22 29 81 48 49 59
REMARK Flexibility Score: inf
ROOT
ATOM      1  C   UNL A   1      31.504  30.546  26.043  1.00  0.00     0.117 C 
ENDROOT
BRANCH   1   2
ATOM      2  N   UNL A   1      31.010  30.440  24.683  1.00  0.00    -0.356 N 
ATOM      3  C   UNL A   1      30.895  29.398  23.815  1.00  0.00     0.225 C 
ATOM      4  O   UNL A   1      30.703  29.729  22.640  1.00  0.00    -0.275 OA
ATOM      5  H   UNL A   1      30.695  31.296  24.312  1.00  0.00     0.163 HD
BRANCH   3   6
ATOM      6  C   UNL A   1      30.820  27.925  24.254  1.00  0.00     0.102 C 
ATOM      7  N   UNL A   1      31.936  26.044  23.220  1.00  0.00    -0.321 N 
ATOM      8  C   UNL A   1      30.887  26.484  22.329  1.00  0.00     0.122 C 
ATOM      9  C   UNL A   1      32.068  26.997  24.324  1.00  0.00     0.096 C 
ATOM     10  C   UNL A   1      29.902  27.144  23.276  1.00  0.00     0.037 C 
ATOM     11  C   UNL A   1      33.431  27.653  24.275  1.00  0.00     0.032 C 
BRANCH   7  12
ATOM     12  C   UNL A   1      32.986  25.306  22.716  1.00  0.00     0.320 C 
ATOM     13  O   UNL A   1      33.648  25.768  21.786  1.00  0.00    -0.248 OA
BRANCH  12  14
ATOM     14  N   UNL A   1      33.291  24.096  23.320  1.00  0.00    -0.315 N 
BRANCH  14  15
ATOM     15  C   UNL A   1      34.545  23.995  24.077  1.00  0.00     0.125 C 
BRANCH  15  16
ATOM     16  C   UNL A   1      35.337  22.685  23.866  1.00  0.00     0.002 C 
ATOM     17  C   UNL A   1      36.660  22.900  23.126  1.00  0.00     0.009 C 
ATOM     18  C   UNL A   1      35.639  22.046  25.226  1.00  0.00     0.009 C 
ENDBRANCH  15  16
ENDBRANCH  14  15
BRANCH  14  19
ATOM     19  C   UNL A   1      32.454  22.888  23.278  1.00  0.00     0.221 C 
BRANCH  19  20
ATOM     20  C   UNL A   1      31.704  22.592  24.595  1.00  0.00     0.237 C 
ATOM     21  N   UNL A   1      30.661  23.426  24.892  1.00  0.00    -0.368 N 
ATOM     22  O   UNL A   1      31.968  21.668  25.358  1.00  0.00    -0.273 OA
ATOM     23  H   UNL A   1      30.439  24.172  24.289  1.00  0.00     0.159 HD
ATOM     24  H   UNL A   1      30.132  23.279  25.710  1.00  0.00     0.159 HD
ENDBRANCH  19  20
ENDBRANCH  14  19
ENDBRANCH  12  14
ENDBRANCH   7  12
ENDBRANCH   3   6
ENDBRANCH   1   2
BRANCH   1  25
ATOM     25  C   UNL A   1      31.397  31.999  26.526  1.00  0.00     0.042 C 
BRANCH  25  26
ATOM     26  C   UNL A   1      32.654  32.554  27.174  1.00  0.00     0.118 C 
BRANCH  26  27
ATOM     27  N   UNL A   1      32.507  33.961  27.489  1.00  0.00    -0.352 N 
ATOM     28  C   UNL A   1      33.045  34.703  28.514  1.00  0.00     0.251 C 
ATOM     29  H   UNL A   1      31.930  34.467  26.871  1.00  0.00     0.163 HD
ATOM     30  O   UNL A   1      32.566  35.808  28.754  1.00  0.00    -0.269 OA
BRANCH  28  31
ATOM     31  C   UNL A   1      34.189  34.213  29.330  1.00  0.00     0.039 A 
ATOM     32  C   UNL A   1      35.490  34.444  28.866  1.00  0.00     0.014 A 
ATOM     33  C   UNL A   1      34.007  33.444  30.483  1.00  0.00     0.014 A 
ATOM     34  C   UNL A   1      36.592  33.923  29.556  1.00  0.00     0.010 A 
ATOM     35  C   UNL A   1      35.107  33.005  31.221  1.00  0.00     0.010 A 
ATOM     36  C   UNL A   1      36.412  33.207  30.747  1.00  0.00    -0.014 A 
BRANCH  36  37
ATOM     37  C   UNL A   1      37.555  32.579  31.465  1.00  0.00     0.031 A 
ATOM     38  C   UNL A   1      38.301  31.438  30.822  1.00  0.00     0.074 A 
ATOM     39  C   UNL A   1      37.895  32.990  32.702  1.00  0.00     0.049 A 
ATOM     40  N   UNL A   1      39.241  30.671  31.317  1.00  0.00    -0.248 NA
ATOM     41  C   UNL A   1      37.917  31.091  29.443  1.00  0.00     0.031 C 
ATOM     42  C   UNL A   1      37.239  34.063  33.448  1.00  0.00     0.029 A 
ATOM     43  N   UNL A   1      38.873  32.540  33.556  1.00  0.00    -0.354 N 
ATOM     44  C   UNL A   1      39.533  29.740  30.327  1.00  0.00     0.074 A 
ATOM     45  C   UNL A   1      38.641  30.004  29.221  1.00  0.00     0.031 C 
ATOM     46  C   UNL A   1      37.842  34.201  34.641  1.00  0.00     0.029 A 
ATOM     47  C   UNL A   1      38.902  33.202  34.759  1.00  0.00     0.049 A 
ATOM     48  H   UNL A   1      39.494  31.812  33.327  1.00  0.00     0.167 HD
ATOM     49  C   UNL A   1      40.477  28.768  30.328  1.00  0.00     0.037 A 
ATOM     50  C   UNL A   1      39.687  33.016  35.838  1.00  0.00     0.037 A 
ATOM     51  C   UNL A   1      41.399  28.537  31.407  1.00  0.00     0.049 A 
ATOM     52  C   UNL A   1      40.738  31.939  35.807  1.00  0.00     0.074 A 
ATOM     53  C   UNL A   1      42.419  27.604  31.488  1.00  0.00     0.029 A 
ATOM     54  N   UNL A   1      41.420  29.259  32.591  1.00  0.00    -0.354 N 
ATOM     55  N   UNL A   1      41.026  31.089  34.850  1.00  0.00    -0.248 NA
ATOM     56  C   UNL A   1      41.580  31.799  37.004  1.00  0.00     0.031 C 
ATOM     57  C   UNL A   1      43.042  27.745  32.732  1.00  0.00     0.029 A 
ATOM     58  C   UNL A   1      42.435  28.791  33.409  1.00  0.00     0.049 A 
ATOM     59  H   UNL A   1      40.806  29.994  32.816  1.00  0.00     0.167 HD
ATOM     60  C   UNL A   1      42.098  30.339  35.316  1.00  0.00     0.074 A 
ATOM     61  C   UNL A   1      42.419  30.841  36.635  1.00  0.00     0.031 C 
ATOM     62  C   UNL A   1      42.757  29.324  34.706  1.00  0.00     0.037 A 
BRANCH  49  63
ATOM     63  C   UNL A   1      40.573  27.889  29.114  1.00  0.00     0.064 A 
ATOM     64  C   UNL A   1      39.762  26.753  28.967  1.00  0.00     0.173 A 
ATOM     65  C   UNL A   1      41.450  28.209  28.067  1.00  0.00     0.173 A 
ATOM     66  F   UNL A   1      38.916  26.397  29.945  1.00  0.00    -0.203 F 
ATOM     67  C   UNL A   1      39.844  25.957  27.828  1.00  0.00     0.198 A 
ATOM     68  C   UNL A   1      41.507  27.427  26.916  1.00  0.00     0.198 A 
ATOM     69  F   UNL A   1      42.242  29.288  28.153  1.00  0.00    -0.203 F 
ATOM     70  F   UNL A   1      39.091  24.852  27.730  1.00  0.00    -0.200 F 
ATOM     71  C   UNL A   1      40.710  26.298  26.800  1.00  0.00     0.200 A 
ATOM     72  F   UNL A   1      42.336  27.765  25.918  1.00  0.00    -0.200 F 
ATOM     73  F   UNL A   1      40.780  25.536  25.700  1.00  0.00    -0.200 F 
ENDBRANCH  49  63
BRANCH  50  74
ATOM     74  C   UNL A   1      39.531  33.883  37.035  1.00  0.00     0.064 A 
ATOM     75  C   UNL A   1      38.763  33.463  38.131  1.00  0.00     0.173 A 
ATOM     76  C   UNL A   1      40.120  35.154  37.101  1.00  0.00     0.173 A 
ATOM     77  F   UNL A   1      38.159  32.265  38.105  1.00  0.00    -0.203 F 
ATOM     78  C   UNL A   1      38.570  34.290  39.236  1.00  0.00     0.198 A 
ATOM     79  C   UNL A   1      39.950  35.969  38.219  1.00  0.00     0.198 A 
ATOM     80  F   UNL A   1      40.865  35.603  36.080  1.00  0.00    -0.203 F 
ATOM     81  F   UNL A   1      37.788  33.884  40.245  1.00  0.00    -0.200 F 
ATOM     82  C   UNL A   1      39.167  35.541  39.281  1.00  0.00     0.200 A 
ATOM     83  F   UNL A   1      40.536  37.173  38.263  1.00  0.00    -0.200 F 
ATOM     84  F   UNL A   1      38.978  36.337  40.341  1.00  0.00    -0.200 F 
ENDBRANCH  50  74
BRANCH  62  85
ATOM     85  C   UNL A   1      43.923  28.725  35.434  1.00  0.00     0.064 A 
ATOM     86  C   UNL A   1      45.227  29.210  35.263  1.00  0.00     0.173 A 
ATOM     87  C   UNL A   1      43.722  27.683  36.353  1.00  0.00     0.173 A 
ATOM     88  F   UNL A   1      45.469  30.196  34.386  1.00  0.00    -0.203 F 
ATOM     89  C   UNL A   1      46.292  28.657  35.967  1.00  0.00     0.198 A 
ATOM     90  C   UNL A   1      44.786  27.151  37.074  1.00  0.00     0.198 A 
ATOM     91  F   UNL A   1      42.492  27.190  36.558  1.00  0.00    -0.203 F 
ATOM     92  F   UNL A   1      47.537  29.107  35.757  1.00  0.00    -0.200 F 
ATOM     93  C   UNL A   1      46.070  27.633  36.877  1.00  0.00     0.200 A 
ATOM     94  F   UNL A   1      44.568  26.170  37.962  1.00  0.00    -0.200 F 
ATOM     95  F   UNL A   1      47.098  27.108  37.560  1.00  0.00    -0.200 F 
ENDBRANCH  62  85
ENDBRANCH  36  37
ENDBRANCH  28  31
ENDBRANCH  26  27
ENDBRANCH  25  26
ENDBRANCH   1  25
TORSDOF 16
ENDMDL
MODEL 3
REMARK VINA RESULT:     -11.3      1.198      1.970
REMARK SMILES CC(C)CN(CC(N)=O)C(=O)N1CC[C@H](C(=O)NCCCNC(=O)c2ccc(-c3c4nc(c(-c5c(F)c(F)c(F)c(F)c5F)c5ccc([nH]5)c(-c5c(F)c(F)c(F)c(F)c5F)c5nc(c(-c6c(F)c(F)c(F)c(F)c6F)c6ccc3[nH]6)C=C5)C=C4)cc2)[C@@H]1C
REMARK SMILES IDX 19 1 18 2 16 3 17 4 15 6 12 7 13 8 88 9 14 10 89 11 10 12
REMARK SMILES IDX 11 13 5 14 4 15 2 16 1 17 3 18 6 19 7 20 8 21 9 22 20 25
REMARK SMILES IDX 21 26 22 27 23 28 24 30 25 31 26 32 87 33 27 34 86 35 28 36
REMARK SMILES IDX 29 37 30 38 80 39 31 40 85 41 79 42 81 43 32 44 84 45 78 46
REMARK SMILES IDX 77 47 33 49 65 50 45 51 64 52 46 53 49 54 63 55 82 56 47 57
REMARK SMILES IDX 48 58 62 60 83 61 50 62 34 63 35 64 43 65 36 66 37 67 41 68
REMARK SMILES IDX 44 69 38 70 39 71 42 72 40 73 66 74 67 75 75 76 68 77 69 78
REMARK SMILES IDX 73 79 76 80 70 81 71 82 74 83 72 84 51 85 52 86 60 87 53 88
REMARK SMILES IDX 54 89 58 90 61 91 55 92 56 93 59 94 57 95
REMARK H PARENT 18 5 8 23 8 24 22 29 81 48 49 59
REMARK Flexibility Score: inf
ROOT
ATOM      1  C   UNL A   1      36.718  20.672  24.767  1.00  0.00     0.117 C 
ENDROOT
BRANCH   1   2
ATOM      2  N   UNL A   1      35.462  20.027  25.103  1.00  0.00    -0.356 N 
ATOM      3  C   UNL A   1      34.180  20.477  25.185  1.00  0.00     0.225 C 
ATOM      4  O   UNL A   1      33.408  19.719  25.782  1.00  0.00    -0.275 OA
ATOM      5  H   UNL A   1      35.556  19.070  25.315  1.00  0.00     0.163 HD
BRANCH   3   6
ATOM      6  C   UNL A   1      33.664  21.726  24.448  1.00  0.00     0.102 C 
ATOM      7  N   UNL A   1      32.202  23.436  25.339  1.00  0.00    -0.321 N 
ATOM      8  C   UNL A   1      31.421  22.233  25.151  1.00  0.00     0.122 C 
ATOM      9  C   UNL A   1      33.617  23.137  25.104  1.00  0.00     0.096 C 
ATOM     10  C   UNL A   1      32.178  21.513  24.053  1.00  0.00     0.037 C 
ATOM     11  C   UNL A   1      34.401  23.341  26.382  1.00  0.00     0.032 C 
BRANCH   7  12
ATOM     12  C   UNL A   1      31.758  24.400  26.218  1.00  0.00     0.320 C 
ATOM     13  O   UNL A   1      31.489  24.075  27.374  1.00  0.00    -0.248 OA
BRANCH  12  14
ATOM     14  N   UNL A   1      31.690  25.713  25.777  1.00  0.00    -0.315 N 
BRANCH  14  15
ATOM     15  C   UNL A   1      30.702  26.046  24.742  1.00  0.00     0.125 C 
BRANCH  15  16
ATOM     16  C   UNL A   1      31.293  26.559  23.410  1.00  0.00     0.002 C 
ATOM     17  C   UNL A   1      31.579  25.433  22.412  1.00  0.00     0.009 C 
ATOM     18  C   UNL A   1      30.313  27.544  22.763  1.00  0.00     0.009 C 
ENDBRANCH  15  16
ENDBRANCH  14  15
BRANCH  14  19
ATOM     19  C   UNL A   1      32.524  26.820  26.266  1.00  0.00     0.221 C 
BRANCH  19  20
ATOM     20  C   UNL A   1      31.730  27.958  26.943  1.00  0.00     0.237 C 
ATOM     21  N   UNL A   1      31.689  29.147  26.265  1.00  0.00    -0.368 N 
ATOM     22  O   UNL A   1      31.136  27.859  28.012  1.00  0.00    -0.273 OA
ATOM     23  H   UNL A   1      32.162  29.241  25.407  1.00  0.00     0.159 HD
ATOM     24  H   UNL A   1      31.185  29.907  26.636  1.00  0.00     0.159 HD
ENDBRANCH  19  20
ENDBRANCH  14  19
ENDBRANCH  12  14
ENDBRANCH   7  12
ENDBRANCH   3   6
ENDBRANCH   1   2
BRANCH   1  25
ATOM     25  C   UNL A   1      37.880  19.691  24.975  1.00  0.00     0.042 C 
BRANCH  25  26
ATOM     26  C   UNL A   1      39.072  20.258  25.727  1.00  0.00     0.118 C 
BRANCH  26  27
ATOM     27  N   UNL A   1      40.116  19.266  25.885  1.00  0.00    -0.352 N 
ATOM     28  C   UNL A   1      41.469  19.424  26.083  1.00  0.00     0.251 C 
ATOM     29  H   UNL A   1      39.811  18.331  25.843  1.00  0.00     0.163 HD
ATOM     30  O   UNL A   1      42.205  18.456  25.907  1.00  0.00    -0.269 OA
BRANCH  28  31
ATOM     31  C   UNL A   1      42.061  20.721  26.508  1.00  0.00     0.039 A 
ATOM     32  C   UNL A   1      42.106  21.019  27.876  1.00  0.00     0.014 A 
ATOM     33  C   UNL A   1      42.474  21.689  25.590  1.00  0.00     0.014 A 
ATOM     34  C   UNL A   1      42.573  22.264  28.316  1.00  0.00     0.010 A 
ATOM     35  C   UNL A   1      43.027  22.893  26.031  1.00  0.00     0.010 A 
ATOM     36  C   UNL A   1      43.048  23.210  27.397  1.00  0.00    -0.014 A 
BRANCH  36  37
ATOM     37  C   UNL A   1      43.483  24.568  27.824  1.00  0.00     0.031 A 
ATOM     38  C   UNL A   1      42.446  25.609  28.164  1.00  0.00     0.074 A 
ATOM     39  C   UNL A   1      44.790  24.888  27.861  1.00  0.00     0.049 A 
ATOM     40  N   UNL A   1      42.598  26.881  28.438  1.00  0.00    -0.248 NA
ATOM     41  C   UNL A   1      41.041  25.166  28.167  1.00  0.00     0.031 C 
ATOM     42  C   UNL A   1      45.893  23.987  27.531  1.00  0.00     0.029 A 
ATOM     43  N   UNL A   1      45.413  26.070  28.182  1.00  0.00    -0.354 N 
ATOM     44  C   UNL A   1      41.317  27.389  28.613  1.00  0.00     0.074 A 
ATOM     45  C   UNL A   1      40.394  26.303  28.368  1.00  0.00     0.031 C 
ATOM     46  C   UNL A   1      47.057  24.641  27.682  1.00  0.00     0.029 A 
ATOM     47  C   UNL A   1      46.782  26.018  28.083  1.00  0.00     0.049 A 
ATOM     48  H   UNL A   1      44.924  26.879  28.458  1.00  0.00     0.167 HD
ATOM     49  C   UNL A   1      40.941  28.641  28.970  1.00  0.00     0.037 A 
ATOM     50  C   UNL A   1      47.707  26.976  28.283  1.00  0.00     0.037 A 
ATOM     51  C   UNL A   1      41.859  29.708  29.263  1.00  0.00     0.049 A 
ATOM     52  C   UNL A   1      47.265  28.355  28.694  1.00  0.00     0.074 A 
ATOM     53  C   UNL A   1      41.581  31.001  29.673  1.00  0.00     0.029 A 
ATOM     54  N   UNL A   1      43.240  29.599  29.190  1.00  0.00    -0.354 N 
ATOM     55  N   UNL A   1      46.050  28.811  28.889  1.00  0.00    -0.248 NA
ATOM     56  C   UNL A   1      48.321  29.351  28.921  1.00  0.00     0.031 C 
ATOM     57  C   UNL A   1      42.792  31.682  29.825  1.00  0.00     0.029 A 
ATOM     58  C   UNL A   1      43.827  30.802  29.547  1.00  0.00     0.049 A 
ATOM     59  H   UNL A   1      43.730  28.788  28.925  1.00  0.00     0.167 HD
ATOM     60  C   UNL A   1      46.199  30.132  29.291  1.00  0.00     0.074 A 
ATOM     61  C   UNL A   1      47.621  30.402  29.324  1.00  0.00     0.031 C 
ATOM     62  C   UNL A   1      45.244  31.042  29.602  1.00  0.00     0.037 A 
BRANCH  49  63
ATOM     63  C   UNL A   1      39.471  28.922  29.081  1.00  0.00     0.064 A 
ATOM     64  C   UNL A   1      38.780  28.744  30.290  1.00  0.00     0.173 A 
ATOM     65  C   UNL A   1      38.753  29.419  27.983  1.00  0.00     0.173 A 
ATOM     66  F   UNL A   1      39.417  28.259  31.366  1.00  0.00    -0.203 F 
ATOM     67  C   UNL A   1      37.420  29.029  30.386  1.00  0.00     0.198 A 
ATOM     68  C   UNL A   1      37.401  29.731  28.092  1.00  0.00     0.198 A 
ATOM     69  F   UNL A   1      39.367  29.615  26.806  1.00  0.00    -0.203 F 
ATOM     70  F   UNL A   1      36.772  28.808  31.538  1.00  0.00    -0.200 F 
ATOM     71  C   UNL A   1      36.733  29.529  29.290  1.00  0.00     0.200 A 
ATOM     72  F   UNL A   1      36.741  30.226  27.035  1.00  0.00    -0.200 F 
ATOM     73  F   UNL A   1      35.428  29.812  29.389  1.00  0.00    -0.200 F 
ENDBRANCH  49  63
BRANCH  50  74
ATOM     74  C   UNL A   1      49.153  26.665  28.122  1.00  0.00     0.064 A 
ATOM     75  C   UNL A   1      49.929  26.276  29.222  1.00  0.00     0.173 A 
ATOM     76  C   UNL A   1      49.791  26.772  26.879  1.00  0.00     0.173 A 
ATOM     77  F   UNL A   1      49.369  26.183  30.438  1.00  0.00    -0.203 F 
ATOM     78  C   UNL A   1      51.295  26.031  29.090  1.00  0.00     0.198 A 
ATOM     79  C   UNL A   1      51.151  26.500  26.742  1.00  0.00     0.198 A 
ATOM     80  F   UNL A   1      49.093  27.140  25.794  1.00  0.00    -0.203 F 
ATOM     81  F   UNL A   1      52.024  25.714  30.169  1.00  0.00    -0.200 F 
ATOM     82  C   UNL A   1      51.904  26.139  27.850  1.00  0.00     0.200 A 
ATOM     83  F   UNL A   1      51.735  26.597  25.540  1.00  0.00    -0.200 F 
ATOM     84  F   UNL A   1      53.218  25.908  27.724  1.00  0.00    -0.200 F 
ENDBRANCH  50  74
BRANCH  62  85
ATOM     85  C   UNL A   1      45.704  32.394  30.057  1.00  0.00     0.064 A 
ATOM     86  C   UNL A   1      45.976  32.664  31.406  1.00  0.00     0.173 A 
ATOM     87  C   UNL A   1      45.921  33.418  29.122  1.00  0.00     0.173 A 
ATOM     88  F   UNL A   1      45.771  31.722  32.337  1.00  0.00    -0.203 F 
ATOM     89  C   UNL A   1      46.426  33.919  31.805  1.00  0.00     0.198 A 
ATOM     90  C   UNL A   1      46.396  34.663  29.522  1.00  0.00     0.198 A 
ATOM     91  F   UNL A   1      45.682  33.205  27.819  1.00  0.00    -0.203 F 
ATOM     92  F   UNL A   1      46.640  34.170  33.104  1.00  0.00    -0.200 F 
ATOM     93  C   UNL A   1      46.643  34.915  30.862  1.00  0.00     0.200 A 
ATOM     94  F   UNL A   1      46.617  35.620  28.609  1.00  0.00    -0.200 F 
ATOM     95  F   UNL A   1      47.084  36.120  31.249  1.00  0.00    -0.200 F 
ENDBRANCH  62  85
ENDBRANCH  36  37
ENDBRANCH  28  31
ENDBRANCH  26  27
ENDBRANCH  25  26
ENDBRANCH   1  25
TORSDOF 16
ENDMDL
