MODEL 1
REMARK VINA RESULT:     -10.7      0.000      0.000
REMARK SMILES CC(C)[C@H](C(=O)NCCCNC(=O)c1ccc(-c2c3nc(c(-c4c(F)c(F)c(F)c(F)c4F)c4ccc([nH]4)c(-c4c(F)c(F)c(F)c(F)c4F)c4nc(c(-c5c(F)c(F)c(F)c(F)c5F)c5ccc2[nH]5)C=C4)C=C3)cc1)[C@H](C)[C@@H](C)O
REMARK SMILES IDX 8 1 7 2 5 3 6 4 4 6 2 7 1 8 3 9 77 10 78 11 79 12 80 13
REMARK SMILES IDX 81 14 9 16 10 17 11 18 12 19 13 21 14 22 15 23 76 24 16 25
REMARK SMILES IDX 75 26 17 27 18 28 19 29 69 30 20 31 74 32 68 33 70 34 21 35
REMARK SMILES IDX 73 36 67 37 66 38 22 40 54 41 34 42 53 43 35 44 38 45 52 46
REMARK SMILES IDX 71 47 36 48 37 49 51 51 72 52 39 53 23 54 24 55 32 56 25 57
REMARK SMILES IDX 26 58 30 59 33 60 27 61 28 62 31 63 29 64 55 65 56 66 64 67
REMARK SMILES IDX 57 68 58 69 62 70 65 71 59 72 60 73 63 74 61 75 40 76 41 77
REMARK SMILES IDX 49 78 42 79 43 80 47 81 50 82 44 83 45 84 48 85 46 86
REMARK H PARENT 7 5 81 15 11 20 70 39 38 50
REMARK Flexibility Score: inf
ROOT
ATOM      1  C   UNL A   1      31.403  30.371  26.005  1.00  0.00     0.117 C 
ENDROOT
BRANCH   1   2
ATOM      2  N   UNL A   1      32.235  30.079  24.849  1.00  0.00    -0.356 N 
ATOM      3  C   UNL A   1      32.632  28.973  24.183  1.00  0.00     0.223 C 
ATOM      4  O   UNL A   1      33.641  29.173  23.480  1.00  0.00    -0.275 OA
ATOM      5  H   UNL A   1      32.604  30.898  24.447  1.00  0.00     0.163 HD
BRANCH   3   6
ATOM      6  C   UNL A   1      31.990  27.560  24.145  1.00  0.00     0.086 C 
BRANCH   6   7
ATOM      7  C   UNL A   1      32.529  26.453  25.095  1.00  0.00    -0.005 C 
ATOM      8  C   UNL A   1      33.553  25.518  24.440  1.00  0.00     0.008 C 
ATOM      9  C   UNL A   1      32.912  26.971  26.490  1.00  0.00     0.008 C 
ENDBRANCH   6   7
BRANCH   6  10
ATOM     10  C   UNL A   1      30.395  27.616  24.124  1.00  0.00     0.027 C 
ATOM     11  C   UNL A   1      29.787  26.258  24.543  1.00  0.00     0.011 C 
BRANCH  10  12
ATOM     12  C   UNL A   1      29.780  28.040  22.751  1.00  0.00     0.115 C 
ATOM     13  C   UNL A   1      29.400  29.517  22.641  1.00  0.00     0.038 C 
BRANCH  12  14
ATOM     14  O   UNL A   1      30.732  27.824  21.708  1.00  0.00    -0.393 OA
ATOM     15  H   UNL A   1      30.777  28.611  21.144  1.00  0.00     0.210 HD
ENDBRANCH  12  14
ENDBRANCH  10  12
ENDBRANCH   6  10
ENDBRANCH   3   6
ENDBRANCH   1   2
BRANCH   1  16
ATOM     16  C   UNL A   1      31.375  31.869  26.314  1.00  0.00     0.042 C 
BRANCH  16  17
ATOM     17  C   UNL A   1      32.611  32.358  27.057  1.00  0.00     0.118 C 
BRANCH  17  18
ATOM     18  N   UNL A   1      32.497  33.759  27.438  1.00  0.00    -0.352 N 
ATOM     19  C   UNL A   1      33.098  34.464  28.450  1.00  0.00     0.251 C 
ATOM     20  H   UNL A   1      31.886  34.289  26.877  1.00  0.00     0.163 HD
ATOM     21  O   UNL A   1      32.656  35.575  28.751  1.00  0.00    -0.269 OA
BRANCH  19  22
ATOM     22  C   UNL A   1      34.261  33.923  29.193  1.00  0.00     0.039 A 
ATOM     23  C   UNL A   1      35.547  34.349  28.840  1.00  0.00     0.014 A 
ATOM     24  C   UNL A   1      34.109  32.941  30.172  1.00  0.00     0.014 A 
ATOM     25  C   UNL A   1      36.666  33.827  29.499  1.00  0.00     0.010 A 
ATOM     26  C   UNL A   1      35.214  32.487  30.889  1.00  0.00     0.010 A 
ATOM     27  C   UNL A   1      36.508  32.909  30.548  1.00  0.00    -0.014 A 
BRANCH  27  28
ATOM     28  C   UNL A   1      37.674  32.339  31.273  1.00  0.00     0.031 A 
ATOM     29  C   UNL A   1      38.451  31.202  30.664  1.00  0.00     0.074 A 
ATOM     30  C   UNL A   1      37.987  32.786  32.504  1.00  0.00     0.049 A 
ATOM     31  N   UNL A   1      39.411  30.478  31.185  1.00  0.00    -0.248 NA
ATOM     32  C   UNL A   1      38.074  30.798  29.299  1.00  0.00     0.031 C 
ATOM     33  C   UNL A   1      37.283  33.849  33.224  1.00  0.00     0.029 A 
ATOM     34  N   UNL A   1      38.967  32.386  33.379  1.00  0.00    -0.354 N 
ATOM     35  C   UNL A   1      39.720  29.517  30.231  1.00  0.00     0.074 A 
ATOM     36  C   UNL A   1      38.824  29.723  29.115  1.00  0.00     0.031 C 
ATOM     37  C   UNL A   1      37.861  34.025  34.424  1.00  0.00     0.029 A 
ATOM     38  C   UNL A   1      38.952  33.066  34.573  1.00  0.00     0.049 A 
ATOM     39  H   UNL A   1      39.620  31.680  33.170  1.00  0.00     0.167 HD
ATOM     40  C   UNL A   1      40.680  28.562  30.273  1.00  0.00     0.037 A 
ATOM     41  C   UNL A   1      39.722  32.922  35.668  1.00  0.00     0.037 A 
ATOM     42  C   UNL A   1      41.612  28.400  31.357  1.00  0.00     0.049 A 
ATOM     43  C   UNL A   1      40.811  31.884  35.669  1.00  0.00     0.074 A 
ATOM     44  C   UNL A   1      42.673  27.518  31.459  1.00  0.00     0.029 A 
ATOM     45  N   UNL A   1      41.598  29.147  32.525  1.00  0.00    -0.354 N 
ATOM     46  N   UNL A   1      41.132  31.022  34.736  1.00  0.00    -0.248 NA
ATOM     47  C   UNL A   1      41.650  31.804  36.874  1.00  0.00     0.031 C 
ATOM     48  C   UNL A   1      43.285  27.711  32.701  1.00  0.00     0.029 A 
ATOM     49  C   UNL A   1      42.627  28.738  33.358  1.00  0.00     0.049 A 
ATOM     50  H   UNL A   1      40.953  29.861  32.732  1.00  0.00     0.167 HD
ATOM     51  C   UNL A   1      42.221  30.316  35.228  1.00  0.00     0.074 A 
ATOM     52  C   UNL A   1      42.517  30.861  36.536  1.00  0.00     0.031 C 
ATOM     53  C   UNL A   1      42.913  29.304  34.650  1.00  0.00     0.037 A 
BRANCH  40  54
ATOM     54  C   UNL A   1      40.785  27.623  29.108  1.00  0.00     0.064 A 
ATOM     55  C   UNL A   1      39.899  26.547  28.947  1.00  0.00     0.173 A 
ATOM     56  C   UNL A   1      41.750  27.832  28.111  1.00  0.00     0.173 A 
ATOM     57  F   UNL A   1      38.965  26.298  29.877  1.00  0.00    -0.203 F 
ATOM     58  C   UNL A   1      39.991  25.702  27.844  1.00  0.00     0.198 A 
ATOM     59  C   UNL A   1      41.822  27.001  26.996  1.00  0.00     0.198 A 
ATOM     60  F   UNL A   1      42.618  28.850  28.214  1.00  0.00    -0.203 F 
ATOM     61  F   UNL A   1      39.161  24.656  27.733  1.00  0.00    -0.200 F 
ATOM     62  C   UNL A   1      40.946  25.933  26.866  1.00  0.00     0.200 A 
ATOM     63  F   UNL A   1      42.738  27.234  26.045  1.00  0.00    -0.200 F 
ATOM     64  F   UNL A   1      41.026  25.126  25.800  1.00  0.00    -0.200 F 
ENDBRANCH  40  54
BRANCH  41  65
ATOM     65  C   UNL A   1      39.506  33.798  36.849  1.00  0.00     0.064 A 
ATOM     66  C   UNL A   1      40.094  35.068  36.918  1.00  0.00     0.173 A 
ATOM     67  C   UNL A   1      38.721  33.382  37.934  1.00  0.00     0.173 A 
ATOM     68  F   UNL A   1      40.871  35.502  35.914  1.00  0.00    -0.203 F 
ATOM     69  C   UNL A   1      39.924  35.881  38.037  1.00  0.00     0.198 A 
ATOM     70  C   UNL A   1      38.529  34.207  39.041  1.00  0.00     0.198 A 
ATOM     71  F   UNL A   1      38.132  32.177  37.914  1.00  0.00    -0.203 F 
ATOM     72  F   UNL A   1      40.535  37.071  38.097  1.00  0.00    -0.200 F 
ATOM     73  C   UNL A   1      39.138  35.452  39.095  1.00  0.00     0.200 A 
ATOM     74  F   UNL A   1      37.758  33.793  40.056  1.00  0.00    -0.200 F 
ATOM     75  F   UNL A   1      38.973  36.234  40.171  1.00  0.00    -0.200 F 
ENDBRANCH  41  65
BRANCH  53  76
ATOM     76  C   UNL A   1      44.077  28.744  35.412  1.00  0.00     0.064 A 
ATOM     77  C   UNL A   1      43.923  27.671  36.299  1.00  0.00     0.173 A 
ATOM     78  C   UNL A   1      45.366  29.260  35.215  1.00  0.00     0.173 A 
ATOM     79  F   UNL A   1      42.706  27.154  36.530  1.00  0.00    -0.203 F 
ATOM     80  C   UNL A   1      45.018  27.145  36.979  1.00  0.00     0.198 A 
ATOM     81  C   UNL A   1      46.462  28.716  35.878  1.00  0.00     0.198 A 
ATOM     82  F   UNL A   1      45.565  30.284  34.371  1.00  0.00    -0.203 F 
ATOM     83  F   UNL A   1      44.843  26.144  37.853  1.00  0.00    -0.200 F 
ATOM     84  C   UNL A   1      46.287  27.663  36.763  1.00  0.00     0.200 A 
ATOM     85  F   UNL A   1      47.689  29.209  35.659  1.00  0.00    -0.200 F 
ATOM     86  F   UNL A   1      47.340  27.150  37.414  1.00  0.00    -0.200 F 
ENDBRANCH  53  76
ENDBRANCH  27  28
ENDBRANCH  19  22
ENDBRANCH  17  18
ENDBRANCH  16  17
ENDBRANCH   1  16
TORSDOF 14
ENDMDL
MODEL 2
REMARK VINA RESULT:     -10.7      6.177     11.177
REMARK SMILES CC(C)[C@H](C(=O)NCCCNC(=O)c1ccc(-c2c3nc(c(-c4c(F)c(F)c(F)c(F)c4F)c4ccc([nH]4)c(-c4c(F)c(F)c(F)c(F)c4F)c4nc(c(-c5c(F)c(F)c(F)c(F)c5F)c5ccc2[nH]5)C=C4)C=C3)cc1)[C@H](C)[C@@H](C)O
REMARK SMILES IDX 8 1 7 2 5 3 6 4 4 6 2 7 1 8 3 9 77 10 78 11 79 12 80 13
REMARK SMILES IDX 81 14 9 16 10 17 11 18 12 19 13 21 14 22 15 23 76 24 16 25
REMARK SMILES IDX 75 26 17 27 18 28 19 29 69 30 20 31 74 32 68 33 70 34 21 35
REMARK SMILES IDX 73 36 67 37 66 38 22 40 54 41 34 42 53 43 35 44 38 45 52 46
REMARK SMILES IDX 71 47 36 48 37 49 51 51 72 52 39 53 23 54 24 55 32 56 25 57
REMARK SMILES IDX 26 58 30 59 33 60 27 61 28 62 31 63 29 64 55 65 56 66 64 67
REMARK SMILES IDX 57 68 58 69 62 70 65 71 59 72 60 73 63 74 61 75 40 76 41 77
REMARK SMILES IDX 49 78 42 79 43 80 47 81 50 82 44 83 45 84 48 85 46 86
REMARK H PARENT 7 5 81 15 11 20 70 39 38 50
REMARK Flexibility Score: inf
ROOT
ATOM      1  C   UNL A   1      36.590  20.529  24.686  1.00  0.00     0.117 C 
ENDROOT
BRANCH   1   2
ATOM      2  N   UNL A   1      35.689  20.713  25.813  1.00  0.00    -0.356 N 
ATOM      3  C   UNL A   1      34.370  20.947  25.984  1.00  0.00     0.223 C 
ATOM      4  O   UNL A   1      34.107  21.402  27.113  1.00  0.00    -0.275 OA
ATOM      5  H   UNL A   1      36.163  20.651  26.674  1.00  0.00     0.163 HD
BRANCH   3   6
ATOM      6  C   UNL A   1      33.187  20.684  25.013  1.00  0.00     0.086 C 
BRANCH   6   7
ATOM      7  C   UNL A   1      32.787  21.782  23.986  1.00  0.00    -0.005 C 
ATOM      8  C   UNL A   1      31.574  22.618  24.413  1.00  0.00     0.008 C 
ATOM      9  C   UNL A   1      33.980  22.585  23.447  1.00  0.00     0.008 C 
ENDBRANCH   6   7
BRANCH   6  10
ATOM     10  C   UNL A   1      33.252  19.232  24.352  1.00  0.00     0.027 C 
ATOM     11  C   UNL A   1      32.452  19.189  23.031  1.00  0.00     0.011 C 
BRANCH  10  12
ATOM     12  C   UNL A   1      32.754  18.077  25.281  1.00  0.00     0.115 C 
ATOM     13  C   UNL A   1      33.690  16.870  25.369  1.00  0.00     0.038 C 
BRANCH  12  14
ATOM     14  O   UNL A   1      32.635  18.552  26.622  1.00  0.00    -0.393 OA
ATOM     15  H   UNL A   1      31.777  18.282  26.985  1.00  0.00     0.210 HD
ENDBRANCH  12  14
ENDBRANCH  10  12
ENDBRANCH   6  10
ENDBRANCH   3   6
ENDBRANCH   1   2
BRANCH   1  16
ATOM     16  C   UNL A   1      37.695  19.522  25.008  1.00  0.00     0.042 C 
BRANCH  16  17
ATOM     17  C   UNL A   1      38.873  20.133  25.756  1.00  0.00     0.118 C 
BRANCH  17  18
ATOM     18  N   UNL A   1      39.984  19.199  25.876  1.00  0.00    -0.352 N 
ATOM     19  C   UNL A   1      41.324  19.421  26.072  1.00  0.00     0.251 C 
ATOM     20  H   UNL A   1      39.732  18.250  25.804  1.00  0.00     0.163 HD
ATOM     21  O   UNL A   1      42.118  18.498  25.880  1.00  0.00    -0.269 OA
BRANCH  19  22
ATOM     22  C   UNL A   1      41.841  20.741  26.503  1.00  0.00     0.039 A 
ATOM     23  C   UNL A   1      41.968  21.004  27.873  1.00  0.00     0.014 A 
ATOM     24  C   UNL A   1      42.120  21.752  25.583  1.00  0.00     0.014 A 
ATOM     25  C   UNL A   1      42.417  22.254  28.310  1.00  0.00     0.010 A 
ATOM     26  C   UNL A   1      42.652  22.966  26.013  1.00  0.00     0.010 A 
ATOM     27  C   UNL A   1      42.788  23.240  27.382  1.00  0.00    -0.014 A 
BRANCH  27  28
ATOM     28  C   UNL A   1      43.274  24.577  27.812  1.00  0.00     0.031 A 
ATOM     29  C   UNL A   1      42.285  25.652  28.177  1.00  0.00     0.074 A 
ATOM     30  C   UNL A   1      44.593  24.850  27.800  1.00  0.00     0.049 A 
ATOM     31  N   UNL A   1      42.494  26.917  28.448  1.00  0.00    -0.248 NA
ATOM     32  C   UNL A   1      40.866  25.263  28.206  1.00  0.00     0.031 C 
ATOM     33  C   UNL A   1      45.650  23.911  27.421  1.00  0.00     0.029 A 
ATOM     34  N   UNL A   1      45.270  26.009  28.097  1.00  0.00    -0.354 N 
ATOM     35  C   UNL A   1      41.237  27.476  28.639  1.00  0.00     0.074 A 
ATOM     36  C   UNL A   1      40.267  26.425  28.417  1.00  0.00     0.031 C 
ATOM     37  C   UNL A   1      46.840  24.526  27.519  1.00  0.00     0.029 A 
ATOM     38  C   UNL A   1      46.630  25.910  27.933  1.00  0.00     0.049 A 
ATOM     39  H   UNL A   1      44.822  26.832  28.399  1.00  0.00     0.167 HD
ATOM     40  C   UNL A   1      40.920  28.746  28.988  1.00  0.00     0.037 A 
ATOM     41  C   UNL A   1      47.597  26.835  28.087  1.00  0.00     0.037 A 
ATOM     42  C   UNL A   1      41.887  29.771  29.270  1.00  0.00     0.049 A 
ATOM     43  C   UNL A   1      47.219  28.226  28.521  1.00  0.00     0.074 A 
ATOM     44  C   UNL A   1      41.671  31.065  29.712  1.00  0.00     0.029 A 
ATOM     45  N   UNL A   1      43.260  29.614  29.146  1.00  0.00    -0.354 N 
ATOM     46  N   UNL A   1      46.031  28.725  28.756  1.00  0.00    -0.248 NA
ATOM     47  C   UNL A   1      48.320  29.180  28.718  1.00  0.00     0.031 C 
ATOM     48  C   UNL A   1      42.911  31.701  29.829  1.00  0.00     0.029 A 
ATOM     49  C   UNL A   1      43.902  30.791  29.494  1.00  0.00     0.049 A 
ATOM     50  H   UNL A   1      43.710  28.790  28.856  1.00  0.00     0.167 HD
ATOM     51  C   UNL A   1      46.240  30.039  29.151  1.00  0.00     0.074 A 
ATOM     52  C   UNL A   1      47.671  30.256  29.139  1.00  0.00     0.031 C 
ATOM     53  C   UNL A   1      45.328  30.983  29.490  1.00  0.00     0.037 A 
BRANCH  40  54
ATOM     54  C   UNL A   1      39.466  29.098  29.100  1.00  0.00     0.064 A 
ATOM     55  C   UNL A   1      38.719  29.508  27.986  1.00  0.00     0.173 A 
ATOM     56  C   UNL A   1      38.798  28.976  30.329  1.00  0.00     0.173 A 
ATOM     57  F   UNL A   1      39.313  29.650  26.792  1.00  0.00    -0.203 F 
ATOM     58  C   UNL A   1      37.363  29.803  28.101  1.00  0.00     0.198 A 
ATOM     59  C   UNL A   1      37.436  29.246  30.434  1.00  0.00     0.198 A 
ATOM     60  F   UNL A   1      39.465  28.583  31.425  1.00  0.00    -0.203 F 
ATOM     61  F   UNL A   1      36.680  30.232  27.031  1.00  0.00    -0.200 F 
ATOM     62  C   UNL A   1      36.721  29.665  29.322  1.00  0.00     0.200 A 
ATOM     63  F   UNL A   1      36.814  29.101  31.613  1.00  0.00    -0.200 F 
ATOM     64  F   UNL A   1      35.414  29.940  29.429  1.00  0.00    -0.200 F 
ENDBRANCH  40  54
BRANCH  41  65
ATOM     65  C   UNL A   1      49.018  26.473  27.850  1.00  0.00     0.064 A 
ATOM     66  C   UNL A   1      49.861  26.137  28.918  1.00  0.00     0.173 A 
ATOM     67  C   UNL A   1      49.565  26.465  26.559  1.00  0.00     0.173 A 
ATOM     68  F   UNL A   1      49.389  26.151  30.173  1.00  0.00    -0.203 F 
ATOM     69  C   UNL A   1      51.203  25.829  28.707  1.00  0.00     0.198 A 
ATOM     70  C   UNL A   1      50.901  26.130  26.346  1.00  0.00     0.198 A 
ATOM     71  F   UNL A   1      48.799  26.774  25.503  1.00  0.00    -0.203 F 
ATOM     72  F   UNL A   1      51.998  25.557  29.751  1.00  0.00    -0.200 F 
ATOM     73  C   UNL A   1      51.721  25.821  27.421  1.00  0.00     0.200 A 
ATOM     74  F   UNL A   1      51.394  26.111  25.100  1.00  0.00    -0.200 F 
ATOM     75  F   UNL A   1      53.012  25.523  27.218  1.00  0.00    -0.200 F 
ENDBRANCH  41  65
BRANCH  53  76
ATOM     76  C   UNL A   1      45.852  32.324  29.909  1.00  0.00     0.064 A 
ATOM     77  C   UNL A   1      46.021  33.365  28.986  1.00  0.00     0.173 A 
ATOM     78  C   UNL A   1      46.143  32.582  31.256  1.00  0.00     0.173 A 
ATOM     79  F   UNL A   1      45.768  33.160  27.684  1.00  0.00    -0.203 F 
ATOM     80  C   UNL A   1      46.482  34.612  29.394  1.00  0.00     0.198 A 
ATOM     81  C   UNL A   1      46.581  33.838  31.665  1.00  0.00     0.198 A 
ATOM     82  F   UNL A   1      45.992  31.619  32.178  1.00  0.00    -0.203 F 
ATOM     83  F   UNL A   1      46.674  35.582  28.489  1.00  0.00    -0.200 F 
ATOM     84  C   UNL A   1      46.756  34.850  30.733  1.00  0.00     0.200 A 
ATOM     85  F   UNL A   1      46.833  34.069  32.960  1.00  0.00    -0.200 F 
ATOM     86  F   UNL A   1      47.193  36.054  31.125  1.00  0.00    -0.200 F 
ENDBRANCH  53  76
ENDBRANCH  27  28
ENDBRANCH  19  22
ENDBRANCH  17  18
ENDBRANCH  16  17
ENDBRANCH   1  16
TORSDOF 14
ENDMDL
MODEL 3
REMARK VINA RESULT:     -10.6      6.103     11.007
REMARK SMILES CC(C)[C@H](C(=O)NCCCNC(=O)c1ccc(-c2c3nc(c(-c4c(F)c(F)c(F)c(F)c4F)c4ccc([nH]4)c(-c4c(F)c(F)c(F)c(F)c4F)c4nc(c(-c5c(F)c(F)c(F)c(F)c5F)c5ccc2[nH]5)C=C4)C=C3)cc1)[C@H](C)[C@@H](C)O
REMARK SMILES IDX 8 1 7 2 5 3 6 4 4 6 2 7 1 8 3 9 77 10 78 11 79 12 80 13
REMARK SMILES IDX 81 14 9 16 10 17 11 18 12 19 13 21 14 22 15 23 76 24 16 25
REMARK SMILES IDX 75 26 17 27 18 28 19 29 69 30 20 31 74 32 68 33 70 34 21 35
REMARK SMILES IDX 73 36 67 37 66 38 22 40 54 41 34 42 53 43 35 44 38 45 52 46
REMARK SMILES IDX 71 47 36 48 37 49 51 51 72 52 39 53 23 54 24 55 32 56 25 57
REMARK SMILES IDX 26 58 30 59 33 60 27 61 28 62 31 63 29 64 55 65 56 66 64 67
REMARK SMILES IDX 57 68 58 69 62 70 65 71 59 72 60 73 63 74 61 75 40 76 41 77
REMARK SMILES IDX 49 78 42 79 43 80 47 81 50 82 44 83 45 84 48 85 46 86
REMARK H PARENT 7 5 81 15 11 20 70 39 38 50
REMARK Flexibility Score: inf
ROOT
ATOM      1  C   UNL A   1      36.729  20.637  24.637  1.00  0.00     0.117 C 
ENDROOT
BRANCH   1   2
ATOM      2  N   UNL A   1      35.793  20.730  25.746  1.00  0.00    -0.356 N 
ATOM      3  C   UNL A   1      34.670  21.426  26.024  1.00  0.00     0.223 C 
ATOM      4  O   UNL A   1      34.416  21.460  27.242  1.00  0.00    -0.275 OA
ATOM      5  H   UNL A   1      36.043  20.132  26.487  1.00  0.00     0.163 HD
BRANCH   3   6
ATOM      6  C   UNL A   1      33.672  22.116  25.054  1.00  0.00     0.086 C 
BRANCH   6   7
ATOM      7  C   UNL A   1      33.965  23.561  24.561  1.00  0.00    -0.005 C 
ATOM      8  C   UNL A   1      33.849  24.627  25.658  1.00  0.00     0.008 C 
ATOM      9  C   UNL A   1      35.214  23.668  23.673  1.00  0.00     0.008 C 
ENDBRANCH   6   7
BRANCH   6  10
ATOM     10  C   UNL A   1      33.211  21.153  23.867  1.00  0.00     0.027 C 
ATOM     11  C   UNL A   1      32.286  21.896  22.878  1.00  0.00     0.011 C 
BRANCH  10  12
ATOM     12  C   UNL A   1      32.498  19.843  24.336  1.00  0.00     0.115 C 
ATOM     13  C   UNL A   1      33.362  18.582  24.283  1.00  0.00     0.038 C 
BRANCH  12  14
ATOM     14  O   UNL A   1      32.110  19.968  25.705  1.00  0.00    -0.393 OA
ATOM     15  H   UNL A   1      31.551  20.753  25.812  1.00  0.00     0.210 HD
ENDBRANCH  12  14
ENDBRANCH  10  12
ENDBRANCH   6  10
ENDBRANCH   3   6
ENDBRANCH   1   2
BRANCH   1  16
ATOM     16  C   UNL A   1      37.820  19.600  24.907  1.00  0.00     0.042 C 
BRANCH  16  17
ATOM     17  C   UNL A   1      38.897  20.089  25.867  1.00  0.00     0.118 C 
BRANCH  17  18
ATOM     18  N   UNL A   1      40.028  19.172  25.928  1.00  0.00    -0.352 N 
ATOM     19  C   UNL A   1      41.371  19.415  26.073  1.00  0.00     0.251 C 
ATOM     20  H   UNL A   1      39.788  18.221  25.853  1.00  0.00     0.163 HD
ATOM     21  O   UNL A   1      42.171  18.509  25.834  1.00  0.00    -0.269 OA
BRANCH  19  22
ATOM     22  C   UNL A   1      41.882  20.738  26.502  1.00  0.00     0.039 A 
ATOM     23  C   UNL A   1      42.021  20.998  27.871  1.00  0.00     0.014 A 
ATOM     24  C   UNL A   1      42.146  21.752  25.581  1.00  0.00     0.014 A 
ATOM     25  C   UNL A   1      42.466  22.250  28.307  1.00  0.00     0.010 A 
ATOM     26  C   UNL A   1      42.674  22.969  26.009  1.00  0.00     0.010 A 
ATOM     27  C   UNL A   1      42.821  23.241  27.378  1.00  0.00    -0.014 A 
BRANCH  27  28
ATOM     28  C   UNL A   1      43.303  24.580  27.806  1.00  0.00     0.031 A 
ATOM     29  C   UNL A   1      42.310  25.645  28.191  1.00  0.00     0.074 A 
ATOM     30  C   UNL A   1      44.619  24.864  27.775  1.00  0.00     0.049 A 
ATOM     31  N   UNL A   1      42.512  26.910  28.463  1.00  0.00    -0.248 NA
ATOM     32  C   UNL A   1      40.894  25.244  28.239  1.00  0.00     0.031 C 
ATOM     33  C   UNL A   1      45.678  23.936  27.376  1.00  0.00     0.029 A 
ATOM     34  N   UNL A   1      45.290  26.028  28.067  1.00  0.00    -0.354 N 
ATOM     35  C   UNL A   1      41.253  27.458  28.676  1.00  0.00     0.074 A 
ATOM     36  C   UNL A   1      40.289  26.400  28.464  1.00  0.00     0.031 C 
ATOM     37  C   UNL A   1      46.864  24.561  27.458  1.00  0.00     0.029 A 
ATOM     38  C   UNL A   1      46.648  25.941  27.882  1.00  0.00     0.049 A 
ATOM     39  H   UNL A   1      44.840  26.845  28.379  1.00  0.00     0.167 HD
ATOM     40  C   UNL A   1      40.931  28.724  29.035  1.00  0.00     0.037 A 
ATOM     41  C   UNL A   1      47.609  26.874  28.025  1.00  0.00     0.037 A 
ATOM     42  C   UNL A   1      41.894  29.756  29.307  1.00  0.00     0.049 A 
ATOM     43  C   UNL A   1      47.227  28.260  28.471  1.00  0.00     0.074 A 
ATOM     44  C   UNL A   1      41.674  31.046  29.759  1.00  0.00     0.029 A 
ATOM     45  N   UNL A   1      43.265  29.611  29.162  1.00  0.00    -0.354 N 
ATOM     46  N   UNL A   1      46.038  28.747  28.726  1.00  0.00    -0.248 NA
ATOM     47  C   UNL A   1      48.322  29.222  28.655  1.00  0.00     0.031 C 
ATOM     48  C   UNL A   1      42.910  31.692  29.859  1.00  0.00     0.029 A 
ATOM     49  C   UNL A   1      43.903  30.792  29.505  1.00  0.00     0.049 A 
ATOM     50  H   UNL A   1      43.719  28.792  28.861  1.00  0.00     0.167 HD
ATOM     51  C   UNL A   1      46.242  30.061  29.123  1.00  0.00     0.074 A 
ATOM     52  C   UNL A   1      47.670  30.291  29.091  1.00  0.00     0.031 C 
ATOM     53  C   UNL A   1      45.328  30.996  29.481  1.00  0.00     0.037 A 
BRANCH  40  54
ATOM     54  C   UNL A   1      39.476  29.063  29.171  1.00  0.00     0.064 A 
ATOM     55  C   UNL A   1      38.812  28.982  30.405  1.00  0.00     0.173 A 
ATOM     56  C   UNL A   1      38.747  29.527  28.064  1.00  0.00     0.173 A 
ATOM     57  F   UNL A   1      39.461  28.535  31.490  1.00  0.00    -0.203 F 
ATOM     58  C   UNL A   1      37.469  29.328  30.520  1.00  0.00     0.198 A 
ATOM     59  C   UNL A   1      37.412  29.898  28.190  1.00  0.00     0.198 A 
ATOM     60  F   UNL A   1      39.336  29.629  26.863  1.00  0.00    -0.203 F 
ATOM     61  F   UNL A   1      36.846  29.203  31.700  1.00  0.00    -0.200 F 
ATOM     62  C   UNL A   1      36.772  29.793  29.416  1.00  0.00     0.200 A 
ATOM     63  F   UNL A   1      36.742  30.359  27.123  1.00  0.00    -0.200 F 
ATOM     64  F   UNL A   1      35.482  30.137  29.531  1.00  0.00    -0.200 F 
ENDBRANCH  40  54
BRANCH  41  65
ATOM     65  C   UNL A   1      49.030  26.525  27.765  1.00  0.00     0.064 A 
ATOM     66  C   UNL A   1      49.904  26.238  28.822  1.00  0.00     0.173 A 
ATOM     67  C   UNL A   1      49.545  26.481  26.462  1.00  0.00     0.173 A 
ATOM     68  F   UNL A   1      49.462  26.287  30.088  1.00  0.00    -0.203 F 
ATOM     69  C   UNL A   1      51.245  25.943  28.588  1.00  0.00     0.198 A 
ATOM     70  C   UNL A   1      50.881  26.159  26.227  1.00  0.00     0.198 A 
ATOM     71  F   UNL A   1      48.749  26.743  25.415  1.00  0.00    -0.203 F 
ATOM     72  F   UNL A   1      52.069  25.719  29.620  1.00  0.00    -0.200 F 
ATOM     73  C   UNL A   1      51.731  25.899  27.291  1.00  0.00     0.200 A 
ATOM     74  F   UNL A   1      51.343  26.105  24.970  1.00  0.00    -0.200 F 
ATOM     75  F   UNL A   1      53.022  25.613  27.066  1.00  0.00    -0.200 F 
ENDBRANCH  41  65
BRANCH  53  76
ATOM     76  C   UNL A   1      45.846  32.340  29.897  1.00  0.00     0.064 A 
ATOM     77  C   UNL A   1      46.211  32.605  31.224  1.00  0.00     0.173 A 
ATOM     78  C   UNL A   1      46.020  33.357  28.948  1.00  0.00     0.173 A 
ATOM     79  F   UNL A   1      46.048  31.666  32.169  1.00  0.00    -0.203 F 
ATOM     80  C   UNL A   1      46.716  33.849  31.590  1.00  0.00     0.198 A 
ATOM     81  C   UNL A   1      46.547  34.592  29.312  1.00  0.00     0.198 A 
ATOM     82  F   UNL A   1      45.690  33.150  27.664  1.00  0.00    -0.203 F 
ATOM     83  F   UNL A   1      47.022  34.095  32.871  1.00  0.00    -0.200 F 
ATOM     84  C   UNL A   1      46.890  34.839  30.634  1.00  0.00     0.200 A 
ATOM     85  F   UNL A   1      46.726  35.543  28.386  1.00  0.00    -0.200 F 
ATOM     86  F   UNL A   1      47.382  36.034  30.987  1.00  0.00    -0.200 F 
ENDBRANCH  53  76
ENDBRANCH  27  28
ENDBRANCH  19  22
ENDBRANCH  17  18
ENDBRANCH  16  17
ENDBRANCH   1  16
TORSDOF 14
ENDMDL
