MODEL 1
REMARK VINA RESULT:     -12.4      0.000      0.000
REMARK SMILES Nc1c(N2CCCC2)ncnc1N1CCC(C(=O)NCCCNC(=O)c2ccc(-c3c4nc(c(-c5c(F)c(F)c(F)c(F)c5F)c5ccc([nH]5)c(-c5c(F)c(F)c(F)c(F)c5F)c5nc(c(-c6c(F)c(F)c(F)c(F)c6F)c6ccc3[nH]6)C=C5)C=C4)cc2)CC1
REMARK SMILES IDX 21 1 20 2 19 3 17 4 18 5 16 7 13 8 14 9 90 10 15 11 89 12
REMARK SMILES IDX 12 13 2 14 3 15 9 16 11 17 10 18 1 19 4 22 5 23 8 24 6 25
REMARK SMILES IDX 7 26 22 27 23 28 24 29 25 31 26 32 27 33 88 34 28 35 87 36
REMARK SMILES IDX 29 37 30 38 31 39 81 40 32 41 86 42 80 43 82 44 33 45 85 46
REMARK SMILES IDX 79 47 78 48 34 50 66 51 46 52 65 53 47 54 50 55 64 56 83 57
REMARK SMILES IDX 48 58 49 59 63 61 84 62 51 63 35 64 36 65 44 66 37 67 38 68
REMARK SMILES IDX 42 69 45 70 39 71 40 72 43 73 41 74 67 75 68 76 76 77 69 78
REMARK SMILES IDX 70 79 74 80 77 81 71 82 72 83 75 84 73 85 52 86 53 87 61 88
REMARK SMILES IDX 54 89 55 90 59 91 62 92 56 93 57 94 60 95 58 96
REMARK H PARENT 19 6 1 20 1 21 23 30 82 49 50 60
REMARK Flexibility Score: inf
ROOT
ATOM      1  C   UNL A   1      31.398  32.323  26.847  1.00  0.00     0.042 C 
ENDROOT
BRANCH   1   2
ATOM      2  C   UNL A   1      31.593  31.039  26.053  1.00  0.00     0.117 C 
BRANCH   2   3
ATOM      3  N   UNL A   1      32.592  30.166  26.656  1.00  0.00    -0.356 N 
ATOM      4  C   UNL A   1      32.733  28.813  26.622  1.00  0.00     0.223 C 
ATOM      5  O   UNL A   1      33.668  28.314  27.253  1.00  0.00    -0.275 OA
ATOM      6  H   UNL A   1      33.283  30.635  27.178  1.00  0.00     0.163 HD
BRANCH   4   7
ATOM      7  C   UNL A   1      31.786  27.935  25.821  1.00  0.00     0.082 C 
ATOM      8  N   UNL A   1      31.541  25.428  24.557  1.00  0.00    -0.355 N 
ATOM      9  C   UNL A   1      31.642  26.565  23.671  1.00  0.00     0.119 C 
ATOM     10  C   UNL A   1      30.799  25.576  25.795  1.00  0.00     0.119 C 
ATOM     11  C   UNL A   1      32.322  27.710  24.398  1.00  0.00     0.035 C 
ATOM     12  C   UNL A   1      31.421  26.681  26.632  1.00  0.00     0.035 C 
BRANCH   8  13
ATOM     13  C   UNL A   1      32.039  24.204  24.149  1.00  0.00     0.157 A 
ATOM     14  C   UNL A   1      33.337  23.800  24.491  1.00  0.00     0.118 A 
ATOM     15  C   UNL A   1      33.784  22.583  23.946  1.00  0.00     0.157 A 
ATOM     16  N   UNL A   1      33.018  21.842  23.130  1.00  0.00    -0.217 NA
ATOM     17  N   UNL A   1      31.233  23.428  23.401  1.00  0.00    -0.217 NA
ATOM     18  C   UNL A   1      31.776  22.298  22.919  1.00  0.00     0.226 A 
BRANCH  14  19
ATOM     19  N   UNL A   1      34.199  24.617  25.247  1.00  0.00    -0.393 N 
ATOM     20  H   UNL A   1      33.861  25.082  26.046  1.00  0.00     0.156 HD
ATOM     21  H   UNL A   1      35.140  24.724  24.976  1.00  0.00     0.156 HD
ENDBRANCH  14  19
BRANCH  15  22
ATOM     22  N   UNL A   1      35.048  22.138  24.255  1.00  0.00    -0.355 N 
ATOM     23  C   UNL A   1      35.294  20.923  25.001  1.00  0.00     0.118 C 
ATOM     24  C   UNL A   1      36.224  22.575  23.534  1.00  0.00     0.118 C 
ATOM     25  C   UNL A   1      36.721  21.173  25.468  1.00  0.00     0.023 C 
ATOM     26  C   UNL A   1      37.369  21.840  24.253  1.00  0.00     0.023 C 
ENDBRANCH  15  22
ENDBRANCH   8  13
ENDBRANCH   4   7
ENDBRANCH   2   3
ENDBRANCH   1   2
BRANCH   1  27
ATOM     27  C   UNL A   1      32.703  32.983  27.262  1.00  0.00     0.118 C 
BRANCH  27  28
ATOM     28  N   UNL A   1      32.521  34.368  27.676  1.00  0.00    -0.352 N 
ATOM     29  C   UNL A   1      33.097  35.060  28.709  1.00  0.00     0.251 C 
ATOM     30  H   UNL A   1      31.886  34.886  27.130  1.00  0.00     0.163 HD
ATOM     31  O   UNL A   1      32.660  36.166  29.027  1.00  0.00    -0.269 OA
BRANCH  29  32
ATOM     32  C   UNL A   1      34.229  34.479  29.457  1.00  0.00     0.039 A 
ATOM     33  C   UNL A   1      33.987  33.879  30.695  1.00  0.00     0.014 A 
ATOM     34  C   UNL A   1      35.529  34.537  28.948  1.00  0.00     0.014 A 
ATOM     35  C   UNL A   1      35.040  33.281  31.391  1.00  0.00     0.010 A 
ATOM     36  C   UNL A   1      36.558  33.862  29.596  1.00  0.00     0.010 A 
ATOM     37  C   UNL A   1      36.327  33.238  30.830  1.00  0.00    -0.014 A 
BRANCH  37  38
ATOM     38  C   UNL A   1      37.453  32.576  31.532  1.00  0.00     0.031 A 
ATOM     39  C   UNL A   1      38.149  31.407  30.891  1.00  0.00     0.074 A 
ATOM     40  C   UNL A   1      37.817  32.994  32.759  1.00  0.00     0.049 A 
ATOM     41  N   UNL A   1      39.103  30.648  31.368  1.00  0.00    -0.248 NA
ATOM     42  C   UNL A   1      37.698  31.023  29.543  1.00  0.00     0.031 C 
ATOM     43  C   UNL A   1      37.198  34.098  33.494  1.00  0.00     0.029 A 
ATOM     44  N   UNL A   1      38.794  32.538  33.608  1.00  0.00    -0.354 N 
ATOM     45  C   UNL A   1      39.361  29.705  30.384  1.00  0.00     0.074 A 
ATOM     46  C   UNL A   1      38.422  29.939  29.309  1.00  0.00     0.031 C 
ATOM     47  C   UNL A   1      37.829  34.253  34.669  1.00  0.00     0.029 A 
ATOM     48  C   UNL A   1      38.866  33.232  34.792  1.00  0.00     0.049 A 
ATOM     49  H   UNL A   1      39.387  31.783  33.391  1.00  0.00     0.167 HD
ATOM     50  C   UNL A   1      40.317  28.747  30.365  1.00  0.00     0.037 A 
ATOM     51  C   UNL A   1      39.674  33.061  35.856  1.00  0.00     0.037 A 
ATOM     52  C   UNL A   1      41.264  28.533  31.426  1.00  0.00     0.049 A 
ATOM     53  C   UNL A   1      40.700  31.959  35.824  1.00  0.00     0.074 A 
ATOM     54  C   UNL A   1      42.296  27.612  31.485  1.00  0.00     0.029 A 
ATOM     55  N   UNL A   1      41.298  29.250  32.612  1.00  0.00    -0.354 N 
ATOM     56  N   UNL A   1      40.968  31.105  34.868  1.00  0.00    -0.248 NA
ATOM     57  C   UNL A   1      41.540  31.801  37.021  1.00  0.00     0.031 C 
ATOM     58  C   UNL A   1      42.922  27.739  32.727  1.00  0.00     0.029 A 
ATOM     59  C   UNL A   1      42.319  28.776  33.420  1.00  0.00     0.049 A 
ATOM     60  H   UNL A   1      40.688  29.987  32.846  1.00  0.00     0.167 HD
ATOM     61  C   UNL A   1      42.020  30.326  35.333  1.00  0.00     0.074 A 
ATOM     62  C   UNL A   1      42.355  30.823  36.651  1.00  0.00     0.031 C 
ATOM     63  C   UNL A   1      42.647  29.290  34.725  1.00  0.00     0.037 A 
BRANCH  50  64
ATOM     64  C   UNL A   1      40.409  27.869  29.151  1.00  0.00     0.064 A 
ATOM     65  C   UNL A   1      39.656  26.690  29.044  1.00  0.00     0.173 A 
ATOM     66  C   UNL A   1      41.191  28.250  28.051  1.00  0.00     0.173 A 
ATOM     67  F   UNL A   1      38.902  26.275  30.073  1.00  0.00    -0.203 F 
ATOM     68  C   UNL A   1      39.693  25.919  27.886  1.00  0.00     0.198 A 
ATOM     69  C   UNL A   1      41.201  27.494  26.882  1.00  0.00     0.198 A 
ATOM     70  F   UNL A   1      41.927  29.372  28.099  1.00  0.00    -0.203 F 
ATOM     71  F   UNL A   1      38.990  24.780  27.819  1.00  0.00    -0.200 F 
ATOM     72  C   UNL A   1      40.454  26.327  26.801  1.00  0.00     0.200 A 
ATOM     73  F   UNL A   1      41.926  27.897  25.830  1.00  0.00    -0.200 F 
ATOM     74  F   UNL A   1      40.470  25.597  25.679  1.00  0.00    -0.200 F 
ENDBRANCH  50  64
BRANCH  51  75
ATOM     75  C   UNL A   1      39.561  33.967  37.030  1.00  0.00     0.064 A 
ATOM     76  C   UNL A   1      38.785  33.608  38.142  1.00  0.00     0.173 A 
ATOM     77  C   UNL A   1      40.220  35.204  37.069  1.00  0.00     0.173 A 
ATOM     78  F   UNL A   1      38.116  32.445  38.143  1.00  0.00    -0.203 F 
ATOM     79  C   UNL A   1      38.658  34.459  39.238  1.00  0.00     0.198 A 
ATOM     80  C   UNL A   1      40.119  36.040  38.179  1.00  0.00     0.198 A 
ATOM     81  F   UNL A   1      40.978  35.595  36.034  1.00  0.00    -0.203 F 
ATOM     82  F   UNL A   1      37.872  34.111  40.266  1.00  0.00    -0.200 F 
ATOM     83  C   UNL A   1      39.332  35.671  39.259  1.00  0.00     0.200 A 
ATOM     84  F   UNL A   1      40.784  37.203  38.202  1.00  0.00    -0.200 F 
ATOM     85  F   UNL A   1      39.216  36.486  40.316  1.00  0.00    -0.200 F 
ENDBRANCH  51  75
BRANCH  63  86
ATOM     86  C   UNL A   1      43.779  28.631  35.459  1.00  0.00     0.064 A 
ATOM     87  C   UNL A   1      45.105  29.056  35.295  1.00  0.00     0.173 A 
ATOM     88  C   UNL A   1      43.526  27.618  36.397  1.00  0.00     0.173 A 
ATOM     89  F   UNL A   1      45.402  30.014  34.402  1.00  0.00    -0.203 F 
ATOM     90  C   UNL A   1      46.137  28.480  36.030  1.00  0.00     0.198 A 
ATOM     91  C   UNL A   1      44.555  27.067  37.154  1.00  0.00     0.198 A 
ATOM     92  F   UNL A   1      42.272  27.182  36.600  1.00  0.00    -0.203 F 
ATOM     93  F   UNL A   1      47.402  28.877  35.829  1.00  0.00    -0.200 F 
ATOM     94  C   UNL A   1      45.860  27.496  36.967  1.00  0.00     0.200 A 
ATOM     95  F   UNL A   1      44.283  26.131  38.073  1.00  0.00    -0.200 F 
ATOM     96  F   UNL A   1      46.853  26.958  37.688  1.00  0.00    -0.200 F 
ENDBRANCH  63  86
ENDBRANCH  37  38
ENDBRANCH  29  32
ENDBRANCH  27  28
ENDBRANCH   1  27
TORSDOF 13
ENDMDL
MODEL 2
REMARK VINA RESULT:     -12.4      0.790      1.812
REMARK SMILES Nc1c(N2CCCC2)ncnc1N1CCC(C(=O)NCCCNC(=O)c2ccc(-c3c4nc(c(-c5c(F)c(F)c(F)c(F)c5F)c5ccc([nH]5)c(-c5c(F)c(F)c(F)c(F)c5F)c5nc(c(-c6c(F)c(F)c(F)c(F)c6F)c6ccc3[nH]6)C=C5)C=C4)cc2)CC1
REMARK SMILES IDX 21 1 20 2 19 3 17 4 18 5 16 7 13 8 14 9 90 10 15 11 89 12
REMARK SMILES IDX 12 13 2 14 3 15 9 16 11 17 10 18 1 19 4 22 5 23 8 24 6 25
REMARK SMILES IDX 7 26 22 27 23 28 24 29 25 31 26 32 27 33 88 34 28 35 87 36
REMARK SMILES IDX 29 37 30 38 31 39 81 40 32 41 86 42 80 43 82 44 33 45 85 46
REMARK SMILES IDX 79 47 78 48 34 50 66 51 46 52 65 53 47 54 50 55 64 56 83 57
REMARK SMILES IDX 48 58 49 59 63 61 84 62 51 63 35 64 36 65 44 66 37 67 38 68
REMARK SMILES IDX 42 69 45 70 39 71 40 72 43 73 41 74 67 75 68 76 76 77 69 78
REMARK SMILES IDX 70 79 74 80 77 81 71 82 72 83 75 84 73 85 52 86 53 87 61 88
REMARK SMILES IDX 54 89 55 90 59 91 62 92 56 93 57 94 60 95 58 96
REMARK H PARENT 19 6 1 20 1 21 23 30 82 49 50 60
REMARK Flexibility Score: inf
ROOT
ATOM      1  C   UNL A   1      31.478  32.616  26.532  1.00  0.00     0.042 C 
ENDROOT
BRANCH   1   2
ATOM      2  C   UNL A   1      31.376  31.098  26.495  1.00  0.00     0.117 C 
BRANCH   2   3
ATOM      3  N   UNL A   1      32.654  30.454  26.771  1.00  0.00    -0.356 N 
ATOM      4  C   UNL A   1      33.350  29.516  26.072  1.00  0.00     0.223 C 
ATOM      5  O   UNL A   1      34.412  29.111  26.550  1.00  0.00    -0.275 OA
ATOM      6  H   UNL A   1      33.087  30.746  27.605  1.00  0.00     0.163 HD
BRANCH   4   7
ATOM      7  C   UNL A   1      32.855  28.990  24.736  1.00  0.00     0.082 C 
ATOM      8  N   UNL A   1      32.852  26.733  23.047  1.00  0.00    -0.355 N 
ATOM      9  C   UNL A   1      33.657  27.846  22.598  1.00  0.00     0.119 C 
ATOM     10  C   UNL A   1      31.595  27.012  23.717  1.00  0.00     0.119 C 
ATOM     11  C   UNL A   1      34.033  28.708  23.790  1.00  0.00     0.035 C 
ATOM     12  C   UNL A   1      31.855  27.844  24.960  1.00  0.00     0.035 C 
BRANCH   8  13
ATOM     13  C   UNL A   1      33.232  25.445  22.717  1.00  0.00     0.157 A 
ATOM     14  C   UNL A   1      34.048  24.690  23.572  1.00  0.00     0.118 A 
ATOM     15  C   UNL A   1      34.459  23.430  23.103  1.00  0.00     0.157 A 
ATOM     16  N   UNL A   1      34.101  22.967  21.894  1.00  0.00    -0.217 NA
ATOM     17  N   UNL A   1      32.799  24.956  21.541  1.00  0.00    -0.217 NA
ATOM     18  C   UNL A   1      33.274  23.750  21.189  1.00  0.00     0.226 A 
BRANCH  14  19
ATOM     19  N   UNL A   1      34.532  25.204  24.790  1.00  0.00    -0.393 N 
ATOM     20  H   UNL A   1      34.003  25.868  25.289  1.00  0.00     0.156 HD
ATOM     21  H   UNL A   1      35.398  24.899  25.144  1.00  0.00     0.156 HD
ENDBRANCH  14  19
BRANCH  15  22
ATOM     22  N   UNL A   1      35.256  22.646  23.904  1.00  0.00    -0.355 N 
ATOM     23  C   UNL A   1      34.738  21.557  24.703  1.00  0.00     0.118 C 
ATOM     24  C   UNL A   1      36.687  22.544  23.716  1.00  0.00     0.118 C 
ATOM     25  C   UNL A   1      35.872  21.391  25.705  1.00  0.00     0.023 C 
ATOM     26  C   UNL A   1      37.122  21.598  24.848  1.00  0.00     0.023 C 
ENDBRANCH  15  22
ENDBRANCH   8  13
ENDBRANCH   4   7
ENDBRANCH   2   3
ENDBRANCH   1   2
BRANCH   1  27
ATOM     27  C   UNL A   1      32.651  33.125  27.355  1.00  0.00     0.118 C 
BRANCH  27  28
ATOM     28  N   UNL A   1      32.477  34.509  27.777  1.00  0.00    -0.352 N 
ATOM     29  C   UNL A   1      33.067  35.196  28.806  1.00  0.00     0.251 C 
ATOM     30  H   UNL A   1      31.837  35.030  27.240  1.00  0.00     0.163 HD
ATOM     31  O   UNL A   1      32.637  36.302  29.132  1.00  0.00    -0.269 OA
BRANCH  29  32
ATOM     32  C   UNL A   1      34.207  34.608  29.538  1.00  0.00     0.039 A 
ATOM     33  C   UNL A   1      33.965  33.925  30.732  1.00  0.00     0.014 A 
ATOM     34  C   UNL A   1      35.513  34.743  29.059  1.00  0.00     0.014 A 
ATOM     35  C   UNL A   1      35.027  33.322  31.410  1.00  0.00     0.010 A 
ATOM     36  C   UNL A   1      36.553  34.065  29.683  1.00  0.00     0.010 A 
ATOM     37  C   UNL A   1      36.324  33.358  30.872  1.00  0.00    -0.014 A 
BRANCH  37  38
ATOM     38  C   UNL A   1      37.460  32.693  31.553  1.00  0.00     0.031 A 
ATOM     39  C   UNL A   1      38.158  31.539  30.888  1.00  0.00     0.074 A 
ATOM     40  C   UNL A   1      37.833  33.094  32.784  1.00  0.00     0.049 A 
ATOM     41  N   UNL A   1      39.122  30.779  31.345  1.00  0.00    -0.248 NA
ATOM     42  C   UNL A   1      37.697  31.173  29.539  1.00  0.00     0.031 C 
ATOM     43  C   UNL A   1      37.213  34.183  33.541  1.00  0.00     0.029 A 
ATOM     44  N   UNL A   1      38.821  32.632  33.617  1.00  0.00    -0.354 N 
ATOM     45  C   UNL A   1      39.377  29.852  30.345  1.00  0.00     0.074 A 
ATOM     46  C   UNL A   1      38.427  30.097  29.282  1.00  0.00     0.031 C 
ATOM     47  C   UNL A   1      37.854  34.324  34.712  1.00  0.00     0.029 A 
ATOM     48  C   UNL A   1      38.899  33.309  34.810  1.00  0.00     0.049 A 
ATOM     49  H   UNL A   1      39.417  31.884  33.383  1.00  0.00     0.167 HD
ATOM     50  C   UNL A   1      40.339  28.902  30.302  1.00  0.00     0.037 A 
ATOM     51  C   UNL A   1      39.717  33.126  35.864  1.00  0.00     0.037 A 
ATOM     52  C   UNL A   1      41.297  28.678  31.351  1.00  0.00     0.049 A 
ATOM     53  C   UNL A   1      40.751  32.033  35.807  1.00  0.00     0.074 A 
ATOM     54  C   UNL A   1      42.336  27.763  31.387  1.00  0.00     0.029 A 
ATOM     55  N   UNL A   1      41.337  29.377  32.548  1.00  0.00    -0.354 N 
ATOM     56  N   UNL A   1      41.016  31.195  34.835  1.00  0.00    -0.248 NA
ATOM     57  C   UNL A   1      41.602  31.862  36.993  1.00  0.00     0.031 C 
ATOM     58  C   UNL A   1      42.972  27.875  32.625  1.00  0.00     0.029 A 
ATOM     59  C   UNL A   1      42.368  28.897  33.339  1.00  0.00     0.049 A 
ATOM     60  H   UNL A   1      40.725  30.106  32.798  1.00  0.00     0.167 HD
ATOM     61  C   UNL A   1      42.077  30.416  35.278  1.00  0.00     0.074 A 
ATOM     62  C   UNL A   1      42.421  30.895  36.601  1.00  0.00     0.031 C 
ATOM     63  C   UNL A   1      42.705  29.394  34.649  1.00  0.00     0.037 A 
BRANCH  50  64
ATOM     64  C   UNL A   1      40.426  28.043  29.074  1.00  0.00     0.064 A 
ATOM     65  C   UNL A   1      39.701  26.846  28.967  1.00  0.00     0.173 A 
ATOM     66  C   UNL A   1      41.173  28.459  27.962  1.00  0.00     0.173 A 
ATOM     67  F   UNL A   1      38.981  26.399  30.007  1.00  0.00    -0.203 F 
ATOM     68  C   UNL A   1      39.730  26.093  27.798  1.00  0.00     0.198 A 
ATOM     69  C   UNL A   1      41.176  27.719  26.783  1.00  0.00     0.198 A 
ATOM     70  F   UNL A   1      41.882  29.598  28.010  1.00  0.00    -0.203 F 
ATOM     71  F   UNL A   1      39.055  24.938  27.730  1.00  0.00    -0.200 F 
ATOM     72  C   UNL A   1      40.457  26.535  26.702  1.00  0.00     0.200 A 
ATOM     73  F   UNL A   1      41.866  28.155  25.721  1.00  0.00    -0.200 F 
ATOM     74  F   UNL A   1      40.465  25.821  25.569  1.00  0.00    -0.200 F 
ENDBRANCH  50  64
BRANCH  51  75
ATOM     75  C   UNL A   1      39.610  34.014  37.053  1.00  0.00     0.064 A 
ATOM     76  C   UNL A   1      40.275  35.249  37.089  1.00  0.00     0.173 A 
ATOM     77  C   UNL A   1      38.847  33.653  38.173  1.00  0.00     0.173 A 
ATOM     78  F   UNL A   1      41.035  35.629  36.052  1.00  0.00    -0.203 F 
ATOM     79  C   UNL A   1      40.195  36.078  38.205  1.00  0.00     0.198 A 
ATOM     80  C   UNL A   1      38.741  34.498  39.276  1.00  0.00     0.198 A 
ATOM     81  F   UNL A   1      38.189  32.485  38.190  1.00  0.00    -0.203 F 
ATOM     82  F   UNL A   1      40.878  37.231  38.231  1.00  0.00    -0.200 F 
ATOM     83  C   UNL A   1      39.421  35.706  39.295  1.00  0.00     0.200 A 
ATOM     84  F   UNL A   1      37.982  34.142  40.320  1.00  0.00    -0.200 F 
ATOM     85  F   UNL A   1      39.339  36.508  40.365  1.00  0.00    -0.200 F 
ENDBRANCH  51  75
BRANCH  63  86
ATOM     86  C   UNL A   1      43.848  28.731  35.363  1.00  0.00     0.064 A 
ATOM     87  C   UNL A   1      43.643  27.643  36.223  1.00  0.00     0.173 A 
ATOM     88  C   UNL A   1      45.169  29.139  35.123  1.00  0.00     0.173 A 
ATOM     89  F   UNL A   1      42.397  27.222  36.494  1.00  0.00    -0.203 F 
ATOM     90  C   UNL A   1      44.717  26.997  36.827  1.00  0.00     0.198 A 
ATOM     91  C   UNL A   1      46.243  28.470  35.703  1.00  0.00     0.198 A 
ATOM     92  F   UNL A   1      45.421  30.170  34.301  1.00  0.00    -0.203 F 
ATOM     93  F   UNL A   1      44.495  25.982  37.675  1.00  0.00    -0.200 F 
ATOM     94  C   UNL A   1      46.015  27.402  36.558  1.00  0.00     0.200 A 
ATOM     95  F   UNL A   1      47.498  28.851  35.426  1.00  0.00    -0.200 F 
ATOM     96  F   UNL A   1      47.049  26.765  37.125  1.00  0.00    -0.200 F 
ENDBRANCH  63  86
ENDBRANCH  37  38
ENDBRANCH  29  32
ENDBRANCH  27  28
ENDBRANCH   1  27
TORSDOF 13
ENDMDL
MODEL 3
REMARK VINA RESULT:     -12.3      5.594     11.326
REMARK SMILES Nc1c(N2CCCC2)ncnc1N1CCC(C(=O)NCCCNC(=O)c2ccc(-c3c4nc(c(-c5c(F)c(F)c(F)c(F)c5F)c5ccc([nH]5)c(-c5c(F)c(F)c(F)c(F)c5F)c5nc(c(-c6c(F)c(F)c(F)c(F)c6F)c6ccc3[nH]6)C=C5)C=C4)cc2)CC1
REMARK SMILES IDX 21 1 20 2 19 3 17 4 18 5 16 7 13 8 14 9 90 10 15 11 89 12
REMARK SMILES IDX 12 13 2 14 3 15 9 16 11 17 10 18 1 19 4 22 5 23 8 24 6 25
REMARK SMILES IDX 7 26 22 27 23 28 24 29 25 31 26 32 27 33 88 34 28 35 87 36
REMARK SMILES IDX 29 37 30 38 31 39 81 40 32 41 86 42 80 43 82 44 33 45 85 46
REMARK SMILES IDX 79 47 78 48 34 50 66 51 46 52 65 53 47 54 50 55 64 56 83 57
REMARK SMILES IDX 48 58 49 59 63 61 84 62 51 63 35 64 36 65 44 66 37 67 38 68
REMARK SMILES IDX 42 69 45 70 39 71 40 72 43 73 41 74 67 75 68 76 76 77 69 78
REMARK SMILES IDX 70 79 74 80 77 81 71 82 72 83 75 84 73 85 52 86 53 87 61 88
REMARK SMILES IDX 54 89 55 90 59 91 62 92 56 93 57 94 60 95 58 96
REMARK H PARENT 19 6 1 20 1 21 23 30 82 49 50 60
REMARK Flexibility Score: inf
ROOT
ATOM      1  C   UNL A   1      38.174  19.204  24.979  1.00  0.00     0.042 C 
ENDROOT
BRANCH   1   2
ATOM      2  C   UNL A   1      36.932  20.085  25.001  1.00  0.00     0.117 C 
BRANCH   2   3
ATOM      3  N   UNL A   1      37.261  21.500  24.883  1.00  0.00    -0.356 N 
ATOM      4  C   UNL A   1      36.525  22.552  24.429  1.00  0.00     0.223 C 
ATOM      5  O   UNL A   1      37.060  23.663  24.407  1.00  0.00    -0.275 OA
ATOM      6  H   UNL A   1      38.169  21.736  25.182  1.00  0.00     0.163 HD
BRANCH   4   7
ATOM      7  C   UNL A   1      35.085  22.380  23.977  1.00  0.00     0.082 C 
ATOM      8  N   UNL A   1      32.596  23.687  23.788  1.00  0.00    -0.355 N 
ATOM      9  C   UNL A   1      32.676  22.641  24.782  1.00  0.00     0.119 C 
ATOM     10  C   UNL A   1      33.302  23.508  22.533  1.00  0.00     0.119 C 
ATOM     11  C   UNL A   1      34.126  22.434  25.177  1.00  0.00     0.035 C 
ATOM     12  C   UNL A   1      34.785  23.329  22.805  1.00  0.00     0.035 C 
BRANCH   8  13
ATOM     13  C   UNL A   1      31.753  24.763  24.002  1.00  0.00     0.157 A 
ATOM     14  C   UNL A   1      32.202  25.911  24.672  1.00  0.00     0.118 A 
ATOM     15  C   UNL A   1      31.244  26.908  24.926  1.00  0.00     0.157 A 
ATOM     16  N   UNL A   1      29.959  26.774  24.561  1.00  0.00    -0.217 NA
ATOM     17  N   UNL A   1      30.488  24.655  23.557  1.00  0.00    -0.217 NA
ATOM     18  C   UNL A   1      29.658  25.660  23.878  1.00  0.00     0.226 A 
BRANCH  14  19
ATOM     19  N   UNL A   1      33.514  26.021  25.168  1.00  0.00    -0.393 N 
ATOM     20  H   UNL A   1      34.152  25.281  25.043  1.00  0.00     0.156 HD
ATOM     21  H   UNL A   1      33.795  26.838  25.641  1.00  0.00     0.156 HD
ENDBRANCH  14  19
BRANCH  15  22
ATOM     22  N   UNL A   1      31.632  28.057  25.574  1.00  0.00    -0.355 N 
ATOM     23  C   UNL A   1      31.743  29.337  24.908  1.00  0.00     0.118 C 
ATOM     24  C   UNL A   1      31.557  28.203  27.012  1.00  0.00     0.118 C 
ATOM     25  C   UNL A   1      32.640  30.078  25.889  1.00  0.00     0.023 C 
ATOM     26  C   UNL A   1      32.118  29.615  27.251  1.00  0.00     0.023 C 
ENDBRANCH  15  22
ENDBRANCH   8  13
ENDBRANCH   4   7
ENDBRANCH   2   3
ENDBRANCH   1   2
BRANCH   1  27
ATOM     27  C   UNL A   1      39.346  19.789  25.751  1.00  0.00     0.118 C 
BRANCH  27  28
ATOM     28  N   UNL A   1      40.425  18.828  25.937  1.00  0.00    -0.352 N 
ATOM     29  C   UNL A   1      41.767  19.037  26.126  1.00  0.00     0.251 C 
ATOM     30  H   UNL A   1      40.148  17.883  25.925  1.00  0.00     0.163 HD
ATOM     31  O   UNL A   1      42.552  18.092  26.058  1.00  0.00    -0.269 OA
BRANCH  29  32
ATOM     32  C   UNL A   1      42.279  20.396  26.395  1.00  0.00     0.039 A 
ATOM     33  C   UNL A   1      42.783  21.152  25.334  1.00  0.00     0.014 A 
ATOM     34  C   UNL A   1      42.277  20.919  27.691  1.00  0.00     0.014 A 
ATOM     35  C   UNL A   1      43.226  22.456  25.564  1.00  0.00     0.010 A 
ATOM     36  C   UNL A   1      42.630  22.247  27.902  1.00  0.00     0.010 A 
ATOM     37  C   UNL A   1      43.121  23.025  26.844  1.00  0.00    -0.014 A 
BRANCH  37  38
ATOM     38  C   UNL A   1      43.548  24.421  27.105  1.00  0.00     0.031 A 
ATOM     39  C   UNL A   1      42.557  25.418  27.640  1.00  0.00     0.074 A 
ATOM     40  C   UNL A   1      44.808  24.801  26.819  1.00  0.00     0.049 A 
ATOM     41  N   UNL A   1      42.711  26.698  27.866  1.00  0.00    -0.248 NA
ATOM     42  C   UNL A   1      41.205  24.916  27.938  1.00  0.00     0.031 C 
ATOM     43  C   UNL A   1      45.849  23.931  26.270  1.00  0.00     0.029 A 
ATOM     44  N   UNL A   1      45.427  26.019  26.946  1.00  0.00    -0.354 N 
ATOM     45  C   UNL A   1      41.483  27.149  28.329  1.00  0.00     0.074 A 
ATOM     46  C   UNL A   1      40.573  26.026  28.290  1.00  0.00     0.031 C 
ATOM     47  C   UNL A   1      46.985  24.635  26.138  1.00  0.00     0.029 A 
ATOM     48  C   UNL A   1      46.742  26.015  26.547  1.00  0.00     0.049 A 
ATOM     49  H   UNL A   1      44.972  26.822  27.290  1.00  0.00     0.167 HD
ATOM     50  C   UNL A   1      41.153  28.382  28.777  1.00  0.00     0.037 A 
ATOM     51  C   UNL A   1      47.646  27.013  26.511  1.00  0.00     0.037 A 
ATOM     52  C   UNL A   1      42.068  29.490  28.836  1.00  0.00     0.049 A 
ATOM     53  C   UNL A   1      47.237  28.386  26.976  1.00  0.00     0.074 A 
ATOM     54  C   UNL A   1      41.839  30.771  29.309  1.00  0.00     0.029 A 
ATOM     55  N   UNL A   1      43.387  29.449  28.413  1.00  0.00    -0.354 N 
ATOM     56  N   UNL A   1      46.087  28.789  27.458  1.00  0.00    -0.248 NA
ATOM     57  C   UNL A   1      48.255  29.444  26.893  1.00  0.00     0.031 C 
ATOM     58  C   UNL A   1      43.005  31.518  29.125  1.00  0.00     0.029 A 
ATOM     59  C   UNL A   1      43.978  30.689  28.591  1.00  0.00     0.049 A 
ATOM     60  H   UNL A   1      43.838  28.656  28.041  1.00  0.00     0.167 HD
ATOM     61  C   UNL A   1      46.249  30.135  27.760  1.00  0.00     0.074 A 
ATOM     62  C   UNL A   1      47.615  30.476  27.425  1.00  0.00     0.031 C 
ATOM     63  C   UNL A   1      45.344  31.009  28.264  1.00  0.00     0.037 A 
BRANCH  50  64
ATOM     64  C   UNL A   1      39.749  28.602  29.262  1.00  0.00     0.064 A 
ATOM     65  C   UNL A   1      39.396  28.372  30.601  1.00  0.00     0.173 A 
ATOM     66  C   UNL A   1      38.769  29.124  28.406  1.00  0.00     0.173 A 
ATOM     67  F   UNL A   1      40.293  27.862  31.458  1.00  0.00    -0.203 F 
ATOM     68  C   UNL A   1      38.111  28.647  31.060  1.00  0.00     0.198 A 
ATOM     69  C   UNL A   1      37.494  29.426  28.875  1.00  0.00     0.198 A 
ATOM     70  F   UNL A   1      39.056  29.365  27.117  1.00  0.00    -0.203 F 
ATOM     71  F   UNL A   1      37.788  28.390  32.335  1.00  0.00    -0.200 F 
ATOM     72  C   UNL A   1      37.165  29.184  30.201  1.00  0.00     0.200 A 
ATOM     73  F   UNL A   1      36.586  29.959  28.047  1.00  0.00    -0.200 F 
ATOM     74  F   UNL A   1      35.936  29.470  30.650  1.00  0.00    -0.200 F 
ENDBRANCH  50  64
BRANCH  51  75
ATOM     75  C   UNL A   1      49.031  26.746  26.041  1.00  0.00     0.064 A 
ATOM     76  C   UNL A   1      49.392  26.972  24.705  1.00  0.00     0.173 A 
ATOM     77  C   UNL A   1      50.022  26.262  26.909  1.00  0.00     0.173 A 
ATOM     78  F   UNL A   1      48.475  27.413  23.830  1.00  0.00    -0.203 F 
ATOM     79  C   UNL A   1      50.682  26.707  24.251  1.00  0.00     0.198 A 
ATOM     80  C   UNL A   1      51.320  26.028  26.462  1.00  0.00     0.198 A 
ATOM     81  F   UNL A   1      49.731  26.031  28.197  1.00  0.00    -0.203 F 
ATOM     82  F   UNL A   1      50.986  26.887  22.958  1.00  0.00    -0.200 F 
ATOM     83  C   UNL A   1      51.648  26.242  25.132  1.00  0.00     0.200 A 
ATOM     84  F   UNL A   1      52.253  25.594  27.319  1.00  0.00    -0.200 F 
ATOM     85  F   UNL A   1      52.890  25.994  24.697  1.00  0.00    -0.200 F 
ENDBRANCH  51  75
BRANCH  63  86
ATOM     86  C   UNL A   1      45.799  32.418  28.512  1.00  0.00     0.064 A 
ATOM     87  C   UNL A   1      46.420  32.787  29.715  1.00  0.00     0.173 A 
ATOM     88  C   UNL A   1      45.685  33.391  27.507  1.00  0.00     0.173 A 
ATOM     89  F   UNL A   1      46.543  31.896  30.712  1.00  0.00    -0.203 F 
ATOM     90  C   UNL A   1      46.895  34.080  29.907  1.00  0.00     0.198 A 
ATOM     91  C   UNL A   1      46.191  34.674  27.690  1.00  0.00     0.198 A 
ATOM     92  F   UNL A   1      45.108  33.087  26.334  1.00  0.00    -0.203 F 
ATOM     93  F   UNL A   1      47.452  34.420  31.078  1.00  0.00    -0.200 F 
ATOM     94  C   UNL A   1      46.792  35.019  28.891  1.00  0.00     0.200 A 
ATOM     95  F   UNL A   1      46.108  35.574  26.700  1.00  0.00    -0.200 F 
ATOM     96  F   UNL A   1      47.269  36.258  29.071  1.00  0.00    -0.200 F 
ENDBRANCH  63  86
ENDBRANCH  37  38
ENDBRANCH  29  32
ENDBRANCH  27  28
ENDBRANCH   1  27
TORSDOF 13
ENDMDL
