MODEL 1
REMARK VINA RESULT:     -10.3      0.000      0.000
REMARK SMILES COc1ccc(/C=C2/SC(=S)N(NC(=O)c3ccc(C(C)(C)C)cc3)C2=O)c(C(=O)NCCCNC(=O)c2ccc(-c3c4nc(c(-c5c(F)c(F)c(F)c(F)c5F)c5ccc([nH]5)c(-c5c(F)c(F)c(F)c(F)c5F)c5nc(c(-c6c(F)c(F)c(F)c(F)c6F)c6ccc3[nH]6)C=C5)C=C4)cc2)c1OC
REMARK SMILES IDX 32 1 31 2 29 3 30 4 28 6 3 7 4 8 101 9 5 10 6 11 2 12 1 13
REMARK SMILES IDX 102 14 103 15 7 16 8 17 9 18 26 19 10 20 12 21 27 22 11 23
REMARK SMILES IDX 13 24 14 25 15 27 16 28 17 29 25 30 18 31 24 32 19 33 20 34
REMARK SMILES IDX 21 35 22 36 23 37 33 38 34 39 35 40 36 41 37 43 38 44 39 45
REMARK SMILES IDX 100 46 40 47 99 48 41 49 42 50 43 51 93 52 44 53 98 54 92 55
REMARK SMILES IDX 94 56 45 57 97 58 91 59 90 60 46 62 78 63 58 64 77 65 59 66
REMARK SMILES IDX 62 67 76 68 95 69 60 70 61 71 75 73 96 74 63 75 47 76 48 77
REMARK SMILES IDX 56 78 49 79 50 80 54 81 57 82 51 83 52 84 55 85 53 86 79 87
REMARK SMILES IDX 80 88 88 89 81 90 82 91 86 92 89 93 83 94 84 95 87 96 85 97
REMARK SMILES IDX 64 98 65 99 73 100 66 101 67 102 71 103 74 104 68 105 69 106
REMARK SMILES IDX 72 107 70 108
REMARK H PARENT 31 5 13 26 35 42 94 61 62 72
REMARK Flexibility Score: inf
ROOT
ATOM      1  C   UNL A   1      43.941  24.273  25.570  1.00  0.00     0.118 C 
ENDROOT
BRANCH   1   2
ATOM      2  N   UNL A   1      43.737  24.711  26.924  1.00  0.00    -0.352 N 
ATOM      3  C   UNL A   1      42.634  24.511  27.733  1.00  0.00     0.255 C 
ATOM      4  O   UNL A   1      42.740  24.781  28.931  1.00  0.00    -0.269 OA
ATOM      5  H   UNL A   1      44.478  25.218  27.328  1.00  0.00     0.163 HD
BRANCH   3   6
ATOM      6  C   UNL A   1      41.293  24.130  27.182  1.00  0.00     0.092 A 
ATOM      7  C   UNL A   1      39.552  22.526  26.512  1.00  0.00     0.161 A 
ATOM      8  C   UNL A   1      38.756  23.622  26.139  1.00  0.00     0.051 A 
ATOM      9  C   UNL A   1      40.838  22.767  27.048  1.00  0.00     0.174 A 
ATOM     10  C   UNL A   1      39.170  24.933  26.314  1.00  0.00     0.013 A 
ATOM     11  C   UNL A   1      40.431  25.212  26.848  1.00  0.00    -0.007 A 
BRANCH   7  12
ATOM     12  O   UNL A   1      38.828  21.401  26.260  1.00  0.00    -0.493 OA
ATOM     13  C   UNL A   1      37.749  21.311  25.363  1.00  0.00     0.278 C 
ENDBRANCH   7  12
BRANCH   9  14
ATOM     14  O   UNL A   1      41.633  21.793  27.610  1.00  0.00    -0.492 OA
ATOM     15  C   UNL A   1      42.334  20.920  26.726  1.00  0.00     0.278 C 
ENDBRANCH   9  14
BRANCH  11  16
ATOM     16  C   UNL A   1      40.620  26.654  27.121  1.00  0.00     0.030 C 
ATOM     17  C   UNL A   1      40.314  27.387  28.200  1.00  0.00     0.082 C 
ATOM     18  S   UNL A   1      40.884  29.018  28.370  1.00  0.00    -0.052 SA
ATOM     19  C   UNL A   1      39.573  26.981  29.428  1.00  0.00     0.285 C 
ATOM     20  C   UNL A   1      40.377  29.125  30.046  1.00  0.00     0.168 C 
ATOM     21  N   UNL A   1      39.778  27.937  30.420  1.00  0.00    -0.198 N 
ATOM     22  O   UNL A   1      38.874  25.991  29.508  1.00  0.00    -0.266 OA
ATOM     23  S   UNL A   1      40.584  30.495  30.978  1.00  0.00    -0.050 S 
BRANCH  21  24
ATOM     24  N   UNL A   1      39.180  27.830  31.691  1.00  0.00    -0.255 N 
ATOM     25  C   UNL A   1      38.028  28.425  32.161  1.00  0.00     0.270 C 
ATOM     26  H   UNL A   1      39.650  27.251  32.333  1.00  0.00     0.192 HD
ATOM     27  O   UNL A   1      37.726  28.280  33.346  1.00  0.00    -0.267 OA
BRANCH  25  28
ATOM     28  C   UNL A   1      37.177  29.293  31.315  1.00  0.00     0.041 A 
ATOM     29  C   UNL A   1      36.665  30.451  31.906  1.00  0.00     0.014 A 
ATOM     30  C   UNL A   1      36.931  29.045  29.967  1.00  0.00     0.014 A 
ATOM     31  C   UNL A   1      36.035  31.421  31.122  1.00  0.00     0.005 A 
ATOM     32  C   UNL A   1      36.305  30.025  29.183  1.00  0.00     0.005 A 
ATOM     33  C   UNL A   1      35.895  31.256  29.732  1.00  0.00    -0.043 A 
BRANCH  33  34
ATOM     34  C   UNL A   1      35.417  32.439  28.869  1.00  0.00    -0.013 C 
ATOM     35  C   UNL A   1      36.593  33.296  28.374  1.00  0.00     0.016 C 
ATOM     36  C   UNL A   1      34.694  31.870  27.636  1.00  0.00     0.016 C 
ATOM     37  C   UNL A   1      34.416  33.370  29.586  1.00  0.00     0.016 C 
ENDBRANCH  33  34
ENDBRANCH  25  28
ENDBRANCH  21  24
ENDBRANCH  11  16
ENDBRANCH   3   6
ENDBRANCH   1   2
BRANCH   1  38
ATOM     38  C   UNL A   1      45.253  23.600  25.216  1.00  0.00     0.042 C 
BRANCH  38  39
ATOM     39  C   UNL A   1      46.506  24.319  25.683  1.00  0.00     0.118 C 
BRANCH  39  40
ATOM     40  N   UNL A   1      47.046  25.258  24.704  1.00  0.00    -0.352 N 
ATOM     41  C   UNL A   1      47.005  26.627  24.597  1.00  0.00     0.251 C 
ATOM     42  H   UNL A   1      47.539  24.822  23.972  1.00  0.00     0.163 HD
ATOM     43  O   UNL A   1      47.425  27.152  23.566  1.00  0.00    -0.269 OA
BRANCH  41  44
ATOM     44  C   UNL A   1      46.432  27.489  25.659  1.00  0.00     0.039 A 
ATOM     45  C   UNL A   1      45.051  27.723  25.660  1.00  0.00     0.014 A 
ATOM     46  C   UNL A   1      47.223  28.101  26.630  1.00  0.00     0.014 A 
ATOM     47  C   UNL A   1      44.464  28.475  26.682  1.00  0.00     0.010 A 
ATOM     48  C   UNL A   1      46.629  28.756  27.707  1.00  0.00     0.010 A 
ATOM     49  C   UNL A   1      45.241  28.944  27.752  1.00  0.00    -0.014 A 
BRANCH  49  50
ATOM     50  C   UNL A   1      44.625  29.605  28.934  1.00  0.00     0.031 A 
ATOM     51  C   UNL A   1      44.361  31.087  28.931  1.00  0.00     0.074 A 
ATOM     52  C   UNL A   1      44.381  28.882  30.044  1.00  0.00     0.049 A 
ATOM     53  N   UNL A   1      43.929  31.853  29.902  1.00  0.00    -0.248 NA
ATOM     54  C   UNL A   1      44.646  31.809  27.682  1.00  0.00     0.031 C 
ATOM     55  C   UNL A   1      44.632  27.447  30.190  1.00  0.00     0.029 A 
ATOM     56  N   UNL A   1      43.881  29.254  31.268  1.00  0.00    -0.354 N 
ATOM     57  C   UNL A   1      43.907  33.142  29.385  1.00  0.00     0.074 A 
ATOM     58  C   UNL A   1      44.419  33.065  28.034  1.00  0.00     0.031 C 
ATOM     59  C   UNL A   1      44.266  27.056  31.421  1.00  0.00     0.029 A 
ATOM     60  C   UNL A   1      43.806  28.219  32.171  1.00  0.00     0.049 A 
ATOM     61  H   UNL A   1      43.602  30.174  31.479  1.00  0.00     0.167 HD
ATOM     62  C   UNL A   1      43.476  34.283  29.977  1.00  0.00     0.037 A 
ATOM     63  C   UNL A   1      43.431  28.211  33.464  1.00  0.00     0.037 A 
ATOM     64  C   UNL A   1      42.950  34.351  31.316  1.00  0.00     0.049 A 
ATOM     65  C   UNL A   1      42.995  29.499  34.109  1.00  0.00     0.074 A 
ATOM     66  C   UNL A   1      42.423  35.445  31.981  1.00  0.00     0.029 A 
ATOM     67  N   UNL A   1      42.897  33.283  32.199  1.00  0.00    -0.354 N 
ATOM     68  N   UNL A   1      42.901  30.697  33.584  1.00  0.00    -0.248 NA
ATOM     69  C   UNL A   1      42.617  29.435  35.528  1.00  0.00     0.031 C 
ATOM     70  C   UNL A   1      42.109  35.054  33.286  1.00  0.00     0.029 A 
ATOM     71  C   UNL A   1      42.384  33.702  33.418  1.00  0.00     0.049 A 
ATOM     72  H   UNL A   1      43.180  32.364  31.992  1.00  0.00     0.167 HD
ATOM     73  C   UNL A   1      42.438  31.523  34.600  1.00  0.00     0.074 A 
ATOM     74  C   UNL A   1      42.245  30.685  35.764  1.00  0.00     0.031 C 
ATOM     75  C   UNL A   1      42.202  32.858  34.570  1.00  0.00     0.037 A 
BRANCH  62  76
ATOM     76  C   UNL A   1      43.557  35.556  29.182  1.00  0.00     0.064 A 
ATOM     77  C   UNL A   1      44.715  36.348  29.173  1.00  0.00     0.173 A 
ATOM     78  C   UNL A   1      42.480  35.964  28.381  1.00  0.00     0.173 A 
ATOM     79  F   UNL A   1      45.772  36.007  29.925  1.00  0.00    -0.203 F 
ATOM     80  C   UNL A   1      44.780  37.517  28.419  1.00  0.00     0.198 A 
ATOM     81  C   UNL A   1      42.561  37.116  27.601  1.00  0.00     0.198 A 
ATOM     82  F   UNL A   1      41.351  35.241  28.343  1.00  0.00    -0.203 F 
ATOM     83  F   UNL A   1      45.879  38.283  28.467  1.00  0.00    -0.200 F 
ATOM     84  C   UNL A   1      43.707  37.896  27.628  1.00  0.00     0.200 A 
ATOM     85  F   UNL A   1      41.528  37.471  26.824  1.00  0.00    -0.200 F 
ATOM     86  F   UNL A   1      43.775  39.015  26.894  1.00  0.00    -0.200 F 
ENDBRANCH  62  76
BRANCH  63  87
ATOM     87  C   UNL A   1      43.453  26.941  34.238  1.00  0.00     0.064 A 
ATOM     88  C   UNL A   1      44.663  26.387  34.678  1.00  0.00     0.173 A 
ATOM     89  C   UNL A   1      42.271  26.252  34.549  1.00  0.00     0.173 A 
ATOM     90  F   UNL A   1      45.823  26.996  34.389  1.00  0.00    -0.203 F 
ATOM     91  C   UNL A   1      44.692  25.183  35.381  1.00  0.00     0.198 A 
ATOM     92  C   UNL A   1      42.299  25.066  35.280  1.00  0.00     0.198 A 
ATOM     93  F   UNL A   1      41.085  26.739  34.157  1.00  0.00    -0.203 F 
ATOM     94  F   UNL A   1      45.867  24.653  35.747  1.00  0.00    -0.200 F 
ATOM     95  C   UNL A   1      43.510  24.528  35.686  1.00  0.00     0.200 A 
ATOM     96  F   UNL A   1      41.152  24.445  35.590  1.00  0.00    -0.200 F 
ATOM     97  F   UNL A   1      43.538  23.374  36.369  1.00  0.00    -0.200 F 
ENDBRANCH  63  87
BRANCH  75  98
ATOM     98  C   UNL A   1      41.698  33.495  35.834  1.00  0.00     0.064 A 
ATOM     99  C   UNL A   1      40.334  33.486  36.166  1.00  0.00     0.173 A 
ATOM    100  C   UNL A   1      42.592  34.077  36.746  1.00  0.00     0.173 A 
ATOM    101  F   UNL A   1      39.438  32.959  35.320  1.00  0.00    -0.203 F 
ATOM    102  C   UNL A   1      39.883  34.055  37.353  1.00  0.00     0.198 A 
ATOM    103  C   UNL A   1      42.141  34.615  37.948  1.00  0.00     0.198 A 
ATOM    104  F   UNL A   1      43.906  34.107  36.479  1.00  0.00    -0.203 F 
ATOM    105  F   UNL A   1      38.572  34.077  37.627  1.00  0.00    -0.200 F 
ATOM    106  C   UNL A   1      40.788  34.610  38.248  1.00  0.00     0.200 A 
ATOM    107  F   UNL A   1      43.017  35.135  38.818  1.00  0.00    -0.200 F 
ATOM    108  F   UNL A   1      40.352  35.145  39.397  1.00  0.00    -0.200 F 
ENDBRANCH  75  98
ENDBRANCH  49  50
ENDBRANCH  41  44
ENDBRANCH  39  40
ENDBRANCH  38  39
ENDBRANCH   1  38
TORSDOF 16
ENDMDL
MODEL 2
REMARK VINA RESULT:     -10.3      0.574      6.887
REMARK SMILES COc1ccc(/C=C2/SC(=S)N(NC(=O)c3ccc(C(C)(C)C)cc3)C2=O)c(C(=O)NCCCNC(=O)c2ccc(-c3c4nc(c(-c5c(F)c(F)c(F)c(F)c5F)c5ccc([nH]5)c(-c5c(F)c(F)c(F)c(F)c5F)c5nc(c(-c6c(F)c(F)c(F)c(F)c6F)c6ccc3[nH]6)C=C5)C=C4)cc2)c1OC
REMARK SMILES IDX 32 1 31 2 29 3 30 4 28 6 3 7 4 8 101 9 5 10 6 11 2 12 1 13
REMARK SMILES IDX 102 14 103 15 7 16 8 17 9 18 26 19 10 20 12 21 27 22 11 23
REMARK SMILES IDX 13 24 14 25 15 27 16 28 17 29 25 30 18 31 24 32 19 33 20 34
REMARK SMILES IDX 21 35 22 36 23 37 33 38 34 39 35 40 36 41 37 43 38 44 39 45
REMARK SMILES IDX 100 46 40 47 99 48 41 49 42 50 43 51 93 52 44 53 98 54 92 55
REMARK SMILES IDX 94 56 45 57 97 58 91 59 90 60 46 62 78 63 58 64 77 65 59 66
REMARK SMILES IDX 62 67 76 68 95 69 60 70 61 71 75 73 96 74 63 75 47 76 48 77
REMARK SMILES IDX 56 78 49 79 50 80 54 81 57 82 51 83 52 84 55 85 53 86 79 87
REMARK SMILES IDX 80 88 88 89 81 90 82 91 86 92 89 93 83 94 84 95 87 96 85 97
REMARK SMILES IDX 64 98 65 99 73 100 66 101 67 102 71 103 74 104 68 105 69 106
REMARK SMILES IDX 72 107 70 108
REMARK H PARENT 31 5 13 26 35 42 94 61 62 72
REMARK Flexibility Score: inf
ROOT
ATOM      1  C   UNL A   1      44.157  24.302  26.090  1.00  0.00     0.118 C 
ENDROOT
BRANCH   1   2
ATOM      2  N   UNL A   1      43.925  24.892  27.381  1.00  0.00    -0.352 N 
ATOM      3  C   UNL A   1      42.777  24.851  28.148  1.00  0.00     0.255 C 
ATOM      4  O   UNL A   1      42.849  25.237  29.317  1.00  0.00    -0.269 OA
ATOM      5  H   UNL A   1      44.683  25.389  27.769  1.00  0.00     0.163 HD
BRANCH   3   6
ATOM      6  C   UNL A   1      41.437  24.504  27.571  1.00  0.00     0.092 A 
ATOM      7  C   UNL A   1      39.690  22.943  26.823  1.00  0.00     0.161 A 
ATOM      8  C   UNL A   1      38.905  24.060  26.488  1.00  0.00     0.051 A 
ATOM      9  C   UNL A   1      40.972  23.151  27.379  1.00  0.00     0.174 A 
ATOM     10  C   UNL A   1      39.329  25.359  26.719  1.00  0.00     0.013 A 
ATOM     11  C   UNL A   1      40.587  25.606  27.274  1.00  0.00    -0.007 A 
BRANCH   7  12
ATOM     12  O   UNL A   1      38.958  21.835  26.519  1.00  0.00    -0.493 OA
ATOM     13  C   UNL A   1      38.094  21.706  25.418  1.00  0.00     0.278 C 
ENDBRANCH   7  12
BRANCH   9  14
ATOM     14  O   UNL A   1      41.755  22.148  27.908  1.00  0.00    -0.492 OA
ATOM     15  C   UNL A   1      42.299  21.189  27.004  1.00  0.00     0.278 C 
ENDBRANCH   9  14
BRANCH  11  16
ATOM     16  C   UNL A   1      40.785  27.034  27.606  1.00  0.00     0.030 C 
ATOM     17  C   UNL A   1      40.405  27.743  28.678  1.00  0.00     0.082 C 
ATOM     18  S   UNL A   1      40.996  29.353  28.947  1.00  0.00    -0.052 SA
ATOM     19  C   UNL A   1      39.553  27.321  29.826  1.00  0.00     0.285 C 
ATOM     20  C   UNL A   1      40.350  29.425  30.576  1.00  0.00     0.168 C 
ATOM     21  N   UNL A   1      39.694  28.242  30.861  1.00  0.00    -0.198 N 
ATOM     22  O   UNL A   1      38.826  26.347  29.815  1.00  0.00    -0.266 OA
ATOM     23  S   UNL A   1      40.509  30.762  31.564  1.00  0.00    -0.050 S 
BRANCH  21  24
ATOM     24  N   UNL A   1      38.987  28.114  32.072  1.00  0.00    -0.255 N 
ATOM     25  C   UNL A   1      37.808  28.717  32.457  1.00  0.00     0.270 C 
ATOM     26  H   UNL A   1      39.392  27.511  32.737  1.00  0.00     0.192 HD
ATOM     27  O   UNL A   1      37.403  28.548  33.608  1.00  0.00    -0.267 OA
BRANCH  25  28
ATOM     28  C   UNL A   1      37.046  29.620  31.565  1.00  0.00     0.041 A 
ATOM     29  C   UNL A   1      36.652  30.852  32.094  1.00  0.00     0.014 A 
ATOM     30  C   UNL A   1      36.776  29.328  30.230  1.00  0.00     0.014 A 
ATOM     31  C   UNL A   1      36.121  31.837  31.258  1.00  0.00     0.005 A 
ATOM     32  C   UNL A   1      36.249  30.324  29.394  1.00  0.00     0.005 A 
ATOM     33  C   UNL A   1      35.963  31.616  29.878  1.00  0.00    -0.043 A 
BRANCH  33  34
ATOM     34  C   UNL A   1      35.604  32.794  28.953  1.00  0.00    -0.013 C 
ATOM     35  C   UNL A   1      36.829  33.668  28.638  1.00  0.00     0.016 C 
ATOM     36  C   UNL A   1      35.079  32.218  27.626  1.00  0.00     0.016 C 
ATOM     37  C   UNL A   1      34.495  33.711  29.514  1.00  0.00     0.016 C 
ENDBRANCH  33  34
ENDBRANCH  25  28
ENDBRANCH  21  24
ENDBRANCH  11  16
ENDBRANCH   3   6
ENDBRANCH   1   2
BRANCH   1  38
ATOM     38  C   UNL A   1      45.540  23.766  25.776  1.00  0.00     0.042 C 
BRANCH  38  39
ATOM     39  C   UNL A   1      46.687  24.735  26.008  1.00  0.00     0.118 C 
BRANCH  39  40
ATOM     40  N   UNL A   1      46.920  25.648  24.894  1.00  0.00    -0.352 N 
ATOM     41  C   UNL A   1      46.695  26.993  24.722  1.00  0.00     0.251 C 
ATOM     42  H   UNL A   1      47.320  25.214  24.107  1.00  0.00     0.163 HD
ATOM     43  O   UNL A   1      46.853  27.480  23.603  1.00  0.00    -0.269 OA
BRANCH  41  44
ATOM     44  C   UNL A   1      46.228  27.866  25.825  1.00  0.00     0.039 A 
ATOM     45  C   UNL A   1      44.850  27.981  26.052  1.00  0.00     0.014 A 
ATOM     46  C   UNL A   1      47.106  28.603  26.618  1.00  0.00     0.014 A 
ATOM     47  C   UNL A   1      44.371  28.740  27.124  1.00  0.00     0.010 A 
ATOM     48  C   UNL A   1      46.640  29.269  27.749  1.00  0.00     0.010 A 
ATOM     49  C   UNL A   1      45.267  29.340  28.022  1.00  0.00    -0.014 A 
BRANCH  49  50
ATOM     50  C   UNL A   1      44.795  30.017  29.259  1.00  0.00     0.031 A 
ATOM     51  C   UNL A   1      44.543  29.228  30.515  1.00  0.00     0.074 A 
ATOM     52  C   UNL A   1      44.512  31.334  29.226  1.00  0.00     0.049 A 
ATOM     53  N   UNL A   1      44.034  29.625  31.656  1.00  0.00    -0.248 NA
ATOM     54  C   UNL A   1      44.881  27.797  30.478  1.00  0.00     0.031 C 
ATOM     55  C   UNL A   1      44.671  32.204  28.058  1.00  0.00     0.029 A 
ATOM     56  N   UNL A   1      44.016  32.173  30.195  1.00  0.00    -0.354 N 
ATOM     57  C   UNL A   1      43.978  28.494  32.459  1.00  0.00     0.074 A 
ATOM     58  C   UNL A   1      44.453  27.384  31.662  1.00  0.00     0.031 C 
ATOM     59  C   UNL A   1      44.304  33.453  28.383  1.00  0.00     0.029 A 
ATOM     60  C   UNL A   1      43.831  33.465  29.763  1.00  0.00     0.049 A 
ATOM     61  H   UNL A   1      43.814  31.877  31.111  1.00  0.00     0.167 HD
ATOM     62  C   UNL A   1      43.587  28.395  33.753  1.00  0.00     0.037 A 
ATOM     63  C   UNL A   1      43.316  34.535  30.399  1.00  0.00     0.037 A 
ATOM     64  C   UNL A   1      43.132  29.506  34.548  1.00  0.00     0.049 A 
ATOM     65  C   UNL A   1      42.852  34.388  31.823  1.00  0.00     0.074 A 
ATOM     66  C   UNL A   1      42.781  29.522  35.887  1.00  0.00     0.029 A 
ATOM     67  N   UNL A   1      42.952  30.796  34.073  1.00  0.00    -0.354 N 
ATOM     68  N   UNL A   1      42.881  33.331  32.598  1.00  0.00    -0.248 NA
ATOM     69  C   UNL A   1      42.280  35.582  32.459  1.00  0.00     0.031 C 
ATOM     70  C   UNL A   1      42.330  30.806  36.206  1.00  0.00     0.029 A 
ATOM     71  C   UNL A   1      42.455  31.607  35.083  1.00  0.00     0.049 A 
ATOM     72  H   UNL A   1      43.149  31.093  33.156  1.00  0.00     0.167 HD
ATOM     73  C   UNL A   1      42.349  33.736  33.815  1.00  0.00     0.074 A 
ATOM     74  C   UNL A   1      42.031  35.142  33.685  1.00  0.00     0.031 C 
ATOM     75  C   UNL A   1      42.137  33.005  34.937  1.00  0.00     0.037 A 
BRANCH  62  76
ATOM     76  C   UNL A   1      43.631  27.036  34.394  1.00  0.00     0.064 A 
ATOM     77  C   UNL A   1      44.835  26.467  34.837  1.00  0.00     0.173 A 
ATOM     78  C   UNL A   1      42.449  26.313  34.613  1.00  0.00     0.173 A 
ATOM     79  F   UNL A   1      45.997  27.112  34.647  1.00  0.00    -0.203 F 
ATOM     80  C   UNL A   1      44.858  25.214  35.443  1.00  0.00     0.198 A 
ATOM     81  C   UNL A   1      42.470  25.075  35.251  1.00  0.00     0.198 A 
ATOM     82  F   UNL A   1      41.267  26.812  34.219  1.00  0.00    -0.203 F 
ATOM     83  F   UNL A   1      46.026  24.670  35.811  1.00  0.00    -0.200 F 
ATOM     84  C   UNL A   1      43.675  24.523  35.657  1.00  0.00     0.200 A 
ATOM     85  F   UNL A   1      41.324  24.416  35.472  1.00  0.00    -0.200 F 
ATOM     86  F   UNL A   1      43.698  23.321  36.251  1.00  0.00    -0.200 F 
ENDBRANCH  62  76
BRANCH  63  87
ATOM     87  C   UNL A   1      43.210  35.840  29.693  1.00  0.00     0.064 A 
ATOM     88  C   UNL A   1      42.195  36.069  28.753  1.00  0.00     0.173 A 
ATOM     89  C   UNL A   1      44.117  36.881  29.937  1.00  0.00     0.173 A 
ATOM     90  F   UNL A   1      41.314  35.099  28.469  1.00  0.00    -0.203 F 
ATOM     91  C   UNL A   1      42.106  37.281  28.070  1.00  0.00     0.198 A 
ATOM     92  C   UNL A   1      44.008  38.103  29.277  1.00  0.00     0.198 A 
ATOM     93  F   UNL A   1      45.104  36.718  30.830  1.00  0.00    -0.203 F 
ATOM     94  F   UNL A   1      41.155  37.455  27.141  1.00  0.00    -0.200 F 
ATOM     95  C   UNL A   1      43.008  38.299  28.337  1.00  0.00     0.200 A 
ATOM     96  F   UNL A   1      44.870  39.092  29.553  1.00  0.00    -0.200 F 
ATOM     97  F   UNL A   1      42.917  39.467  27.685  1.00  0.00    -0.200 F 
ENDBRANCH  63  87
BRANCH  75  98
ATOM     98  C   UNL A   1      41.541  33.714  36.119  1.00  0.00     0.064 A 
ATOM     99  C   UNL A   1      42.339  34.438  37.018  1.00  0.00     0.173 A 
ATOM    100  C   UNL A   1      40.153  33.714  36.326  1.00  0.00     0.173 A 
ATOM    101  F   UNL A   1      43.672  34.456  36.874  1.00  0.00    -0.203 F 
ATOM    102  C   UNL A   1      41.771  35.116  38.093  1.00  0.00     0.198 A 
ATOM    103  C   UNL A   1      39.586  34.420  37.383  1.00  0.00     0.198 A 
ATOM    104  F   UNL A   1      39.345  33.042  35.493  1.00  0.00    -0.203 F 
ATOM    105  F   UNL A   1      42.557  35.761  38.966  1.00  0.00    -0.200 F 
ATOM    106  C   UNL A   1      40.395  35.115  38.269  1.00  0.00     0.200 A 
ATOM    107  F   UNL A   1      38.255  34.431  37.542  1.00  0.00    -0.200 F 
ATOM    108  F   UNL A   1      39.849  35.779  39.298  1.00  0.00    -0.200 F 
ENDBRANCH  75  98
ENDBRANCH  49  50
ENDBRANCH  41  44
ENDBRANCH  39  40
ENDBRANCH  38  39
ENDBRANCH   1  38
TORSDOF 16
ENDMDL
MODEL 3
REMARK VINA RESULT:     -10.2      4.377     10.689
REMARK SMILES COc1ccc(/C=C2/SC(=S)N(NC(=O)c3ccc(C(C)(C)C)cc3)C2=O)c(C(=O)NCCCNC(=O)c2ccc(-c3c4nc(c(-c5c(F)c(F)c(F)c(F)c5F)c5ccc([nH]5)c(-c5c(F)c(F)c(F)c(F)c5F)c5nc(c(-c6c(F)c(F)c(F)c(F)c6F)c6ccc3[nH]6)C=C5)C=C4)cc2)c1OC
REMARK SMILES IDX 32 1 31 2 29 3 30 4 28 6 3 7 4 8 101 9 5 10 6 11 2 12 1 13
REMARK SMILES IDX 102 14 103 15 7 16 8 17 9 18 26 19 10 20 12 21 27 22 11 23
REMARK SMILES IDX 13 24 14 25 15 27 16 28 17 29 25 30 18 31 24 32 19 33 20 34
REMARK SMILES IDX 21 35 22 36 23 37 33 38 34 39 35 40 36 41 37 43 38 44 39 45
REMARK SMILES IDX 100 46 40 47 99 48 41 49 42 50 43 51 93 52 44 53 98 54 92 55
REMARK SMILES IDX 94 56 45 57 97 58 91 59 90 60 46 62 78 63 58 64 77 65 59 66
REMARK SMILES IDX 62 67 76 68 95 69 60 70 61 71 75 73 96 74 63 75 47 76 48 77
REMARK SMILES IDX 56 78 49 79 50 80 54 81 57 82 51 83 52 84 55 85 53 86 79 87
REMARK SMILES IDX 80 88 88 89 81 90 82 91 86 92 89 93 83 94 84 95 87 96 85 97
REMARK SMILES IDX 64 98 65 99 73 100 66 101 67 102 71 103 74 104 68 105 69 106
REMARK SMILES IDX 72 107 70 108
REMARK H PARENT 31 5 13 26 35 42 94 61 62 72
REMARK Flexibility Score: inf
ROOT
ATOM      1  C   UNL A   1      52.222  29.585  25.408  1.00  0.00     0.118 C 
ENDROOT
BRANCH   1   2
ATOM      2  N   UNL A   1      53.173  30.485  26.004  1.00  0.00    -0.352 N 
ATOM      3  C   UNL A   1      52.929  31.562  26.835  1.00  0.00     0.255 C 
ATOM      4  O   UNL A   1      53.890  32.077  27.410  1.00  0.00    -0.269 OA
ATOM      5  H   UNL A   1      54.119  30.310  25.795  1.00  0.00     0.163 HD
BRANCH   3   6
ATOM      6  C   UNL A   1      51.581  32.211  26.935  1.00  0.00     0.092 A 
ATOM      7  C   UNL A   1      49.656  33.457  26.046  1.00  0.00     0.161 A 
ATOM      8  C   UNL A   1      49.065  33.353  27.316  1.00  0.00     0.051 A 
ATOM      9  C   UNL A   1      50.928  32.878  25.834  1.00  0.00     0.174 A 
ATOM     10  C   UNL A   1      49.668  32.669  28.360  1.00  0.00     0.013 A 
ATOM     11  C   UNL A   1      50.921  32.077  28.189  1.00  0.00    -0.007 A 
BRANCH   7  12
ATOM     12  O   UNL A   1      48.781  34.135  25.252  1.00  0.00    -0.493 OA
ATOM     13  C   UNL A   1      47.500  34.566  25.636  1.00  0.00     0.278 C 
ENDBRANCH   7  12
BRANCH   9  14
ATOM     14  O   UNL A   1      51.525  32.760  24.599  1.00  0.00    -0.492 OA
ATOM     15  C   UNL A   1      52.026  33.949  23.990  1.00  0.00     0.278 C 
ENDBRANCH   9  14
BRANCH  11  16
ATOM     16  C   UNL A   1      51.317  31.248  29.350  1.00  0.00     0.030 C 
ATOM     17  C   UNL A   1      51.322  29.918  29.513  1.00  0.00     0.082 C 
ATOM     18  S   UNL A   1      52.086  29.185  30.889  1.00  0.00    -0.052 SA
ATOM     19  C   UNL A   1      50.814  28.860  28.595  1.00  0.00     0.285 C 
ATOM     20  C   UNL A   1      51.954  27.567  30.225  1.00  0.00     0.168 C 
ATOM     21  N   UNL A   1      51.321  27.627  28.996  1.00  0.00    -0.198 N 
ATOM     22  O   UNL A   1      50.044  29.064  27.677  1.00  0.00    -0.266 OA
ATOM     23  S   UNL A   1      52.496  26.204  31.022  1.00  0.00    -0.050 S 
BRANCH  21  24
ATOM     24  N   UNL A   1      50.994  26.433  28.325  1.00  0.00    -0.255 N 
ATOM     25  C   UNL A   1      49.855  25.661  28.432  1.00  0.00     0.270 C 
ATOM     26  H   UNL A   1      51.671  26.103  27.692  1.00  0.00     0.192 HD
ATOM     27  O   UNL A   1      49.804  24.591  27.826  1.00  0.00    -0.267 OA
BRANCH  25  28
ATOM     28  C   UNL A   1      48.719  26.034  29.307  1.00  0.00     0.041 A 
ATOM     29  C   UNL A   1      47.674  26.751  28.719  1.00  0.00     0.014 A 
ATOM     30  C   UNL A   1      48.620  25.645  30.641  1.00  0.00     0.014 A 
ATOM     31  C   UNL A   1      46.481  26.953  29.418  1.00  0.00     0.005 A 
ATOM     32  C   UNL A   1      47.418  25.843  31.335  1.00  0.00     0.005 A 
ATOM     33  C   UNL A   1      46.305  26.451  30.720  1.00  0.00    -0.043 A 
BRANCH  33  34
ATOM     34  C   UNL A   1      44.906  26.481  31.365  1.00  0.00    -0.013 C 
ATOM     35  C   UNL A   1      44.984  26.428  32.900  1.00  0.00     0.016 C 
ATOM     36  C   UNL A   1      44.226  27.803  30.971  1.00  0.00     0.016 C 
ATOM     37  C   UNL A   1      43.978  25.341  30.895  1.00  0.00     0.016 C 
ENDBRANCH  33  34
ENDBRANCH  25  28
ENDBRANCH  21  24
ENDBRANCH  11  16
ENDBRANCH   3   6
ENDBRANCH   1   2
BRANCH   1  38
ATOM     38  C   UNL A   1      52.673  28.716  24.251  1.00  0.00     0.042 C 
BRANCH  38  39
ATOM     39  C   UNL A   1      51.964  27.379  24.121  1.00  0.00     0.118 C 
BRANCH  39  40
ATOM     40  N   UNL A   1      51.406  27.136  22.794  1.00  0.00    -0.352 N 
ATOM     41  C   UNL A   1      50.123  26.957  22.335  1.00  0.00     0.251 C 
ATOM     42  H   UNL A   1      52.086  27.091  22.084  1.00  0.00     0.163 HD
ATOM     43  O   UNL A   1      49.956  26.614  21.166  1.00  0.00    -0.269 OA
BRANCH  41  44
ATOM     44  C   UNL A   1      48.938  27.122  23.211  1.00  0.00     0.039 A 
ATOM     45  C   UNL A   1      48.972  26.567  24.497  1.00  0.00     0.014 A 
ATOM     46  C   UNL A   1      47.781  27.775  22.787  1.00  0.00     0.014 A 
ATOM     47  C   UNL A   1      47.902  26.758  25.377  1.00  0.00     0.010 A 
ATOM     48  C   UNL A   1      46.763  28.060  23.695  1.00  0.00     0.010 A 
ATOM     49  C   UNL A   1      46.814  27.562  25.005  1.00  0.00    -0.014 A 
BRANCH  49  50
ATOM     50  C   UNL A   1      45.740  27.917  25.970  1.00  0.00     0.031 A 
ATOM     51  C   UNL A   1      44.644  26.936  26.290  1.00  0.00     0.074 A 
ATOM     52  C   UNL A   1      45.705  29.158  26.495  1.00  0.00     0.049 A 
ATOM     53  N   UNL A   1      43.571  27.103  27.023  1.00  0.00    -0.248 NA
ATOM     54  C   UNL A   1      44.753  25.600  25.686  1.00  0.00     0.031 C 
ATOM     55  C   UNL A   1      46.683  30.215  26.230  1.00  0.00     0.029 A 
ATOM     56  N   UNL A   1      44.805  29.749  27.348  1.00  0.00    -0.354 N 
ATOM     57  C   UNL A   1      42.874  25.904  26.954  1.00  0.00     0.074 A 
ATOM     58  C   UNL A   1      43.616  25.035  26.065  1.00  0.00     0.031 C 
ATOM     59  C   UNL A   1      46.345  31.314  26.921  1.00  0.00     0.029 A 
ATOM     60  C   UNL A   1      45.098  31.061  27.636  1.00  0.00     0.049 A 
ATOM     61  H   UNL A   1      44.025  29.277  27.719  1.00  0.00     0.167 HD
ATOM     62  C   UNL A   1      41.732  25.551  27.591  1.00  0.00     0.037 A 
ATOM     63  C   UNL A   1      44.427  31.967  28.372  1.00  0.00     0.037 A 
ATOM     64  C   UNL A   1      41.008  26.413  28.489  1.00  0.00     0.049 A 
ATOM     65  C   UNL A   1      43.139  31.561  29.037  1.00  0.00     0.074 A 
ATOM     66  C   UNL A   1      39.880  26.126  29.238  1.00  0.00     0.029 A 
ATOM     67  N   UNL A   1      41.333  27.736  28.749  1.00  0.00    -0.354 N 
ATOM     68  N   UNL A   1      42.534  30.398  29.030  1.00  0.00    -0.248 NA
ATOM     69  C   UNL A   1      42.438  32.596  29.810  1.00  0.00     0.031 C 
ATOM     70  C   UNL A   1      39.486  27.292  29.902  1.00  0.00     0.029 A 
ATOM     71  C   UNL A   1      40.402  28.291  29.615  1.00  0.00     0.049 A 
ATOM     72  H   UNL A   1      42.109  28.211  28.375  1.00  0.00     0.167 HD
ATOM     73  C   UNL A   1      41.395  30.555  29.807  1.00  0.00     0.074 A 
ATOM     74  C   UNL A   1      41.406  31.918  30.294  1.00  0.00     0.031 C 
ATOM     75  C   UNL A   1      40.423  29.652  30.087  1.00  0.00     0.037 A 
BRANCH  62  76
ATOM     76  C   UNL A   1      41.189  24.172  27.341  1.00  0.00     0.064 A 
ATOM     77  C   UNL A   1      40.048  23.961  26.553  1.00  0.00     0.173 A 
ATOM     78  C   UNL A   1      41.846  23.044  27.856  1.00  0.00     0.173 A 
ATOM     79  F   UNL A   1      39.377  25.004  26.041  1.00  0.00    -0.203 F 
ATOM     80  C   UNL A   1      39.565  22.676  26.317  1.00  0.00     0.198 A 
ATOM     81  C   UNL A   1      41.381  21.758  27.589  1.00  0.00     0.198 A 
ATOM     82  F   UNL A   1      42.947  23.186  28.608  1.00  0.00    -0.203 F 
ATOM     83  F   UNL A   1      38.444  22.503  25.604  1.00  0.00    -0.200 F 
ATOM     84  C   UNL A   1      40.236  21.576  26.828  1.00  0.00     0.200 A 
ATOM     85  F   UNL A   1      42.040  20.695  28.070  1.00  0.00    -0.200 F 
ATOM     86  F   UNL A   1      39.777  20.339  26.591  1.00  0.00    -0.200 F 
ENDBRANCH  62  76
BRANCH  63  87
ATOM     87  C   UNL A   1      44.957  33.348  28.518  1.00  0.00     0.064 A 
ATOM     88  C   UNL A   1      45.960  33.639  29.454  1.00  0.00     0.173 A 
ATOM     89  C   UNL A   1      44.474  34.406  27.734  1.00  0.00     0.173 A 
ATOM     90  F   UNL A   1      46.442  32.668  30.243  1.00  0.00    -0.203 F 
ATOM     91  C   UNL A   1      46.443  34.937  29.614  1.00  0.00     0.198 A 
ATOM     92  C   UNL A   1      44.980  35.696  27.871  1.00  0.00     0.198 A 
ATOM     93  F   UNL A   1      43.518  34.183  26.820  1.00  0.00    -0.203 F 
ATOM     94  F   UNL A   1      47.366  35.195  30.550  1.00  0.00    -0.200 F 
ATOM     95  C   UNL A   1      45.957  35.963  28.818  1.00  0.00     0.200 A 
ATOM     96  F   UNL A   1      44.522  36.682  27.086  1.00  0.00    -0.200 F 
ATOM     97  F   UNL A   1      46.427  37.210  28.967  1.00  0.00    -0.200 F 
ENDBRANCH  63  87
BRANCH  75  98
ATOM     98  C   UNL A   1      39.294  30.105  30.968  1.00  0.00     0.064 A 
ATOM     99  C   UNL A   1      39.349  29.957  32.363  1.00  0.00     0.173 A 
ATOM    100  C   UNL A   1      38.170  30.740  30.418  1.00  0.00     0.173 A 
ATOM    101  F   UNL A   1      40.393  29.342  32.936  1.00  0.00    -0.203 F 
ATOM    102  C   UNL A   1      38.308  30.408  33.171  1.00  0.00     0.198 A 
ATOM    103  C   UNL A   1      37.147  31.219  31.232  1.00  0.00     0.198 A 
ATOM    104  F   UNL A   1      38.071  30.911  29.091  1.00  0.00    -0.203 F 
ATOM    105  F   UNL A   1      38.360  30.214  34.496  1.00  0.00    -0.200 F 
ATOM    106  C   UNL A   1      37.214  31.047  32.606  1.00  0.00     0.200 A 
ATOM    107  F   UNL A   1      36.099  31.850  30.687  1.00  0.00    -0.200 F 
ATOM    108  F   UNL A   1      36.220  31.492  33.388  1.00  0.00    -0.200 F 
ENDBRANCH  75  98
ENDBRANCH  49  50
ENDBRANCH  41  44
ENDBRANCH  39  40
ENDBRANCH  38  39
ENDBRANCH   1  38
TORSDOF 16
ENDMDL
