MODEL 1
REMARK VINA RESULT:     -12.9      0.000      0.000
REMARK SMILES CC[C@@]1(C(=O)NCCCNC(=O)c2ccc(-c3c4nc(c(-c5c(F)c(F)c(F)c(F)c5F)c5ccc([nH]5)c(-c5c(F)c(F)c(F)c(F)c5F)c5nc(c(-c6c(F)c(F)c(F)c(F)c6F)c6ccc3[nH]6)C=C5)C=C4)cc2)CCC[N@@H+](Cc2ccc(C3CC3)cc2)C1
REMARK SMILES IDX 7 1 6 2 4 3 5 4 3 6 76 7 90 8 77 9 79 10 78 11 2 13 1 14
REMARK SMILES IDX 80 15 81 16 82 17 89 18 83 19 88 20 84 21 85 22 86 23 87 24
REMARK SMILES IDX 8 25 9 26 10 27 11 28 12 30 13 31 14 32 75 33 15 34 74 35
REMARK SMILES IDX 16 36 17 37 18 38 68 39 19 40 73 41 67 42 69 43 20 44 72 45
REMARK SMILES IDX 66 46 65 47 21 49 53 50 33 51 52 52 34 53 37 54 51 55 70 56
REMARK SMILES IDX 35 57 36 58 50 60 71 61 38 62 22 63 23 64 31 65 24 66 25 67
REMARK SMILES IDX 29 68 32 69 26 70 27 71 30 72 28 73 54 74 55 75 63 76 56 77
REMARK SMILES IDX 57 78 61 79 64 80 58 81 59 82 62 83 60 84 39 85 40 86 48 87
REMARK SMILES IDX 41 88 42 89 46 90 49 91 43 92 44 93 47 94 45 95
REMARK H PARENT 6 5 79 12 10 29 69 48 37 59
REMARK Flexibility Score: inf
ROOT
ATOM      1  C   UNL A   1      31.608  30.643  26.339  1.00  0.00     0.117 C 
ENDROOT
BRANCH   1   2
ATOM      2  N   UNL A   1      32.609  30.222  25.393  1.00  0.00    -0.355 N 
ATOM      3  C   UNL A   1      32.645  29.201  24.504  1.00  0.00     0.231 C 
ATOM      4  O   UNL A   1      33.545  29.320  23.654  1.00  0.00    -0.274 OA
ATOM      5  H   UNL A   1      33.420  30.780  25.394  1.00  0.00     0.163 HD
BRANCH   3   6
ATOM      6  C   UNL A   1      31.746  27.922  24.483  1.00  0.00     0.098 C 
ATOM      7  C   UNL A   1      31.563  27.456  25.951  1.00  0.00     0.028 C 
ATOM      8  C   UNL A   1      32.180  26.695  23.655  1.00  0.00     0.279 C 
ATOM      9  C   UNL A   1      32.786  26.683  26.458  1.00  0.00     0.063 C 
ATOM     10  N   UNL A   1      33.345  25.979  24.193  1.00  0.00    -0.330 N 
ATOM     11  C   UNL A   1      33.138  25.497  25.550  1.00  0.00     0.262 C 
ATOM     12  H   UNL A   1      34.070  26.690  24.283  1.00  0.00     0.348 HD
BRANCH   6  13
ATOM     13  C   UNL A   1      30.389  28.464  23.894  1.00  0.00     0.019 C 
ATOM     14  C   UNL A   1      30.237  28.512  22.376  1.00  0.00     0.005 C 
ENDBRANCH   6  13
BRANCH  10  15
ATOM     15  C   UNL A   1      33.998  25.037  23.270  1.00  0.00     0.299 C 
BRANCH  15  16
ATOM     16  C   UNL A   1      33.665  23.580  23.428  1.00  0.00     0.006 A 
ATOM     17  C   UNL A   1      34.511  22.734  24.143  1.00  0.00     0.010 A 
ATOM     18  C   UNL A   1      32.518  23.038  22.840  1.00  0.00     0.010 A 
ATOM     19  C   UNL A   1      34.155  21.400  24.353  1.00  0.00     0.004 A 
ATOM     20  C   UNL A   1      32.153  21.717  23.081  1.00  0.00     0.004 A 
ATOM     21  C   UNL A   1      32.941  20.873  23.876  1.00  0.00    -0.045 A 
BRANCH  21  22
ATOM     22  C   UNL A   1      32.528  19.465  24.247  1.00  0.00     0.019 C 
ATOM     23  C   UNL A   1      32.535  18.360  23.217  1.00  0.00     0.009 C 
ATOM     24  C   UNL A   1      33.540  18.352  24.333  1.00  0.00     0.009 C 
ENDBRANCH  21  22
ENDBRANCH  15  16
ENDBRANCH  10  15
ENDBRANCH   3   6
ENDBRANCH   1   2
BRANCH   1  25
ATOM     25  C   UNL A   1      31.483  32.138  26.507  1.00  0.00     0.042 C 
BRANCH  25  26
ATOM     26  C   UNL A   1      32.649  32.740  27.251  1.00  0.00     0.118 C 
BRANCH  26  27
ATOM     27  N   UNL A   1      32.435  34.147  27.580  1.00  0.00    -0.352 N 
ATOM     28  C   UNL A   1      32.997  34.943  28.551  1.00  0.00     0.251 C 
ATOM     29  H   UNL A   1      31.775  34.604  27.010  1.00  0.00     0.163 HD
ATOM     30  O   UNL A   1      32.528  36.050  28.780  1.00  0.00    -0.269 OA
BRANCH  28  31
ATOM     31  C   UNL A   1      34.147  34.453  29.341  1.00  0.00     0.039 A 
ATOM     32  C   UNL A   1      33.922  33.867  30.590  1.00  0.00     0.014 A 
ATOM     33  C   UNL A   1      35.447  34.560  28.850  1.00  0.00     0.014 A 
ATOM     34  C   UNL A   1      34.992  33.313  31.295  1.00  0.00     0.010 A 
ATOM     35  C   UNL A   1      36.480  33.879  29.475  1.00  0.00     0.010 A 
ATOM     36  C   UNL A   1      36.272  33.268  30.718  1.00  0.00    -0.014 A 
BRANCH  36  37
ATOM     37  C   UNL A   1      37.422  32.623  31.400  1.00  0.00     0.031 A 
ATOM     38  C   UNL A   1      38.134  31.474  30.735  1.00  0.00     0.074 A 
ATOM     39  C   UNL A   1      37.769  33.012  32.641  1.00  0.00     0.049 A 
ATOM     40  N   UNL A   1      39.089  30.710  31.201  1.00  0.00    -0.248 NA
ATOM     41  C   UNL A   1      37.684  31.108  29.381  1.00  0.00     0.031 C 
ATOM     42  C   UNL A   1      37.116  34.070  33.413  1.00  0.00     0.029 A 
ATOM     43  N   UNL A   1      38.754  32.552  33.479  1.00  0.00    -0.354 N 
ATOM     44  C   UNL A   1      39.332  29.766  30.211  1.00  0.00     0.074 A 
ATOM     45  C   UNL A   1      38.377  30.003  29.153  1.00  0.00     0.031 C 
ATOM     46  C   UNL A   1      37.739  34.203  34.594  1.00  0.00     0.029 A 
ATOM     47  C   UNL A   1      38.803  33.209  34.685  1.00  0.00     0.049 A 
ATOM     48  H   UNL A   1      39.368  31.820  33.239  1.00  0.00     0.167 HD
ATOM     49  C   UNL A   1      40.288  28.809  30.170  1.00  0.00     0.037 A 
ATOM     50  C   UNL A   1      39.611  33.021  35.746  1.00  0.00     0.037 A 
ATOM     51  C   UNL A   1      41.257  28.602  31.212  1.00  0.00     0.049 A 
ATOM     52  C   UNL A   1      40.664  31.948  35.678  1.00  0.00     0.074 A 
ATOM     53  C   UNL A   1      42.310  27.706  31.245  1.00  0.00     0.029 A 
ATOM     54  N   UNL A   1      41.291  29.305  32.408  1.00  0.00    -0.354 N 
ATOM     55  N   UNL A   1      40.933  31.111  34.706  1.00  0.00    -0.248 NA
ATOM     56  C   UNL A   1      41.532  31.800  36.854  1.00  0.00     0.031 C 
ATOM     57  C   UNL A   1      42.946  27.826  32.484  1.00  0.00     0.029 A 
ATOM     58  C   UNL A   1      42.332  28.844  33.197  1.00  0.00     0.049 A 
ATOM     59  H   UNL A   1      40.667  30.025  32.659  1.00  0.00     0.167 HD
ATOM     60  C   UNL A   1      42.020  30.362  35.137  1.00  0.00     0.074 A 
ATOM     61  C   UNL A   1      42.369  30.854  36.452  1.00  0.00     0.031 C 
ATOM     62  C   UNL A   1      42.671  29.356  34.500  1.00  0.00     0.037 A 
BRANCH  49  63
ATOM     63  C   UNL A   1      40.335  27.922  28.959  1.00  0.00     0.064 A 
ATOM     64  C   UNL A   1      41.091  28.260  27.825  1.00  0.00     0.173 A 
ATOM     65  C   UNL A   1      39.638  26.705  28.940  1.00  0.00     0.173 A 
ATOM     66  F   UNL A   1      41.767  29.418  27.782  1.00  0.00    -0.203 F 
ATOM     67  C   UNL A   1      41.119  27.430  26.707  1.00  0.00     0.198 A 
ATOM     68  C   UNL A   1      39.698  25.859  27.835  1.00  0.00     0.198 A 
ATOM     69  F   UNL A   1      38.903  26.329  29.998  1.00  0.00    -0.203 F 
ATOM     70  F   UNL A   1      41.799  27.803  25.614  1.00  0.00    -0.200 F 
ATOM     71  C   UNL A   1      40.430  26.226  26.717  1.00  0.00     0.200 A 
ATOM     72  F   UNL A   1      39.044  24.691  27.852  1.00  0.00    -0.200 F 
ATOM     73  F   UNL A   1      40.465  25.424  25.643  1.00  0.00    -0.200 F 
ENDBRANCH  49  63
BRANCH  50  74
ATOM     74  C   UNL A   1      39.472  33.883  36.950  1.00  0.00     0.064 A 
ATOM     75  C   UNL A   1      40.108  35.132  37.016  1.00  0.00     0.173 A 
ATOM     76  C   UNL A   1      38.713  33.481  38.057  1.00  0.00     0.173 A 
ATOM     77  F   UNL A   1      40.861  35.555  35.990  1.00  0.00    -0.203 F 
ATOM     78  C   UNL A   1      40.012  35.930  38.154  1.00  0.00     0.198 A 
ATOM     79  C   UNL A   1      38.590  34.295  39.182  1.00  0.00     0.198 A 
ATOM     80  F   UNL A   1      38.077  32.300  38.043  1.00  0.00    -0.203 F 
ATOM     81  F   UNL A   1      40.673  37.095  38.211  1.00  0.00    -0.200 F 
ATOM     82  C   UNL A   1      39.247  35.515  39.233  1.00  0.00     0.200 A 
ATOM     83  F   UNL A   1      37.836  33.897  40.216  1.00  0.00    -0.200 F 
ATOM     84  F   UNL A   1      39.151  36.284  40.327  1.00  0.00    -0.200 F 
ENDBRANCH  50  74
BRANCH  62  85
ATOM     85  C   UNL A   1      43.856  28.753  35.196  1.00  0.00     0.064 A 
ATOM     86  C   UNL A   1      45.138  29.315  35.098  1.00  0.00     0.173 A 
ATOM     87  C   UNL A   1      43.696  27.623  36.012  1.00  0.00     0.173 A 
ATOM     88  F   UNL A   1      45.347  30.388  34.320  1.00  0.00    -0.203 F 
ATOM     89  C   UNL A   1      46.220  28.749  35.767  1.00  0.00     0.198 A 
ATOM     90  C   UNL A   1      44.772  27.081  36.708  1.00  0.00     0.198 A 
ATOM     91  F   UNL A   1      42.489  27.052  36.148  1.00  0.00    -0.203 F 
ATOM     92  F   UNL A   1      47.445  29.271  35.616  1.00  0.00    -0.200 F 
ATOM     93  C   UNL A   1      46.035  27.640  36.578  1.00  0.00     0.200 A 
ATOM     94  F   UNL A   1      44.587  26.020  37.506  1.00  0.00    -0.200 F 
ATOM     95  F   UNL A   1      47.076  27.103  37.230  1.00  0.00    -0.200 F 
ENDBRANCH  62  85
ENDBRANCH  36  37
ENDBRANCH  28  31
ENDBRANCH  26  27
ENDBRANCH  25  26
ENDBRANCH   1  25
TORSDOF 14
ENDMDL
MODEL 2
REMARK VINA RESULT:     -12.7      5.734     11.305
REMARK SMILES CC[C@@]1(C(=O)NCCCNC(=O)c2ccc(-c3c4nc(c(-c5c(F)c(F)c(F)c(F)c5F)c5ccc([nH]5)c(-c5c(F)c(F)c(F)c(F)c5F)c5nc(c(-c6c(F)c(F)c(F)c(F)c6F)c6ccc3[nH]6)C=C5)C=C4)cc2)CCC[N@@H+](Cc2ccc(C3CC3)cc2)C1
REMARK SMILES IDX 7 1 6 2 4 3 5 4 3 6 76 7 90 8 77 9 79 10 78 11 2 13 1 14
REMARK SMILES IDX 80 15 81 16 82 17 89 18 83 19 88 20 84 21 85 22 86 23 87 24
REMARK SMILES IDX 8 25 9 26 10 27 11 28 12 30 13 31 14 32 75 33 15 34 74 35
REMARK SMILES IDX 16 36 17 37 18 38 68 39 19 40 73 41 67 42 69 43 20 44 72 45
REMARK SMILES IDX 66 46 65 47 21 49 53 50 33 51 52 52 34 53 37 54 51 55 70 56
REMARK SMILES IDX 35 57 36 58 50 60 71 61 38 62 22 63 23 64 31 65 24 66 25 67
REMARK SMILES IDX 29 68 32 69 26 70 27 71 30 72 28 73 54 74 55 75 63 76 56 77
REMARK SMILES IDX 57 78 61 79 64 80 58 81 59 82 62 83 60 84 39 85 40 86 48 87
REMARK SMILES IDX 41 88 42 89 46 90 49 91 43 92 44 93 47 94 45 95
REMARK H PARENT 6 5 79 12 10 29 69 48 37 59
REMARK Flexibility Score: inf
ROOT
ATOM      1  C   UNL A   1      36.965  20.779  24.775  1.00  0.00     0.117 C 
ENDROOT
BRANCH   1   2
ATOM      2  N   UNL A   1      36.151  21.139  25.907  1.00  0.00    -0.355 N 
ATOM      3  C   UNL A   1      34.869  21.565  26.004  1.00  0.00     0.231 C 
ATOM      4  O   UNL A   1      34.415  21.501  27.160  1.00  0.00    -0.274 OA
ATOM      5  H   UNL A   1      36.614  21.063  26.774  1.00  0.00     0.163 HD
BRANCH   3   6
ATOM      6  C   UNL A   1      33.972  22.158  24.868  1.00  0.00     0.098 C 
ATOM      7  C   UNL A   1      34.902  22.916  23.887  1.00  0.00     0.028 C 
ATOM      8  C   UNL A   1      32.806  23.101  25.228  1.00  0.00     0.279 C 
ATOM      9  C   UNL A   1      35.281  24.303  24.419  1.00  0.00     0.063 C 
ATOM     10  N   UNL A   1      33.222  24.424  25.716  1.00  0.00    -0.330 N 
ATOM     11  C   UNL A   1      34.046  25.147  24.761  1.00  0.00     0.262 C 
ATOM     12  H   UNL A   1      33.847  24.229  26.497  1.00  0.00     0.348 HD
BRANCH   6  13
ATOM     13  C   UNL A   1      33.376  20.866  24.192  1.00  0.00     0.019 C 
ATOM     14  C   UNL A   1      32.208  20.170  24.886  1.00  0.00     0.005 C 
ENDBRANCH   6  13
BRANCH  10  15
ATOM     15  C   UNL A   1      32.178  25.213  26.391  1.00  0.00     0.299 C 
BRANCH  15  16
ATOM     16  C   UNL A   1      31.339  26.117  25.532  1.00  0.00     0.006 A 
ATOM     17  C   UNL A   1      31.619  27.480  25.456  1.00  0.00     0.010 A 
ATOM     18  C   UNL A   1      30.248  25.617  24.815  1.00  0.00     0.010 A 
ATOM     19  C   UNL A   1      30.884  28.299  24.595  1.00  0.00     0.004 A 
ATOM     20  C   UNL A   1      29.543  26.431  23.934  1.00  0.00     0.004 A 
ATOM     21  C   UNL A   1      29.867  27.786  23.771  1.00  0.00    -0.045 A 
BRANCH  21  22
ATOM     22  C   UNL A   1      29.195  28.677  22.750  1.00  0.00     0.019 C 
ATOM     23  C   UNL A   1      27.885  29.362  23.064  1.00  0.00     0.009 C 
ATOM     24  C   UNL A   1      29.143  30.172  22.933  1.00  0.00     0.009 C 
ENDBRANCH  21  22
ENDBRANCH  15  16
ENDBRANCH  10  15
ENDBRANCH   3   6
ENDBRANCH   1   2
BRANCH   1  25
ATOM     25  C   UNL A   1      37.967  19.682  25.039  1.00  0.00     0.042 C 
BRANCH  25  26
ATOM     26  C   UNL A   1      39.199  20.177  25.756  1.00  0.00     0.118 C 
BRANCH  26  27
ATOM     27  N   UNL A   1      40.204  19.131  25.928  1.00  0.00    -0.352 N 
ATOM     28  C   UNL A   1      41.564  19.209  26.121  1.00  0.00     0.251 C 
ATOM     29  H   UNL A   1      39.848  18.214  25.903  1.00  0.00     0.163 HD
ATOM     30  O   UNL A   1      42.250  18.198  26.045  1.00  0.00    -0.269 OA
BRANCH  28  31
ATOM     31  C   UNL A   1      42.204  20.515  26.388  1.00  0.00     0.039 A 
ATOM     32  C   UNL A   1      42.701  21.267  25.321  1.00  0.00     0.014 A 
ATOM     33  C   UNL A   1      42.308  21.006  27.688  1.00  0.00     0.014 A 
ATOM     34  C   UNL A   1      43.216  22.544  25.556  1.00  0.00     0.010 A 
ATOM     35  C   UNL A   1      42.676  22.324  27.902  1.00  0.00     0.010 A 
ATOM     36  C   UNL A   1      43.158  23.103  26.843  1.00  0.00    -0.014 A 
BRANCH  36  37
ATOM     37  C   UNL A   1      43.625  24.483  27.124  1.00  0.00     0.031 A 
ATOM     38  C   UNL A   1      42.652  25.508  27.648  1.00  0.00     0.074 A 
ATOM     39  C   UNL A   1      44.892  24.835  26.833  1.00  0.00     0.049 A 
ATOM     40  N   UNL A   1      42.830  26.787  27.860  1.00  0.00    -0.248 NA
ATOM     41  C   UNL A   1      41.285  25.041  27.931  1.00  0.00     0.031 C 
ATOM     42  C   UNL A   1      45.910  23.949  26.265  1.00  0.00     0.029 A 
ATOM     43  N   UNL A   1      45.538  26.038  26.964  1.00  0.00    -0.354 N 
ATOM     44  C   UNL A   1      41.597  27.274  28.274  1.00  0.00     0.074 A 
ATOM     45  C   UNL A   1      40.662  26.175  28.213  1.00  0.00     0.031 C 
ATOM     46  C   UNL A   1      47.059  24.627  26.130  1.00  0.00     0.029 A 
ATOM     47  C   UNL A   1      46.849  26.007  26.555  1.00  0.00     0.049 A 
ATOM     48  H   UNL A   1      45.104  26.848  27.318  1.00  0.00     0.167 HD
ATOM     49  C   UNL A   1      41.280  28.518  28.703  1.00  0.00     0.037 A 
ATOM     50  C   UNL A   1      47.774  26.986  26.520  1.00  0.00     0.037 A 
ATOM     51  C   UNL A   1      42.224  29.599  28.795  1.00  0.00     0.049 A 
ATOM     52  C   UNL A   1      47.395  28.362  26.998  1.00  0.00     0.074 A 
ATOM     53  C   UNL A   1      42.026  30.880  29.276  1.00  0.00     0.029 A 
ATOM     54  N   UNL A   1      43.551  29.521  28.395  1.00  0.00    -0.354 N 
ATOM     55  N   UNL A   1      46.246  28.793  27.459  1.00  0.00    -0.248 NA
ATOM     56  C   UNL A   1      48.447  29.387  26.959  1.00  0.00     0.031 C 
ATOM     57  C   UNL A   1      43.216  31.595  29.115  1.00  0.00     0.029 A 
ATOM     58  C   UNL A   1      44.176  30.741  28.596  1.00  0.00     0.049 A 
ATOM     59  H   UNL A   1      43.984  28.718  28.024  1.00  0.00     0.167 HD
ATOM     60  C   UNL A   1      46.444  30.125  27.797  1.00  0.00     0.074 A 
ATOM     61  C   UNL A   1      47.828  30.427  27.499  1.00  0.00     0.031 C 
ATOM     62  C   UNL A   1      45.560  31.018  28.306  1.00  0.00     0.037 A 
BRANCH  49  63
ATOM     63  C   UNL A   1      39.856  28.773  29.111  1.00  0.00     0.064 A 
ATOM     64  C   UNL A   1      38.896  29.232  28.195  1.00  0.00     0.173 A 
ATOM     65  C   UNL A   1      39.438  28.529  30.427  1.00  0.00     0.173 A 
ATOM     66  F   UNL A   1      39.243  29.495  26.925  1.00  0.00    -0.203 F 
ATOM     67  C   UNL A   1      37.583  29.470  28.590  1.00  0.00     0.198 A 
ATOM     68  C   UNL A   1      38.116  28.733  30.811  1.00  0.00     0.198 A 
ATOM     69  F   UNL A   1      40.312  28.086  31.344  1.00  0.00    -0.203 F 
ATOM     70  F   UNL A   1      36.699  29.965  27.712  1.00  0.00    -0.200 F 
ATOM     71  C   UNL A   1      37.191  29.211  29.895  1.00  0.00     0.200 A 
ATOM     72  F   UNL A   1      37.736  28.469  32.068  1.00  0.00    -0.200 F 
ATOM     73  F   UNL A   1      35.924  29.432  30.272  1.00  0.00    -0.200 F 
ENDBRANCH  49  63
BRANCH  50  74
ATOM     74  C   UNL A   1      49.151  26.695  26.039  1.00  0.00     0.064 A 
ATOM     75  C   UNL A   1      49.529  26.990  24.721  1.00  0.00     0.173 A 
ATOM     76  C   UNL A   1      50.113  26.113  26.876  1.00  0.00     0.173 A 
ATOM     77  F   UNL A   1      48.640  27.531  23.874  1.00  0.00    -0.203 F 
ATOM     78  C   UNL A   1      50.806  26.688  24.253  1.00  0.00     0.198 A 
ATOM     79  C   UNL A   1      51.400  25.842  26.417  1.00  0.00     0.198 A 
ATOM     80  F   UNL A   1      49.806  25.818  28.149  1.00  0.00    -0.203 F 
ATOM     81  F   UNL A   1      51.124  26.933  22.974  1.00  0.00    -0.200 F 
ATOM     82  C   UNL A   1      51.743  26.121  25.103  1.00  0.00     0.200 A 
ATOM     83  F   UNL A   1      52.307  25.309  27.247  1.00  0.00    -0.200 F 
ATOM     84  F   UNL A   1      52.973  25.833  24.654  1.00  0.00    -0.200 F 
ENDBRANCH  50  74
BRANCH  62  85
ATOM     85  C   UNL A   1      46.072  32.393  28.620  1.00  0.00     0.064 A 
ATOM     86  C   UNL A   1      46.014  33.437  27.685  1.00  0.00     0.173 A 
ATOM     87  C   UNL A   1      46.586  32.682  29.895  1.00  0.00     0.173 A 
ATOM     88  F   UNL A   1      45.544  33.211  26.449  1.00  0.00    -0.203 F 
ATOM     89  C   UNL A   1      46.478  34.710  28.005  1.00  0.00     0.198 A 
ATOM     90  C   UNL A   1      47.016  33.963  30.222  1.00  0.00     0.198 A 
ATOM     91  F   UNL A   1      46.655  31.721  30.829  1.00  0.00    -0.203 F 
ATOM     92  F   UNL A   1      46.462  35.678  27.079  1.00  0.00    -0.200 F 
ATOM     93  C   UNL A   1      46.969  34.975  29.275  1.00  0.00     0.200 A 
ATOM     94  F   UNL A   1      47.473  34.220  31.456  1.00  0.00    -0.200 F 
ATOM     95  F   UNL A   1      47.406  36.204  29.584  1.00  0.00    -0.200 F 
ENDBRANCH  62  85
ENDBRANCH  36  37
ENDBRANCH  28  31
ENDBRANCH  26  27
ENDBRANCH  25  26
ENDBRANCH   1  25
TORSDOF 14
ENDMDL
MODEL 3
REMARK VINA RESULT:     -12.7      0.688      7.394
REMARK SMILES CC[C@@]1(C(=O)NCCCNC(=O)c2ccc(-c3c4nc(c(-c5c(F)c(F)c(F)c(F)c5F)c5ccc([nH]5)c(-c5c(F)c(F)c(F)c(F)c5F)c5nc(c(-c6c(F)c(F)c(F)c(F)c6F)c6ccc3[nH]6)C=C5)C=C4)cc2)CCC[N@@H+](Cc2ccc(C3CC3)cc2)C1
REMARK SMILES IDX 7 1 6 2 4 3 5 4 3 6 76 7 90 8 77 9 79 10 78 11 2 13 1 14
REMARK SMILES IDX 80 15 81 16 82 17 89 18 83 19 88 20 84 21 85 22 86 23 87 24
REMARK SMILES IDX 8 25 9 26 10 27 11 28 12 30 13 31 14 32 75 33 15 34 74 35
REMARK SMILES IDX 16 36 17 37 18 38 68 39 19 40 73 41 67 42 69 43 20 44 72 45
REMARK SMILES IDX 66 46 65 47 21 49 53 50 33 51 52 52 34 53 37 54 51 55 70 56
REMARK SMILES IDX 35 57 36 58 50 60 71 61 38 62 22 63 23 64 31 65 24 66 25 67
REMARK SMILES IDX 29 68 32 69 26 70 27 71 30 72 28 73 54 74 55 75 63 76 56 77
REMARK SMILES IDX 57 78 61 79 64 80 58 81 59 82 62 83 60 84 39 85 40 86 48 87
REMARK SMILES IDX 41 88 42 89 46 90 49 91 43 92 44 93 47 94 45 95
REMARK H PARENT 6 5 79 12 10 29 69 48 37 59
REMARK Flexibility Score: inf
ROOT
ATOM      1  C   UNL A   1      31.422  30.535  26.157  1.00  0.00     0.117 C 
ENDROOT
BRANCH   1   2
ATOM      2  N   UNL A   1      32.452  30.115  25.242  1.00  0.00    -0.355 N 
ATOM      3  C   UNL A   1      32.532  29.073  24.381  1.00  0.00     0.231 C 
ATOM      4  O   UNL A   1      33.445  29.193  23.547  1.00  0.00    -0.274 OA
ATOM      5  H   UNL A   1      33.249  30.694  25.245  1.00  0.00     0.163 HD
BRANCH   3   6
ATOM      6  C   UNL A   1      31.665  27.772  24.376  1.00  0.00     0.098 C 
ATOM      7  C   UNL A   1      31.468  27.336  25.850  1.00  0.00     0.028 C 
ATOM      8  C   UNL A   1      32.144  26.538  23.584  1.00  0.00     0.279 C 
ATOM      9  C   UNL A   1      32.701  26.606  26.396  1.00  0.00     0.063 C 
ATOM     10  N   UNL A   1      33.317  25.863  24.159  1.00  0.00    -0.330 N 
ATOM     11  C   UNL A   1      33.098  25.409  25.523  1.00  0.00     0.262 C 
ATOM     12  H   UNL A   1      34.022  26.595  24.244  1.00  0.00     0.348 HD
BRANCH   6  13
ATOM     13  C   UNL A   1      30.306  28.266  23.751  1.00  0.00     0.019 C 
ATOM     14  C   UNL A   1      30.337  28.843  22.338  1.00  0.00     0.005 C 
ENDBRANCH   6  13
BRANCH  10  15
ATOM     15  C   UNL A   1      34.009  24.917  23.270  1.00  0.00     0.299 C 
BRANCH  15  16
ATOM     16  C   UNL A   1      33.671  23.460  23.422  1.00  0.00     0.006 A 
ATOM     17  C   UNL A   1      34.489  22.618  24.172  1.00  0.00     0.010 A 
ATOM     18  C   UNL A   1      32.547  22.916  22.793  1.00  0.00     0.010 A 
ATOM     19  C   UNL A   1      34.125  21.285  24.374  1.00  0.00     0.004 A 
ATOM     20  C   UNL A   1      32.173  21.596  23.026  1.00  0.00     0.004 A 
ATOM     21  C   UNL A   1      32.931  20.755  23.854  1.00  0.00    -0.045 A 
BRANCH  21  22
ATOM     22  C   UNL A   1      32.504  19.349  24.215  1.00  0.00     0.019 C 
ATOM     23  C   UNL A   1      32.532  18.244  23.186  1.00  0.00     0.009 C 
ATOM     24  C   UNL A   1      33.509  18.233  24.326  1.00  0.00     0.009 C 
ENDBRANCH  21  22
ENDBRANCH  15  16
ENDBRANCH  10  15
ENDBRANCH   3   6
ENDBRANCH   1   2
BRANCH   1  25
ATOM     25  C   UNL A   1      31.372  32.020  26.419  1.00  0.00     0.042 C 
BRANCH  25  26
ATOM     26  C   UNL A   1      32.581  32.520  27.169  1.00  0.00     0.118 C 
BRANCH  26  27
ATOM     27  N   UNL A   1      32.464  33.928  27.544  1.00  0.00    -0.352 N 
ATOM     28  C   UNL A   1      33.105  34.660  28.516  1.00  0.00     0.251 C 
ATOM     29  H   UNL A   1      31.815  34.440  27.009  1.00  0.00     0.163 HD
ATOM     30  O   UNL A   1      32.712  35.786  28.791  1.00  0.00    -0.269 OA
BRANCH  28  31
ATOM     31  C   UNL A   1      34.248  34.078  29.253  1.00  0.00     0.039 A 
ATOM     32  C   UNL A   1      34.007  33.202  30.314  1.00  0.00     0.014 A 
ATOM     33  C   UNL A   1      35.559  34.388  28.894  1.00  0.00     0.014 A 
ATOM     34  C   UNL A   1      35.081  32.574  30.947  1.00  0.00     0.010 A 
ATOM     35  C   UNL A   1      36.611  33.653  29.418  1.00  0.00     0.010 A 
ATOM     36  C   UNL A   1      36.389  32.755  30.468  1.00  0.00    -0.014 A 
BRANCH  36  37
ATOM     37  C   UNL A   1      37.551  32.049  31.064  1.00  0.00     0.031 A 
ATOM     38  C   UNL A   1      38.033  32.434  32.439  1.00  0.00     0.074 A 
ATOM     39  C   UNL A   1      38.219  31.130  30.342  1.00  0.00     0.049 A 
ATOM     40  N   UNL A   1      39.085  32.016  33.096  1.00  0.00    -0.248 NA
ATOM     41  C   UNL A   1      37.249  33.455  33.156  1.00  0.00     0.031 C 
ATOM     42  C   UNL A   1      37.887  30.717  28.978  1.00  0.00     0.029 A 
ATOM     43  N   UNL A   1      39.326  30.382  30.653  1.00  0.00    -0.354 N 
ATOM     44  C   UNL A   1      39.100  32.740  34.282  1.00  0.00     0.074 A 
ATOM     45  C   UNL A   1      37.999  33.673  34.225  1.00  0.00     0.031 C 
ATOM     46  C   UNL A   1      38.748  29.766  28.582  1.00  0.00     0.029 A 
ATOM     47  C   UNL A   1      39.722  29.537  29.644  1.00  0.00     0.049 A 
ATOM     48  H   UNL A   1      39.795  30.444  31.517  1.00  0.00     0.167 HD
ATOM     49  C   UNL A   1      39.934  32.612  35.339  1.00  0.00     0.037 A 
ATOM     50  C   UNL A   1      40.759  28.680  29.583  1.00  0.00     0.037 A 
ATOM     51  C   UNL A   1      41.006  31.657  35.403  1.00  0.00     0.049 A 
ATOM     52  C   UNL A   1      41.675  28.560  30.771  1.00  0.00     0.074 A 
ATOM     53  C   UNL A   1      41.870  31.398  36.451  1.00  0.00     0.029 A 
ATOM     54  N   UNL A   1      41.359  30.799  34.370  1.00  0.00    -0.354 N 
ATOM     55  N   UNL A   1      41.635  29.194  31.917  1.00  0.00    -0.248 NA
ATOM     56  C   UNL A   1      42.778  27.596  30.659  1.00  0.00     0.031 C 
ATOM     57  C   UNL A   1      42.783  30.424  36.033  1.00  0.00     0.029 A 
ATOM     58  C   UNL A   1      42.446  30.028  34.749  1.00  0.00     0.049 A 
ATOM     59  H   UNL A   1      40.905  30.747  33.499  1.00  0.00     0.167 HD
ATOM     60  C   UNL A   1      42.681  28.685  32.674  1.00  0.00     0.074 A 
ATOM     61  C   UNL A   1      43.329  27.678  31.862  1.00  0.00     0.031 C 
ATOM     62  C   UNL A   1      43.070  29.020  33.929  1.00  0.00     0.037 A 
BRANCH  49  63
ATOM     63  C   UNL A   1      39.714  33.524  36.513  1.00  0.00     0.064 A 
ATOM     64  C   UNL A   1      38.856  33.175  37.568  1.00  0.00     0.173 A 
ATOM     65  C   UNL A   1      40.391  34.750  36.600  1.00  0.00     0.173 A 
ATOM     66  F   UNL A   1      38.172  32.021  37.532  1.00  0.00    -0.203 F 
ATOM     67  C   UNL A   1      38.657  34.034  38.646  1.00  0.00     0.198 A 
ATOM     68  C   UNL A   1      40.218  35.590  37.697  1.00  0.00     0.198 A 
ATOM     69  F   UNL A   1      41.227  35.132  35.623  1.00  0.00    -0.203 F 
ATOM     70  F   UNL A   1      37.786  33.706  39.611  1.00  0.00    -0.200 F 
ATOM     71  C   UNL A   1      39.345  35.236  38.714  1.00  0.00     0.200 A 
ATOM     72  F   UNL A   1      40.895  36.743  37.768  1.00  0.00    -0.200 F 
ATOM     73  F   UNL A   1      39.160  36.057  39.757  1.00  0.00    -0.200 F 
ENDBRANCH  49  63
BRANCH  50  74
ATOM     74  C   UNL A   1      40.972  27.853  28.365  1.00  0.00     0.064 A 
ATOM     75  C   UNL A   1      40.358  26.598  28.232  1.00  0.00     0.173 A 
ATOM     76  C   UNL A   1      41.792  28.289  27.315  1.00  0.00     0.173 A 
ATOM     77  F   UNL A   1      39.578  26.128  29.217  1.00  0.00    -0.203 F 
ATOM     78  C   UNL A   1      40.579  25.802  27.111  1.00  0.00     0.198 A 
ATOM     79  C   UNL A   1      41.986  27.506  26.178  1.00  0.00     0.198 A 
ATOM     80  F   UNL A   1      42.396  29.485  27.387  1.00  0.00    -0.203 F 
ATOM     81  F   UNL A   1      40.022  24.585  27.035  1.00  0.00    -0.200 F 
ATOM     82  C   UNL A   1      41.388  26.260  26.081  1.00  0.00     0.200 A 
ATOM     83  F   UNL A   1      42.754  27.960  25.178  1.00  0.00    -0.200 F 
ATOM     84  F   UNL A   1      41.598  25.496  25.001  1.00  0.00    -0.200 F 
ENDBRANCH  50  74
BRANCH  62  85
ATOM     85  C   UNL A   1      44.220  28.259  34.521  1.00  0.00     0.064 A 
ATOM     86  C   UNL A   1      45.540  28.723  34.428  1.00  0.00     0.173 A 
ATOM     87  C   UNL A   1      43.990  27.072  35.234  1.00  0.00     0.173 A 
ATOM     88  F   UNL A   1      45.816  29.845  33.746  1.00  0.00    -0.203 F 
ATOM     89  C   UNL A   1      46.591  28.010  35.001  1.00  0.00     0.198 A 
ATOM     90  C   UNL A   1      45.038  26.382  35.835  1.00  0.00     0.198 A 
ATOM     91  F   UNL A   1      42.744  26.590  35.361  1.00  0.00    -0.203 F 
ATOM     92  F   UNL A   1      47.850  28.444  34.853  1.00  0.00    -0.200 F 
ATOM     93  C   UNL A   1      46.338  26.847  35.711  1.00  0.00     0.200 A 
ATOM     94  F   UNL A   1      44.788  25.267  36.537  1.00  0.00    -0.200 F 
ATOM     95  F   UNL A   1      47.349  26.168  36.271  1.00  0.00    -0.200 F 
ENDBRANCH  62  85
ENDBRANCH  36  37
ENDBRANCH  28  31
ENDBRANCH  26  27
ENDBRANCH  25  26
ENDBRANCH   1  25
TORSDOF 14
ENDMDL
