MODEL 1
REMARK VINA RESULT:     -12.1      0.000      0.000
REMARK SMILES C[C@H]1CC[C@@]1(C(=O)NCCCNC(=O)c1ccc(-c2c3nc(c(-c4c(F)c(F)c(F)c(F)c4F)c4ccc([nH]4)c(-c4c(F)c(F)c(F)c(F)c4F)c4nc(c(-c5c(F)c(F)c(F)c(F)c5F)c5ccc2[nH]5)C=C4)C=C3)cc1)c1ccc(Cl)cc1Cl
REMARK SMILES IDX 10 1 9 2 8 3 6 4 7 5 5 7 1 8 2 9 3 10 4 11 78 12 79 13 84 14
REMARK SMILES IDX 80 15 83 16 85 17 81 18 82 19 11 20 12 21 13 22 14 24 15 25
REMARK SMILES IDX 16 26 77 27 17 28 76 29 18 30 19 31 20 32 70 33 21 34 75 35
REMARK SMILES IDX 69 36 71 37 22 38 74 39 68 40 67 41 23 43 55 44 35 45 54 46
REMARK SMILES IDX 36 47 39 48 53 49 72 50 37 51 38 52 52 54 73 55 40 56 24 57
REMARK SMILES IDX 25 58 33 59 26 60 27 61 31 62 34 63 28 64 29 65 32 66 30 67
REMARK SMILES IDX 56 68 57 69 65 70 58 71 59 72 63 73 66 74 60 75 61 76 64 77
REMARK SMILES IDX 62 78 41 79 42 80 50 81 43 82 44 83 48 84 51 85 45 86 46 87
REMARK SMILES IDX 49 88 47 89
REMARK H PARENT 8 6 12 23 71 42 39 53
REMARK Flexibility Score: inf
ROOT
ATOM      1  C   UNL A   1      33.789  28.215  25.611  1.00  0.00     0.042 C 
ENDROOT
BRANCH   1   2
ATOM      2  C   UNL A   1      33.710  26.766  25.148  1.00  0.00     0.117 C 
BRANCH   2   3
ATOM      3  N   UNL A   1      33.794  26.609  23.710  1.00  0.00    -0.355 N 
ATOM      4  C   UNL A   1      33.588  25.502  22.918  1.00  0.00     0.230 C 
ATOM      5  O   UNL A   1      33.622  25.707  21.697  1.00  0.00    -0.274 OA
ATOM      6  H   UNL A   1      34.039  27.427  23.220  1.00  0.00     0.163 HD
BRANCH   4   7
ATOM      7  C   UNL A   1      33.272  24.081  23.590  1.00  0.00     0.078 C 
ATOM      8  C   UNL A   1      32.375  21.609  22.894  1.00  0.00     0.009 C 
ATOM      9  C   UNL A   1      32.375  23.118  22.671  1.00  0.00     0.006 C 
ATOM     10  C   UNL A   1      31.134  23.816  23.274  1.00  0.00     0.006 C 
ATOM     11  C   UNL A   1      31.979  24.150  24.512  1.00  0.00     0.022 C 
BRANCH   7  12
ATOM     12  C   UNL A   1      34.658  23.391  24.183  1.00  0.00    -0.013 A 
ATOM     13  C   UNL A   1      35.734  23.102  23.303  1.00  0.00     0.008 A 
ATOM     14  C   UNL A   1      34.919  23.069  25.544  1.00  0.00     0.046 A 
ATOM     15  C   UNL A   1      36.931  22.503  23.715  1.00  0.00     0.021 A 
ATOM     16  C   UNL A   1      36.102  22.430  25.959  1.00  0.00     0.041 A 
ATOM     17  Cl  UNL A   1      33.822  23.443  26.825  1.00  0.00    -0.084 Cl
ATOM     18  C   UNL A   1      37.099  22.147  25.042  1.00  0.00     0.042 A 
ATOM     19  Cl  UNL A   1      38.544  21.369  25.550  1.00  0.00    -0.084 Cl
ENDBRANCH   7  12
ENDBRANCH   4   7
ENDBRANCH   2   3
ENDBRANCH   1   2
BRANCH   1  20
ATOM     20  C   UNL A   1      33.743  28.412  27.121  1.00  0.00     0.118 C 
BRANCH  20  21
ATOM     21  N   UNL A   1      33.690  29.813  27.510  1.00  0.00    -0.352 N 
ATOM     22  C   UNL A   1      34.604  30.596  28.168  1.00  0.00     0.251 C 
ATOM     23  H   UNL A   1      32.858  30.277  27.260  1.00  0.00     0.163 HD
ATOM     24  O   UNL A   1      34.269  31.720  28.546  1.00  0.00    -0.269 OA
BRANCH  22  25
ATOM     25  C   UNL A   1      35.971  30.110  28.458  1.00  0.00     0.039 A 
ATOM     26  C   UNL A   1      36.946  30.220  27.459  1.00  0.00     0.014 A 
ATOM     27  C   UNL A   1      36.295  29.508  29.676  1.00  0.00     0.014 A 
ATOM     28  C   UNL A   1      38.253  29.793  27.708  1.00  0.00     0.010 A 
ATOM     29  C   UNL A   1      37.617  29.159  29.952  1.00  0.00     0.010 A 
ATOM     30  C   UNL A   1      38.610  29.295  28.969  1.00  0.00    -0.014 A 
BRANCH  30  31
ATOM     31  C   UNL A   1      40.012  28.907  29.278  1.00  0.00     0.031 A 
ATOM     32  C   UNL A   1      40.913  29.847  30.030  1.00  0.00     0.074 A 
ATOM     33  C   UNL A   1      40.495  27.732  28.827  1.00  0.00     0.049 A 
ATOM     34  N   UNL A   1      42.185  29.725  30.318  1.00  0.00    -0.248 NA
ATOM     35  C   UNL A   1      40.311  31.104  30.501  1.00  0.00     0.031 C 
ATOM     36  C   UNL A   1      39.738  26.751  28.048  1.00  0.00     0.029 A 
ATOM     37  N   UNL A   1      41.742  27.171  28.945  1.00  0.00    -0.354 N 
ATOM     38  C   UNL A   1      42.534  30.887  30.994  1.00  0.00     0.074 A 
ATOM     39  C   UNL A   1      41.357  31.727  31.024  1.00  0.00     0.031 C 
ATOM     40  C   UNL A   1      40.531  25.705  27.768  1.00  0.00     0.029 A 
ATOM     41  C   UNL A   1      41.862  25.956  28.313  1.00  0.00     0.049 A 
ATOM     42  H   UNL A   1      42.481  27.598  29.436  1.00  0.00     0.167 HD
ATOM     43  C   UNL A   1      43.721  31.213  31.560  1.00  0.00     0.037 A 
ATOM     44  C   UNL A   1      42.927  25.144  28.176  1.00  0.00     0.037 A 
ATOM     45  C   UNL A   1      44.888  30.371  31.544  1.00  0.00     0.049 A 
ATOM     46  C   UNL A   1      44.237  25.535  28.805  1.00  0.00     0.074 A 
ATOM     47  C   UNL A   1      46.126  30.598  32.122  1.00  0.00     0.029 A 
ATOM     48  N   UNL A   1      44.961  29.135  30.919  1.00  0.00    -0.354 N 
ATOM     49  N   UNL A   1      44.538  26.613  29.487  1.00  0.00    -0.248 NA
ATOM     50  C   UNL A   1      45.354  24.592  28.650  1.00  0.00     0.031 C 
ATOM     51  C   UNL A   1      46.959  29.518  31.812  1.00  0.00     0.029 A 
ATOM     52  C   UNL A   1      46.227  28.596  31.083  1.00  0.00     0.049 A 
ATOM     53  H   UNL A   1      44.223  28.705  30.430  1.00  0.00     0.167 HD
ATOM     54  C   UNL A   1      45.866  26.465  29.867  1.00  0.00     0.074 A 
ATOM     55  C   UNL A   1      46.308  25.186  29.353  1.00  0.00     0.031 C 
ATOM     56  C   UNL A   1      46.649  27.316  30.575  1.00  0.00     0.037 A 
BRANCH  43  57
ATOM     57  C   UNL A   1      43.813  32.539  32.259  1.00  0.00     0.064 A 
ATOM     58  C   UNL A   1      44.167  33.708  31.567  1.00  0.00     0.173 A 
ATOM     59  C   UNL A   1      43.504  32.654  33.623  1.00  0.00     0.173 A 
ATOM     60  F   UNL A   1      44.483  33.651  30.264  1.00  0.00    -0.203 F 
ATOM     61  C   UNL A   1      44.235  34.936  32.220  1.00  0.00     0.198 A 
ATOM     62  C   UNL A   1      43.543  33.888  34.265  1.00  0.00     0.198 A 
ATOM     63  F   UNL A   1      43.151  31.570  34.330  1.00  0.00    -0.203 F 
ATOM     64  F   UNL A   1      44.622  36.029  31.548  1.00  0.00    -0.200 F 
ATOM     65  C   UNL A   1      43.916  35.026  33.566  1.00  0.00     0.200 A 
ATOM     66  F   UNL A   1      43.221  33.978  35.563  1.00  0.00    -0.200 F 
ATOM     67  F   UNL A   1      43.973  36.211  34.191  1.00  0.00    -0.200 F 
ENDBRANCH  43  57
BRANCH  44  68
ATOM     68  C   UNL A   1      42.798  23.872  27.418  1.00  0.00     0.064 A 
ATOM     69  C   UNL A   1      42.367  22.697  28.048  1.00  0.00     0.173 A 
ATOM     70  C   UNL A   1      43.116  23.804  26.053  1.00  0.00     0.173 A 
ATOM     71  F   UNL A   1      42.073  22.707  29.356  1.00  0.00    -0.203 F 
ATOM     72  C   UNL A   1      42.282  21.495  27.348  1.00  0.00     0.198 A 
ATOM     73  C   UNL A   1      43.001  22.607  25.348  1.00  0.00     0.198 A 
ATOM     74  F   UNL A   1      43.527  24.901  25.402  1.00  0.00    -0.203 F 
ATOM     75  F   UNL A   1      41.917  20.375  27.987  1.00  0.00    -0.200 F 
ATOM     76  C   UNL A   1      42.594  21.452  25.997  1.00  0.00     0.200 A 
ATOM     77  F   UNL A   1      43.289  22.574  24.039  1.00  0.00    -0.200 F 
ATOM     78  F   UNL A   1      42.511  20.296  25.325  1.00  0.00    -0.200 F 
ENDBRANCH  44  68
BRANCH  56  79
ATOM     79  C   UNL A   1      48.053  26.875  30.868  1.00  0.00     0.064 A 
ATOM     80  C   UNL A   1      48.356  26.057  31.966  1.00  0.00     0.173 A 
ATOM     81  C   UNL A   1      49.105  27.244  30.014  1.00  0.00     0.173 A 
ATOM     82  F   UNL A   1      47.389  25.690  32.821  1.00  0.00    -0.203 F 
ATOM     83  C   UNL A   1      49.664  25.648  32.215  1.00  0.00     0.198 A 
ATOM     84  C   UNL A   1      50.406  26.808  30.249  1.00  0.00     0.198 A 
ATOM     85  F   UNL A   1      48.867  28.020  28.946  1.00  0.00    -0.203 F 
ATOM     86  F   UNL A   1      49.937  24.908  33.298  1.00  0.00    -0.200 F 
ATOM     87  C   UNL A   1      50.686  26.017  31.352  1.00  0.00     0.200 A 
ATOM     88  F   UNL A   1      51.389  27.156  29.408  1.00  0.00    -0.200 F 
ATOM     89  F   UNL A   1      51.942  25.617  31.590  1.00  0.00    -0.200 F 
ENDBRANCH  56  79
ENDBRANCH  30  31
ENDBRANCH  22  25
ENDBRANCH  20  21
ENDBRANCH   1  20
TORSDOF 11
ENDMDL
MODEL 2
REMARK VINA RESULT:     -12.1      0.148      1.636
REMARK SMILES C[C@H]1CC[C@@]1(C(=O)NCCCNC(=O)c1ccc(-c2c3nc(c(-c4c(F)c(F)c(F)c(F)c4F)c4ccc([nH]4)c(-c4c(F)c(F)c(F)c(F)c4F)c4nc(c(-c5c(F)c(F)c(F)c(F)c5F)c5ccc2[nH]5)C=C4)C=C3)cc1)c1ccc(Cl)cc1Cl
REMARK SMILES IDX 10 1 9 2 8 3 6 4 7 5 5 7 1 8 2 9 3 10 4 11 78 12 79 13 84 14
REMARK SMILES IDX 80 15 83 16 85 17 81 18 82 19 11 20 12 21 13 22 14 24 15 25
REMARK SMILES IDX 16 26 77 27 17 28 76 29 18 30 19 31 20 32 70 33 21 34 75 35
REMARK SMILES IDX 69 36 71 37 22 38 74 39 68 40 67 41 23 43 55 44 35 45 54 46
REMARK SMILES IDX 36 47 39 48 53 49 72 50 37 51 38 52 52 54 73 55 40 56 24 57
REMARK SMILES IDX 25 58 33 59 26 60 27 61 31 62 34 63 28 64 29 65 32 66 30 67
REMARK SMILES IDX 56 68 57 69 65 70 58 71 59 72 63 73 66 74 60 75 61 76 64 77
REMARK SMILES IDX 62 78 41 79 42 80 50 81 43 82 44 83 48 84 51 85 45 86 46 87
REMARK SMILES IDX 49 88 47 89
REMARK H PARENT 8 6 12 23 71 42 39 53
REMARK Flexibility Score: inf
ROOT
ATOM      1  C   UNL A   1      33.910  28.153  25.606  1.00  0.00     0.042 C 
ENDROOT
BRANCH   1   2
ATOM      2  C   UNL A   1      33.670  26.720  25.151  1.00  0.00     0.117 C 
BRANCH   2   3
ATOM      3  N   UNL A   1      33.773  26.538  23.718  1.00  0.00    -0.355 N 
ATOM      4  C   UNL A   1      33.602  25.413  22.944  1.00  0.00     0.230 C 
ATOM      5  O   UNL A   1      33.643  25.596  21.720  1.00  0.00    -0.274 OA
ATOM      6  H   UNL A   1      34.002  27.353  23.215  1.00  0.00     0.163 HD
BRANCH   4   7
ATOM      7  C   UNL A   1      33.315  23.996  23.640  1.00  0.00     0.078 C 
ATOM      8  C   UNL A   1      32.503  21.485  22.979  1.00  0.00     0.009 C 
ATOM      9  C   UNL A   1      32.463  22.989  22.725  1.00  0.00     0.006 C 
ATOM     10  C   UNL A   1      31.191  23.662  23.290  1.00  0.00     0.006 C 
ATOM     11  C   UNL A   1      32.003  24.046  24.537  1.00  0.00     0.022 C 
BRANCH   7  12
ATOM     12  C   UNL A   1      34.709  23.359  24.272  1.00  0.00    -0.013 A 
ATOM     13  C   UNL A   1      35.821  23.116  23.424  1.00  0.00     0.008 A 
ATOM     14  C   UNL A   1      34.942  23.043  25.639  1.00  0.00     0.046 A 
ATOM     15  C   UNL A   1      37.028  22.563  23.870  1.00  0.00     0.021 A 
ATOM     16  C   UNL A   1      36.137  22.450  26.088  1.00  0.00     0.041 A 
ATOM     17  Cl  UNL A   1      33.794  23.370  26.888  1.00  0.00    -0.084 Cl
ATOM     18  C   UNL A   1      37.171  22.210  25.201  1.00  0.00     0.042 A 
ATOM     19  Cl  UNL A   1      38.630  21.488  25.750  1.00  0.00    -0.084 Cl
ENDBRANCH   7  12
ENDBRANCH   4   7
ENDBRANCH   2   3
ENDBRANCH   1   2
BRANCH   1  20
ATOM     20  C   UNL A   1      33.677  28.406  27.090  1.00  0.00     0.118 C 
BRANCH  20  21
ATOM     21  N   UNL A   1      33.650  29.821  27.428  1.00  0.00    -0.352 N 
ATOM     22  C   UNL A   1      34.578  30.612  28.056  1.00  0.00     0.251 C 
ATOM     23  H   UNL A   1      32.826  30.290  27.163  1.00  0.00     0.163 HD
ATOM     24  O   UNL A   1      34.264  31.754  28.394  1.00  0.00    -0.269 OA
BRANCH  22  25
ATOM     25  C   UNL A   1      35.938  30.113  28.361  1.00  0.00     0.039 A 
ATOM     26  C   UNL A   1      36.904  30.143  27.349  1.00  0.00     0.014 A 
ATOM     27  C   UNL A   1      36.262  29.576  29.609  1.00  0.00     0.014 A 
ATOM     28  C   UNL A   1      38.205  29.702  27.609  1.00  0.00     0.010 A 
ATOM     29  C   UNL A   1      37.578  29.214  29.893  1.00  0.00     0.010 A 
ATOM     30  C   UNL A   1      38.564  29.270  28.895  1.00  0.00    -0.014 A 
BRANCH  30  31
ATOM     31  C   UNL A   1      39.960  28.869  29.212  1.00  0.00     0.031 A 
ATOM     32  C   UNL A   1      40.870  29.808  29.956  1.00  0.00     0.074 A 
ATOM     33  C   UNL A   1      40.430  27.684  28.776  1.00  0.00     0.049 A 
ATOM     34  N   UNL A   1      42.139  29.674  30.250  1.00  0.00    -0.248 NA
ATOM     35  C   UNL A   1      40.281  31.078  30.411  1.00  0.00     0.031 C 
ATOM     36  C   UNL A   1      39.664  26.703  28.007  1.00  0.00     0.029 A 
ATOM     37  N   UNL A   1      41.671  27.110  28.905  1.00  0.00    -0.354 N 
ATOM     38  C   UNL A   1      42.500  30.840  30.913  1.00  0.00     0.074 A 
ATOM     39  C   UNL A   1      41.332  31.694  30.930  1.00  0.00     0.031 C 
ATOM     40  C   UNL A   1      40.446  25.644  27.741  1.00  0.00     0.029 A 
ATOM     41  C   UNL A   1      41.778  25.887  28.288  1.00  0.00     0.049 A 
ATOM     42  H   UNL A   1      42.413  27.534  29.393  1.00  0.00     0.167 HD
ATOM     43  C   UNL A   1      43.689  31.159  31.480  1.00  0.00     0.037 A 
ATOM     44  C   UNL A   1      42.834  25.060  28.164  1.00  0.00     0.037 A 
ATOM     45  C   UNL A   1      44.846  30.303  31.477  1.00  0.00     0.049 A 
ATOM     46  C   UNL A   1      44.147  25.443  28.792  1.00  0.00     0.074 A 
ATOM     47  C   UNL A   1      46.084  30.522  32.056  1.00  0.00     0.029 A 
ATOM     48  N   UNL A   1      44.906  29.059  30.866  1.00  0.00    -0.354 N 
ATOM     49  N   UNL A   1      44.458  26.525  29.463  1.00  0.00    -0.248 NA
ATOM     50  C   UNL A   1      45.253  24.486  28.652  1.00  0.00     0.031 C 
ATOM     51  C   UNL A   1      46.906  29.429  31.761  1.00  0.00     0.029 A 
ATOM     52  C   UNL A   1      46.166  28.507  31.042  1.00  0.00     0.049 A 
ATOM     53  H   UNL A   1      44.165  28.632  30.380  1.00  0.00     0.167 HD
ATOM     54  C   UNL A   1      45.783  26.367  29.849  1.00  0.00     0.074 A 
ATOM     55  C   UNL A   1      46.212  25.077  29.351  1.00  0.00     0.031 C 
ATOM     56  C   UNL A   1      46.574  27.216  30.550  1.00  0.00     0.037 A 
BRANCH  43  57
ATOM     57  C   UNL A   1      43.795  32.492  32.163  1.00  0.00     0.064 A 
ATOM     58  C   UNL A   1      43.504  32.640  33.528  1.00  0.00     0.173 A 
ATOM     59  C   UNL A   1      44.232  33.624  31.460  1.00  0.00     0.173 A 
ATOM     60  F   UNL A   1      43.071  31.590  34.243  1.00  0.00    -0.203 F 
ATOM     61  C   UNL A   1      43.619  33.877  34.156  1.00  0.00     0.198 A 
ATOM     62  C   UNL A   1      44.376  34.853  32.099  1.00  0.00     0.198 A 
ATOM     63  F   UNL A   1      44.531  33.538  30.155  1.00  0.00    -0.203 F 
ATOM     64  F   UNL A   1      43.290  34.002  35.450  1.00  0.00    -0.200 F 
ATOM     65  C   UNL A   1      44.062  34.981  33.444  1.00  0.00     0.200 A 
ATOM     66  F   UNL A   1      44.818  35.917  31.413  1.00  0.00    -0.200 F 
ATOM     67  F   UNL A   1      44.182  36.168  34.052  1.00  0.00    -0.200 F 
ENDBRANCH  43  57
BRANCH  44  68
ATOM     68  C   UNL A   1      42.693  23.781  27.420  1.00  0.00     0.064 A 
ATOM     69  C   UNL A   1      42.188  22.634  28.048  1.00  0.00     0.173 A 
ATOM     70  C   UNL A   1      43.071  23.677  26.073  1.00  0.00     0.173 A 
ATOM     71  F   UNL A   1      41.833  22.678  29.340  1.00  0.00    -0.203 F 
ATOM     72  C   UNL A   1      42.091  21.423  27.363  1.00  0.00     0.198 A 
ATOM     73  C   UNL A   1      42.945  22.474  25.383  1.00  0.00     0.198 A 
ATOM     74  F   UNL A   1      43.554  24.747  25.426  1.00  0.00    -0.203 F 
ATOM     75  F   UNL A   1      41.653  20.330  28.001  1.00  0.00    -0.200 F 
ATOM     76  C   UNL A   1      42.464  21.346  26.029  1.00  0.00     0.200 A 
ATOM     77  F   UNL A   1      43.292  22.407  24.090  1.00  0.00    -0.200 F 
ATOM     78  F   UNL A   1      42.369  20.182  25.372  1.00  0.00    -0.200 F 
ENDBRANCH  44  68
BRANCH  56  79
ATOM     79  C   UNL A   1      47.972  26.762  30.852  1.00  0.00     0.064 A 
ATOM     80  C   UNL A   1      49.057  27.129  30.043  1.00  0.00     0.173 A 
ATOM     81  C   UNL A   1      48.234  25.981  31.988  1.00  0.00     0.173 A 
ATOM     82  F   UNL A   1      48.857  27.862  28.937  1.00  0.00    -0.203 F 
ATOM     83  C   UNL A   1      50.350  26.709  30.346  1.00  0.00     0.198 A 
ATOM     84  C   UNL A   1      49.532  25.587  32.304  1.00  0.00     0.198 A 
ATOM     85  F   UNL A   1      47.232  25.608  32.798  1.00  0.00    -0.203 F 
ATOM     86  F   UNL A   1      51.365  27.030  29.532  1.00  0.00    -0.200 F 
ATOM     87  C   UNL A   1      50.587  25.945  31.480  1.00  0.00     0.200 A 
ATOM     88  F   UNL A   1      49.759  24.860  33.406  1.00  0.00    -0.200 F 
ATOM     89  F   UNL A   1      51.832  25.547  31.773  1.00  0.00    -0.200 F 
ENDBRANCH  56  79
ENDBRANCH  30  31
ENDBRANCH  22  25
ENDBRANCH  20  21
ENDBRANCH   1  20
TORSDOF 11
ENDMDL
MODEL 3
REMARK VINA RESULT:     -12.0      3.377      8.676
REMARK SMILES C[C@H]1CC[C@@]1(C(=O)NCCCNC(=O)c1ccc(-c2c3nc(c(-c4c(F)c(F)c(F)c(F)c4F)c4ccc([nH]4)c(-c4c(F)c(F)c(F)c(F)c4F)c4nc(c(-c5c(F)c(F)c(F)c(F)c5F)c5ccc2[nH]5)C=C4)C=C3)cc1)c1ccc(Cl)cc1Cl
REMARK SMILES IDX 10 1 9 2 8 3 6 4 7 5 5 7 1 8 2 9 3 10 4 11 78 12 79 13 84 14
REMARK SMILES IDX 80 15 83 16 85 17 81 18 82 19 11 20 12 21 13 22 14 24 15 25
REMARK SMILES IDX 16 26 77 27 17 28 76 29 18 30 19 31 20 32 70 33 21 34 75 35
REMARK SMILES IDX 69 36 71 37 22 38 74 39 68 40 67 41 23 43 55 44 35 45 54 46
REMARK SMILES IDX 36 47 39 48 53 49 72 50 37 51 38 52 52 54 73 55 40 56 24 57
REMARK SMILES IDX 25 58 33 59 26 60 27 61 31 62 34 63 28 64 29 65 32 66 30 67
REMARK SMILES IDX 56 68 57 69 65 70 58 71 59 72 63 73 66 74 60 75 61 76 64 77
REMARK SMILES IDX 62 78 41 79 42 80 50 81 43 82 44 83 48 84 51 85 45 86 46 87
REMARK SMILES IDX 49 88 47 89
REMARK H PARENT 8 6 12 23 71 42 39 53
REMARK Flexibility Score: inf
ROOT
ATOM      1  C   UNL A   1      35.693  23.415  26.032  1.00  0.00     0.042 C 
ENDROOT
BRANCH   1   2
ATOM      2  C   UNL A   1      34.490  24.286  25.695  1.00  0.00     0.117 C 
BRANCH   2   3
ATOM      3  N   UNL A   1      33.316  23.990  26.488  1.00  0.00    -0.355 N 
ATOM      4  C   UNL A   1      32.023  24.452  26.382  1.00  0.00     0.230 C 
ATOM      5  O   UNL A   1      31.203  23.923  27.144  1.00  0.00    -0.274 OA
ATOM      6  H   UNL A   1      33.466  23.353  27.225  1.00  0.00     0.163 HD
BRANCH   4   7
ATOM      7  C   UNL A   1      31.657  25.563  25.284  1.00  0.00     0.078 C 
ATOM      8  C   UNL A   1      29.471  26.680  24.111  1.00  0.00     0.009 C 
ATOM      9  C   UNL A   1      30.143  25.471  24.755  1.00  0.00     0.006 C 
ATOM     10  C   UNL A   1      30.642  24.437  23.719  1.00  0.00     0.006 C 
ATOM     11  C   UNL A   1      32.035  25.077  23.819  1.00  0.00     0.022 C 
BRANCH   7  12
ATOM     12  C   UNL A   1      32.132  27.068  25.790  1.00  0.00    -0.013 A 
ATOM     13  C   UNL A   1      31.624  27.596  27.006  1.00  0.00     0.008 A 
ATOM     14  C   UNL A   1      33.060  27.921  25.131  1.00  0.00     0.046 A 
ATOM     15  C   UNL A   1      31.957  28.865  27.497  1.00  0.00     0.021 A 
ATOM     16  C   UNL A   1      33.368  29.212  25.596  1.00  0.00     0.041 A 
ATOM     17  Cl  UNL A   1      33.915  27.453  23.704  1.00  0.00    -0.084 Cl
ATOM     18  C   UNL A   1      32.811  29.679  26.775  1.00  0.00     0.042 A 
ATOM     19  Cl  UNL A   1      33.190  31.255  27.344  1.00  0.00    -0.084 Cl
ENDBRANCH   7  12
ENDBRANCH   4   7
ENDBRANCH   2   3
ENDBRANCH   1   2
BRANCH   1  20
ATOM     20  C   UNL A   1      36.971  23.762  25.279  1.00  0.00     0.118 C 
BRANCH  20  21
ATOM     21  N   UNL A   1      38.066  22.849  25.567  1.00  0.00    -0.352 N 
ATOM     22  C   UNL A   1      39.274  23.062  26.181  1.00  0.00     0.251 C 
ATOM     23  H   UNL A   1      37.916  21.922  25.271  1.00  0.00     0.163 HD
ATOM     24  O   UNL A   1      40.124  22.170  26.160  1.00  0.00    -0.269 OA
BRANCH  22  25
ATOM     25  C   UNL A   1      39.589  24.348  26.842  1.00  0.00     0.039 A 
ATOM     26  C   UNL A   1      39.171  24.541  28.163  1.00  0.00     0.014 A 
ATOM     27  C   UNL A   1      40.246  25.380  26.168  1.00  0.00     0.014 A 
ATOM     28  C   UNL A   1      39.472  25.734  28.826  1.00  0.00     0.010 A 
ATOM     29  C   UNL A   1      40.617  26.536  26.854  1.00  0.00     0.010 A 
ATOM     30  C   UNL A   1      40.232  26.727  28.190  1.00  0.00    -0.014 A 
BRANCH  30  31
ATOM     31  C   UNL A   1      40.628  27.971  28.903  1.00  0.00     0.031 A 
ATOM     32  C   UNL A   1      42.013  28.113  29.471  1.00  0.00     0.074 A 
ATOM     33  C   UNL A   1      39.721  28.949  29.092  1.00  0.00     0.049 A 
ATOM     34  N   UNL A   1      42.517  29.081  30.196  1.00  0.00    -0.248 NA
ATOM     35  C   UNL A   1      42.951  27.009  29.212  1.00  0.00     0.031 C 
ATOM     36  C   UNL A   1      38.333  28.916  28.630  1.00  0.00     0.029 A 
ATOM     37  N   UNL A   1      39.827  30.156  29.738  1.00  0.00    -0.354 N 
ATOM     38  C   UNL A   1      43.822  28.699  30.483  1.00  0.00     0.074 A 
ATOM     39  C   UNL A   1      44.015  27.388  29.904  1.00  0.00     0.031 C 
ATOM     40  C   UNL A   1      37.719  30.053  28.996  1.00  0.00     0.029 A 
ATOM     41  C   UNL A   1      38.658  30.879  29.751  1.00  0.00     0.049 A 
ATOM     42  H   UNL A   1      40.661  30.474  30.152  1.00  0.00     0.167 HD
ATOM     43  C   UNL A   1      44.779  29.391  31.147  1.00  0.00     0.037 A 
ATOM     44  C   UNL A   1      38.370  32.065  30.318  1.00  0.00     0.037 A 
ATOM     45  C   UNL A   1      44.592  30.702  31.710  1.00  0.00     0.049 A 
ATOM     46  C   UNL A   1      39.448  32.807  31.061  1.00  0.00     0.074 A 
ATOM     47  C   UNL A   1      45.513  31.499  32.368  1.00  0.00     0.029 A 
ATOM     48  N   UNL A   1      43.401  31.413  31.676  1.00  0.00    -0.354 N 
ATOM     49  N   UNL A   1      40.693  32.459  31.278  1.00  0.00    -0.248 NA
ATOM     50  C   UNL A   1      39.083  34.112  31.630  1.00  0.00     0.031 C 
ATOM     51  C   UNL A   1      44.868  32.674  32.769  1.00  0.00     0.029 A 
ATOM     52  C   UNL A   1      43.560  32.632  32.317  1.00  0.00     0.049 A 
ATOM     53  H   UNL A   1      42.567  31.098  31.260  1.00  0.00     0.167 HD
ATOM     54  C   UNL A   1      41.266  33.510  31.982  1.00  0.00     0.074 A 
ATOM     55  C   UNL A   1      40.237  34.516  32.141  1.00  0.00     0.031 C 
ATOM     56  C   UNL A   1      42.530  33.629  32.457  1.00  0.00     0.037 A 
BRANCH  43  57
ATOM     57  C   UNL A   1      46.126  28.742  31.292  1.00  0.00     0.064 A 
ATOM     58  C   UNL A   1      47.133  28.925  30.332  1.00  0.00     0.173 A 
ATOM     59  C   UNL A   1      46.430  27.967  32.421  1.00  0.00     0.173 A 
ATOM     60  F   UNL A   1      46.891  29.650  29.229  1.00  0.00    -0.203 F 
ATOM     61  C   UNL A   1      48.384  28.333  30.483  1.00  0.00     0.198 A 
ATOM     62  C   UNL A   1      47.691  27.401  32.583  1.00  0.00     0.198 A 
ATOM     63  F   UNL A   1      45.506  27.766  33.373  1.00  0.00    -0.203 F 
ATOM     64  F   UNL A   1      49.314  28.484  29.529  1.00  0.00    -0.200 F 
ATOM     65  C   UNL A   1      48.665  27.577  31.611  1.00  0.00     0.200 A 
ATOM     66  F   UNL A   1      47.967  26.682  33.680  1.00  0.00    -0.200 F 
ATOM     67  F   UNL A   1      49.872  27.016  31.759  1.00  0.00    -0.200 F 
ENDBRANCH  43  57
BRANCH  44  68
ATOM     68  C   UNL A   1      37.001  32.632  30.201  1.00  0.00     0.064 A 
ATOM     69  C   UNL A   1      36.622  33.376  29.075  1.00  0.00     0.173 A 
ATOM     70  C   UNL A   1      36.049  32.453  31.216  1.00  0.00     0.173 A 
ATOM     71  F   UNL A   1      37.503  33.592  28.088  1.00  0.00    -0.203 F 
ATOM     72  C   UNL A   1      35.352  33.941  28.979  1.00  0.00     0.198 A 
ATOM     73  C   UNL A   1      34.770  32.993  31.105  1.00  0.00     0.198 A 
ATOM     74  F   UNL A   1      36.359  31.745  32.311  1.00  0.00    -0.203 F 
ATOM     75  F   UNL A   1      35.033  34.690  27.915  1.00  0.00    -0.200 F 
ATOM     76  C   UNL A   1      34.424  33.744  29.992  1.00  0.00     0.200 A 
ATOM     77  F   UNL A   1      33.872  32.788  32.079  1.00  0.00    -0.200 F 
ATOM     78  F   UNL A   1      33.203  34.287  29.899  1.00  0.00    -0.200 F 
ENDBRANCH  44  68
BRANCH  56  79
ATOM     79  C   UNL A   1      42.883  34.906  33.161  1.00  0.00     0.064 A 
ATOM     80  C   UNL A   1      42.773  35.035  34.553  1.00  0.00     0.173 A 
ATOM     81  C   UNL A   1      43.373  36.003  32.437  1.00  0.00     0.173 A 
ATOM     82  F   UNL A   1      42.295  34.020  35.290  1.00  0.00    -0.203 F 
ATOM     83  C   UNL A   1      43.117  36.224  35.191  1.00  0.00     0.198 A 
ATOM     84  C   UNL A   1      43.744  37.180  33.081  1.00  0.00     0.198 A 
ATOM     85  F   UNL A   1      43.503  35.929  31.104  1.00  0.00    -0.203 F 
ATOM     86  F   UNL A   1      42.958  36.342  36.517  1.00  0.00    -0.200 F 
ATOM     87  C   UNL A   1      43.609  37.293  34.455  1.00  0.00     0.200 A 
ATOM     88  F   UNL A   1      44.231  38.206  32.369  1.00  0.00    -0.200 F 
ATOM     89  F   UNL A   1      43.945  38.434  35.072  1.00  0.00    -0.200 F 
ENDBRANCH  56  79
ENDBRANCH  30  31
ENDBRANCH  22  25
ENDBRANCH  20  21
ENDBRANCH   1  20
TORSDOF 11
ENDMDL
