MODEL 1
REMARK VINA RESULT:     -12.1      0.000      0.000
REMARK SMILES O=C(CSc1nc2cnccc2n1CCC(F)(F)F)NCCCNC(=O)c1ccc(-c2c3nc(c(-c4c(F)c(F)c(F)c(F)c4F)c4ccc([nH]4)c(-c4c(F)c(F)c(F)c(F)c4F)c4nc(c(-c5c(F)c(F)c(F)c(F)c5F)c5ccc2[nH]5)C=C4)C=C3)cc1
REMARK SMILES IDX 1 1 2 2 20 3 3 5 4 6 5 7 6 8 13 9 7 10 12 11 8 12 11 13 9 14
REMARK SMILES IDX 10 15 14 16 15 17 16 18 17 19 18 20 19 21 21 22 22 23 23 24
REMARK SMILES IDX 24 25 25 26 26 28 27 29 28 30 89 31 29 32 88 33 30 34 31 35
REMARK SMILES IDX 32 36 82 37 33 38 87 39 81 40 83 41 34 42 86 43 80 44 79 45
REMARK SMILES IDX 35 47 67 48 47 49 66 50 48 51 51 52 65 53 84 54 49 55 50 56
REMARK SMILES IDX 64 58 85 59 52 60 36 61 37 62 45 63 38 64 39 65 43 66 46 67
REMARK SMILES IDX 40 68 41 69 44 70 42 71 68 72 69 73 77 74 70 75 71 76 75 77
REMARK SMILES IDX 78 78 72 79 73 80 76 81 74 82 53 83 54 84 62 85 55 86 56 87
REMARK SMILES IDX 60 88 63 89 57 90 58 91 61 92 59 93
REMARK H PARENT 20 4 24 27 83 46 51 57
REMARK Flexibility Score: inf
ROOT
ATOM      1  O   UNL A   1      35.106  23.668  23.863  1.00  0.00    -0.274 OA
ATOM      2  C   UNL A   1      34.939  23.569  25.081  1.00  0.00     0.230 C 
ATOM      3  N   UNL A   1      35.463  22.515  25.797  1.00  0.00    -0.355 N 
ATOM      4  H   UNL A   1      35.526  22.604  26.775  1.00  0.00     0.163 HD
ENDROOT
BRANCH   2   5
ATOM      5  C   UNL A   1      34.163  24.600  25.901  1.00  0.00     0.178 C 
BRANCH   5   6
ATOM      6  S   UNL A   1      32.866  25.431  24.926  1.00  0.00    -0.078 SA
BRANCH   6   7
ATOM      7  C   UNL A   1      33.093  27.148  25.122  1.00  0.00     0.169 A 
ATOM      8  N   UNL A   1      34.105  27.649  25.800  1.00  0.00    -0.221 NA
ATOM      9  N   UNL A   1      32.113  28.100  24.945  1.00  0.00    -0.318 N 
ATOM     10  C   UNL A   1      33.698  28.902  26.211  1.00  0.00     0.108 A 
ATOM     11  C   UNL A   1      32.419  29.179  25.742  1.00  0.00     0.072 A 
ATOM     12  C   UNL A   1      34.326  29.855  27.019  1.00  0.00     0.141 A 
ATOM     13  C   UNL A   1      31.722  30.339  26.083  1.00  0.00     0.049 A 
ATOM     14  N   UNL A   1      33.673  30.999  27.370  1.00  0.00    -0.262 NA
ATOM     15  C   UNL A   1      32.415  31.203  26.917  1.00  0.00     0.113 A 
BRANCH   9  16
ATOM     16  C   UNL A   1      30.937  28.053  24.115  1.00  0.00     0.134 C 
BRANCH  16  17
ATOM     17  C   UNL A   1      30.958  28.924  22.859  1.00  0.00     0.137 C 
BRANCH  17  18
ATOM     18  C   UNL A   1      29.687  29.685  22.556  1.00  0.00     0.390 C 
ATOM     19  F   UNL A   1      29.521  30.738  23.371  1.00  0.00    -0.171 F 
ATOM     20  F   UNL A   1      29.708  30.144  21.287  1.00  0.00    -0.171 F 
ATOM     21  F   UNL A   1      28.603  28.894  22.683  1.00  0.00    -0.171 F 
ENDBRANCH  17  18
ENDBRANCH  16  17
ENDBRANCH   9  16
ENDBRANCH   6   7
ENDBRANCH   5   6
ENDBRANCH   2   5
BRANCH   3  22
ATOM     22  C   UNL A   1      35.927  21.283  25.188  1.00  0.00     0.117 C 
BRANCH  22  23
ATOM     23  C   UNL A   1      37.437  21.181  25.039  1.00  0.00     0.042 C 
BRANCH  23  24
ATOM     24  C   UNL A   1      38.204  22.297  25.743  1.00  0.00     0.118 C 
BRANCH  24  25
ATOM     25  N   UNL A   1      39.388  21.834  26.439  1.00  0.00    -0.352 N 
ATOM     26  C   UNL A   1      40.324  22.403  27.250  1.00  0.00     0.251 C 
ATOM     27  H   UNL A   1      39.559  20.876  26.290  1.00  0.00     0.163 HD
ATOM     28  O   UNL A   1      41.113  21.620  27.788  1.00  0.00    -0.269 OA
BRANCH  26  29
ATOM     29  C   UNL A   1      40.499  23.859  27.483  1.00  0.00     0.039 A 
ATOM     30  C   UNL A   1      41.582  24.452  28.129  1.00  0.00     0.014 A 
ATOM     31  C   UNL A   1      39.408  24.671  27.107  1.00  0.00     0.014 A 
ATOM     32  C   UNL A   1      41.533  25.800  28.473  1.00  0.00     0.010 A 
ATOM     33  C   UNL A   1      39.357  26.017  27.446  1.00  0.00     0.010 A 
ATOM     34  C   UNL A   1      40.400  26.568  28.178  1.00  0.00    -0.014 A 
BRANCH  34  35
ATOM     35  C   UNL A   1      40.386  27.959  28.615  1.00  0.00     0.031 A 
ATOM     36  C   UNL A   1      41.503  28.792  28.091  1.00  0.00     0.074 A 
ATOM     37  C   UNL A   1      39.435  28.496  29.408  1.00  0.00     0.049 A 
ATOM     38  N   UNL A   1      42.469  29.329  28.763  1.00  0.00    -0.248 NA
ATOM     39  C   UNL A   1      41.628  28.950  26.635  1.00  0.00     0.031 C 
ATOM     40  C   UNL A   1      38.153  27.929  29.834  1.00  0.00     0.029 A 
ATOM     41  N   UNL A   1      39.416  29.738  29.967  1.00  0.00    -0.354 N 
ATOM     42  C   UNL A   1      43.260  30.010  27.841  1.00  0.00     0.074 A 
ATOM     43  C   UNL A   1      42.757  29.657  26.539  1.00  0.00     0.031 C 
ATOM     44  C   UNL A   1      37.398  28.901  30.399  1.00  0.00     0.029 A 
ATOM     45  C   UNL A   1      38.195  30.111  30.510  1.00  0.00     0.049 A 
ATOM     46  H   UNL A   1      40.206  30.325  29.986  1.00  0.00     0.167 HD
ATOM     47  C   UNL A   1      44.172  30.942  28.240  1.00  0.00     0.037 A 
ATOM     48  C   UNL A   1      37.862  31.341  30.979  1.00  0.00     0.037 A 
ATOM     49  C   UNL A   1      44.494  30.790  29.634  1.00  0.00     0.049 A 
ATOM     50  C   UNL A   1      39.128  32.042  31.316  1.00  0.00     0.074 A 
ATOM     51  C   UNL A   1      45.086  29.795  30.389  1.00  0.00     0.029 A 
ATOM     52  N   UNL A   1      43.889  31.625  30.541  1.00  0.00    -0.354 N 
ATOM     53  N   UNL A   1      39.901  31.695  32.307  1.00  0.00    -0.248 NA
ATOM     54  C   UNL A   1      39.760  32.831  30.269  1.00  0.00     0.031 C 
ATOM     55  C   UNL A   1      44.378  29.802  31.625  1.00  0.00     0.029 A 
ATOM     56  C   UNL A   1      43.443  30.836  31.569  1.00  0.00     0.049 A 
ATOM     57  H   UNL A   1      43.792  32.602  30.466  1.00  0.00     0.167 HD
ATOM     58  C   UNL A   1      41.187  31.839  31.810  1.00  0.00     0.074 A 
ATOM     59  C   UNL A   1      41.041  32.612  30.579  1.00  0.00     0.031 C 
ATOM     60  C   UNL A   1      42.219  31.082  32.287  1.00  0.00     0.037 A 
BRANCH  47  61
ATOM     61  C   UNL A   1      44.535  32.188  27.472  1.00  0.00     0.064 A 
ATOM     62  C   UNL A   1      45.776  32.245  26.799  1.00  0.00     0.173 A 
ATOM     63  C   UNL A   1      43.877  33.425  27.636  1.00  0.00     0.173 A 
ATOM     64  F   UNL A   1      46.490  31.130  26.585  1.00  0.00    -0.203 F 
ATOM     65  C   UNL A   1      46.357  33.457  26.422  1.00  0.00     0.198 A 
ATOM     66  C   UNL A   1      44.440  34.628  27.213  1.00  0.00     0.198 A 
ATOM     67  F   UNL A   1      42.724  33.535  28.306  1.00  0.00    -0.203 F 
ATOM     68  F   UNL A   1      47.597  33.470  25.911  1.00  0.00    -0.200 F 
ATOM     69  C   UNL A   1      45.695  34.650  26.641  1.00  0.00     0.200 A 
ATOM     70  F   UNL A   1      43.787  35.776  27.444  1.00  0.00    -0.200 F 
ATOM     71  F   UNL A   1      46.280  35.817  26.348  1.00  0.00    -0.200 F 
ENDBRANCH  47  61
BRANCH  48  72
ATOM     72  C   UNL A   1      36.571  32.060  30.846  1.00  0.00     0.064 A 
ATOM     73  C   UNL A   1      35.809  32.407  31.975  1.00  0.00     0.173 A 
ATOM     74  C   UNL A   1      36.207  32.677  29.634  1.00  0.00     0.173 A 
ATOM     75  F   UNL A   1      36.116  31.902  33.178  1.00  0.00    -0.203 F 
ATOM     76  C   UNL A   1      34.766  33.338  31.899  1.00  0.00     0.198 A 
ATOM     77  C   UNL A   1      35.164  33.602  29.559  1.00  0.00     0.198 A 
ATOM     78  F   UNL A   1      36.920  32.471  28.517  1.00  0.00    -0.203 F 
ATOM     79  F   UNL A   1      34.102  33.692  33.010  1.00  0.00    -0.200 F 
ATOM     80  C   UNL A   1      34.452  33.942  30.693  1.00  0.00     0.200 A 
ATOM     81  F   UNL A   1      34.898  34.209  28.393  1.00  0.00    -0.200 F 
ATOM     82  F   UNL A   1      33.498  34.882  30.632  1.00  0.00    -0.200 F 
ENDBRANCH  48  72
BRANCH  60  83
ATOM     83  C   UNL A   1      41.977  30.243  33.510  1.00  0.00     0.064 A 
ATOM     84  C   UNL A   1      41.540  28.908  33.464  1.00  0.00     0.173 A 
ATOM     85  C   UNL A   1      42.379  30.750  34.753  1.00  0.00     0.173 A 
ATOM     86  F   UNL A   1      41.236  28.321  32.300  1.00  0.00    -0.203 F 
ATOM     87  C   UNL A   1      41.482  28.128  34.617  1.00  0.00     0.198 A 
ATOM     88  C   UNL A   1      42.354  29.957  35.897  1.00  0.00     0.198 A 
ATOM     89  F   UNL A   1      42.859  31.999  34.845  1.00  0.00    -0.203 F 
ATOM     90  F   UNL A   1      41.067  26.853  34.547  1.00  0.00    -0.200 F 
ATOM     91  C   UNL A   1      41.899  28.649  35.830  1.00  0.00     0.200 A 
ATOM     92  F   UNL A   1      42.809  30.448  37.057  1.00  0.00    -0.200 F 
ATOM     93  F   UNL A   1      41.897  27.881  36.928  1.00  0.00    -0.200 F 
ENDBRANCH  60  83
ENDBRANCH  34  35
ENDBRANCH  26  29
ENDBRANCH  24  25
ENDBRANCH  23  24
ENDBRANCH  22  23
ENDBRANCH   3  22
TORSDOF 15
ENDMDL
MODEL 2
REMARK VINA RESULT:     -12.0      3.753      9.287
REMARK SMILES O=C(CSc1nc2cnccc2n1CCC(F)(F)F)NCCCNC(=O)c1ccc(-c2c3nc(c(-c4c(F)c(F)c(F)c(F)c4F)c4ccc([nH]4)c(-c4c(F)c(F)c(F)c(F)c4F)c4nc(c(-c5c(F)c(F)c(F)c(F)c5F)c5ccc2[nH]5)C=C4)C=C3)cc1
REMARK SMILES IDX 1 1 2 2 20 3 3 5 4 6 5 7 6 8 13 9 7 10 12 11 8 12 11 13 9 14
REMARK SMILES IDX 10 15 14 16 15 17 16 18 17 19 18 20 19 21 21 22 22 23 23 24
REMARK SMILES IDX 24 25 25 26 26 28 27 29 28 30 89 31 29 32 88 33 30 34 31 35
REMARK SMILES IDX 32 36 82 37 33 38 87 39 81 40 83 41 34 42 86 43 80 44 79 45
REMARK SMILES IDX 35 47 67 48 47 49 66 50 48 51 51 52 65 53 84 54 49 55 50 56
REMARK SMILES IDX 64 58 85 59 52 60 36 61 37 62 45 63 38 64 39 65 43 66 46 67
REMARK SMILES IDX 40 68 41 69 44 70 42 71 68 72 69 73 77 74 70 75 71 76 75 77
REMARK SMILES IDX 78 78 72 79 73 80 76 81 74 82 53 83 54 84 62 85 55 86 56 87
REMARK SMILES IDX 60 88 63 89 57 90 58 91 61 92 59 93
REMARK H PARENT 20 4 24 27 83 46 51 57
REMARK Flexibility Score: inf
ROOT
ATOM      1  O   UNL A   1      33.599  27.449  25.349  1.00  0.00    -0.274 OA
ATOM      2  C   UNL A   1      32.492  27.541  24.813  1.00  0.00     0.230 C 
ATOM      3  N   UNL A   1      31.546  28.436  25.262  1.00  0.00    -0.355 N 
ATOM      4  H   UNL A   1      30.794  28.655  24.667  1.00  0.00     0.163 HD
ENDROOT
BRANCH   2   5
ATOM      5  C   UNL A   1      32.079  26.697  23.606  1.00  0.00     0.178 C 
BRANCH   5   6
ATOM      6  S   UNL A   1      33.505  26.194  22.589  1.00  0.00    -0.078 SA
BRANCH   6   7
ATOM      7  C   UNL A   1      33.626  24.458  22.691  1.00  0.00     0.169 A 
ATOM      8  N   UNL A   1      32.892  23.658  21.946  1.00  0.00    -0.221 NA
ATOM      9  N   UNL A   1      34.170  23.765  23.751  1.00  0.00    -0.318 N 
ATOM     10  C   UNL A   1      32.827  22.462  22.630  1.00  0.00     0.108 A 
ATOM     11  C   UNL A   1      33.568  22.529  23.803  1.00  0.00     0.072 A 
ATOM     12  C   UNL A   1      32.129  21.281  22.356  1.00  0.00     0.141 A 
ATOM     13  C   UNL A   1      33.605  21.492  24.736  1.00  0.00     0.049 A 
ATOM     14  N   UNL A   1      32.145  20.249  23.246  1.00  0.00    -0.262 NA
ATOM     15  C   UNL A   1      32.852  20.380  24.391  1.00  0.00     0.113 A 
BRANCH   9  16
ATOM     16  C   UNL A   1      35.173  24.185  24.694  1.00  0.00     0.134 C 
BRANCH  16  17
ATOM     17  C   UNL A   1      36.600  23.708  24.423  1.00  0.00     0.137 C 
BRANCH  17  18
ATOM     18  C   UNL A   1      37.345  23.132  25.606  1.00  0.00     0.390 C 
ATOM     19  F   UNL A   1      38.337  22.312  25.229  1.00  0.00    -0.171 F 
ATOM     20  F   UNL A   1      37.887  24.123  26.346  1.00  0.00    -0.171 F 
ATOM     21  F   UNL A   1      36.519  22.434  26.410  1.00  0.00    -0.171 F 
ENDBRANCH  17  18
ENDBRANCH  16  17
ENDBRANCH   9  16
ENDBRANCH   6   7
ENDBRANCH   5   6
ENDBRANCH   2   5
BRANCH   3  22
ATOM     22  C   UNL A   1      31.599  29.073  26.564  1.00  0.00     0.117 C 
BRANCH  22  23
ATOM     23  C   UNL A   1      32.313  30.414  26.584  1.00  0.00     0.042 C 
BRANCH  23  24
ATOM     24  C   UNL A   1      33.489  30.473  27.556  1.00  0.00     0.118 C 
BRANCH  24  25
ATOM     25  N   UNL A   1      34.126  31.775  27.612  1.00  0.00    -0.352 N 
ATOM     26  C   UNL A   1      35.393  32.228  27.832  1.00  0.00     0.251 C 
ATOM     27  H   UNL A   1      33.491  32.509  27.451  1.00  0.00     0.163 HD
ATOM     28  O   UNL A   1      35.570  33.434  27.636  1.00  0.00    -0.269 OA
BRANCH  26  29
ATOM     29  C   UNL A   1      36.529  31.415  28.334  1.00  0.00     0.039 A 
ATOM     30  C   UNL A   1      37.660  31.914  28.977  1.00  0.00     0.014 A 
ATOM     31  C   UNL A   1      36.480  30.040  28.020  1.00  0.00     0.014 A 
ATOM     32  C   UNL A   1      38.750  31.080  29.212  1.00  0.00     0.010 A 
ATOM     33  C   UNL A   1      37.565  29.205  28.255  1.00  0.00     0.010 A 
ATOM     34  C   UNL A   1      38.721  29.741  28.803  1.00  0.00    -0.014 A 
BRANCH  34  35
ATOM     35  C   UNL A   1      39.916  28.934  29.026  1.00  0.00     0.031 A 
ATOM     36  C   UNL A   1      40.250  28.691  30.457  1.00  0.00     0.074 A 
ATOM     37  C   UNL A   1      40.669  28.405  28.039  1.00  0.00     0.049 A 
ATOM     38  N   UNL A   1      41.280  29.122  31.110  1.00  0.00    -0.248 NA
ATOM     39  C   UNL A   1      39.267  27.984  31.289  1.00  0.00     0.031 C 
ATOM     40  C   UNL A   1      40.394  28.325  26.603  1.00  0.00     0.029 A 
ATOM     41  N   UNL A   1      41.862  27.757  28.153  1.00  0.00    -0.354 N 
ATOM     42  C   UNL A   1      41.156  28.634  32.409  1.00  0.00     0.074 A 
ATOM     43  C   UNL A   1      39.851  28.031  32.490  1.00  0.00     0.031 C 
ATOM     44  C   UNL A   1      41.282  27.485  26.021  1.00  0.00     0.029 A 
ATOM     45  C   UNL A   1      42.272  27.089  27.009  1.00  0.00     0.049 A 
ATOM     46  H   UNL A   1      42.393  27.763  28.983  1.00  0.00     0.167 HD
ATOM     47  C   UNL A   1      42.213  28.630  33.269  1.00  0.00     0.037 A 
ATOM     48  C   UNL A   1      43.329  26.244  26.902  1.00  0.00     0.037 A 
ATOM     49  C   UNL A   1      43.239  29.542  32.836  1.00  0.00     0.049 A 
ATOM     50  C   UNL A   1      44.263  26.564  28.011  1.00  0.00     0.074 A 
ATOM     51  C   UNL A   1      43.306  30.911  32.659  1.00  0.00     0.029 A 
ATOM     52  N   UNL A   1      44.330  29.033  32.176  1.00  0.00    -0.354 N 
ATOM     53  N   UNL A   1      44.949  27.671  28.079  1.00  0.00    -0.248 NA
ATOM     54  C   UNL A   1      44.081  25.858  29.272  1.00  0.00     0.031 C 
ATOM     55  C   UNL A   1      44.113  31.091  31.499  1.00  0.00     0.029 A 
ATOM     56  C   UNL A   1      44.534  29.829  31.079  1.00  0.00     0.049 A 
ATOM     57  H   UNL A   1      44.863  28.248  32.439  1.00  0.00     0.167 HD
ATOM     58  C   UNL A   1      44.908  28.024  29.418  1.00  0.00     0.074 A 
ATOM     59  C   UNL A   1      44.426  26.835  30.116  1.00  0.00     0.031 C 
ATOM     60  C   UNL A   1      44.998  29.329  29.809  1.00  0.00     0.037 A 
BRANCH  47  61
ATOM     61  C   UNL A   1      42.475  27.581  34.321  1.00  0.00     0.064 A 
ATOM     62  C   UNL A   1      43.064  26.356  33.937  1.00  0.00     0.173 A 
ATOM     63  C   UNL A   1      41.887  27.597  35.603  1.00  0.00     0.173 A 
ATOM     64  F   UNL A   1      43.654  26.224  32.740  1.00  0.00    -0.203 F 
ATOM     65  C   UNL A   1      42.971  25.211  34.732  1.00  0.00     0.198 A 
ATOM     66  C   UNL A   1      41.841  26.464  36.414  1.00  0.00     0.198 A 
ATOM     67  F   UNL A   1      41.240  28.668  36.076  1.00  0.00    -0.203 F 
ATOM     68  F   UNL A   1      43.424  24.039  34.265  1.00  0.00    -0.200 F 
ATOM     69  C   UNL A   1      42.348  25.262  35.964  1.00  0.00     0.200 A 
ATOM     70  F   UNL A   1      41.222  26.530  37.600  1.00  0.00    -0.200 F 
ATOM     71  F   UNL A   1      42.192  24.152  36.695  1.00  0.00    -0.200 F 
ENDBRANCH  47  61
BRANCH  48  72
ATOM     72  C   UNL A   1      43.427  24.985  26.125  1.00  0.00     0.064 A 
ATOM     73  C   UNL A   1      44.464  24.777  25.199  1.00  0.00     0.173 A 
ATOM     74  C   UNL A   1      42.678  23.848  26.487  1.00  0.00     0.173 A 
ATOM     75  F   UNL A   1      45.256  25.794  24.833  1.00  0.00    -0.203 F 
ATOM     76  C   UNL A   1      44.752  23.504  24.692  1.00  0.00     0.198 A 
ATOM     77  C   UNL A   1      42.964  22.581  25.977  1.00  0.00     0.198 A 
ATOM     78  F   UNL A   1      41.718  23.928  27.420  1.00  0.00    -0.203 F 
ATOM     79  F   UNL A   1      45.790  23.333  23.859  1.00  0.00    -0.200 F 
ATOM     80  C   UNL A   1      44.009  22.406  25.091  1.00  0.00     0.200 A 
ATOM     81  F   UNL A   1      42.261  21.521  26.403  1.00  0.00    -0.200 F 
ATOM     82  F   UNL A   1      44.325  21.177  24.657  1.00  0.00    -0.200 F 
ENDBRANCH  48  72
BRANCH  60  83
ATOM     83  C   UNL A   1      45.358  30.357  28.775  1.00  0.00     0.064 A 
ATOM     84  C   UNL A   1      44.417  30.982  27.937  1.00  0.00     0.173 A 
ATOM     85  C   UNL A   1      46.667  30.856  28.762  1.00  0.00     0.173 A 
ATOM     86  F   UNL A   1      43.126  30.630  27.966  1.00  0.00    -0.203 F 
ATOM     87  C   UNL A   1      44.782  32.039  27.105  1.00  0.00     0.198 A 
ATOM     88  C   UNL A   1      47.019  31.935  27.956  1.00  0.00     0.198 A 
ATOM     89  F   UNL A   1      47.592  30.336  29.582  1.00  0.00    -0.203 F 
ATOM     90  F   UNL A   1      43.864  32.623  26.319  1.00  0.00    -0.200 F 
ATOM     91  C   UNL A   1      46.079  32.522  27.123  1.00  0.00     0.200 A 
ATOM     92  F   UNL A   1      48.262  32.433  28.016  1.00  0.00    -0.200 F 
ATOM     93  F   UNL A   1      46.416  33.574  26.365  1.00  0.00    -0.200 F 
ENDBRANCH  60  83
ENDBRANCH  34  35
ENDBRANCH  26  29
ENDBRANCH  24  25
ENDBRANCH  23  24
ENDBRANCH  22  23
ENDBRANCH   3  22
TORSDOF 15
ENDMDL
MODEL 3
REMARK VINA RESULT:     -12.0      4.688     10.561
REMARK SMILES O=C(CSc1nc2cnccc2n1CCC(F)(F)F)NCCCNC(=O)c1ccc(-c2c3nc(c(-c4c(F)c(F)c(F)c(F)c4F)c4ccc([nH]4)c(-c4c(F)c(F)c(F)c(F)c4F)c4nc(c(-c5c(F)c(F)c(F)c(F)c5F)c5ccc2[nH]5)C=C4)C=C3)cc1
REMARK SMILES IDX 1 1 2 2 20 3 3 5 4 6 5 7 6 8 13 9 7 10 12 11 8 12 11 13 9 14
REMARK SMILES IDX 10 15 14 16 15 17 16 18 17 19 18 20 19 21 21 22 22 23 23 24
REMARK SMILES IDX 24 25 25 26 26 28 27 29 28 30 89 31 29 32 88 33 30 34 31 35
REMARK SMILES IDX 32 36 82 37 33 38 87 39 81 40 83 41 34 42 86 43 80 44 79 45
REMARK SMILES IDX 35 47 67 48 47 49 66 50 48 51 51 52 65 53 84 54 49 55 50 56
REMARK SMILES IDX 64 58 85 59 52 60 36 61 37 62 45 63 38 64 39 65 43 66 46 67
REMARK SMILES IDX 40 68 41 69 44 70 42 71 68 72 69 73 77 74 70 75 71 76 75 77
REMARK SMILES IDX 78 78 72 79 73 80 76 81 74 82 53 83 54 84 62 85 55 86 56 87
REMARK SMILES IDX 60 88 63 89 57 90 58 91 61 92 59 93
REMARK H PARENT 20 4 24 27 83 46 51 57
REMARK Flexibility Score: inf
ROOT
ATOM      1  O   UNL A   1      35.183  36.029  33.053  1.00  0.00    -0.274 OA
ATOM      2  C   UNL A   1      34.795  34.863  32.953  1.00  0.00     0.230 C 
ATOM      3  N   UNL A   1      34.083  34.432  31.855  1.00  0.00    -0.355 N 
ATOM      4  H   UNL A   1      34.016  33.464  31.696  1.00  0.00     0.163 HD
ENDROOT
BRANCH   2   5
ATOM      5  C   UNL A   1      35.078  33.798  34.013  1.00  0.00     0.178 C 
BRANCH   5   6
ATOM      6  S   UNL A   1      35.912  32.332  33.321  1.00  0.00    -0.078 SA
BRANCH   6   7
ATOM      7  C   UNL A   1      37.404  32.125  34.199  1.00  0.00     0.169 A 
ATOM      8  N   UNL A   1      37.446  32.097  35.514  1.00  0.00    -0.221 NA
ATOM      9  N   UNL A   1      38.662  32.343  33.681  1.00  0.00    -0.318 N 
ATOM     10  C   UNL A   1      38.730  32.467  35.858  1.00  0.00     0.108 A 
ATOM     11  C   UNL A   1      39.494  32.694  34.719  1.00  0.00     0.072 A 
ATOM     12  C   UNL A   1      39.324  32.681  37.105  1.00  0.00     0.141 A 
ATOM     13  C   UNL A   1      40.804  33.171  34.769  1.00  0.00     0.049 A 
ATOM     14  N   UNL A   1      40.604  33.145  37.189  1.00  0.00    -0.262 NA
ATOM     15  C   UNL A   1      41.291  33.386  36.050  1.00  0.00     0.113 A 
BRANCH   9  16
ATOM     16  C   UNL A   1      39.112  32.261  32.315  1.00  0.00     0.134 C 
BRANCH  16  17
ATOM     17  C   UNL A   1      39.281  33.588  31.576  1.00  0.00     0.137 C 
BRANCH  17  18
ATOM     18  C   UNL A   1      40.515  33.715  30.711  1.00  0.00     0.390 C 
ATOM     19  F   UNL A   1      40.953  32.524  30.277  1.00  0.00    -0.171 F 
ATOM     20  F   UNL A   1      40.251  34.479  29.629  1.00  0.00    -0.171 F 
ATOM     21  F   UNL A   1      41.523  34.303  31.385  1.00  0.00    -0.171 F 
ENDBRANCH  17  18
ENDBRANCH  16  17
ENDBRANCH   9  16
ENDBRANCH   6   7
ENDBRANCH   5   6
ENDBRANCH   2   5
BRANCH   3  22
ATOM     22  C   UNL A   1      33.430  35.328  30.920  1.00  0.00     0.117 C 
BRANCH  22  23
ATOM     23  C   UNL A   1      33.911  35.205  29.484  1.00  0.00     0.042 C 
BRANCH  23  24
ATOM     24  C   UNL A   1      34.944  34.101  29.271  1.00  0.00     0.118 C 
BRANCH  24  25
ATOM     25  N   UNL A   1      34.524  33.095  28.315  1.00  0.00    -0.352 N 
ATOM     26  C   UNL A   1      34.917  31.827  28.003  1.00  0.00     0.251 C 
ATOM     27  H   UNL A   1      33.773  33.400  27.757  1.00  0.00     0.163 HD
ATOM     28  O   UNL A   1      34.187  31.221  27.213  1.00  0.00    -0.269 OA
BRANCH  26  29
ATOM     29  C   UNL A   1      36.154  31.161  28.481  1.00  0.00     0.039 A 
ATOM     30  C   UNL A   1      37.379  31.790  28.701  1.00  0.00     0.014 A 
ATOM     31  C   UNL A   1      36.082  29.758  28.606  1.00  0.00     0.014 A 
ATOM     32  C   UNL A   1      38.518  31.027  28.945  1.00  0.00     0.010 A 
ATOM     33  C   UNL A   1      37.215  28.994  28.852  1.00  0.00     0.010 A 
ATOM     34  C   UNL A   1      38.444  29.629  28.968  1.00  0.00    -0.014 A 
BRANCH  34  35
ATOM     35  C   UNL A   1      39.682  28.884  29.171  1.00  0.00     0.031 A 
ATOM     36  C   UNL A   1      40.035  28.632  30.596  1.00  0.00     0.074 A 
ATOM     37  C   UNL A   1      40.459  28.416  28.172  1.00  0.00     0.049 A 
ATOM     38  N   UNL A   1      41.042  29.106  31.254  1.00  0.00    -0.248 NA
ATOM     39  C   UNL A   1      39.095  27.857  31.418  1.00  0.00     0.031 C 
ATOM     40  C   UNL A   1      40.182  28.349  26.736  1.00  0.00     0.029 A 
ATOM     41  N   UNL A   1      41.686  27.833  28.270  1.00  0.00    -0.354 N 
ATOM     42  C   UNL A   1      40.950  28.587  32.544  1.00  0.00     0.074 A 
ATOM     43  C   UNL A   1      39.680  27.912  32.617  1.00  0.00     0.031 C 
ATOM     44  C   UNL A   1      41.113  27.570  26.135  1.00  0.00     0.029 A 
ATOM     45  C   UNL A   1      42.127  27.210  27.112  1.00  0.00     0.049 A 
ATOM     46  H   UNL A   1      42.219  27.852  29.098  1.00  0.00     0.167 HD
ATOM     47  C   UNL A   1      42.009  28.624  33.401  1.00  0.00     0.037 A 
ATOM     48  C   UNL A   1      43.228  26.426  26.986  1.00  0.00     0.037 A 
ATOM     49  C   UNL A   1      42.982  29.598  32.983  1.00  0.00     0.049 A 
ATOM     50  C   UNL A   1      44.148  26.775  28.098  1.00  0.00     0.074 A 
ATOM     51  C   UNL A   1      42.974  30.972  32.833  1.00  0.00     0.029 A 
ATOM     52  N   UNL A   1      44.097  29.163  32.310  1.00  0.00    -0.354 N 
ATOM     53  N   UNL A   1      44.772  27.917  28.185  1.00  0.00    -0.248 NA
ATOM     54  C   UNL A   1      44.009  26.036  29.345  1.00  0.00     0.031 C 
ATOM     55  C   UNL A   1      43.765  31.219  31.674  1.00  0.00     0.029 A 
ATOM     56  C   UNL A   1      44.252  29.990  31.228  1.00  0.00     0.049 A 
ATOM     57  H   UNL A   1      44.672  28.403  32.556  1.00  0.00     0.167 HD
ATOM     58  C   UNL A   1      44.718  28.241  29.531  1.00  0.00     0.074 A 
ATOM     59  C   UNL A   1      44.304  27.013  30.207  1.00  0.00     0.031 C 
ATOM     60  C   UNL A   1      44.738  29.541  29.947  1.00  0.00     0.037 A 
BRANCH  47  61
ATOM     61  C   UNL A   1      42.332  27.570  34.431  1.00  0.00     0.064 A 
ATOM     62  C   UNL A   1      43.007  26.398  34.027  1.00  0.00     0.173 A 
ATOM     63  C   UNL A   1      41.732  27.516  35.706  1.00  0.00     0.173 A 
ATOM     64  F   UNL A   1      43.617  26.336  32.834  1.00  0.00    -0.203 F 
ATOM     65  C   UNL A   1      42.985  25.231  34.794  1.00  0.00     0.198 A 
ATOM     66  C   UNL A   1      41.755  26.363  36.490  1.00  0.00     0.198 A 
ATOM     67  F   UNL A   1      41.007  28.528  36.197  1.00  0.00    -0.203 F 
ATOM     68  F   UNL A   1      43.522  24.104  34.304  1.00  0.00    -0.200 F 
ATOM     69  C   UNL A   1      42.348  25.210  36.019  1.00  0.00     0.200 A 
ATOM     70  F   UNL A   1      41.121  26.358  37.671  1.00  0.00    -0.200 F 
ATOM     71  F   UNL A   1      42.261  24.074  36.722  1.00  0.00    -0.200 F 
ENDBRANCH  47  61
BRANCH  48  72
ATOM     72  C   UNL A   1      43.391  25.189  26.183  1.00  0.00     0.064 A 
ATOM     73  C   UNL A   1      44.490  25.016  25.323  1.00  0.00     0.173 A 
ATOM     74  C   UNL A   1      42.633  24.036  26.465  1.00  0.00     0.173 A 
ATOM     75  F   UNL A   1      45.293  26.051  25.038  1.00  0.00    -0.203 F 
ATOM     76  C   UNL A   1      44.825  23.760  24.803  1.00  0.00     0.198 A 
ATOM     77  C   UNL A   1      42.966  22.786  25.942  1.00  0.00     0.198 A 
ATOM     78  F   UNL A   1      41.613  24.082  27.334  1.00  0.00    -0.203 F 
ATOM     79  F   UNL A   1      45.918  23.622  24.037  1.00  0.00    -0.200 F 
ATOM     80  C   UNL A   1      44.069  22.645  25.122  1.00  0.00     0.200 A 
ATOM     81  F   UNL A   1      42.249  21.708  26.292  1.00  0.00    -0.200 F 
ATOM     82  F   UNL A   1      44.427  21.431  24.679  1.00  0.00    -0.200 F 
ENDBRANCH  48  72
BRANCH  60  83
ATOM     83  C   UNL A   1      45.037  30.607  28.932  1.00  0.00     0.064 A 
ATOM     84  C   UNL A   1      44.054  31.230  28.144  1.00  0.00     0.173 A 
ATOM     85  C   UNL A   1      46.332  31.140  28.891  1.00  0.00     0.173 A 
ATOM     86  F   UNL A   1      42.774  30.844  28.204  1.00  0.00    -0.203 F 
ATOM     87  C   UNL A   1      44.363  32.319  27.332  1.00  0.00     0.198 A 
ATOM     88  C   UNL A   1      46.630  32.251  28.106  1.00  0.00     0.198 A 
ATOM     89  F   UNL A   1      47.296  30.622  29.666  1.00  0.00    -0.203 F 
ATOM     90  F   UNL A   1      43.406  32.901  26.593  1.00  0.00    -0.200 F 
ATOM     91  C   UNL A   1      45.648  32.835  27.322  1.00  0.00     0.200 A 
ATOM     92  F   UNL A   1      47.860  32.779  28.141  1.00  0.00    -0.200 F 
ATOM     93  F   UNL A   1      45.932  33.917  26.584  1.00  0.00    -0.200 F 
ENDBRANCH  60  83
ENDBRANCH  34  35
ENDBRANCH  26  29
ENDBRANCH  24  25
ENDBRANCH  23  24
ENDBRANCH  22  23
ENDBRANCH   3  22
TORSDOF 15
ENDMDL
