MODEL 1
REMARK VINA RESULT:     -13.0      0.000      0.000
REMARK SMILES COc1ccc(C(=O)NCCCNC(=O)c2ccc(-c3c4nc(c(-c5c(F)c(F)c(F)c(F)c5F)c5ccc([nH]5)c(-c5c(F)c(F)c(F)c(F)c5F)c5nc(c(-c6c(F)c(F)c(F)c(F)c6F)c6ccc3[nH]6)C=C5)C=C4)cc2)cc1S(=O)(=O)N(C)Cc1cccc(F)c1
REMARK SMILES IDX 10 1 9 2 7 3 8 4 6 6 3 7 4 8 80 9 5 10 79 11 2 12 1 13 81 14
REMARK SMILES IDX 82 15 83 16 84 17 85 18 86 19 87 20 88 21 93 22 89 23 91 24
REMARK SMILES IDX 90 25 92 26 11 27 12 28 13 29 14 30 15 32 16 33 17 34 78 35
REMARK SMILES IDX 18 36 77 37 19 38 20 39 21 40 71 41 22 42 76 43 70 44 72 45
REMARK SMILES IDX 23 46 75 47 69 48 68 49 24 51 56 52 36 53 55 54 37 55 40 56
REMARK SMILES IDX 54 57 73 58 38 59 39 60 53 62 74 63 41 64 25 65 26 66 34 67
REMARK SMILES IDX 27 68 28 69 32 70 35 71 29 72 30 73 33 74 31 75 57 76 58 77
REMARK SMILES IDX 66 78 59 79 60 80 64 81 67 82 61 83 62 84 65 85 63 86 42 87
REMARK SMILES IDX 43 88 51 89 44 90 45 91 49 92 52 93 46 94 47 95 50 96 48 97
REMARK H PARENT 9 5 13 31 72 50 40 61
REMARK Flexibility Score: inf
ROOT
ATOM      1  C   UNL A   1      32.485  28.224  22.982  1.00  0.00     0.118 C 
ENDROOT
BRANCH   1   2
ATOM      2  N   UNL A   1      32.905  27.355  21.890  1.00  0.00    -0.352 N 
ATOM      3  C   UNL A   1      32.968  25.988  21.760  1.00  0.00     0.251 C 
ATOM      4  O   UNL A   1      33.278  25.527  20.663  1.00  0.00    -0.269 OA
ATOM      5  H   UNL A   1      33.200  27.843  21.088  1.00  0.00     0.163 HD
BRANCH   3   6
ATOM      6  C   UNL A   1      32.640  25.049  22.868  1.00  0.00     0.041 A 
ATOM      7  C   UNL A   1      31.922  23.345  25.008  1.00  0.00     0.138 A 
ATOM      8  C   UNL A   1      30.946  23.858  24.145  1.00  0.00     0.049 A 
ATOM      9  C   UNL A   1      33.259  23.631  24.760  1.00  0.00     0.125 A 
ATOM     10  C   UNL A   1      31.300  24.718  23.096  1.00  0.00     0.018 A 
ATOM     11  C   UNL A   1      33.607  24.446  23.665  1.00  0.00     0.039 A 
BRANCH   7  12
ATOM     12  O   UNL A   1      31.504  22.487  25.979  1.00  0.00    -0.495 OA
ATOM     13  C   UNL A   1      30.315  22.954  26.614  1.00  0.00     0.278 C 
ENDBRANCH   7  12
BRANCH   9  14
ATOM     14  S   UNL A   1      34.637  23.110  25.741  1.00  0.00     0.246 S 
ATOM     15  O   UNL A   1      35.683  24.070  25.459  1.00  0.00    -0.207 OA
ATOM     16  O   UNL A   1      34.122  22.981  27.092  1.00  0.00    -0.207 OA
BRANCH  14  17
ATOM     17  N   UNL A   1      35.197  21.592  25.268  1.00  0.00    -0.196 NA
ATOM     18  C   UNL A   1      36.633  21.275  25.275  1.00  0.00     0.125 C 
BRANCH  17  19
ATOM     19  C   UNL A   1      34.326  20.459  25.690  1.00  0.00     0.137 C 
BRANCH  19  20
ATOM     20  C   UNL A   1      33.756  19.530  24.626  1.00  0.00    -0.030 A 
ATOM     21  C   UNL A   1      32.706  19.997  23.813  1.00  0.00     0.005 A 
ATOM     22  C   UNL A   1      34.241  18.238  24.375  1.00  0.00     0.044 A 
ATOM     23  C   UNL A   1      32.153  19.193  22.808  1.00  0.00     0.003 A 
ATOM     24  C   UNL A   1      33.681  17.441  23.381  1.00  0.00     0.123 A 
ATOM     25  C   UNL A   1      32.642  17.908  22.593  1.00  0.00     0.039 A 
ATOM     26  F   UNL A   1      34.156  16.203  23.185  1.00  0.00    -0.207 F 
ENDBRANCH  19  20
ENDBRANCH  17  19
ENDBRANCH  14  17
ENDBRANCH   9  14
ENDBRANCH   3   6
ENDBRANCH   1   2
BRANCH   1  27
ATOM     27  C   UNL A   1      33.679  28.939  23.619  1.00  0.00     0.042 C 
BRANCH  27  28
ATOM     28  C   UNL A   1      33.627  28.963  25.144  1.00  0.00     0.118 C 
BRANCH  28  29
ATOM     29  N   UNL A   1      32.978  30.165  25.652  1.00  0.00    -0.352 N 
ATOM     30  C   UNL A   1      33.265  30.913  26.766  1.00  0.00     0.251 C 
ATOM     31  H   UNL A   1      32.220  30.489  25.114  1.00  0.00     0.163 HD
ATOM     32  O   UNL A   1      32.486  31.790  27.128  1.00  0.00    -0.269 OA
BRANCH  30  33
ATOM     33  C   UNL A   1      34.502  30.671  27.540  1.00  0.00     0.039 A 
ATOM     34  C   UNL A   1      35.453  31.694  27.626  1.00  0.00     0.014 A 
ATOM     35  C   UNL A   1      34.753  29.431  28.132  1.00  0.00     0.014 A 
ATOM     36  C   UNL A   1      36.635  31.489  28.343  1.00  0.00     0.010 A 
ATOM     37  C   UNL A   1      35.905  29.247  28.894  1.00  0.00     0.010 A 
ATOM     38  C   UNL A   1      36.860  30.270  29.000  1.00  0.00    -0.014 A 
BRANCH  38  39
ATOM     39  C   UNL A   1      38.096  30.025  29.783  1.00  0.00     0.031 A 
ATOM     40  C   UNL A   1      39.147  29.094  29.248  1.00  0.00     0.074 A 
ATOM     41  C   UNL A   1      38.235  30.569  31.007  1.00  0.00     0.049 A 
ATOM     42  N   UNL A   1      40.221  28.628  29.833  1.00  0.00    -0.248 NA
ATOM     43  C   UNL A   1      38.943  28.596  27.878  1.00  0.00     0.031 C 
ATOM     44  C   UNL A   1      37.272  31.465  31.647  1.00  0.00     0.029 A 
ATOM     45  N   UNL A   1      39.230  30.425  31.941  1.00  0.00    -0.354 N 
ATOM     46  C   UNL A   1      40.807  27.767  28.915  1.00  0.00     0.074 A 
ATOM     47  C   UNL A   1      39.947  27.742  27.750  1.00  0.00     0.031 C 
ATOM     48  C   UNL A   1      37.722  31.789  32.870  1.00  0.00     0.029 A 
ATOM     49  C   UNL A   1      38.984  31.096  33.113  1.00  0.00     0.049 A 
ATOM     50  H   UNL A   1      40.043  29.891  31.785  1.00  0.00     0.167 HD
ATOM     51  C   UNL A   1      41.964  27.071  29.028  1.00  0.00     0.037 A 
ATOM     52  C   UNL A   1      39.685  31.130  34.262  1.00  0.00     0.037 A 
ATOM     53  C   UNL A   1      42.827  27.119  30.179  1.00  0.00     0.049 A 
ATOM     54  C   UNL A   1      40.970  30.354  34.363  1.00  0.00     0.074 A 
ATOM     55  C   UNL A   1      44.041  26.485  30.377  1.00  0.00     0.029 A 
ATOM     56  N   UNL A   1      42.565  27.849  31.330  1.00  0.00    -0.354 N 
ATOM     57  N   UNL A   1      41.536  29.573  33.475  1.00  0.00    -0.248 NA
ATOM     58  C   UNL A   1      41.717  30.469  35.623  1.00  0.00     0.031 C 
ATOM     59  C   UNL A   1      44.498  26.804  31.659  1.00  0.00     0.029 A 
ATOM     60  C   UNL A   1      43.591  27.673  32.245  1.00  0.00     0.049 A 
ATOM     61  H   UNL A   1      41.768  28.409  31.475  1.00  0.00     0.167 HD
ATOM     62  C   UNL A   1      42.717  29.128  34.055  1.00  0.00     0.074 A 
ATOM     63  C   UNL A   1      42.789  29.730  35.370  1.00  0.00     0.031 C 
ATOM     64  C   UNL A   1      43.655  28.297  33.542  1.00  0.00     0.037 A 
BRANCH  51  65
ATOM     65  C   UNL A   1      42.359  26.197  27.874  1.00  0.00     0.064 A 
ATOM     66  C   UNL A   1      43.239  26.646  26.879  1.00  0.00     0.173 A 
ATOM     67  C   UNL A   1      41.865  24.887  27.770  1.00  0.00     0.173 A 
ATOM     68  F   UNL A   1      43.731  27.893  26.926  1.00  0.00    -0.203 F 
ATOM     69  C   UNL A   1      43.583  25.831  25.803  1.00  0.00     0.198 A 
ATOM     70  C   UNL A   1      42.234  24.064  26.709  1.00  0.00     0.198 A 
ATOM     71  F   UNL A   1      41.025  24.405  28.697  1.00  0.00    -0.203 F 
ATOM     72  F   UNL A   1      44.383  26.301  24.837  1.00  0.00    -0.200 F 
ATOM     73  C   UNL A   1      43.085  24.539  25.722  1.00  0.00     0.200 A 
ATOM     74  F   UNL A   1      41.762  22.812  26.638  1.00  0.00    -0.200 F 
ATOM     75  F   UNL A   1      43.418  23.755  24.688  1.00  0.00    -0.200 F 
ENDBRANCH  51  65
BRANCH  52  76
ATOM     76  C   UNL A   1      39.192  31.945  35.400  1.00  0.00     0.064 A 
ATOM     77  C   UNL A   1      39.489  33.311  35.488  1.00  0.00     0.173 A 
ATOM     78  C   UNL A   1      38.402  31.382  36.414  1.00  0.00     0.173 A 
ATOM     79  F   UNL A   1      40.258  33.890  34.553  1.00  0.00    -0.203 F 
ATOM     80  C   UNL A   1      39.026  34.082  36.552  1.00  0.00     0.198 A 
ATOM     81  C   UNL A   1      37.919  32.158  37.464  1.00  0.00     0.198 A 
ATOM     82  F   UNL A   1      38.088  30.078  36.373  1.00  0.00    -0.203 F 
ATOM     83  F   UNL A   1      39.354  35.379  36.629  1.00  0.00    -0.200 F 
ATOM     84  C   UNL A   1      38.235  33.507  37.535  1.00  0.00     0.200 A 
ATOM     85  F   UNL A   1      37.145  31.602  38.406  1.00  0.00    -0.200 F 
ATOM     86  F   UNL A   1      37.783  34.251  38.554  1.00  0.00    -0.200 F 
ENDBRANCH  52  76
BRANCH  64  87
ATOM     87  C   UNL A   1      44.868  28.023  34.380  1.00  0.00     0.064 A 
ATOM     88  C   UNL A   1      45.974  28.884  34.378  1.00  0.00     0.173 A 
ATOM     89  C   UNL A   1      44.898  26.914  35.238  1.00  0.00     0.173 A 
ATOM     90  F   UNL A   1      45.999  29.950  33.563  1.00  0.00    -0.203 F 
ATOM     91  C   UNL A   1      47.073  28.637  35.197  1.00  0.00     0.198 A 
ATOM     92  C   UNL A   1      45.986  26.682  36.073  1.00  0.00     0.198 A 
ATOM     93  F   UNL A   1      43.861  26.062  35.279  1.00  0.00    -0.203 F 
ATOM     94  F   UNL A   1      48.135  29.454  35.155  1.00  0.00    -0.200 F 
ATOM     95  C   UNL A   1      47.075  27.542  36.049  1.00  0.00     0.200 A 
ATOM     96  F   UNL A   1      45.982  25.632  36.905  1.00  0.00    -0.200 F 
ATOM     97  F   UNL A   1      48.129  27.313  36.844  1.00  0.00    -0.200 F 
ENDBRANCH  64  87
ENDBRANCH  38  39
ENDBRANCH  30  33
ENDBRANCH  28  29
ENDBRANCH  27  28
ENDBRANCH   1  27
TORSDOF 15
ENDMDL
MODEL 2
REMARK VINA RESULT:     -12.9      4.678      9.762
REMARK SMILES COc1ccc(C(=O)NCCCNC(=O)c2ccc(-c3c4nc(c(-c5c(F)c(F)c(F)c(F)c5F)c5ccc([nH]5)c(-c5c(F)c(F)c(F)c(F)c5F)c5nc(c(-c6c(F)c(F)c(F)c(F)c6F)c6ccc3[nH]6)C=C5)C=C4)cc2)cc1S(=O)(=O)N(C)Cc1cccc(F)c1
REMARK SMILES IDX 10 1 9 2 7 3 8 4 6 6 3 7 4 8 80 9 5 10 79 11 2 12 1 13 81 14
REMARK SMILES IDX 82 15 83 16 84 17 85 18 86 19 87 20 88 21 93 22 89 23 91 24
REMARK SMILES IDX 90 25 92 26 11 27 12 28 13 29 14 30 15 32 16 33 17 34 78 35
REMARK SMILES IDX 18 36 77 37 19 38 20 39 21 40 71 41 22 42 76 43 70 44 72 45
REMARK SMILES IDX 23 46 75 47 69 48 68 49 24 51 56 52 36 53 55 54 37 55 40 56
REMARK SMILES IDX 54 57 73 58 38 59 39 60 53 62 74 63 41 64 25 65 26 66 34 67
REMARK SMILES IDX 27 68 28 69 32 70 35 71 29 72 30 73 33 74 31 75 57 76 58 77
REMARK SMILES IDX 66 78 59 79 60 80 64 81 67 82 61 83 62 84 65 85 63 86 42 87
REMARK SMILES IDX 43 88 51 89 44 90 45 91 49 92 52 93 46 94 47 95 50 96 48 97
REMARK H PARENT 9 5 13 31 72 50 40 61
REMARK Flexibility Score: inf
ROOT
ATOM      1  C   UNL A   1      37.196  20.918  24.634  1.00  0.00     0.118 C 
ENDROOT
BRANCH   1   2
ATOM      2  N   UNL A   1      37.760  22.159  25.150  1.00  0.00    -0.352 N 
ATOM      3  C   UNL A   1      37.187  23.316  25.621  1.00  0.00     0.251 C 
ATOM      4  O   UNL A   1      37.930  24.177  26.092  1.00  0.00    -0.269 OA
ATOM      5  H   UNL A   1      38.744  22.170  25.165  1.00  0.00     0.163 HD
BRANCH   3   6
ATOM      6  C   UNL A   1      35.718  23.555  25.625  1.00  0.00     0.041 A 
ATOM      7  C   UNL A   1      32.910  23.892  25.688  1.00  0.00     0.138 A 
ATOM      8  C   UNL A   1      33.602  23.442  26.820  1.00  0.00     0.049 A 
ATOM      9  C   UNL A   1      33.631  24.234  24.551  1.00  0.00     0.125 A 
ATOM     10  C   UNL A   1      34.991  23.257  26.783  1.00  0.00     0.018 A 
ATOM     11  C   UNL A   1      35.033  24.103  24.546  1.00  0.00     0.039 A 
BRANCH   7  12
ATOM     12  O   UNL A   1      31.569  24.083  25.815  1.00  0.00    -0.495 OA
ATOM     13  C   UNL A   1      30.943  22.985  26.478  1.00  0.00     0.278 C 
ENDBRANCH   7  12
BRANCH   9  14
ATOM     14  S   UNL A   1      32.952  24.791  23.013  1.00  0.00     0.246 S 
ATOM     15  O   UNL A   1      34.073  24.829  22.099  1.00  0.00    -0.207 OA
ATOM     16  O   UNL A   1      31.831  23.907  22.744  1.00  0.00    -0.207 OA
BRANCH  14  17
ATOM     17  N   UNL A   1      32.340  26.357  23.136  1.00  0.00    -0.196 NA
ATOM     18  C   UNL A   1      31.008  26.609  23.708  1.00  0.00     0.125 C 
BRANCH  17  19
ATOM     19  C   UNL A   1      33.357  27.385  23.495  1.00  0.00     0.137 C 
BRANCH  19  20
ATOM     20  C   UNL A   1      33.174  28.188  24.775  1.00  0.00    -0.030 A 
ATOM     21  C   UNL A   1      33.741  27.697  25.967  1.00  0.00     0.005 A 
ATOM     22  C   UNL A   1      32.503  29.418  24.840  1.00  0.00     0.044 A 
ATOM     23  C   UNL A   1      33.620  28.400  27.173  1.00  0.00     0.003 A 
ATOM     24  C   UNL A   1      32.379  30.107  26.043  1.00  0.00     0.123 A 
ATOM     25  C   UNL A   1      32.933  29.609  27.211  1.00  0.00     0.039 A 
ATOM     26  F   UNL A   1      31.711  31.269  26.069  1.00  0.00    -0.207 F 
ENDBRANCH  19  20
ENDBRANCH  17  19
ENDBRANCH  14  17
ENDBRANCH   9  14
ENDBRANCH   3   6
ENDBRANCH   1   2
BRANCH   1  27
ATOM     27  C   UNL A   1      38.106  19.724  24.932  1.00  0.00     0.042 C 
BRANCH  27  28
ATOM     28  C   UNL A   1      39.147  20.010  26.010  1.00  0.00     0.118 C 
BRANCH  28  29
ATOM     29  N   UNL A   1      40.293  19.115  25.917  1.00  0.00    -0.352 N 
ATOM     30  C   UNL A   1      41.633  19.391  26.023  1.00  0.00     0.251 C 
ATOM     31  H   UNL A   1      40.072  18.170  25.754  1.00  0.00     0.163 HD
ATOM     32  O   UNL A   1      42.457  18.529  25.731  1.00  0.00    -0.269 OA
BRANCH  30  33
ATOM     33  C   UNL A   1      42.097  20.719  26.480  1.00  0.00     0.039 A 
ATOM     34  C   UNL A   1      42.453  21.674  25.522  1.00  0.00     0.014 A 
ATOM     35  C   UNL A   1      42.232  21.008  27.840  1.00  0.00     0.014 A 
ATOM     36  C   UNL A   1      42.904  22.934  25.926  1.00  0.00     0.010 A 
ATOM     37  C   UNL A   1      42.627  22.282  28.242  1.00  0.00     0.010 A 
ATOM     38  C   UNL A   1      42.974  23.253  27.291  1.00  0.00    -0.014 A 
BRANCH  38  39
ATOM     39  C   UNL A   1      43.432  24.587  27.754  1.00  0.00     0.031 A 
ATOM     40  C   UNL A   1      42.422  25.642  28.105  1.00  0.00     0.074 A 
ATOM     41  C   UNL A   1      44.747  24.875  27.777  1.00  0.00     0.049 A 
ATOM     42  N   UNL A   1      42.605  26.908  28.384  1.00  0.00    -0.248 NA
ATOM     43  C   UNL A   1      41.012  25.221  28.114  1.00  0.00     0.031 C 
ATOM     44  C   UNL A   1      45.822  23.945  27.431  1.00  0.00     0.029 A 
ATOM     45  N   UNL A   1      45.401  26.044  28.081  1.00  0.00    -0.354 N 
ATOM     46  C   UNL A   1      41.336  27.439  28.577  1.00  0.00     0.074 A 
ATOM     47  C   UNL A   1      40.390  26.368  28.343  1.00  0.00     0.031 C 
ATOM     48  C   UNL A   1      47.001  24.578  27.540  1.00  0.00     0.029 A 
ATOM     49  C   UNL A   1      46.762  25.967  27.926  1.00  0.00     0.049 A 
ATOM     50  H   UNL A   1      44.936  26.859  28.381  1.00  0.00     0.167 HD
ATOM     51  C   UNL A   1      40.993  28.700  28.931  1.00  0.00     0.037 A 
ATOM     52  C   UNL A   1      47.709  26.915  28.059  1.00  0.00     0.037 A 
ATOM     53  C   UNL A   1      41.939  29.754  29.186  1.00  0.00     0.049 A 
ATOM     54  C   UNL A   1      47.306  28.308  28.459  1.00  0.00     0.074 A 
ATOM     55  C   UNL A   1      41.697  31.056  29.591  1.00  0.00     0.029 A 
ATOM     56  N   UNL A   1      43.316  29.623  29.064  1.00  0.00    -0.354 N 
ATOM     57  N   UNL A   1      46.107  28.790  28.677  1.00  0.00    -0.248 NA
ATOM     58  C   UNL A   1      48.387  29.286  28.636  1.00  0.00     0.031 C 
ATOM     59  C   UNL A   1      42.923  31.722  29.681  1.00  0.00     0.029 A 
ATOM     60  C   UNL A   1      43.934  30.824  29.377  1.00  0.00     0.049 A 
ATOM     61  H   UNL A   1      43.784  28.800  28.796  1.00  0.00     0.167 HD
ATOM     62  C   UNL A   1      46.289  30.116  29.046  1.00  0.00     0.074 A 
ATOM     63  C   UNL A   1      47.716  30.362  29.027  1.00  0.00     0.031 C 
ATOM     64  C   UNL A   1      45.358  31.044  29.371  1.00  0.00     0.037 A 
BRANCH  51  65
ATOM     65  C   UNL A   1      39.529  29.007  29.060  1.00  0.00     0.064 A 
ATOM     66  C   UNL A   1      38.757  29.381  27.951  1.00  0.00     0.173 A 
ATOM     67  C   UNL A   1      38.886  28.907  30.303  1.00  0.00     0.173 A 
ATOM     68  F   UNL A   1      39.325  29.502  26.741  1.00  0.00    -0.203 F 
ATOM     69  C   UNL A   1      37.403  29.681  28.087  1.00  0.00     0.198 A 
ATOM     70  C   UNL A   1      37.526  29.177  30.431  1.00  0.00     0.198 A 
ATOM     71  F   UNL A   1      39.576  28.546  31.395  1.00  0.00    -0.203 F 
ATOM     72  F   UNL A   1      36.699  30.090  27.023  1.00  0.00    -0.200 F 
ATOM     73  C   UNL A   1      36.788  29.573  29.325  1.00  0.00     0.200 A 
ATOM     74  F   UNL A   1      36.930  29.061  31.625  1.00  0.00    -0.200 F 
ATOM     75  F   UNL A   1      35.485  29.859  29.455  1.00  0.00    -0.200 F 
ENDBRANCH  51  65
BRANCH  52  76
ATOM     76  C   UNL A   1      49.135  26.567  27.830  1.00  0.00     0.064 A 
ATOM     77  C   UNL A   1      50.002  26.342  28.906  1.00  0.00     0.173 A 
ATOM     78  C   UNL A   1      49.654  26.436  26.533  1.00  0.00     0.173 A 
ATOM     79  F   UNL A   1      49.556  26.476  30.164  1.00  0.00    -0.203 F 
ATOM     80  C   UNL A   1      51.339  26.012  28.697  1.00  0.00     0.198 A 
ATOM     81  C   UNL A   1      50.985  26.082  26.324  1.00  0.00     0.198 A 
ATOM     82  F   UNL A   1      48.862  26.638  25.469  1.00  0.00    -0.203 F 
ATOM     83  F   UNL A   1      52.156  25.837  29.745  1.00  0.00    -0.200 F 
ATOM     84  C   UNL A   1      51.828  25.875  27.406  1.00  0.00     0.200 A 
ATOM     85  F   UNL A   1      51.451  25.938  25.076  1.00  0.00    -0.200 F 
ATOM     86  F   UNL A   1      53.112  25.550  27.206  1.00  0.00    -0.200 F 
ENDBRANCH  52  76
BRANCH  64  87
ATOM     87  C   UNL A   1      45.848  32.400  29.782  1.00  0.00     0.064 A 
ATOM     88  C   UNL A   1      46.002  33.441  28.856  1.00  0.00     0.173 A 
ATOM     89  C   UNL A   1      46.111  32.676  31.133  1.00  0.00     0.173 A 
ATOM     90  F   UNL A   1      45.776  33.222  27.551  1.00  0.00    -0.203 F 
ATOM     91  C   UNL A   1      46.415  34.706  29.265  1.00  0.00     0.198 A 
ATOM     92  C   UNL A   1      46.501  33.947  31.542  1.00  0.00     0.198 A 
ATOM     93  F   UNL A   1      45.975  31.714  32.059  1.00  0.00    -0.203 F 
ATOM     94  F   UNL A   1      46.589  35.677  28.358  1.00  0.00    -0.200 F 
ATOM     95  C   UNL A   1      46.656  34.960  30.607  1.00  0.00     0.200 A 
ATOM     96  F   UNL A   1      46.721  34.196  32.841  1.00  0.00    -0.200 F 
ATOM     97  F   UNL A   1      47.043  36.182  30.999  1.00  0.00    -0.200 F 
ENDBRANCH  64  87
ENDBRANCH  38  39
ENDBRANCH  30  33
ENDBRANCH  28  29
ENDBRANCH  27  28
ENDBRANCH   1  27
TORSDOF 15
ENDMDL
MODEL 3
REMARK VINA RESULT:     -12.8      2.223      3.256
REMARK SMILES COc1ccc(C(=O)NCCCNC(=O)c2ccc(-c3c4nc(c(-c5c(F)c(F)c(F)c(F)c5F)c5ccc([nH]5)c(-c5c(F)c(F)c(F)c(F)c5F)c5nc(c(-c6c(F)c(F)c(F)c(F)c6F)c6ccc3[nH]6)C=C5)C=C4)cc2)cc1S(=O)(=O)N(C)Cc1cccc(F)c1
REMARK SMILES IDX 10 1 9 2 7 3 8 4 6 6 3 7 4 8 80 9 5 10 79 11 2 12 1 13 81 14
REMARK SMILES IDX 82 15 83 16 84 17 85 18 86 19 87 20 88 21 93 22 89 23 91 24
REMARK SMILES IDX 90 25 92 26 11 27 12 28 13 29 14 30 15 32 16 33 17 34 78 35
REMARK SMILES IDX 18 36 77 37 19 38 20 39 21 40 71 41 22 42 76 43 70 44 72 45
REMARK SMILES IDX 23 46 75 47 69 48 68 49 24 51 56 52 36 53 55 54 37 55 40 56
REMARK SMILES IDX 54 57 73 58 38 59 39 60 53 62 74 63 41 64 25 65 26 66 34 67
REMARK SMILES IDX 27 68 28 69 32 70 35 71 29 72 30 73 33 74 31 75 57 76 58 77
REMARK SMILES IDX 66 78 59 79 60 80 64 81 67 82 61 83 62 84 65 85 63 86 42 87
REMARK SMILES IDX 43 88 51 89 44 90 45 91 49 92 52 93 46 94 47 95 50 96 48 97
REMARK H PARENT 9 5 13 31 72 50 40 61
REMARK Flexibility Score: inf
ROOT
ATOM      1  C   UNL A   1      31.372  30.397  25.391  1.00  0.00     0.118 C 
ENDROOT
BRANCH   1   2
ATOM      2  N   UNL A   1      30.472  30.635  24.269  1.00  0.00    -0.352 N 
ATOM      3  C   UNL A   1      29.905  29.798  23.338  1.00  0.00     0.251 C 
ATOM      4  O   UNL A   1      29.091  30.279  22.551  1.00  0.00    -0.269 OA
ATOM      5  H   UNL A   1      30.220  31.580  24.158  1.00  0.00     0.163 HD
BRANCH   3   6
ATOM      6  C   UNL A   1      30.199  28.340  23.266  1.00  0.00     0.041 A 
ATOM      7  C   UNL A   1      30.723  25.561  23.255  1.00  0.00     0.138 A 
ATOM      8  C   UNL A   1      29.539  26.062  23.809  1.00  0.00     0.049 A 
ATOM      9  C   UNL A   1      31.611  26.443  22.651  1.00  0.00     0.125 A 
ATOM     10  C   UNL A   1      29.288  27.442  23.831  1.00  0.00     0.018 A 
ATOM     11  C   UNL A   1      31.317  27.820  22.625  1.00  0.00     0.039 A 
BRANCH   7  12
ATOM     12  O   UNL A   1      30.877  24.209  23.237  1.00  0.00    -0.495 OA
ATOM     13  C   UNL A   1      30.902  23.666  24.557  1.00  0.00     0.278 C 
ENDBRANCH   7  12
BRANCH   9  14
ATOM     14  S   UNL A   1      33.169  26.021  21.924  1.00  0.00     0.246 S 
ATOM     15  O   UNL A   1      32.839  25.209  20.773  1.00  0.00    -0.207 OA
ATOM     16  O   UNL A   1      33.863  27.283  21.742  1.00  0.00    -0.207 OA
BRANCH  14  17
ATOM     17  N   UNL A   1      34.103  25.078  22.964  1.00  0.00    -0.196 NA
ATOM     18  C   UNL A   1      34.180  25.382  24.401  1.00  0.00     0.125 C 
BRANCH  17  19
ATOM     19  C   UNL A   1      34.083  23.621  22.654  1.00  0.00     0.137 C 
BRANCH  19  20
ATOM     20  C   UNL A   1      34.837  22.662  23.565  1.00  0.00    -0.030 A 
ATOM     21  C   UNL A   1      34.109  21.681  24.265  1.00  0.00     0.005 A 
ATOM     22  C   UNL A   1      36.231  22.667  23.726  1.00  0.00     0.044 A 
ATOM     23  C   UNL A   1      34.749  20.762  25.105  1.00  0.00     0.003 A 
ATOM     24  C   UNL A   1      36.860  21.757  24.569  1.00  0.00     0.123 A 
ATOM     25  C   UNL A   1      36.131  20.802  25.260  1.00  0.00     0.039 A 
ATOM     26  F   UNL A   1      38.191  21.807  24.714  1.00  0.00    -0.207 F 
ENDBRANCH  19  20
ENDBRANCH  17  19
ENDBRANCH  14  17
ENDBRANCH   9  14
ENDBRANCH   3   6
ENDBRANCH   1   2
BRANCH   1  27
ATOM     27  C   UNL A   1      31.202  31.459  26.480  1.00  0.00     0.042 C 
BRANCH  27  28
ATOM     28  C   UNL A   1      32.511  32.138  26.873  1.00  0.00     0.118 C 
BRANCH  28  29
ATOM     29  N   UNL A   1      32.310  33.524  27.278  1.00  0.00    -0.352 N 
ATOM     30  C   UNL A   1      32.955  34.259  28.239  1.00  0.00     0.251 C 
ATOM     31  H   UNL A   1      31.605  34.004  26.787  1.00  0.00     0.163 HD
ATOM     32  O   UNL A   1      32.518  35.360  28.560  1.00  0.00    -0.269 OA
BRANCH  30  33
ATOM     33  C   UNL A   1      34.172  33.737  28.899  1.00  0.00     0.039 A 
ATOM     34  C   UNL A   1      35.412  34.287  28.557  1.00  0.00     0.014 A 
ATOM     35  C   UNL A   1      34.103  32.679  29.808  1.00  0.00     0.014 A 
ATOM     36  C   UNL A   1      36.579  33.807  29.158  1.00  0.00     0.010 A 
ATOM     37  C   UNL A   1      35.260  32.240  30.449  1.00  0.00     0.010 A 
ATOM     38  C   UNL A   1      36.508  32.792  30.124  1.00  0.00    -0.014 A 
BRANCH  38  39
ATOM     39  C   UNL A   1      37.725  32.271  30.794  1.00  0.00     0.031 A 
ATOM     40  C   UNL A   1      38.531  31.185  30.138  1.00  0.00     0.074 A 
ATOM     41  C   UNL A   1      38.056  32.709  32.023  1.00  0.00     0.049 A 
ATOM     42  N   UNL A   1      39.532  30.489  30.614  1.00  0.00    -0.248 NA
ATOM     43  C   UNL A   1      38.135  30.812  28.771  1.00  0.00     0.031 C 
ATOM     44  C   UNL A   1      37.337  33.737  32.775  1.00  0.00     0.029 A 
ATOM     45  N   UNL A   1      39.069  32.324  32.866  1.00  0.00    -0.354 N 
ATOM     46  C   UNL A   1      39.869  29.583  29.618  1.00  0.00     0.074 A 
ATOM     47  C   UNL A   1      38.940  29.788  28.527  1.00  0.00     0.031 C 
ATOM     48  C   UNL A   1      37.929  33.901  33.969  1.00  0.00     0.029 A 
ATOM     49  C   UNL A   1      39.044  32.964  34.081  1.00  0.00     0.049 A 
ATOM     50  H   UNL A   1      39.747  31.653  32.624  1.00  0.00     0.167 HD
ATOM     51  C   UNL A   1      40.872  28.672  29.608  1.00  0.00     0.037 A 
ATOM     52  C   UNL A   1      39.820  32.798  35.169  1.00  0.00     0.037 A 
ATOM     53  C   UNL A   1      41.808  28.488  30.686  1.00  0.00     0.049 A 
ATOM     54  C   UNL A   1      40.931  31.785  35.134  1.00  0.00     0.074 A 
ATOM     55  C   UNL A   1      42.885  27.622  30.758  1.00  0.00     0.029 A 
ATOM     56  N   UNL A   1      41.778  29.191  31.883  1.00  0.00    -0.354 N 
ATOM     57  N   UNL A   1      41.266  30.960  34.172  1.00  0.00    -0.248 NA
ATOM     58  C   UNL A   1      41.774  31.684  36.332  1.00  0.00     0.031 C 
ATOM     59  C   UNL A   1      43.487  27.775  32.012  1.00  0.00     0.029 A 
ATOM     60  C   UNL A   1      42.813  28.770  32.703  1.00  0.00     0.049 A 
ATOM     61  H   UNL A   1      41.120  29.885  32.114  1.00  0.00     0.167 HD
ATOM     62  C   UNL A   1      42.375  30.264  34.635  1.00  0.00     0.074 A 
ATOM     63  C   UNL A   1      42.659  30.767  35.963  1.00  0.00     0.031 C 
ATOM     64  C   UNL A   1      43.092  29.296  34.015  1.00  0.00     0.037 A 
BRANCH  51  65
ATOM     65  C   UNL A   1      41.003  27.803  28.392  1.00  0.00     0.064 A 
ATOM     66  C   UNL A   1      41.803  28.178  27.303  1.00  0.00     0.173 A 
ATOM     67  C   UNL A   1      40.333  26.571  28.320  1.00  0.00     0.173 A 
ATOM     68  F   UNL A   1      42.455  29.350  27.316  1.00  0.00    -0.203 F 
ATOM     69  C   UNL A   1      41.901  27.371  26.172  1.00  0.00     0.198 A 
ATOM     70  C   UNL A   1      40.458  25.752  27.201  1.00  0.00     0.198 A 
ATOM     71  F   UNL A   1      39.560  26.160  29.335  1.00  0.00    -0.203 F 
ATOM     72  F   UNL A   1      42.628  27.776  25.122  1.00  0.00    -0.200 F 
ATOM     73  C   UNL A   1      41.233  26.157  26.124  1.00  0.00     0.200 A 
ATOM     74  F   UNL A   1      39.822  24.573  27.160  1.00  0.00    -0.200 F 
ATOM     75  F   UNL A   1      41.330  25.379  25.036  1.00  0.00    -0.200 F 
ENDBRANCH  51  65
BRANCH  52  76
ATOM     76  C   UNL A   1      39.580  33.630  36.376  1.00  0.00     0.064 A 
ATOM     77  C   UNL A   1      40.154  34.902  36.497  1.00  0.00     0.173 A 
ATOM     78  C   UNL A   1      38.762  33.179  37.422  1.00  0.00     0.173 A 
ATOM     79  F   UNL A   1      40.960  35.367  35.532  1.00  0.00    -0.203 F 
ATOM     80  C   UNL A   1      39.929  35.688  37.626  1.00  0.00     0.198 A 
ATOM     81  C   UNL A   1      38.517  33.975  38.539  1.00  0.00     0.198 A 
ATOM     82  F   UNL A   1      38.187  31.968  37.350  1.00  0.00    -0.203 F 
ATOM     83  F   UNL A   1      40.519  36.886  37.733  1.00  0.00    -0.200 F 
ATOM     84  C   UNL A   1      39.105  35.227  38.642  1.00  0.00     0.200 A 
ATOM     85  F   UNL A   1      37.712  33.532  39.513  1.00  0.00    -0.200 F 
ATOM     86  F   UNL A   1      38.884  35.987  39.723  1.00  0.00    -0.200 F 
ENDBRANCH  52  76
BRANCH  64  87
ATOM     87  C   UNL A   1      44.285  28.748  34.739  1.00  0.00     0.064 A 
ATOM     88  C   UNL A   1      44.196  27.607  35.549  1.00  0.00     0.173 A 
ATOM     89  C   UNL A   1      45.546  29.341  34.574  1.00  0.00     0.173 A 
ATOM     90  F   UNL A   1      43.009  27.013  35.750  1.00  0.00    -0.203 F 
ATOM     91  C   UNL A   1      45.324  27.088  36.177  1.00  0.00     0.198 A 
ATOM     92  C   UNL A   1      46.676  28.806  35.183  1.00  0.00     0.198 A 
ATOM     93  F   UNL A   1      45.683  30.433  33.805  1.00  0.00    -0.203 F 
ATOM     94  F   UNL A   1      45.210  26.016  36.975  1.00  0.00    -0.200 F 
ATOM     95  C   UNL A   1      46.563  27.682  35.988  1.00  0.00     0.200 A 
ATOM     96  F   UNL A   1      47.874  29.373  34.989  1.00  0.00    -0.200 F 
ATOM     97  F   UNL A   1      47.649  27.172  36.585  1.00  0.00    -0.200 F 
ENDBRANCH  64  87
ENDBRANCH  38  39
ENDBRANCH  30  33
ENDBRANCH  28  29
ENDBRANCH  27  28
ENDBRANCH   1  27
TORSDOF 15
ENDMDL
