MODEL 1
REMARK VINA RESULT:     -13.0      0.000      0.000
REMARK SMILES O=C(NCCCNC(=O)[C@H]1CC=CC[C@H]1C(=O)N[C@@H]1CCN(c2cccc(Cl)c2)C1)c1ccc(-c2c3nc(c(-c4c(F)c(F)c(F)c(F)c4F)c4ccc([nH]4)c(-c4c(F)c(F)c(F)c(F)c4F)c4nc(c(-c5c(F)c(F)c(F)c(F)c5F)c5ccc2[nH]5)C=C4)C=C3)cc1
REMARK SMILES IDX 5 1 4 2 3 3 1 4 2 5 31 7 32 8 93 9 33 10 92 11 34 12 35 13
REMARK SMILES IDX 36 14 86 15 37 16 91 17 85 18 87 19 38 20 90 21 84 22 83 23
REMARK SMILES IDX 39 25 71 26 51 27 70 28 52 29 55 30 69 31 88 32 53 33 54 34
REMARK SMILES IDX 68 36 89 37 56 38 40 39 41 40 49 41 42 42 43 43 47 44 50 45
REMARK SMILES IDX 44 46 45 47 48 48 46 49 72 50 73 51 81 52 74 53 75 54 79 55
REMARK SMILES IDX 82 56 76 57 77 58 80 59 78 60 57 61 58 62 66 63 59 64 60 65
REMARK SMILES IDX 64 66 67 67 61 68 62 69 65 70 63 71 6 72 7 73 8 74 9 76
REMARK SMILES IDX 10 77 11 78 15 79 12 80 14 81 13 82 16 83 17 84 18 85 19 87
REMARK SMILES IDX 20 88 30 89 21 90 22 91 23 92 24 93 29 94 25 95 27 96 26 97
REMARK SMILES IDX 28 98
REMARK H PARENT 3 6 87 24 55 35 7 75 18 86
REMARK Flexibility Score: inf
ROOT
ATOM      1  C   UNL A   1      33.218  28.370  25.893  1.00  0.00     0.042 C 
ENDROOT
BRANCH   1   2
ATOM      2  C   UNL A   1      33.949  28.648  27.220  1.00  0.00     0.118 C 
BRANCH   2   3
ATOM      3  N   UNL A   1      33.786  29.991  27.775  1.00  0.00    -0.352 N 
ATOM      4  O   UNL A   1      34.370  31.919  28.797  1.00  0.00    -0.269 OA
ATOM      5  C   UNL A   1      34.704  30.777  28.421  1.00  0.00     0.251 C 
ATOM      6  H   UNL A   1      32.891  30.387  27.669  1.00  0.00     0.163 HD
BRANCH   5   7
ATOM      7  C   UNL A   1      36.080  30.322  28.740  1.00  0.00     0.039 A 
ATOM      8  C   UNL A   1      36.364  29.583  29.891  1.00  0.00     0.014 A 
ATOM      9  C   UNL A   1      37.100  30.517  27.800  1.00  0.00     0.014 A 
ATOM     10  C   UNL A   1      37.677  29.135  30.147  1.00  0.00     0.010 A 
ATOM     11  C   UNL A   1      38.398  30.033  28.038  1.00  0.00     0.010 A 
ATOM     12  C   UNL A   1      38.721  29.361  29.230  1.00  0.00    -0.014 A 
BRANCH  12  13
ATOM     13  C   UNL A   1      40.133  28.909  29.494  1.00  0.00     0.031 A 
ATOM     14  C   UNL A   1      41.082  29.766  30.308  1.00  0.00     0.074 A 
ATOM     15  C   UNL A   1      40.608  27.750  28.987  1.00  0.00     0.049 A 
ATOM     16  N   UNL A   1      42.355  29.584  30.578  1.00  0.00    -0.248 NA
ATOM     17  C   UNL A   1      40.527  30.997  30.886  1.00  0.00     0.031 C 
ATOM     18  C   UNL A   1      39.847  26.811  28.169  1.00  0.00     0.029 A 
ATOM     19  N   UNL A   1      41.857  27.170  29.079  1.00  0.00    -0.354 N 
ATOM     20  C   UNL A   1      42.757  30.689  31.323  1.00  0.00     0.074 A 
ATOM     21  C   UNL A   1      41.597  31.548  31.441  1.00  0.00     0.031 C 
ATOM     22  C   UNL A   1      40.628  25.763  27.855  1.00  0.00     0.029 A 
ATOM     23  C   UNL A   1      41.966  25.975  28.405  1.00  0.00     0.049 A 
ATOM     24  H   UNL A   1      42.601  27.573  29.581  1.00  0.00     0.167 HD
ATOM     25  C   UNL A   1      43.970  30.968  31.866  1.00  0.00     0.037 A 
ATOM     26  C   UNL A   1      43.017  25.148  28.229  1.00  0.00     0.037 A 
ATOM     27  C   UNL A   1      45.129  30.112  31.790  1.00  0.00     0.049 A 
ATOM     28  C   UNL A   1      44.359  25.487  28.827  1.00  0.00     0.074 A 
ATOM     29  C   UNL A   1      46.378  30.299  32.363  1.00  0.00     0.029 A 
ATOM     30  N   UNL A   1      45.188  28.913  31.098  1.00  0.00    -0.354 N 
ATOM     31  N   UNL A   1      44.706  26.513  29.562  1.00  0.00    -0.248 NA
ATOM     32  C   UNL A   1      45.459  24.542  28.569  1.00  0.00     0.031 C 
ATOM     33  C   UNL A   1      47.206  29.239  31.976  1.00  0.00     0.029 A 
ATOM     34  C   UNL A   1      46.457  28.361  31.213  1.00  0.00     0.049 A 
ATOM     35  H   UNL A   1      44.441  28.513  30.599  1.00  0.00     0.167 HD
ATOM     36  C   UNL A   1      46.045  26.320  29.885  1.00  0.00     0.074 A 
ATOM     37  C   UNL A   1      46.448  25.073  29.273  1.00  0.00     0.031 C 
ATOM     38  C   UNL A   1      46.860  27.109  30.625  1.00  0.00     0.037 A 
BRANCH  25  39
ATOM     39  C   UNL A   1      44.125  32.278  32.593  1.00  0.00     0.064 A 
ATOM     40  C   UNL A   1      43.868  32.398  33.966  1.00  0.00     0.173 A 
ATOM     41  C   UNL A   1      44.587  33.415  31.912  1.00  0.00     0.173 A 
ATOM     42  F   UNL A   1      43.424  31.344  34.666  1.00  0.00    -0.203 F 
ATOM     43  C   UNL A   1      44.034  33.616  34.623  1.00  0.00     0.198 A 
ATOM     44  C   UNL A   1      44.784  34.623  32.578  1.00  0.00     0.198 A 
ATOM     45  F   UNL A   1      44.866  33.354  30.600  1.00  0.00    -0.203 F 
ATOM     46  F   UNL A   1      43.734  33.720  35.925  1.00  0.00    -0.200 F 
ATOM     47  C   UNL A   1      44.497  34.726  33.930  1.00  0.00     0.200 A 
ATOM     48  F   UNL A   1      45.251  35.687  31.911  1.00  0.00    -0.200 F 
ATOM     49  F   UNL A   1      44.663  35.893  34.566  1.00  0.00    -0.200 F 
ENDBRANCH  25  39
BRANCH  26  50
ATOM     50  C   UNL A   1      42.851  23.888  27.453  1.00  0.00     0.064 A 
ATOM     51  C   UNL A   1      42.417  22.710  28.080  1.00  0.00     0.173 A 
ATOM     52  C   UNL A   1      43.147  23.825  26.084  1.00  0.00     0.173 A 
ATOM     53  F   UNL A   1      42.155  22.709  29.395  1.00  0.00    -0.203 F 
ATOM     54  C   UNL A   1      42.299  21.517  27.370  1.00  0.00     0.198 A 
ATOM     55  C   UNL A   1      42.998  22.639  25.368  1.00  0.00     0.198 A 
ATOM     56  F   UNL A   1      43.574  24.921  25.439  1.00  0.00    -0.203 F 
ATOM     57  F   UNL A   1      41.931  20.396  28.005  1.00  0.00    -0.200 F 
ATOM     58  C   UNL A   1      42.582  21.484  26.013  1.00  0.00     0.200 A 
ATOM     59  F   UNL A   1      43.263  22.612  24.055  1.00  0.00    -0.200 F 
ATOM     60  F   UNL A   1      42.464  20.337  25.330  1.00  0.00    -0.200 F 
ENDBRANCH  26  50
BRANCH  38  61
ATOM     61  C   UNL A   1      48.261  26.621  30.881  1.00  0.00     0.064 A 
ATOM     62  C   UNL A   1      48.567  25.757  31.943  1.00  0.00     0.173 A 
ATOM     63  C   UNL A   1      49.311  27.010  30.034  1.00  0.00     0.173 A 
ATOM     64  F   UNL A   1      47.605  25.365  32.793  1.00  0.00    -0.203 F 
ATOM     65  C   UNL A   1      49.874  25.328  32.166  1.00  0.00     0.198 A 
ATOM     66  C   UNL A   1      50.610  26.555  30.241  1.00  0.00     0.198 A 
ATOM     67  F   UNL A   1      49.075  27.830  28.998  1.00  0.00    -0.203 F 
ATOM     68  F   UNL A   1      50.151  24.548  33.221  1.00  0.00    -0.200 F 
ATOM     69  C   UNL A   1      50.893  25.723  31.312  1.00  0.00     0.200 A 
ATOM     70  F   UNL A   1      51.590  26.927  29.406  1.00  0.00    -0.200 F 
ATOM     71  F   UNL A   1      52.149  25.308  31.527  1.00  0.00    -0.200 F 
ENDBRANCH  38  61
ENDBRANCH  12  13
ENDBRANCH   5   7
ENDBRANCH   2   3
ENDBRANCH   1   2
BRANCH   1  72
ATOM     72  C   UNL A   1      31.674  28.184  25.758  1.00  0.00     0.117 C 
BRANCH  72  73
ATOM     73  N   UNL A   1      31.006  27.001  26.282  1.00  0.00    -0.356 N 
ATOM     74  C   UNL A   1      30.412  25.891  25.750  1.00  0.00     0.224 C 
ATOM     75  H   UNL A   1      30.975  27.002  27.266  1.00  0.00     0.163 HD
ATOM     76  O   UNL A   1      30.197  24.983  26.564  1.00  0.00    -0.275 OA
BRANCH  74  77
ATOM     77  C   UNL A   1      29.999  25.721  24.280  1.00  0.00     0.095 C 
ATOM     78  C   UNL A   1      28.985  26.833  23.864  1.00  0.00     0.041 C 
ATOM     79  C   UNL A   1      31.121  25.535  23.228  1.00  0.00     0.095 C 
ATOM     80  C   UNL A   1      29.529  27.989  23.079  1.00  0.00    -0.030 C 
ATOM     81  C   UNL A   1      31.448  26.672  22.231  1.00  0.00     0.041 C 
ATOM     82  C   UNL A   1      30.635  27.911  22.336  1.00  0.00    -0.030 C 
BRANCH  79  83
ATOM     83  C   UNL A   1      32.443  25.009  23.746  1.00  0.00     0.224 C 
ATOM     84  O   UNL A   1      33.407  25.774  23.833  1.00  0.00    -0.275 OA
ATOM     85  N   UNL A   1      32.604  23.729  24.181  1.00  0.00    -0.351 N 
ATOM     86  H   UNL A   1      33.520  23.510  24.468  1.00  0.00     0.163 HD
BRANCH  85  87
ATOM     87  C   UNL A   1      31.651  22.614  24.297  1.00  0.00     0.103 C 
ATOM     88  C   UNL A   1      31.610  22.124  25.740  1.00  0.00     0.048 C 
ATOM     89  C   UNL A   1      32.020  21.329  23.516  1.00  0.00     0.141 C 
ATOM     90  C   UNL A   1      32.636  20.992  25.815  1.00  0.00     0.119 C 
ATOM     91  N   UNL A   1      32.760  20.495  24.455  1.00  0.00    -0.369 N 
BRANCH  91  92
ATOM     92  C   UNL A   1      33.144  19.226  24.078  1.00  0.00     0.038 A 
ATOM     93  C   UNL A   1      32.629  18.605  22.933  1.00  0.00     0.026 A 
ATOM     94  C   UNL A   1      34.103  18.504  24.811  1.00  0.00     0.046 A 
ATOM     95  C   UNL A   1      33.043  17.327  22.534  1.00  0.00     0.004 A 
ATOM     96  C   UNL A   1      34.505  17.221  24.428  1.00  0.00     0.043 A 
ATOM     97  C   UNL A   1      33.979  16.627  23.288  1.00  0.00     0.020 A 
ATOM     98  Cl  UNL A   1      35.663  16.364  25.375  1.00  0.00    -0.084 Cl
ENDBRANCH  91  92
ENDBRANCH  85  87
ENDBRANCH  79  83
ENDBRANCH  74  77
ENDBRANCH  72  73
ENDBRANCH   1  72
TORSDOF 13
ENDMDL
MODEL 2
REMARK VINA RESULT:     -13.0      3.612      8.208
REMARK SMILES O=C(NCCCNC(=O)[C@H]1CC=CC[C@H]1C(=O)N[C@@H]1CCN(c2cccc(Cl)c2)C1)c1ccc(-c2c3nc(c(-c4c(F)c(F)c(F)c(F)c4F)c4ccc([nH]4)c(-c4c(F)c(F)c(F)c(F)c4F)c4nc(c(-c5c(F)c(F)c(F)c(F)c5F)c5ccc2[nH]5)C=C4)C=C3)cc1
REMARK SMILES IDX 5 1 4 2 3 3 1 4 2 5 31 7 32 8 93 9 33 10 92 11 34 12 35 13
REMARK SMILES IDX 36 14 86 15 37 16 91 17 85 18 87 19 38 20 90 21 84 22 83 23
REMARK SMILES IDX 39 25 71 26 51 27 70 28 52 29 55 30 69 31 88 32 53 33 54 34
REMARK SMILES IDX 68 36 89 37 56 38 40 39 41 40 49 41 42 42 43 43 47 44 50 45
REMARK SMILES IDX 44 46 45 47 48 48 46 49 72 50 73 51 81 52 74 53 75 54 79 55
REMARK SMILES IDX 82 56 76 57 77 58 80 59 78 60 57 61 58 62 66 63 59 64 60 65
REMARK SMILES IDX 64 66 67 67 61 68 62 69 65 70 63 71 6 72 7 73 8 74 9 76
REMARK SMILES IDX 10 77 11 78 15 79 12 80 14 81 13 82 16 83 17 84 18 85 19 87
REMARK SMILES IDX 20 88 30 89 21 90 22 91 23 92 24 93 29 94 25 95 27 96 26 97
REMARK SMILES IDX 28 98
REMARK H PARENT 3 6 87 24 55 35 7 75 18 86
REMARK Flexibility Score: inf
ROOT
ATOM      1  C   UNL A   1      37.486  19.472  24.933  1.00  0.00     0.042 C 
ENDROOT
BRANCH   1   2
ATOM      2  C   UNL A   1      38.747  19.975  25.663  1.00  0.00     0.118 C 
BRANCH   2   3
ATOM      3  N   UNL A   1      39.899  19.074  25.651  1.00  0.00    -0.352 N 
ATOM      4  O   UNL A   1      42.029  18.395  25.974  1.00  0.00    -0.269 OA
ATOM      5  C   UNL A   1      41.191  19.318  26.037  1.00  0.00     0.251 C 
ATOM      6  H   UNL A   1      39.721  18.165  25.318  1.00  0.00     0.163 HD
BRANCH   5   7
ATOM      7  C   UNL A   1      41.664  20.648  26.492  1.00  0.00     0.039 A 
ATOM      8  C   UNL A   1      41.905  20.921  27.842  1.00  0.00     0.014 A 
ATOM      9  C   UNL A   1      42.011  21.614  25.540  1.00  0.00     0.014 A 
ATOM     10  C   UNL A   1      42.389  22.186  28.239  1.00  0.00     0.010 A 
ATOM     11  C   UNL A   1      42.533  22.859  25.936  1.00  0.00     0.010 A 
ATOM     12  C   UNL A   1      42.701  23.182  27.294  1.00  0.00    -0.014 A 
BRANCH  12  13
ATOM     13  C   UNL A   1      43.198  24.545  27.699  1.00  0.00     0.031 A 
ATOM     14  C   UNL A   1      42.226  25.644  28.078  1.00  0.00     0.074 A 
ATOM     15  C   UNL A   1      44.517  24.841  27.703  1.00  0.00     0.049 A 
ATOM     16  N   UNL A   1      42.458  26.902  28.380  1.00  0.00    -0.248 NA
ATOM     17  C   UNL A   1      40.803  25.282  28.109  1.00  0.00     0.031 C 
ATOM     18  C   UNL A   1      45.592  23.916  27.351  1.00  0.00     0.029 A 
ATOM     19  N   UNL A   1      45.178  26.014  28.005  1.00  0.00    -0.354 N 
ATOM     20  C   UNL A   1      41.213  27.484  28.601  1.00  0.00     0.074 A 
ATOM     21  C   UNL A   1      40.228  26.447  28.375  1.00  0.00     0.031 C 
ATOM     22  C   UNL A   1      46.773  24.543  27.482  1.00  0.00     0.029 A 
ATOM     23  C   UNL A   1      46.545  25.931  27.876  1.00  0.00     0.049 A 
ATOM     24  H   UNL A   1      44.713  26.835  28.287  1.00  0.00     0.167 HD
ATOM     25  C   UNL A   1      40.910  28.757  28.965  1.00  0.00     0.037 A 
ATOM     26  C   UNL A   1      47.509  26.861  28.039  1.00  0.00     0.037 A 
ATOM     27  C   UNL A   1      41.874  29.797  29.228  1.00  0.00     0.049 A 
ATOM     28  C   UNL A   1      47.147  28.273  28.426  1.00  0.00     0.074 A 
ATOM     29  C   UNL A   1      41.647  31.096  29.657  1.00  0.00     0.029 A 
ATOM     30  N   UNL A   1      43.246  29.663  29.086  1.00  0.00    -0.354 N 
ATOM     31  N   UNL A   1      45.970  28.790  28.673  1.00  0.00    -0.248 NA
ATOM     32  C   UNL A   1      48.258  29.230  28.561  1.00  0.00     0.031 C 
ATOM     33  C   UNL A   1      42.876  31.762  29.723  1.00  0.00     0.029 A 
ATOM     34  C   UNL A   1      43.875  30.861  29.398  1.00  0.00     0.049 A 
ATOM     35  H   UNL A   1      43.707  28.840  28.805  1.00  0.00     0.167 HD
ATOM     36  C   UNL A   1      46.200  30.116  29.026  1.00  0.00     0.074 A 
ATOM     37  C   UNL A   1      47.630  30.322  28.972  1.00  0.00     0.031 C 
ATOM     38  C   UNL A   1      45.300  31.070  29.367  1.00  0.00     0.037 A 
BRANCH  25  39
ATOM     39  C   UNL A   1      39.453  29.118  29.090  1.00  0.00     0.064 A 
ATOM     40  C   UNL A   1      38.676  29.459  27.974  1.00  0.00     0.173 A 
ATOM     41  C   UNL A   1      38.817  29.073  30.341  1.00  0.00     0.173 A 
ATOM     42  F   UNL A   1      39.233  29.519  26.755  1.00  0.00    -0.203 F 
ATOM     43  C   UNL A   1      37.325  29.774  28.109  1.00  0.00     0.198 A 
ATOM     44  C   UNL A   1      37.459  29.356  30.468  1.00  0.00     0.198 A 
ATOM     45  F   UNL A   1      39.507  28.735  31.441  1.00  0.00    -0.203 F 
ATOM     46  F   UNL A   1      36.615  30.146  27.035  1.00  0.00    -0.200 F 
ATOM     47  C   UNL A   1      36.716  29.718  29.355  1.00  0.00     0.200 A 
ATOM     48  F   UNL A   1      36.869  29.280  31.669  1.00  0.00    -0.200 F 
ATOM     49  F   UNL A   1      35.416  30.014  29.481  1.00  0.00    -0.200 F 
ENDBRANCH  25  39
BRANCH  26  50
ATOM     50  C   UNL A   1      48.939  26.491  27.848  1.00  0.00     0.064 A 
ATOM     51  C   UNL A   1      49.771  26.246  28.951  1.00  0.00     0.173 A 
ATOM     52  C   UNL A   1      49.510  26.403  26.570  1.00  0.00     0.173 A 
ATOM     53  F   UNL A   1      49.282  26.351  30.195  1.00  0.00    -0.203 F 
ATOM     54  C   UNL A   1      51.120  25.940  28.783  1.00  0.00     0.198 A 
ATOM     55  C   UNL A   1      50.852  26.066  26.402  1.00  0.00     0.198 A 
ATOM     56  F   UNL A   1      48.761  26.637  25.483  1.00  0.00    -0.203 F 
ATOM     57  F   UNL A   1      51.903  25.759  29.856  1.00  0.00    -0.200 F 
ATOM     58  C   UNL A   1      51.658  25.843  27.508  1.00  0.00     0.200 A 
ATOM     59  F   UNL A   1      51.366  25.963  25.169  1.00  0.00    -0.200 F 
ATOM     60  F   UNL A   1      52.954  25.544  27.347  1.00  0.00    -0.200 F 
ENDBRANCH  26  50
BRANCH  38  61
ATOM     61  C   UNL A   1      45.832  32.416  29.779  1.00  0.00     0.064 A 
ATOM     62  C   UNL A   1      46.172  32.708  31.108  1.00  0.00     0.173 A 
ATOM     63  C   UNL A   1      46.023  33.424  28.821  1.00  0.00     0.173 A 
ATOM     64  F   UNL A   1      45.996  31.787  32.068  1.00  0.00    -0.203 F 
ATOM     65  C   UNL A   1      46.652  33.966  31.467  1.00  0.00     0.198 A 
ATOM     66  C   UNL A   1      46.532  34.670  29.177  1.00  0.00     0.198 A 
ATOM     67  F   UNL A   1      45.721  33.198  27.532  1.00  0.00    -0.203 F 
ATOM     68  F   UNL A   1      46.917  34.240  32.752  1.00  0.00    -0.200 F 
ATOM     69  C   UNL A   1      46.837  34.944  30.501  1.00  0.00     0.200 A 
ATOM     70  F   UNL A   1      46.722  35.608  28.239  1.00  0.00    -0.200 F 
ATOM     71  F   UNL A   1      47.299  36.153  30.847  1.00  0.00    -0.200 F 
ENDBRANCH  38  61
ENDBRANCH  12  13
ENDBRANCH   5   7
ENDBRANCH   2   3
ENDBRANCH   1   2
BRANCH   1  72
ATOM     72  C   UNL A   1      36.114  20.215  24.929  1.00  0.00     0.117 C 
BRANCH  72  73
ATOM     73  N   UNL A   1      35.510  20.695  26.164  1.00  0.00    -0.356 N 
ATOM     74  C   UNL A   1      35.000  21.880  26.613  1.00  0.00     0.224 C 
ATOM     75  H   UNL A   1      35.454  19.986  26.846  1.00  0.00     0.163 HD
ATOM     76  O   UNL A   1      34.332  21.793  27.651  1.00  0.00    -0.275 OA
BRANCH  74  77
ATOM     77  C   UNL A   1      35.215  23.249  25.949  1.00  0.00     0.095 C 
ATOM     78  C   UNL A   1      36.739  23.544  25.784  1.00  0.00     0.041 C 
ATOM     79  C   UNL A   1      34.420  23.562  24.657  1.00  0.00     0.095 C 
ATOM     80  C   UNL A   1      37.329  23.326  24.422  1.00  0.00    -0.030 C 
ATOM     81  C   UNL A   1      35.144  23.616  23.292  1.00  0.00     0.041 C 
ATOM     82  C   UNL A   1      36.610  23.369  23.300  1.00  0.00    -0.030 C 
BRANCH  79  83
ATOM     83  C   UNL A   1      33.145  22.771  24.449  1.00  0.00     0.224 C 
ATOM     84  O   UNL A   1      33.117  21.882  23.594  1.00  0.00    -0.275 OA
ATOM     85  N   UNL A   1      32.032  22.957  25.211  1.00  0.00    -0.351 N 
ATOM     86  H   UNL A   1      31.266  22.396  24.954  1.00  0.00     0.163 HD
BRANCH  85  87
ATOM     87  C   UNL A   1      31.772  23.852  26.350  1.00  0.00     0.103 C 
ATOM     88  C   UNL A   1      30.269  24.042  26.517  1.00  0.00     0.048 C 
ATOM     89  C   UNL A   1      32.279  25.306  26.194  1.00  0.00     0.141 C 
ATOM     90  C   UNL A   1      29.924  25.295  25.711  1.00  0.00     0.119 C 
ATOM     91  N   UNL A   1      31.159  26.057  25.640  1.00  0.00    -0.369 N 
BRANCH  91  92
ATOM     92  C   UNL A   1      31.272  27.421  25.477  1.00  0.00     0.038 A 
ATOM     93  C   UNL A   1      30.695  28.088  24.389  1.00  0.00     0.026 A 
ATOM     94  C   UNL A   1      31.948  28.216  26.419  1.00  0.00     0.046 A 
ATOM     95  C   UNL A   1      30.785  29.479  24.240  1.00  0.00     0.004 A 
ATOM     96  C   UNL A   1      32.058  29.602  26.265  1.00  0.00     0.043 A 
ATOM     97  C   UNL A   1      31.476  30.239  25.176  1.00  0.00     0.020 A 
ATOM     98  Cl  UNL A   1      32.921  30.531  27.432  1.00  0.00    -0.084 Cl
ENDBRANCH  91  92
ENDBRANCH  85  87
ENDBRANCH  79  83
ENDBRANCH  74  77
ENDBRANCH  72  73
ENDBRANCH   1  72
TORSDOF 13
ENDMDL
MODEL 3
REMARK VINA RESULT:     -12.9      3.648      8.449
REMARK SMILES O=C(NCCCNC(=O)[C@H]1CC=CC[C@H]1C(=O)N[C@@H]1CCN(c2cccc(Cl)c2)C1)c1ccc(-c2c3nc(c(-c4c(F)c(F)c(F)c(F)c4F)c4ccc([nH]4)c(-c4c(F)c(F)c(F)c(F)c4F)c4nc(c(-c5c(F)c(F)c(F)c(F)c5F)c5ccc2[nH]5)C=C4)C=C3)cc1
REMARK SMILES IDX 5 1 4 2 3 3 1 4 2 5 31 7 32 8 93 9 33 10 92 11 34 12 35 13
REMARK SMILES IDX 36 14 86 15 37 16 91 17 85 18 87 19 38 20 90 21 84 22 83 23
REMARK SMILES IDX 39 25 71 26 51 27 70 28 52 29 55 30 69 31 88 32 53 33 54 34
REMARK SMILES IDX 68 36 89 37 56 38 40 39 41 40 49 41 42 42 43 43 47 44 50 45
REMARK SMILES IDX 44 46 45 47 48 48 46 49 72 50 73 51 81 52 74 53 75 54 79 55
REMARK SMILES IDX 82 56 76 57 77 58 80 59 78 60 57 61 58 62 66 63 59 64 60 65
REMARK SMILES IDX 64 66 67 67 61 68 62 69 65 70 63 71 6 72 7 73 8 74 9 76
REMARK SMILES IDX 10 77 11 78 15 79 12 80 14 81 13 82 16 83 17 84 18 85 19 87
REMARK SMILES IDX 20 88 30 89 21 90 22 91 23 92 24 93 29 94 25 95 27 96 26 97
REMARK SMILES IDX 28 98
REMARK H PARENT 3 6 87 24 55 35 7 75 18 86
REMARK Flexibility Score: inf
ROOT
ATOM      1  C   UNL A   1      31.069  31.597  26.127  1.00  0.00     0.042 C 
ENDROOT
BRANCH   1   2
ATOM      2  C   UNL A   1      32.309  32.234  26.781  1.00  0.00     0.118 C 
BRANCH   2   3
ATOM      3  N   UNL A   1      32.150  33.606  27.261  1.00  0.00    -0.352 N 
ATOM      4  O   UNL A   1      32.652  35.506  28.376  1.00  0.00    -0.269 OA
ATOM      5  C   UNL A   1      32.952  34.325  28.109  1.00  0.00     0.251 C 
ATOM      6  H   UNL A   1      31.354  34.080  26.929  1.00  0.00     0.163 HD
BRANCH   5   7
ATOM      7  C   UNL A   1      34.152  33.754  28.769  1.00  0.00     0.039 A 
ATOM      8  C   UNL A   1      35.420  34.321  28.611  1.00  0.00     0.014 A 
ATOM      9  C   UNL A   1      33.996  32.703  29.681  1.00  0.00     0.014 A 
ATOM     10  C   UNL A   1      36.535  33.774  29.281  1.00  0.00     0.010 A 
ATOM     11  C   UNL A   1      35.103  32.187  30.379  1.00  0.00     0.010 A 
ATOM     12  C   UNL A   1      36.399  32.690  30.169  1.00  0.00    -0.014 A 
BRANCH  12  13
ATOM     13  C   UNL A   1      37.580  32.079  30.876  1.00  0.00     0.031 A 
ATOM     14  C   UNL A   1      38.407  30.997  30.212  1.00  0.00     0.074 A 
ATOM     15  C   UNL A   1      37.916  32.448  32.133  1.00  0.00     0.049 A 
ATOM     16  N   UNL A   1      39.412  30.297  30.690  1.00  0.00    -0.248 NA
ATOM     17  C   UNL A   1      38.049  30.648  28.831  1.00  0.00     0.031 C 
ATOM     18  C   UNL A   1      37.225  33.457  32.931  1.00  0.00     0.029 A 
ATOM     19  N   UNL A   1      38.924  32.004  32.964  1.00  0.00    -0.354 N 
ATOM     20  C   UNL A   1      39.778  29.407  29.684  1.00  0.00     0.074 A 
ATOM     21  C   UNL A   1      38.872  29.641  28.579  1.00  0.00     0.031 C 
ATOM     22  C   UNL A   1      37.839  33.576  34.120  1.00  0.00     0.029 A 
ATOM     23  C   UNL A   1      38.939  32.616  34.196  1.00  0.00     0.049 A 
ATOM     24  H   UNL A   1      39.573  31.313  32.700  1.00  0.00     0.167 HD
ATOM     25  C   UNL A   1      40.776  28.487  29.669  1.00  0.00     0.037 A 
ATOM     26  C   UNL A   1      39.729  32.424  35.273  1.00  0.00     0.037 A 
ATOM     27  C   UNL A   1      41.712  28.261  30.744  1.00  0.00     0.049 A 
ATOM     28  C   UNL A   1      40.820  31.384  35.240  1.00  0.00     0.074 A 
ATOM     29  C   UNL A   1      42.786  27.384  30.782  1.00  0.00     0.029 A 
ATOM     30  N   UNL A   1      41.687  28.907  31.969  1.00  0.00    -0.354 N 
ATOM     31  N   UNL A   1      41.177  30.586  34.266  1.00  0.00    -0.248 NA
ATOM     32  C   UNL A   1      41.621  31.224  36.465  1.00  0.00     0.031 C 
ATOM     33  C   UNL A   1      43.378  27.464  32.048  1.00  0.00     0.029 A 
ATOM     34  C   UNL A   1      42.713  28.434  32.777  1.00  0.00     0.049 A 
ATOM     35  H   UNL A   1      41.036  29.599  32.229  1.00  0.00     0.167 HD
ATOM     36  C   UNL A   1      42.262  29.858  34.744  1.00  0.00     0.074 A 
ATOM     37  C   UNL A   1      42.512  30.317  36.092  1.00  0.00     0.031 C 
ATOM     38  C   UNL A   1      42.982  28.900  34.113  1.00  0.00     0.037 A 
BRANCH  25  39
ATOM     39  C   UNL A   1      40.911  27.622  28.444  1.00  0.00     0.064 A 
ATOM     40  C   UNL A   1      40.216  26.412  28.311  1.00  0.00     0.173 A 
ATOM     41  C   UNL A   1      41.708  28.039  27.366  1.00  0.00     0.173 A 
ATOM     42  F   UNL A   1      39.440  25.965  29.309  1.00  0.00    -0.203 F 
ATOM     43  C   UNL A   1      40.341  25.634  27.161  1.00  0.00     0.198 A 
ATOM     44  C   UNL A   1      41.806  27.277  26.205  1.00  0.00     0.198 A 
ATOM     45  F   UNL A   1      42.383  29.199  27.430  1.00  0.00    -0.203 F 
ATOM     46  F   UNL A   1      39.707  24.457  27.078  1.00  0.00    -0.200 F 
ATOM     47  C   UNL A   1      41.131  26.070  26.107  1.00  0.00     0.200 A 
ATOM     48  F   UNL A   1      42.553  27.710  25.180  1.00  0.00    -0.200 F 
ATOM     49  F   UNL A   1      41.244  25.324  24.999  1.00  0.00    -0.200 F 
ENDBRANCH  25  39
BRANCH  26  50
ATOM     50  C   UNL A   1      39.534  33.252  36.496  1.00  0.00     0.064 A 
ATOM     51  C   UNL A   1      38.640  32.851  37.500  1.00  0.00     0.173 A 
ATOM     52  C   UNL A   1      40.209  34.468  36.674  1.00  0.00     0.173 A 
ATOM     53  F   UNL A   1      37.944  31.713  37.361  1.00  0.00    -0.203 F 
ATOM     54  C   UNL A   1      38.420  33.640  38.627  1.00  0.00     0.198 A 
ATOM     55  C   UNL A   1      40.011  35.241  37.816  1.00  0.00     0.198 A 
ATOM     56  F   UNL A   1      41.067  34.903  35.739  1.00  0.00    -0.203 F 
ATOM     57  F   UNL A   1      37.523  33.256  39.546  1.00  0.00    -0.200 F 
ATOM     58  C   UNL A   1      39.111  34.831  38.788  1.00  0.00     0.200 A 
ATOM     59  F   UNL A   1      40.688  36.387  37.974  1.00  0.00    -0.200 F 
ATOM     60  F   UNL A   1      38.903  35.587  39.875  1.00  0.00    -0.200 F 
ENDBRANCH  26  50
BRANCH  38  61
ATOM     61  C   UNL A   1      44.163  28.321  34.844  1.00  0.00     0.064 A 
ATOM     62  C   UNL A   1      45.437  28.908  34.788  1.00  0.00     0.173 A 
ATOM     63  C   UNL A   1      44.012  27.168  35.632  1.00  0.00     0.173 A 
ATOM     64  F   UNL A   1      45.643  30.002  34.039  1.00  0.00    -0.203 F 
ATOM     65  C   UNL A   1      46.517  28.346  35.464  1.00  0.00     0.198 A 
ATOM     66  C   UNL A   1      45.087  26.627  36.331  1.00  0.00     0.198 A 
ATOM     67  F   UNL A   1      42.816  26.568  35.727  1.00  0.00    -0.203 F 
ATOM     68  F   UNL A   1      47.736  28.893  35.349  1.00  0.00    -0.200 F 
ATOM     69  C   UNL A   1      46.341  27.210  36.239  1.00  0.00     0.200 A 
ATOM     70  F   UNL A   1      44.910  25.537  37.090  1.00  0.00    -0.200 F 
ATOM     71  F   UNL A   1      47.381  26.671  36.890  1.00  0.00    -0.200 F 
ENDBRANCH  38  61
ENDBRANCH  12  13
ENDBRANCH   5   7
ENDBRANCH   2   3
ENDBRANCH   1   2
BRANCH   1  72
ATOM     72  C   UNL A   1      31.105  30.337  25.208  1.00  0.00     0.117 C 
BRANCH  72  73
ATOM     73  N   UNL A   1      32.232  30.078  24.323  1.00  0.00    -0.356 N 
ATOM     74  C   UNL A   1      33.144  29.073  24.161  1.00  0.00     0.224 C 
ATOM     75  H   UNL A   1      32.371  30.811  23.680  1.00  0.00     0.163 HD
ATOM     76  O   UNL A   1      33.783  29.124  23.102  1.00  0.00    -0.275 OA
BRANCH  74  77
ATOM     77  C   UNL A   1      33.422  27.952  25.174  1.00  0.00     0.095 C 
ATOM     78  C   UNL A   1      33.878  28.552  26.542  1.00  0.00     0.041 C 
ATOM     79  C   UNL A   1      32.347  26.851  25.352  1.00  0.00     0.095 C 
ATOM     80  C   UNL A   1      32.847  28.625  27.629  1.00  0.00    -0.030 C 
ATOM     81  C   UNL A   1      31.498  26.794  26.644  1.00  0.00     0.041 C 
ATOM     82  C   UNL A   1      31.780  27.825  27.677  1.00  0.00    -0.030 C 
BRANCH  79  83
ATOM     83  C   UNL A   1      31.396  26.652  24.191  1.00  0.00     0.224 C 
ATOM     84  O   UNL A   1      30.223  27.021  24.297  1.00  0.00    -0.275 OA
ATOM     85  N   UNL A   1      31.793  26.131  22.997  1.00  0.00    -0.351 N 
ATOM     86  H   UNL A   1      31.070  26.032  22.337  1.00  0.00     0.163 HD
BRANCH  85  87
ATOM     87  C   UNL A   1      33.113  25.687  22.521  1.00  0.00     0.103 C 
ATOM     88  C   UNL A   1      32.937  24.742  21.337  1.00  0.00     0.048 C 
ATOM     89  C   UNL A   1      33.934  24.831  23.515  1.00  0.00     0.141 C 
ATOM     90  C   UNL A   1      32.903  23.337  21.940  1.00  0.00     0.119 C 
ATOM     91  N   UNL A   1      33.609  23.444  23.205  1.00  0.00    -0.369 N 
BRANCH  91  92
ATOM     92  C   UNL A   1      34.267  22.429  23.866  1.00  0.00     0.038 A 
ATOM     93  C   UNL A   1      33.616  21.250  24.250  1.00  0.00     0.026 A 
ATOM     94  C   UNL A   1      35.640  22.517  24.158  1.00  0.00     0.046 A 
ATOM     95  C   UNL A   1      34.294  20.206  24.895  1.00  0.00     0.004 A 
ATOM     96  C   UNL A   1      36.317  21.487  24.819  1.00  0.00     0.043 A 
ATOM     97  C   UNL A   1      35.648  20.327  25.189  1.00  0.00     0.020 A 
ATOM     98  Cl  UNL A   1      37.994  21.652  25.179  1.00  0.00    -0.084 Cl
ENDBRANCH  91  92
ENDBRANCH  85  87
ENDBRANCH  79  83
ENDBRANCH  74  77
ENDBRANCH  72  73
ENDBRANCH   1  72
TORSDOF 13
ENDMDL
