MODEL 1
REMARK VINA RESULT:     -11.6      0.000      0.000
REMARK SMILES C#CCN(CC(=O)NCCCNC(=O)c1ccc(-c2c3nc(c(-c4c(F)c(F)c(F)c(F)c4F)c4ccc([nH]4)c(-c4c(F)c(F)c(F)c(F)c4F)c4nc(c(-c5c(F)c(F)c(F)c(F)c5F)c5ccc2[nH]5)C=C4)C=C3)cc1)C(=O)NCc1ccnc(C)n1
REMARK SMILES IDX 9 1 8 2 6 3 7 4 5 6 4 7 3 8 2 9 1 10 78 11 79 12 80 13 81 15
REMARK SMILES IDX 82 16 83 17 88 18 84 19 86 20 85 21 87 22 10 23 11 24 12 25
REMARK SMILES IDX 13 26 14 28 15 29 16 30 77 31 17 32 76 33 18 34 19 35 20 36
REMARK SMILES IDX 70 37 21 38 75 39 69 40 71 41 22 42 74 43 68 44 67 45 23 47
REMARK SMILES IDX 55 48 35 49 54 50 36 51 39 52 53 53 72 54 37 55 38 56 52 58
REMARK SMILES IDX 73 59 40 60 24 61 25 62 33 63 26 64 27 65 31 66 34 67 28 68
REMARK SMILES IDX 29 69 32 70 30 71 56 72 57 73 65 74 58 75 59 76 63 77 66 78
REMARK SMILES IDX 60 79 61 80 64 81 62 82 41 83 42 84 50 85 43 86 44 87 48 88
REMARK SMILES IDX 51 89 45 90 46 91 49 92 47 93
REMARK H PARENT 8 5 80 14 12 27 71 46 39 57
REMARK Flexibility Score: inf
ROOT
ATOM      1  C   UNL A   1      31.397  30.756  26.407  1.00  0.00     0.117 C 
ENDROOT
BRANCH   1   2
ATOM      2  N   UNL A   1      32.340  30.358  25.384  1.00  0.00    -0.354 N 
ATOM      3  C   UNL A   1      32.639  29.128  24.879  1.00  0.00     0.239 C 
ATOM      4  O   UNL A   1      33.237  29.109  23.798  1.00  0.00    -0.273 OA
ATOM      5  H   UNL A   1      32.852  31.100  24.987  1.00  0.00     0.163 HD
BRANCH   3   6
ATOM      6  C   UNL A   1      32.150  27.816  25.514  1.00  0.00     0.222 C 
BRANCH   6   7
ATOM      7  N   UNL A   1      31.470  26.889  24.615  1.00  0.00    -0.304 N 
BRANCH   7   8
ATOM      8  C   UNL A   1      32.276  25.778  24.121  1.00  0.00     0.211 C 
BRANCH   8   9
ATOM      9  C   UNL A   1      32.492  25.805  22.617  1.00  0.00    -0.085 C 
ATOM     10  C   UNL A   1      32.678  25.828  21.327  1.00  0.00     0.006 C 
ENDBRANCH   8   9
ENDBRANCH   7   8
BRANCH   7  11
ATOM     11  C   UNL A   1      30.166  26.911  24.216  1.00  0.00     0.318 C 
ATOM     12  O   UNL A   1      29.329  26.158  24.727  1.00  0.00    -0.249 OA
ATOM     13  N   UNL A   1      29.676  27.694  23.249  1.00  0.00    -0.332 N 
ATOM     14  H   UNL A   1      28.702  27.571  23.169  1.00  0.00     0.165 HD
BRANCH  13  15
ATOM     15  C   UNL A   1      30.145  28.671  22.276  1.00  0.00     0.174 C 
BRANCH  15  16
ATOM     16  C   UNL A   1      29.399  29.986  22.368  1.00  0.00     0.063 A 
ATOM     17  C   UNL A   1      29.123  30.569  23.591  1.00  0.00     0.046 A 
ATOM     18  N   UNL A   1      28.984  30.543  21.207  1.00  0.00    -0.236 NA
ATOM     19  C   UNL A   1      28.398  31.736  23.567  1.00  0.00     0.115 A 
ATOM     20  C   UNL A   1      28.277  31.689  21.290  1.00  0.00     0.125 A 
ATOM     21  N   UNL A   1      27.966  32.317  22.438  1.00  0.00    -0.242 NA
ATOM     22  C   UNL A   1      27.818  32.312  20.010  1.00  0.00     0.089 C 
ENDBRANCH  15  16
ENDBRANCH  13  15
ENDBRANCH   7  11
ENDBRANCH   6   7
ENDBRANCH   3   6
ENDBRANCH   1   2
BRANCH   1  23
ATOM     23  C   UNL A   1      31.319  32.264  26.625  1.00  0.00     0.042 C 
BRANCH  23  24
ATOM     24  C   UNL A   1      32.614  32.912  27.108  1.00  0.00     0.118 C 
BRANCH  24  25
ATOM     25  N   UNL A   1      32.420  34.257  27.625  1.00  0.00    -0.352 N 
ATOM     26  C   UNL A   1      33.018  34.919  28.664  1.00  0.00     0.251 C 
ATOM     27  H   UNL A   1      31.739  34.783  27.145  1.00  0.00     0.163 HD
ATOM     28  O   UNL A   1      32.541  35.992  29.040  1.00  0.00    -0.269 OA
BRANCH  26  29
ATOM     29  C   UNL A   1      34.209  34.375  29.351  1.00  0.00     0.039 A 
ATOM     30  C   UNL A   1      34.026  33.653  30.536  1.00  0.00     0.014 A 
ATOM     31  C   UNL A   1      35.503  34.620  28.885  1.00  0.00     0.014 A 
ATOM     32  C   UNL A   1      35.129  33.125  31.213  1.00  0.00     0.010 A 
ATOM     33  C   UNL A   1      36.596  34.033  29.519  1.00  0.00     0.010 A 
ATOM     34  C   UNL A   1      36.422  33.279  30.690  1.00  0.00    -0.014 A 
BRANCH  34  35
ATOM     35  C   UNL A   1      37.600  32.654  31.344  1.00  0.00     0.031 A 
ATOM     36  C   UNL A   1      38.322  31.512  30.682  1.00  0.00     0.074 A 
ATOM     37  C   UNL A   1      37.975  33.065  32.571  1.00  0.00     0.049 A 
ATOM     38  N   UNL A   1      39.301  30.773  31.141  1.00  0.00    -0.248 NA
ATOM     39  C   UNL A   1      37.865  31.133  29.337  1.00  0.00     0.031 C 
ATOM     40  C   UNL A   1      37.332  34.136  33.335  1.00  0.00     0.029 A 
ATOM     41  N   UNL A   1      38.974  32.620  33.401  1.00  0.00    -0.354 N 
ATOM     42  C   UNL A   1      39.562  29.834  30.153  1.00  0.00     0.074 A 
ATOM     43  C   UNL A   1      38.612  30.067  29.087  1.00  0.00     0.031 C 
ATOM     44  C   UNL A   1      37.958  34.271  34.515  1.00  0.00     0.029 A 
ATOM     45  C   UNL A   1      39.018  33.272  34.609  1.00  0.00     0.049 A 
ATOM     46  H   UNL A   1      39.599  31.901  33.152  1.00  0.00     0.167 HD
ATOM     47  C   UNL A   1      40.519  28.876  30.129  1.00  0.00     0.037 A 
ATOM     48  C   UNL A   1      39.812  33.077  35.678  1.00  0.00     0.037 A 
ATOM     49  C   UNL A   1      41.482  28.663  31.179  1.00  0.00     0.049 A 
ATOM     50  C   UNL A   1      40.863  32.001  35.629  1.00  0.00     0.074 A 
ATOM     51  C   UNL A   1      42.532  27.762  31.219  1.00  0.00     0.029 A 
ATOM     52  N   UNL A   1      41.509  29.360  32.379  1.00  0.00    -0.354 N 
ATOM     53  N   UNL A   1      41.143  31.162  34.662  1.00  0.00    -0.248 NA
ATOM     54  C   UNL A   1      41.710  31.847  36.820  1.00  0.00     0.031 C 
ATOM     55  C   UNL A   1      43.165  27.881  32.460  1.00  0.00     0.029 A 
ATOM     56  C   UNL A   1      42.543  28.892  33.174  1.00  0.00     0.049 A 
ATOM     57  H   UNL A   1      40.886  30.081  32.628  1.00  0.00     0.167 HD
ATOM     58  C   UNL A   1      42.213  30.402  35.113  1.00  0.00     0.074 A 
ATOM     59  C   UNL A   1      42.542  30.889  36.436  1.00  0.00     0.031 C 
ATOM     60  C   UNL A   1      42.865  29.393  34.486  1.00  0.00     0.037 A 
BRANCH  47  61
ATOM     61  C   UNL A   1      40.578  27.978  28.926  1.00  0.00     0.064 A 
ATOM     62  C   UNL A   1      39.810  26.807  28.843  1.00  0.00     0.173 A 
ATOM     63  C   UNL A   1      41.378  28.317  27.824  1.00  0.00     0.173 A 
ATOM     64  F   UNL A   1      39.035  26.434  29.873  1.00  0.00    -0.203 F 
ATOM     65  C   UNL A   1      39.861  25.994  27.714  1.00  0.00     0.198 A 
ATOM     66  C   UNL A   1      41.404  27.517  26.684  1.00  0.00     0.198 A 
ATOM     67  F   UNL A   1      42.127  29.430  27.847  1.00  0.00    -0.203 F 
ATOM     68  F   UNL A   1      39.153  24.856  27.677  1.00  0.00    -0.200 F 
ATOM     69  C   UNL A   1      40.651  26.353  26.633  1.00  0.00     0.200 A 
ATOM     70  F   UNL A   1      42.158  27.873  25.634  1.00  0.00    -0.200 F 
ATOM     71  F   UNL A   1      40.693  25.575  25.543  1.00  0.00    -0.200 F 
ENDBRANCH  47  61
BRANCH  48  72
ATOM     72  C   UNL A   1      39.654  33.930  36.884  1.00  0.00     0.064 A 
ATOM     73  C   UNL A   1      38.866  33.509  37.965  1.00  0.00     0.173 A 
ATOM     74  C   UNL A   1      40.282  35.181  36.983  1.00  0.00     0.173 A 
ATOM     75  F   UNL A   1      38.229  32.331  37.909  1.00  0.00    -0.203 F 
ATOM     76  C   UNL A   1      38.696  34.315  39.088  1.00  0.00     0.198 A 
ATOM     77  C   UNL A   1      40.134  35.973  38.119  1.00  0.00     0.198 A 
ATOM     78  F   UNL A   1      41.050  35.627  35.978  1.00  0.00    -0.203 F 
ATOM     79  F   UNL A   1      37.901  33.908  40.087  1.00  0.00    -0.200 F 
ATOM     80  C   UNL A   1      39.335  35.544  39.167  1.00  0.00     0.200 A 
ATOM     81  F   UNL A   1      40.764  37.152  38.197  1.00  0.00    -0.200 F 
ATOM     82  F   UNL A   1      39.173  36.316  40.250  1.00  0.00    -0.200 F 
ENDBRANCH  48  72
BRANCH  60  83
ATOM     83  C   UNL A   1      44.024  28.768  35.206  1.00  0.00     0.064 A 
ATOM     84  C   UNL A   1      45.330  29.259  35.065  1.00  0.00     0.173 A 
ATOM     85  C   UNL A   1      43.817  27.693  36.083  1.00  0.00     0.173 A 
ATOM     86  F   UNL A   1      45.582  30.275  34.226  1.00  0.00    -0.203 F 
ATOM     87  C   UNL A   1      46.390  28.682  35.759  1.00  0.00     0.198 A 
ATOM     88  C   UNL A   1      44.874  27.137  36.798  1.00  0.00     0.198 A 
ATOM     89  F   UNL A   1      42.586  27.190  36.258  1.00  0.00    -0.203 F 
ATOM     90  F   UNL A   1      47.637  29.137  35.575  1.00  0.00    -0.200 F 
ATOM     91  C   UNL A   1      46.161  27.627  36.630  1.00  0.00     0.200 A 
ATOM     92  F   UNL A   1      44.648  26.126  37.649  1.00  0.00    -0.200 F 
ATOM     93  F   UNL A   1      47.181  27.078  37.304  1.00  0.00    -0.200 F 
ENDBRANCH  60  83
ENDBRANCH  34  35
ENDBRANCH  26  29
ENDBRANCH  24  25
ENDBRANCH  23  24
ENDBRANCH   1  23
TORSDOF 16
ENDMDL
MODEL 2
REMARK VINA RESULT:     -11.4      0.805      1.850
REMARK SMILES C#CCN(CC(=O)NCCCNC(=O)c1ccc(-c2c3nc(c(-c4c(F)c(F)c(F)c(F)c4F)c4ccc([nH]4)c(-c4c(F)c(F)c(F)c(F)c4F)c4nc(c(-c5c(F)c(F)c(F)c(F)c5F)c5ccc2[nH]5)C=C4)C=C3)cc1)C(=O)NCc1ccnc(C)n1
REMARK SMILES IDX 9 1 8 2 6 3 7 4 5 6 4 7 3 8 2 9 1 10 78 11 79 12 80 13 81 15
REMARK SMILES IDX 82 16 83 17 88 18 84 19 86 20 85 21 87 22 10 23 11 24 12 25
REMARK SMILES IDX 13 26 14 28 15 29 16 30 77 31 17 32 76 33 18 34 19 35 20 36
REMARK SMILES IDX 70 37 21 38 75 39 69 40 71 41 22 42 74 43 68 44 67 45 23 47
REMARK SMILES IDX 55 48 35 49 54 50 36 51 39 52 53 53 72 54 37 55 38 56 52 58
REMARK SMILES IDX 73 59 40 60 24 61 25 62 33 63 26 64 27 65 31 66 34 67 28 68
REMARK SMILES IDX 29 69 32 70 30 71 56 72 57 73 65 74 58 75 59 76 63 77 66 78
REMARK SMILES IDX 60 79 61 80 64 81 62 82 41 83 42 84 50 85 43 86 44 87 48 88
REMARK SMILES IDX 51 89 45 90 46 91 49 92 47 93
REMARK H PARENT 8 5 80 14 12 27 71 46 39 57
REMARK Flexibility Score: inf
ROOT
ATOM      1  C   UNL A   1      31.351  30.859  25.862  1.00  0.00     0.117 C 
ENDROOT
BRANCH   1   2
ATOM      2  N   UNL A   1      32.267  30.042  26.629  1.00  0.00    -0.354 N 
ATOM      3  C   UNL A   1      32.716  28.772  26.419  1.00  0.00     0.239 C 
ATOM      4  O   UNL A   1      33.730  28.439  27.039  1.00  0.00    -0.273 OA
ATOM      5  H   UNL A   1      32.624  30.475  27.438  1.00  0.00     0.163 HD
BRANCH   3   6
ATOM      6  C   UNL A   1      32.108  27.828  25.369  1.00  0.00     0.222 C 
BRANCH   6   7
ATOM      7  N   UNL A   1      32.790  27.787  24.079  1.00  0.00    -0.304 N 
BRANCH   7   8
ATOM      8  C   UNL A   1      33.621  26.612  23.838  1.00  0.00     0.211 C 
BRANCH   8   9
ATOM      9  C   UNL A   1      33.088  25.705  22.742  1.00  0.00    -0.085 C 
ATOM     10  C   UNL A   1      32.630  24.927  21.801  1.00  0.00     0.006 C 
ENDBRANCH   8   9
ENDBRANCH   7   8
BRANCH   7  11
ATOM     11  C   UNL A   1      32.712  28.689  23.059  1.00  0.00     0.318 C 
ATOM     12  O   UNL A   1      33.706  29.330  22.697  1.00  0.00    -0.249 OA
ATOM     13  N   UNL A   1      31.596  28.989  22.389  1.00  0.00    -0.332 N 
ATOM     14  H   UNL A   1      31.791  29.629  21.666  1.00  0.00     0.165 HD
BRANCH  13  15
ATOM     15  C   UNL A   1      30.177  28.658  22.402  1.00  0.00     0.174 C 
BRANCH  15  16
ATOM     16  C   UNL A   1      29.294  29.889  22.423  1.00  0.00     0.063 A 
ATOM     17  C   UNL A   1      28.700  30.325  23.593  1.00  0.00     0.046 A 
ATOM     18  N   UNL A   1      29.085  30.519  21.244  1.00  0.00    -0.236 NA
ATOM     19  C   UNL A   1      27.878  31.421  23.496  1.00  0.00     0.115 A 
ATOM     20  C   UNL A   1      28.260  31.586  21.253  1.00  0.00     0.125 A 
ATOM     21  N   UNL A   1      27.643  32.070  22.345  1.00  0.00    -0.242 NA
ATOM     22  C   UNL A   1      28.025  32.288  19.953  1.00  0.00     0.089 C 
ENDBRANCH  15  16
ENDBRANCH  13  15
ENDBRANCH   7  11
ENDBRANCH   6   7
ENDBRANCH   3   6
ENDBRANCH   1   2
BRANCH   1  23
ATOM     23  C   UNL A   1      31.269  32.307  26.336  1.00  0.00     0.042 C 
BRANCH  23  24
ATOM     24  C   UNL A   1      32.400  32.746  27.262  1.00  0.00     0.118 C 
BRANCH  24  25
ATOM     25  N   UNL A   1      32.322  34.150  27.631  1.00  0.00    -0.352 N 
ATOM     26  C   UNL A   1      33.013  34.878  28.563  1.00  0.00     0.251 C 
ATOM     27  H   UNL A   1      31.657  34.668  27.122  1.00  0.00     0.163 HD
ATOM     28  O   UNL A   1      32.628  36.018  28.834  1.00  0.00    -0.269 OA
BRANCH  26  29
ATOM     29  C   UNL A   1      34.196  34.328  29.260  1.00  0.00     0.039 A 
ATOM     30  C   UNL A   1      33.997  33.559  30.412  1.00  0.00     0.014 A 
ATOM     31  C   UNL A   1      35.497  34.612  28.836  1.00  0.00     0.014 A 
ATOM     32  C   UNL A   1      35.091  33.023  31.096  1.00  0.00     0.010 A 
ATOM     33  C   UNL A   1      36.584  34.019  29.475  1.00  0.00     0.010 A 
ATOM     34  C   UNL A   1      36.394  33.219  30.612  1.00  0.00    -0.014 A 
BRANCH  34  35
ATOM     35  C   UNL A   1      37.567  32.589  31.272  1.00  0.00     0.031 A 
ATOM     36  C   UNL A   1      38.299  31.457  30.605  1.00  0.00     0.074 A 
ATOM     37  C   UNL A   1      37.925  32.986  32.509  1.00  0.00     0.049 A 
ATOM     38  N   UNL A   1      39.275  30.716  31.066  1.00  0.00    -0.248 NA
ATOM     39  C   UNL A   1      37.858  31.094  29.250  1.00  0.00     0.031 C 
ATOM     40  C   UNL A   1      37.271  34.045  33.277  1.00  0.00     0.029 A 
ATOM     41  N   UNL A   1      38.917  32.533  33.344  1.00  0.00    -0.354 N 
ATOM     42  C   UNL A   1      39.550  29.789  30.069  1.00  0.00     0.074 A 
ATOM     43  C   UNL A   1      38.611  30.033  28.995  1.00  0.00     0.031 C 
ATOM     44  C   UNL A   1      37.883  34.168  34.466  1.00  0.00     0.029 A 
ATOM     45  C   UNL A   1      38.945  33.171  34.560  1.00  0.00     0.049 A 
ATOM     46  H   UNL A   1      39.547  31.819  33.094  1.00  0.00     0.167 HD
ATOM     47  C   UNL A   1      40.510  28.834  30.045  1.00  0.00     0.037 A 
ATOM     48  C   UNL A   1      39.727  32.965  35.636  1.00  0.00     0.037 A 
ATOM     49  C   UNL A   1      41.461  28.611  31.103  1.00  0.00     0.049 A 
ATOM     50  C   UNL A   1      40.782  31.892  35.586  1.00  0.00     0.074 A 
ATOM     51  C   UNL A   1      42.513  27.712  31.144  1.00  0.00     0.029 A 
ATOM     52  N   UNL A   1      41.472  29.293  32.312  1.00  0.00    -0.354 N 
ATOM     53  N   UNL A   1      41.075  31.066  34.612  1.00  0.00    -0.248 NA
ATOM     54  C   UNL A   1      41.616  31.726  36.785  1.00  0.00     0.031 C 
ATOM     55  C   UNL A   1      43.131  27.817  32.394  1.00  0.00     0.029 A 
ATOM     56  C   UNL A   1      42.499  28.818  33.113  1.00  0.00     0.049 A 
ATOM     57  H   UNL A   1      40.844  30.009  32.562  1.00  0.00     0.167 HD
ATOM     58  C   UNL A   1      42.142  30.304  35.066  1.00  0.00     0.074 A 
ATOM     59  C   UNL A   1      42.454  30.775  36.399  1.00  0.00     0.031 C 
ATOM     60  C   UNL A   1      42.804  29.304  34.434  1.00  0.00     0.037 A 
BRANCH  47  61
ATOM     61  C   UNL A   1      40.585  27.951  28.832  1.00  0.00     0.064 A 
ATOM     62  C   UNL A   1      39.874  26.744  28.754  1.00  0.00     0.173 A 
ATOM     63  C   UNL A   1      41.342  28.339  27.715  1.00  0.00     0.173 A 
ATOM     64  F   UNL A   1      39.142  26.324  29.797  1.00  0.00    -0.203 F 
ATOM     65  C   UNL A   1      39.939  25.945  27.615  1.00  0.00     0.198 A 
ATOM     66  C   UNL A   1      41.381  27.552  26.567  1.00  0.00     0.198 A 
ATOM     67  F   UNL A   1      42.036  29.487  27.733  1.00  0.00    -0.203 F 
ATOM     68  F   UNL A   1      39.287  24.775  27.583  1.00  0.00    -0.200 F 
ATOM     69  C   UNL A   1      40.685  26.353  26.521  1.00  0.00     0.200 A 
ATOM     70  F   UNL A   1      42.092  27.954  25.504  1.00  0.00    -0.200 F 
ATOM     71  F   UNL A   1      40.740  25.587  25.422  1.00  0.00    -0.200 F 
ENDBRANCH  47  61
BRANCH  48  72
ATOM     72  C   UNL A   1      39.553  33.803  36.850  1.00  0.00     0.064 A 
ATOM     73  C   UNL A   1      40.197  35.043  36.967  1.00  0.00     0.173 A 
ATOM     74  C   UNL A   1      38.745  33.385  37.918  1.00  0.00     0.173 A 
ATOM     75  F   UNL A   1      40.997  35.477  35.982  1.00  0.00    -0.203 F 
ATOM     76  C   UNL A   1      40.056  35.822  38.113  1.00  0.00     0.198 A 
ATOM     77  C   UNL A   1      38.582  34.178  39.051  1.00  0.00     0.198 A 
ATOM     78  F   UNL A   1      38.104  32.208  37.853  1.00  0.00    -0.203 F 
ATOM     79  F   UNL A   1      40.719  36.982  38.218  1.00  0.00    -0.200 F 
ATOM     80  C   UNL A   1      39.243  35.392  39.152  1.00  0.00     0.200 A 
ATOM     81  F   UNL A   1      37.785  33.765  40.046  1.00  0.00    -0.200 F 
ATOM     82  F   UNL A   1      39.105  36.144  40.252  1.00  0.00    -0.200 F 
ENDBRANCH  48  72
BRANCH  60  83
ATOM     83  C   UNL A   1      43.957  28.674  35.160  1.00  0.00     0.064 A 
ATOM     84  C   UNL A   1      43.780  27.569  36.006  1.00  0.00     0.173 A 
ATOM     85  C   UNL A   1      45.261  29.156  34.973  1.00  0.00     0.173 A 
ATOM     86  F   UNL A   1      42.551  27.081  36.231  1.00  0.00    -0.203 F 
ATOM     87  C   UNL A   1      44.864  26.983  36.653  1.00  0.00     0.198 A 
ATOM     88  C   UNL A   1      46.346  28.550  35.598  1.00  0.00     0.198 A 
ATOM     89  F   UNL A   1      45.484  30.207  34.170  1.00  0.00    -0.203 F 
ATOM     90  F   UNL A   1      44.667  25.956  37.492  1.00  0.00    -0.200 F 
ATOM     91  C   UNL A   1      46.146  27.468  36.444  1.00  0.00     0.200 A 
ATOM     92  F   UNL A   1      47.586  29.013  35.384  1.00  0.00    -0.200 F 
ATOM     93  F   UNL A   1      47.191  26.898  37.061  1.00  0.00    -0.200 F 
ENDBRANCH  60  83
ENDBRANCH  34  35
ENDBRANCH  26  29
ENDBRANCH  24  25
ENDBRANCH  23  24
ENDBRANCH   1  23
TORSDOF 16
ENDMDL
MODEL 3
REMARK VINA RESULT:     -11.3      3.638      5.726
REMARK SMILES C#CCN(CC(=O)NCCCNC(=O)c1ccc(-c2c3nc(c(-c4c(F)c(F)c(F)c(F)c4F)c4ccc([nH]4)c(-c4c(F)c(F)c(F)c(F)c4F)c4nc(c(-c5c(F)c(F)c(F)c(F)c5F)c5ccc2[nH]5)C=C4)C=C3)cc1)C(=O)NCc1ccnc(C)n1
REMARK SMILES IDX 9 1 8 2 6 3 7 4 5 6 4 7 3 8 2 9 1 10 78 11 79 12 80 13 81 15
REMARK SMILES IDX 82 16 83 17 88 18 84 19 86 20 85 21 87 22 10 23 11 24 12 25
REMARK SMILES IDX 13 26 14 28 15 29 16 30 77 31 17 32 76 33 18 34 19 35 20 36
REMARK SMILES IDX 70 37 21 38 75 39 69 40 71 41 22 42 74 43 68 44 67 45 23 47
REMARK SMILES IDX 55 48 35 49 54 50 36 51 39 52 53 53 72 54 37 55 38 56 52 58
REMARK SMILES IDX 73 59 40 60 24 61 25 62 33 63 26 64 27 65 31 66 34 67 28 68
REMARK SMILES IDX 29 69 32 70 30 71 56 72 57 73 65 74 58 75 59 76 63 77 66 78
REMARK SMILES IDX 60 79 61 80 64 81 62 82 41 83 42 84 50 85 43 86 44 87 48 88
REMARK SMILES IDX 51 89 45 90 46 91 49 92 47 93
REMARK H PARENT 8 5 80 14 12 27 71 46 39 57
REMARK Flexibility Score: inf
ROOT
ATOM      1  C   UNL A   1      32.466  26.567  26.306  1.00  0.00     0.117 C 
ENDROOT
BRANCH   1   2
ATOM      2  N   UNL A   1      31.452  25.639  26.761  1.00  0.00    -0.354 N 
ATOM      3  C   UNL A   1      31.265  24.318  26.481  1.00  0.00     0.239 C 
ATOM      4  O   UNL A   1      30.527  23.693  27.249  1.00  0.00    -0.273 OA
ATOM      5  H   UNL A   1      30.786  26.027  27.374  1.00  0.00     0.163 HD
BRANCH   3   6
ATOM      6  C   UNL A   1      32.026  23.578  25.369  1.00  0.00     0.222 C 
BRANCH   6   7
ATOM      7  N   UNL A   1      33.213  22.842  25.792  1.00  0.00    -0.304 N 
BRANCH   7   8
ATOM      8  C   UNL A   1      34.492  23.399  25.362  1.00  0.00     0.211 C 
BRANCH   8   9
ATOM      9  C   UNL A   1      35.519  22.344  24.986  1.00  0.00    -0.085 C 
ATOM     10  C   UNL A   1      36.400  21.439  24.664  1.00  0.00     0.006 C 
ENDBRANCH   8   9
ENDBRANCH   7   8
BRANCH   7  11
ATOM     11  C   UNL A   1      33.275  21.727  26.574  1.00  0.00     0.318 C 
ATOM     12  O   UNL A   1      33.650  21.792  27.751  1.00  0.00    -0.249 OA
ATOM     13  N   UNL A   1      32.981  20.489  26.164  1.00  0.00    -0.332 N 
ATOM     14  H   UNL A   1      33.052  19.853  26.913  1.00  0.00     0.165 HD
BRANCH  13  15
ATOM     15  C   UNL A   1      32.590  19.794  24.945  1.00  0.00     0.174 C 
BRANCH  15  16
ATOM     16  C   UNL A   1      33.117  18.374  24.891  1.00  0.00     0.063 A 
ATOM     17  C   UNL A   1      34.310  18.077  24.258  1.00  0.00     0.046 A 
ATOM     18  N   UNL A   1      32.354  17.411  25.456  1.00  0.00    -0.236 NA
ATOM     19  C   UNL A   1      34.674  16.752  24.222  1.00  0.00     0.115 A 
ATOM     20  C   UNL A   1      32.798  16.140  25.366  1.00  0.00     0.125 A 
ATOM     21  N   UNL A   1      33.943  15.769  24.767  1.00  0.00    -0.242 NA
ATOM     22  C   UNL A   1      31.960  15.070  25.991  1.00  0.00     0.089 C 
ENDBRANCH  15  16
ENDBRANCH  13  15
ENDBRANCH   7  11
ENDBRANCH   6   7
ENDBRANCH   3   6
ENDBRANCH   1   2
BRANCH   1  23
ATOM     23  C   UNL A   1      31.920  27.940  25.924  1.00  0.00     0.042 C 
BRANCH  23  24
ATOM     24  C   UNL A   1      32.982  28.979  25.573  1.00  0.00     0.118 C 
BRANCH  24  25
ATOM     25  N   UNL A   1      32.613  30.328  25.973  1.00  0.00    -0.352 N 
ATOM     26  C   UNL A   1      33.130  31.158  26.932  1.00  0.00     0.251 C 
ATOM     27  H   UNL A   1      31.861  30.711  25.465  1.00  0.00     0.163 HD
ATOM     28  O   UNL A   1      32.516  32.187  27.223  1.00  0.00    -0.269 OA
BRANCH  26  29
ATOM     29  C   UNL A   1      34.393  30.845  27.634  1.00  0.00     0.039 A 
ATOM     30  C   UNL A   1      35.393  31.824  27.683  1.00  0.00     0.014 A 
ATOM     31  C   UNL A   1      34.634  29.585  28.187  1.00  0.00     0.014 A 
ATOM     32  C   UNL A   1      36.599  31.563  28.338  1.00  0.00     0.010 A 
ATOM     33  C   UNL A   1      35.807  29.349  28.902  1.00  0.00     0.010 A 
ATOM     34  C   UNL A   1      36.803  30.335  28.985  1.00  0.00    -0.014 A 
BRANCH  34  35
ATOM     35  C   UNL A   1      38.041  30.066  29.761  1.00  0.00     0.031 A 
ATOM     36  C   UNL A   1      39.090  29.133  29.221  1.00  0.00     0.074 A 
ATOM     37  C   UNL A   1      38.186  30.603  30.988  1.00  0.00     0.049 A 
ATOM     38  N   UNL A   1      40.184  28.696  29.793  1.00  0.00    -0.248 NA
ATOM     39  C   UNL A   1      38.868  28.602  27.867  1.00  0.00     0.031 C 
ATOM     40  C   UNL A   1      37.223  31.491  31.639  1.00  0.00     0.029 A 
ATOM     41  N   UNL A   1      39.190  30.466  31.914  1.00  0.00    -0.354 N 
ATOM     42  C   UNL A   1      40.767  27.826  28.881  1.00  0.00     0.074 A 
ATOM     43  C   UNL A   1      39.886  27.763  27.735  1.00  0.00     0.031 C 
ATOM     44  C   UNL A   1      37.686  31.827  32.854  1.00  0.00     0.029 A 
ATOM     45  C   UNL A   1      38.957  31.147  33.084  1.00  0.00     0.049 A 
ATOM     46  H   UNL A   1      40.000  29.930  31.755  1.00  0.00     0.167 HD
ATOM     47  C   UNL A   1      41.939  27.154  28.984  1.00  0.00     0.037 A 
ATOM     48  C   UNL A   1      39.677  31.205  34.219  1.00  0.00     0.037 A 
ATOM     49  C   UNL A   1      42.827  27.240  30.114  1.00  0.00     0.049 A 
ATOM     50  C   UNL A   1      40.972  30.444  34.310  1.00  0.00     0.074 A 
ATOM     51  C   UNL A   1      44.068  26.649  30.284  1.00  0.00     0.029 A 
ATOM     52  N   UNL A   1      42.566  27.959  31.272  1.00  0.00    -0.354 N 
ATOM     53  N   UNL A   1      41.544  29.677  33.416  1.00  0.00    -0.248 NA
ATOM     54  C   UNL A   1      41.722  30.560  35.569  1.00  0.00     0.031 C 
ATOM     55  C   UNL A   1      44.536  26.973  31.561  1.00  0.00     0.029 A 
ATOM     56  C   UNL A   1      43.613  27.808  32.168  1.00  0.00     0.049 A 
ATOM     57  H   UNL A   1      41.757  28.497  31.432  1.00  0.00     0.167 HD
ATOM     58  C   UNL A   1      42.732  29.242  33.988  1.00  0.00     0.074 A 
ATOM     59  C   UNL A   1      42.805  29.843  35.304  1.00  0.00     0.031 C 
ATOM     60  C   UNL A   1      43.677  28.420  33.470  1.00  0.00     0.037 A 
BRANCH  47  61
ATOM     61  C   UNL A   1      42.335  26.263  27.841  1.00  0.00     0.064 A 
ATOM     62  C   UNL A   1      41.808  24.971  27.698  1.00  0.00     0.173 A 
ATOM     63  C   UNL A   1      43.217  26.725  26.852  1.00  0.00     0.173 A 
ATOM     64  F   UNL A   1      40.966  24.479  28.620  1.00  0.00    -0.203 F 
ATOM     65  C   UNL A   1      42.170  24.163  26.623  1.00  0.00     0.198 A 
ATOM     66  C   UNL A   1      43.554  25.926  25.762  1.00  0.00     0.198 A 
ATOM     67  F   UNL A   1      43.744  27.956  26.935  1.00  0.00    -0.203 F 
ATOM     68  F   UNL A   1      41.689  22.916  26.532  1.00  0.00    -0.200 F 
ATOM     69  C   UNL A   1      43.036  24.644  25.652  1.00  0.00     0.200 A 
ATOM     70  F   UNL A   1      44.381  26.396  24.818  1.00  0.00    -0.200 F 
ATOM     71  F   UNL A   1      43.377  23.869  24.614  1.00  0.00    -0.200 F 
ENDBRANCH  47  61
BRANCH  48  72
ATOM     72  C   UNL A   1      39.197  32.027  35.360  1.00  0.00     0.064 A 
ATOM     73  C   UNL A   1      38.435  31.454  36.389  1.00  0.00     0.173 A 
ATOM     74  C   UNL A   1      39.484  33.397  35.447  1.00  0.00     0.173 A 
ATOM     75  F   UNL A   1      38.116  30.153  36.340  1.00  0.00    -0.203 F 
ATOM     76  C   UNL A   1      37.963  32.224  37.449  1.00  0.00     0.198 A 
ATOM     77  C   UNL A   1      39.036  34.160  36.523  1.00  0.00     0.198 A 
ATOM     78  F   UNL A   1      40.213  33.992  34.491  1.00  0.00    -0.203 F 
ATOM     79  F   UNL A   1      37.199  31.661  38.395  1.00  0.00    -0.200 F 
ATOM     80  C   UNL A   1      38.269  33.576  37.519  1.00  0.00     0.200 A 
ATOM     81  F   UNL A   1      39.345  35.462  36.594  1.00  0.00    -0.200 F 
ATOM     82  F   UNL A   1      37.817  34.315  38.541  1.00  0.00    -0.200 F 
ENDBRANCH  48  72
BRANCH  60  83
ATOM     83  C   UNL A   1      44.890  28.149  34.310  1.00  0.00     0.064 A 
ATOM     84  C   UNL A   1      44.942  27.069  35.203  1.00  0.00     0.173 A 
ATOM     85  C   UNL A   1      46.031  28.956  34.187  1.00  0.00     0.173 A 
ATOM     86  F   UNL A   1      43.871  26.278  35.368  1.00  0.00    -0.203 F 
ATOM     87  C   UNL A   1      46.085  26.819  35.957  1.00  0.00     0.198 A 
ATOM     88  C   UNL A   1      47.182  28.687  34.921  1.00  0.00     0.198 A 
ATOM     89  F   UNL A   1      46.034  29.999  33.344  1.00  0.00    -0.203 F 
ATOM     90  F   UNL A   1      46.098  25.808  36.837  1.00  0.00    -0.200 F 
ATOM     91  C   UNL A   1      47.206  27.623  35.811  1.00  0.00     0.200 A 
ATOM     92  F   UNL A   1      48.269  29.457  34.768  1.00  0.00    -0.200 F 
ATOM     93  F   UNL A   1      48.310  27.376  36.532  1.00  0.00    -0.200 F 
ENDBRANCH  60  83
ENDBRANCH  34  35
ENDBRANCH  26  29
ENDBRANCH  24  25
ENDBRANCH  23  24
ENDBRANCH   1  23
TORSDOF 16
ENDMDL
