MODEL 1
REMARK VINA RESULT:     -12.7      0.000      0.000
REMARK SMILES O=C(NCCCNC(=O)[C@@H]1CCC(=O)N1C(=O)/C=C/c1ccccc1)c1ccc(-c2c3nc(c(-c4c(F)c(F)c(F)c(F)c4F)c4ccc([nH]4)c(-c4c(F)c(F)c(F)c(F)c4F)c4nc(c(-c5c(F)c(F)c(F)c(F)c5F)c5ccc2[nH]5)C=C4)C=C3)cc1
REMARK SMILES IDX 5 1 4 2 3 3 1 4 2 5 26 7 27 8 88 9 28 10 87 11 29 12 30 13
REMARK SMILES IDX 31 14 81 15 32 16 86 17 80 18 82 19 33 20 85 21 79 22 78 23
REMARK SMILES IDX 34 25 66 26 46 27 65 28 47 29 50 30 64 31 83 32 48 33 49 34
REMARK SMILES IDX 63 36 84 37 51 38 35 39 36 40 44 41 37 42 38 43 42 44 45 45
REMARK SMILES IDX 39 46 40 47 43 48 41 49 67 50 68 51 76 52 69 53 70 54 74 55
REMARK SMILES IDX 77 56 71 57 72 58 75 59 73 60 52 61 53 62 61 63 54 64 55 65
REMARK SMILES IDX 59 66 62 67 56 68 57 69 60 70 58 71 6 72 7 73 8 74 9 76
REMARK SMILES IDX 10 77 11 78 15 79 12 80 13 81 14 82 16 83 17 84 18 85 19 86
REMARK SMILES IDX 20 87 21 88 25 89 22 90 24 91 23 92
REMARK H PARENT 3 6 82 24 50 35 7 75
REMARK Flexibility Score: inf
ROOT
ATOM      1  C   UNL A   1      32.161  28.164  26.043  1.00  0.00     0.042 C 
ENDROOT
BRANCH   1   2
ATOM      2  C   UNL A   1      33.131  29.249  25.592  1.00  0.00     0.118 C 
BRANCH   2   3
ATOM      3  N   UNL A   1      32.742  30.588  26.020  1.00  0.00    -0.352 N 
ATOM      4  O   UNL A   1      32.649  32.449  27.277  1.00  0.00    -0.269 OA
ATOM      5  C   UNL A   1      33.250  31.415  26.993  1.00  0.00     0.251 C 
ATOM      6  H   UNL A   1      31.982  30.968  25.522  1.00  0.00     0.163 HD
BRANCH   5   7
ATOM      7  C   UNL A   1      34.491  31.072  27.723  1.00  0.00     0.039 A 
ATOM      8  C   UNL A   1      34.745  29.768  28.145  1.00  0.00     0.014 A 
ATOM      9  C   UNL A   1      35.450  32.068  27.946  1.00  0.00     0.014 A 
ATOM     10  C   UNL A   1      35.853  29.497  28.941  1.00  0.00     0.010 A 
ATOM     11  C   UNL A   1      36.623  31.769  28.649  1.00  0.00     0.010 A 
ATOM     12  C   UNL A   1      36.818  30.487  29.184  1.00  0.00    -0.014 A 
BRANCH  12  13
ATOM     13  C   UNL A   1      38.047  30.126  29.936  1.00  0.00     0.031 A 
ATOM     14  C   UNL A   1      38.272  30.602  31.343  1.00  0.00     0.074 A 
ATOM     15  C   UNL A   1      38.952  29.325  29.341  1.00  0.00     0.049 A 
ATOM     16  N   UNL A   1      39.279  30.357  32.145  1.00  0.00    -0.248 NA
ATOM     17  C   UNL A   1      37.242  31.473  31.927  1.00  0.00     0.031 C 
ATOM     18  C   UNL A   1      38.851  28.815  27.971  1.00  0.00     0.029 A 
ATOM     19  N   UNL A   1      40.120  28.779  29.810  1.00  0.00    -0.354 N 
ATOM     20  C   UNL A   1      39.016  31.058  33.315  1.00  0.00     0.074 A 
ATOM     21  C   UNL A   1      37.766  31.760  33.111  1.00  0.00     0.031 C 
ATOM     22  C   UNL A   1      39.880  27.992  27.729  1.00  0.00     0.029 A 
ATOM     23  C   UNL A   1      40.751  27.969  28.898  1.00  0.00     0.049 A 
ATOM     24  H   UNL A   1      40.473  28.951  30.713  1.00  0.00     0.167 HD
ATOM     25  C   UNL A   1      39.749  31.103  34.454  1.00  0.00     0.037 A 
ATOM     26  C   UNL A   1      41.913  27.296  28.981  1.00  0.00     0.037 A 
ATOM     27  C   UNL A   1      40.982  30.384  34.655  1.00  0.00     0.049 A 
ATOM     28  C   UNL A   1      42.707  27.373  30.252  1.00  0.00     0.074 A 
ATOM     29  C   UNL A   1      41.775  30.331  35.789  1.00  0.00     0.029 A 
ATOM     30  N   UNL A   1      41.603  29.595  33.698  1.00  0.00    -0.354 N 
ATOM     31  N   UNL A   1      42.429  28.012  31.361  1.00  0.00    -0.248 NA
ATOM     32  C   UNL A   1      43.980  26.641  30.280  1.00  0.00     0.031 C 
ATOM     33  C   UNL A   1      42.899  29.549  35.502  1.00  0.00     0.029 A 
ATOM     34  C   UNL A   1      42.782  29.072  34.206  1.00  0.00     0.049 A 
ATOM     35  H   UNL A   1      41.257  29.430  32.791  1.00  0.00     0.167 HD
ATOM     36  C   UNL A   1      43.483  27.753  32.223  1.00  0.00     0.074 A 
ATOM     37  C   UNL A   1      44.395  26.877  31.516  1.00  0.00     0.031 C 
ATOM     38  C   UNL A   1      43.680  28.206  33.485  1.00  0.00     0.037 A 
BRANCH  25  39
ATOM     39  C   UNL A   1      39.252  31.977  35.571  1.00  0.00     0.064 A 
ATOM     40  C   UNL A   1      38.420  31.481  36.585  1.00  0.00     0.173 A 
ATOM     41  C   UNL A   1      39.653  33.320  35.652  1.00  0.00     0.173 A 
ATOM     42  F   UNL A   1      38.000  30.207  36.551  1.00  0.00    -0.203 F 
ATOM     43  C   UNL A   1      37.989  32.302  37.626  1.00  0.00     0.198 A 
ATOM     44  C   UNL A   1      39.243  34.130  36.707  1.00  0.00     0.198 A 
ATOM     45  F   UNL A   1      40.455  33.845  34.712  1.00  0.00    -0.203 F 
ATOM     46  F   UNL A   1      37.162  31.817  38.561  1.00  0.00    -0.200 F 
ATOM     47  C   UNL A   1      38.406  33.623  37.689  1.00  0.00     0.200 A 
ATOM     48  F   UNL A   1      39.657  35.404  36.775  1.00  0.00    -0.200 F 
ATOM     49  F   UNL A   1      37.997  34.408  38.695  1.00  0.00    -0.200 F 
ENDBRANCH  25  39
BRANCH  26  50
ATOM     50  C   UNL A   1      42.387  26.504  27.817  1.00  0.00     0.064 A 
ATOM     51  C   UNL A   1      41.929  25.200  27.593  1.00  0.00     0.173 A 
ATOM     52  C   UNL A   1      43.289  27.049  26.890  1.00  0.00     0.173 A 
ATOM     53  F   UNL A   1      41.081  24.629  28.461  1.00  0.00    -0.203 F 
ATOM     54  C   UNL A   1      42.364  24.465  26.491  1.00  0.00     0.198 A 
ATOM     55  C   UNL A   1      43.697  26.327  25.772  1.00  0.00     0.198 A 
ATOM     56  F   UNL A   1      43.751  28.297  27.056  1.00  0.00    -0.203 F 
ATOM     57  F   UNL A   1      41.938  23.206  26.318  1.00  0.00    -0.200 F 
ATOM     58  C   UNL A   1      43.239  25.032  25.577  1.00  0.00     0.200 A 
ATOM     59  F   UNL A   1      44.528  26.885  24.882  1.00  0.00    -0.200 F 
ATOM     60  F   UNL A   1      43.645  24.331  24.511  1.00  0.00    -0.200 F 
ENDBRANCH  26  50
BRANCH  38  61
ATOM     61  C   UNL A   1      44.924  27.743  34.187  1.00  0.00     0.064 A 
ATOM     62  C   UNL A   1      46.117  28.478  34.123  1.00  0.00     0.173 A 
ATOM     63  C   UNL A   1      44.915  26.565  34.947  1.00  0.00     0.173 A 
ATOM     64  F   UNL A   1      46.180  29.601  33.392  1.00  0.00    -0.203 F 
ATOM     65  C   UNL A   1      47.265  28.035  34.776  1.00  0.00     0.198 A 
ATOM     66  C   UNL A   1      46.056  26.140  35.622  1.00  0.00     0.198 A 
ATOM     67  F   UNL A   1      43.798  25.830  35.042  1.00  0.00    -0.203 F 
ATOM     68  F   UNL A   1      48.407  28.725  34.660  1.00  0.00    -0.200 F 
ATOM     69  C   UNL A   1      47.232  26.871  35.529  1.00  0.00     0.200 A 
ATOM     70  F   UNL A   1      46.019  25.022  36.358  1.00  0.00    -0.200 F 
ATOM     71  F   UNL A   1      48.335  26.448  36.159  1.00  0.00    -0.200 F 
ENDBRANCH  38  61
ENDBRANCH  12  13
ENDBRANCH   5   7
ENDBRANCH   2   3
ENDBRANCH   1   2
BRANCH   1  72
ATOM     72  C   UNL A   1      32.827  26.899  26.560  1.00  0.00     0.117 C 
BRANCH  72  73
ATOM     73  N   UNL A   1      31.885  25.869  26.959  1.00  0.00    -0.354 N 
ATOM     74  C   UNL A   1      31.704  24.577  26.571  1.00  0.00     0.243 C 
ATOM     75  H   UNL A   1      31.249  26.164  27.651  1.00  0.00     0.163 HD
ATOM     76  O   UNL A   1      31.038  23.874  27.339  1.00  0.00    -0.273 OA
BRANCH  74  77
ATOM     77  C   UNL A   1      32.333  23.957  25.306  1.00  0.00     0.183 C 
ATOM     78  C   UNL A   1      33.839  23.770  25.422  1.00  0.00     0.046 C 
ATOM     79  N   UNL A   1      32.105  24.772  24.128  1.00  0.00    -0.266 N 
ATOM     80  C   UNL A   1      34.433  24.468  24.210  1.00  0.00     0.103 C 
ATOM     81  C   UNL A   1      33.304  25.275  23.621  1.00  0.00     0.230 C 
ATOM     82  O   UNL A   1      33.468  26.208  22.859  1.00  0.00    -0.274 OA
BRANCH  79  83
ATOM     83  C   UNL A   1      30.824  24.808  23.592  1.00  0.00     0.253 C 
ATOM     84  O   UNL A   1      30.324  23.835  23.024  1.00  0.00    -0.269 OA
BRANCH  83  85
ATOM     85  C   UNL A   1      29.978  26.021  23.705  1.00  0.00     0.072 C 
ATOM     86  C   UNL A   1      30.264  27.225  23.185  1.00  0.00     0.014 C 
BRANCH  86  87
ATOM     87  C   UNL A   1      29.378  28.409  23.223  1.00  0.00    -0.025 A 
ATOM     88  C   UNL A   1      29.951  29.667  23.466  1.00  0.00     0.008 A 
ATOM     89  C   UNL A   1      27.988  28.344  23.043  1.00  0.00     0.008 A 
ATOM     90  C   UNL A   1      29.162  30.821  23.524  1.00  0.00     0.001 A 
ATOM     91  C   UNL A   1      27.199  29.497  23.101  1.00  0.00     0.001 A 
ATOM     92  C   UNL A   1      27.786  30.736  23.341  1.00  0.00     0.000 A 
ENDBRANCH  86  87
ENDBRANCH  83  85
ENDBRANCH  79  83
ENDBRANCH  74  77
ENDBRANCH  72  73
ENDBRANCH   1  72
TORSDOF 13
ENDMDL
MODEL 2
REMARK VINA RESULT:     -12.6      0.060      1.134
REMARK SMILES O=C(NCCCNC(=O)[C@@H]1CCC(=O)N1C(=O)/C=C/c1ccccc1)c1ccc(-c2c3nc(c(-c4c(F)c(F)c(F)c(F)c4F)c4ccc([nH]4)c(-c4c(F)c(F)c(F)c(F)c4F)c4nc(c(-c5c(F)c(F)c(F)c(F)c5F)c5ccc2[nH]5)C=C4)C=C3)cc1
REMARK SMILES IDX 5 1 4 2 3 3 1 4 2 5 26 7 27 8 88 9 28 10 87 11 29 12 30 13
REMARK SMILES IDX 31 14 81 15 32 16 86 17 80 18 82 19 33 20 85 21 79 22 78 23
REMARK SMILES IDX 34 25 66 26 46 27 65 28 47 29 50 30 64 31 83 32 48 33 49 34
REMARK SMILES IDX 63 36 84 37 51 38 35 39 36 40 44 41 37 42 38 43 42 44 45 45
REMARK SMILES IDX 39 46 40 47 43 48 41 49 67 50 68 51 76 52 69 53 70 54 74 55
REMARK SMILES IDX 77 56 71 57 72 58 75 59 73 60 52 61 53 62 61 63 54 64 55 65
REMARK SMILES IDX 59 66 62 67 56 68 57 69 60 70 58 71 6 72 7 73 8 74 9 76
REMARK SMILES IDX 10 77 11 78 15 79 12 80 13 81 14 82 16 83 17 84 18 85 19 86
REMARK SMILES IDX 20 87 21 88 25 89 22 90 24 91 23 92
REMARK H PARENT 3 6 82 24 50 35 7 75
REMARK Flexibility Score: inf
ROOT
ATOM      1  C   UNL A   1      32.140  28.184  26.061  1.00  0.00     0.042 C 
ENDROOT
BRANCH   1   2
ATOM      2  C   UNL A   1      33.101  29.268  25.590  1.00  0.00     0.118 C 
BRANCH   2   3
ATOM      3  N   UNL A   1      32.718  30.609  26.015  1.00  0.00    -0.352 N 
ATOM      4  O   UNL A   1      32.633  32.473  27.269  1.00  0.00    -0.269 OA
ATOM      5  C   UNL A   1      33.231  31.437  26.986  1.00  0.00     0.251 C 
ATOM      6  H   UNL A   1      31.957  30.989  25.519  1.00  0.00     0.163 HD
BRANCH   5   7
ATOM      7  C   UNL A   1      34.472  31.092  27.712  1.00  0.00     0.039 A 
ATOM      8  C   UNL A   1      34.714  29.794  28.158  1.00  0.00     0.014 A 
ATOM      9  C   UNL A   1      35.445  32.079  27.908  1.00  0.00     0.014 A 
ATOM     10  C   UNL A   1      35.824  29.524  28.950  1.00  0.00     0.010 A 
ATOM     11  C   UNL A   1      36.621  31.779  28.608  1.00  0.00     0.010 A 
ATOM     12  C   UNL A   1      36.803  30.506  29.167  1.00  0.00    -0.014 A 
BRANCH  12  13
ATOM     13  C   UNL A   1      38.034  30.144  29.916  1.00  0.00     0.031 A 
ATOM     14  C   UNL A   1      38.258  30.612  31.325  1.00  0.00     0.074 A 
ATOM     15  C   UNL A   1      38.941  29.348  29.316  1.00  0.00     0.049 A 
ATOM     16  N   UNL A   1      39.266  30.366  32.126  1.00  0.00    -0.248 NA
ATOM     17  C   UNL A   1      37.227  31.479  31.914  1.00  0.00     0.031 C 
ATOM     18  C   UNL A   1      38.840  28.845  27.944  1.00  0.00     0.029 A 
ATOM     19  N   UNL A   1      40.110  28.802  29.782  1.00  0.00    -0.354 N 
ATOM     20  C   UNL A   1      39.002  31.060  33.299  1.00  0.00     0.074 A 
ATOM     21  C   UNL A   1      37.750  31.760  33.100  1.00  0.00     0.031 C 
ATOM     22  C   UNL A   1      39.871  28.026  27.697  1.00  0.00     0.029 A 
ATOM     23  C   UNL A   1      40.742  27.998  28.865  1.00  0.00     0.049 A 
ATOM     24  H   UNL A   1      40.462  28.970  30.686  1.00  0.00     0.167 HD
ATOM     25  C   UNL A   1      39.735  31.101  34.438  1.00  0.00     0.037 A 
ATOM     26  C   UNL A   1      41.906  27.327  28.944  1.00  0.00     0.037 A 
ATOM     27  C   UNL A   1      40.970  30.384  34.635  1.00  0.00     0.049 A 
ATOM     28  C   UNL A   1      42.700  27.400  30.215  1.00  0.00     0.074 A 
ATOM     29  C   UNL A   1      41.765  30.327  35.768  1.00  0.00     0.029 A 
ATOM     30  N   UNL A   1      41.593  29.601  33.673  1.00  0.00    -0.354 N 
ATOM     31  N   UNL A   1      42.421  28.032  31.328  1.00  0.00    -0.248 NA
ATOM     32  C   UNL A   1      43.975  26.671  30.239  1.00  0.00     0.031 C 
ATOM     33  C   UNL A   1      42.890  29.548  35.476  1.00  0.00     0.029 A 
ATOM     34  C   UNL A   1      42.774  29.078  34.178  1.00  0.00     0.049 A 
ATOM     35  H   UNL A   1      41.247  29.440  32.766  1.00  0.00     0.167 HD
ATOM     36  C   UNL A   1      43.477  27.772  32.188  1.00  0.00     0.074 A 
ATOM     37  C   UNL A   1      44.390  26.901  31.476  1.00  0.00     0.031 C 
ATOM     38  C   UNL A   1      43.673  28.218  33.453  1.00  0.00     0.037 A 
BRANCH  25  39
ATOM     39  C   UNL A   1      39.237  31.968  35.560  1.00  0.00     0.064 A 
ATOM     40  C   UNL A   1      38.397  31.467  36.566  1.00  0.00     0.173 A 
ATOM     41  C   UNL A   1      39.644  33.308  35.654  1.00  0.00     0.173 A 
ATOM     42  F   UNL A   1      37.971  30.196  36.519  1.00  0.00    -0.203 F 
ATOM     43  C   UNL A   1      37.965  32.282  37.611  1.00  0.00     0.198 A 
ATOM     44  C   UNL A   1      39.233  34.111  36.714  1.00  0.00     0.198 A 
ATOM     45  F   UNL A   1      40.454  33.837  34.723  1.00  0.00    -0.203 F 
ATOM     46  F   UNL A   1      37.131  31.793  38.538  1.00  0.00    -0.200 F 
ATOM     47  C   UNL A   1      38.388  33.600  37.688  1.00  0.00     0.200 A 
ATOM     48  F   UNL A   1      39.653  35.382  36.795  1.00  0.00    -0.200 F 
ATOM     49  F   UNL A   1      37.978  34.379  38.698  1.00  0.00    -0.200 F 
ENDBRANCH  25  39
BRANCH  26  50
ATOM     50  C   UNL A   1      42.381  26.543  27.776  1.00  0.00     0.064 A 
ATOM     51  C   UNL A   1      41.926  25.239  27.546  1.00  0.00     0.173 A 
ATOM     52  C   UNL A   1      43.281  27.095  26.852  1.00  0.00     0.173 A 
ATOM     53  F   UNL A   1      41.079  24.661  28.411  1.00  0.00    -0.203 F 
ATOM     54  C   UNL A   1      42.361  24.511  26.440  1.00  0.00     0.198 A 
ATOM     55  C   UNL A   1      43.690  26.379  25.729  1.00  0.00     0.198 A 
ATOM     56  F   UNL A   1      43.741  28.343  27.024  1.00  0.00    -0.203 F 
ATOM     57  F   UNL A   1      41.939  23.252  26.260  1.00  0.00    -0.200 F 
ATOM     58  C   UNL A   1      43.236  25.085  25.528  1.00  0.00     0.200 A 
ATOM     59  F   UNL A   1      44.520  26.944  24.842  1.00  0.00    -0.200 F 
ATOM     60  F   UNL A   1      43.642  24.390  24.458  1.00  0.00    -0.200 F 
ENDBRANCH  26  50
BRANCH  38  61
ATOM     61  C   UNL A   1      44.919  27.755  34.151  1.00  0.00     0.064 A 
ATOM     62  C   UNL A   1      44.945  26.562  34.887  1.00  0.00     0.173 A 
ATOM     63  C   UNL A   1      46.102  28.502  34.064  1.00  0.00     0.173 A 
ATOM     64  F   UNL A   1      43.832  25.823  35.015  1.00  0.00    -0.203 F 
ATOM     65  C   UNL A   1      46.106  26.146  35.533  1.00  0.00     0.198 A 
ATOM     66  C   UNL A   1      47.269  28.069  34.687  1.00  0.00     0.198 A 
ATOM     67  F   UNL A   1      46.129  29.648  33.369  1.00  0.00    -0.203 F 
ATOM     68  F   UNL A   1      46.096  25.029  36.272  1.00  0.00    -0.200 F 
ATOM     69  C   UNL A   1      47.268  26.896  35.428  1.00  0.00     0.200 A 
ATOM     70  F   UNL A   1      48.393  28.789  34.575  1.00  0.00    -0.200 F 
ATOM     71  F   UNL A   1      48.385  26.493  36.047  1.00  0.00    -0.200 F 
ENDBRANCH  38  61
ENDBRANCH  12  13
ENDBRANCH   5   7
ENDBRANCH   2   3
ENDBRANCH   1   2
BRANCH   1  72
ATOM     72  C   UNL A   1      32.814  26.902  26.522  1.00  0.00     0.117 C 
BRANCH  72  73
ATOM     73  N   UNL A   1      31.877  25.868  26.928  1.00  0.00    -0.354 N 
ATOM     74  C   UNL A   1      31.713  24.570  26.555  1.00  0.00     0.243 C 
ATOM     75  H   UNL A   1      31.233  26.167  27.610  1.00  0.00     0.163 HD
ATOM     76  O   UNL A   1      31.046  23.871  27.327  1.00  0.00    -0.273 OA
BRANCH  74  77
ATOM     77  C   UNL A   1      32.358  23.939  25.303  1.00  0.00     0.183 C 
ATOM     78  C   UNL A   1      33.867  23.788  25.426  1.00  0.00     0.046 C 
ATOM     79  N   UNL A   1      32.113  24.725  24.109  1.00  0.00    -0.266 N 
ATOM     80  C   UNL A   1      34.448  24.475  24.201  1.00  0.00     0.103 C 
ATOM     81  C   UNL A   1      33.302  25.244  23.594  1.00  0.00     0.230 C 
ATOM     82  O   UNL A   1      33.446  26.166  22.814  1.00  0.00    -0.274 OA
BRANCH  79  83
ATOM     83  C   UNL A   1      30.833  24.721  23.571  1.00  0.00     0.253 C 
ATOM     84  O   UNL A   1      30.355  23.725  23.026  1.00  0.00    -0.269 OA
BRANCH  83  85
ATOM     85  C   UNL A   1      29.962  25.919  23.653  1.00  0.00     0.072 C 
ATOM     86  C   UNL A   1      30.294  27.156  23.251  1.00  0.00     0.014 C 
BRANCH  86  87
ATOM     87  C   UNL A   1      29.392  28.329  23.252  1.00  0.00    -0.025 A 
ATOM     88  C   UNL A   1      29.952  29.603  23.436  1.00  0.00     0.008 A 
ATOM     89  C   UNL A   1      28.001  28.239  23.092  1.00  0.00     0.008 A 
ATOM     90  C   UNL A   1      29.149  30.749  23.457  1.00  0.00     0.001 A 
ATOM     91  C   UNL A   1      27.198  29.384  23.114  1.00  0.00     0.001 A 
ATOM     92  C   UNL A   1      27.771  30.639  23.296  1.00  0.00     0.000 A 
ENDBRANCH  86  87
ENDBRANCH  83  85
ENDBRANCH  79  83
ENDBRANCH  74  77
ENDBRANCH  72  73
ENDBRANCH   1  72
TORSDOF 13
ENDMDL
MODEL 3
REMARK VINA RESULT:     -12.5      1.686      3.627
REMARK SMILES O=C(NCCCNC(=O)[C@@H]1CCC(=O)N1C(=O)/C=C/c1ccccc1)c1ccc(-c2c3nc(c(-c4c(F)c(F)c(F)c(F)c4F)c4ccc([nH]4)c(-c4c(F)c(F)c(F)c(F)c4F)c4nc(c(-c5c(F)c(F)c(F)c(F)c5F)c5ccc2[nH]5)C=C4)C=C3)cc1
REMARK SMILES IDX 5 1 4 2 3 3 1 4 2 5 26 7 27 8 88 9 28 10 87 11 29 12 30 13
REMARK SMILES IDX 31 14 81 15 32 16 86 17 80 18 82 19 33 20 85 21 79 22 78 23
REMARK SMILES IDX 34 25 66 26 46 27 65 28 47 29 50 30 64 31 83 32 48 33 49 34
REMARK SMILES IDX 63 36 84 37 51 38 35 39 36 40 44 41 37 42 38 43 42 44 45 45
REMARK SMILES IDX 39 46 40 47 43 48 41 49 67 50 68 51 76 52 69 53 70 54 74 55
REMARK SMILES IDX 77 56 71 57 72 58 75 59 73 60 52 61 53 62 61 63 54 64 55 65
REMARK SMILES IDX 59 66 62 67 56 68 57 69 60 70 58 71 6 72 7 73 8 74 9 76
REMARK SMILES IDX 10 77 11 78 15 79 12 80 13 81 14 82 16 83 17 84 18 85 19 86
REMARK SMILES IDX 20 87 21 88 25 89 22 90 24 91 23 92
REMARK H PARENT 3 6 82 24 50 35 7 75
REMARK Flexibility Score: inf
ROOT
ATOM      1  C   UNL A   1      31.659  28.119  26.622  1.00  0.00     0.042 C 
ENDROOT
BRANCH   1   2
ATOM      2  C   UNL A   1      32.714  29.027  26.002  1.00  0.00     0.118 C 
BRANCH   2   3
ATOM      3  N   UNL A   1      32.451  30.447  26.210  1.00  0.00    -0.352 N 
ATOM      4  O   UNL A   1      32.568  32.493  27.133  1.00  0.00    -0.269 OA
ATOM      5  C   UNL A   1      33.073  31.380  27.005  1.00  0.00     0.251 C 
ATOM      6  H   UNL A   1      31.694  30.799  25.687  1.00  0.00     0.163 HD
BRANCH   5   7
ATOM      7  C   UNL A   1      34.324  31.062  27.729  1.00  0.00     0.039 A 
ATOM      8  C   UNL A   1      34.712  29.743  27.958  1.00  0.00     0.014 A 
ATOM      9  C   UNL A   1      35.157  32.107  28.144  1.00  0.00     0.014 A 
ATOM     10  C   UNL A   1      35.821  29.471  28.752  1.00  0.00     0.010 A 
ATOM     11  C   UNL A   1      36.337  31.830  28.846  1.00  0.00     0.010 A 
ATOM     12  C   UNL A   1      36.660  30.508  29.188  1.00  0.00    -0.014 A 
BRANCH  12  13
ATOM     13  C   UNL A   1      37.900  30.168  29.931  1.00  0.00     0.031 A 
ATOM     14  C   UNL A   1      38.120  30.633  31.342  1.00  0.00     0.074 A 
ATOM     15  C   UNL A   1      38.822  29.395  29.322  1.00  0.00     0.049 A 
ATOM     16  N   UNL A   1      39.136  30.403  32.137  1.00  0.00    -0.248 NA
ATOM     17  C   UNL A   1      37.072  31.473  31.940  1.00  0.00     0.031 C 
ATOM     18  C   UNL A   1      38.727  28.899  27.947  1.00  0.00     0.029 A 
ATOM     19  N   UNL A   1      40.004  28.872  29.781  1.00  0.00    -0.354 N 
ATOM     20  C   UNL A   1      38.861  31.084  33.316  1.00  0.00     0.074 A 
ATOM     21  C   UNL A   1      37.594  31.758  33.125  1.00  0.00     0.031 C 
ATOM     22  C   UNL A   1      39.774  28.104  27.692  1.00  0.00     0.029 A 
ATOM     23  C   UNL A   1      40.650  28.088  28.857  1.00  0.00     0.049 A 
ATOM     24  H   UNL A   1      40.356  29.042  30.684  1.00  0.00     0.167 HD
ATOM     25  C   UNL A   1      39.598  31.134  34.452  1.00  0.00     0.037 A 
ATOM     26  C   UNL A   1      41.828  27.441  28.928  1.00  0.00     0.037 A 
ATOM     27  C   UNL A   1      40.848  30.442  34.641  1.00  0.00     0.049 A 
ATOM     28  C   UNL A   1      42.626  27.523  30.196  1.00  0.00     0.074 A 
ATOM     29  C   UNL A   1      41.648  30.395  35.770  1.00  0.00     0.029 A 
ATOM     30  N   UNL A   1      41.484  29.679  33.672  1.00  0.00    -0.354 N 
ATOM     31  N   UNL A   1      42.337  28.142  31.314  1.00  0.00    -0.248 NA
ATOM     32  C   UNL A   1      43.916  26.821  30.211  1.00  0.00     0.031 C 
ATOM     33  C   UNL A   1      42.788  29.643  35.470  1.00  0.00     0.029 A 
ATOM     34  C   UNL A   1      42.677  29.179  34.170  1.00  0.00     0.049 A 
ATOM     35  H   UNL A   1      41.138  29.516  32.764  1.00  0.00     0.167 HD
ATOM     36  C   UNL A   1      43.401  27.899  32.169  1.00  0.00     0.074 A 
ATOM     37  C   UNL A   1      44.330  27.053  31.448  1.00  0.00     0.031 C 
ATOM     38  C   UNL A   1      43.593  28.342  33.435  1.00  0.00     0.037 A 
BRANCH  25  39
ATOM     39  C   UNL A   1      39.085  31.984  35.581  1.00  0.00     0.064 A 
ATOM     40  C   UNL A   1      38.270  31.456  36.594  1.00  0.00     0.173 A 
ATOM     41  C   UNL A   1      39.453  33.334  35.675  1.00  0.00     0.173 A 
ATOM     42  F   UNL A   1      37.882  30.173  36.548  1.00  0.00    -0.203 F 
ATOM     43  C   UNL A   1      37.825  32.254  37.645  1.00  0.00     0.198 A 
ATOM     44  C   UNL A   1      39.029  34.123  36.741  1.00  0.00     0.198 A 
ATOM     45  F   UNL A   1      40.237  33.889  34.737  1.00  0.00    -0.203 F 
ATOM     46  F   UNL A   1      37.014  31.739  38.579  1.00  0.00    -0.200 F 
ATOM     47  C   UNL A   1      38.209  33.584  37.721  1.00  0.00     0.200 A 
ATOM     48  F   UNL A   1      39.412  35.405  36.820  1.00  0.00    -0.200 F 
ATOM     49  F   UNL A   1      37.787  34.349  38.738  1.00  0.00    -0.200 F 
ENDBRANCH  25  39
BRANCH  26  50
ATOM     50  C   UNL A   1      42.316  26.674  27.753  1.00  0.00     0.064 A 
ATOM     51  C   UNL A   1      43.138  27.271  26.789  1.00  0.00     0.173 A 
ATOM     52  C   UNL A   1      41.990  25.319  27.587  1.00  0.00     0.173 A 
ATOM     53  F   UNL A   1      43.462  28.568  26.894  1.00  0.00    -0.203 F 
ATOM     54  C   UNL A   1      43.608  26.544  25.697  1.00  0.00     0.198 A 
ATOM     55  C   UNL A   1      42.487  24.585  26.513  1.00  0.00     0.198 A 
ATOM     56  F   UNL A   1      41.212  24.700  28.487  1.00  0.00    -0.203 F 
ATOM     57  F   UNL A   1      44.364  27.147  24.768  1.00  0.00    -0.200 F 
ATOM     58  C   UNL A   1      43.289  25.200  25.564  1.00  0.00     0.200 A 
ATOM     59  F   UNL A   1      42.192  23.284  26.400  1.00  0.00    -0.200 F 
ATOM     60  F   UNL A   1      43.753  24.500  24.522  1.00  0.00    -0.200 F 
ENDBRANCH  26  50
BRANCH  38  61
ATOM     61  C   UNL A   1      44.850  27.901  34.126  1.00  0.00     0.064 A 
ATOM     62  C   UNL A   1      46.024  28.667  34.071  1.00  0.00     0.173 A 
ATOM     63  C   UNL A   1      44.874  26.711  34.868  1.00  0.00     0.173 A 
ATOM     64  F   UNL A   1      46.055  29.803  33.357  1.00  0.00    -0.203 F 
ATOM     65  C   UNL A   1      47.184  28.244  34.714  1.00  0.00     0.198 A 
ATOM     66  C   UNL A   1      46.027  26.306  35.534  1.00  0.00     0.198 A 
ATOM     67  F   UNL A   1      43.776  25.946  34.955  1.00  0.00    -0.203 F 
ATOM     68  F   UNL A   1      48.308  28.966  34.606  1.00  0.00    -0.200 F 
ATOM     69  C   UNL A   1      47.183  27.068  35.449  1.00  0.00     0.200 A 
ATOM     70  F   UNL A   1      46.022  25.176  36.252  1.00  0.00    -0.200 F 
ATOM     71  F   UNL A   1      48.299  26.665  36.070  1.00  0.00    -0.200 F 
ENDBRANCH  38  61
ENDBRANCH  12  13
ENDBRANCH   5   7
ENDBRANCH   2   3
ENDBRANCH   1   2
BRANCH   1  72
ATOM     72  C   UNL A   1      31.116  27.054  25.683  1.00  0.00     0.117 C 
BRANCH  72  73
ATOM     73  N   UNL A   1      30.870  25.778  26.333  1.00  0.00    -0.354 N 
ATOM     74  C   UNL A   1      31.602  24.636  26.438  1.00  0.00     0.243 C 
ATOM     75  H   UNL A   1      29.999  25.732  26.792  1.00  0.00     0.163 HD
ATOM     76  O   UNL A   1      31.257  23.859  27.336  1.00  0.00    -0.273 OA
BRANCH  74  77
ATOM     77  C   UNL A   1      32.838  24.316  25.572  1.00  0.00     0.183 C 
ATOM     78  C   UNL A   1      33.968  25.317  25.758  1.00  0.00     0.046 C 
ATOM     79  N   UNL A   1      32.523  24.303  24.156  1.00  0.00    -0.266 N 
ATOM     80  C   UNL A   1      34.311  25.813  24.363  1.00  0.00     0.103 C 
ATOM     81  C   UNL A   1      33.191  25.325  23.481  1.00  0.00     0.230 C 
ATOM     82  O   UNL A   1      32.941  25.794  22.386  1.00  0.00    -0.274 OA
BRANCH  79  83
ATOM     83  C   UNL A   1      31.779  23.241  23.659  1.00  0.00     0.253 C 
ATOM     84  O   UNL A   1      30.581  23.349  23.392  1.00  0.00    -0.269 OA
BRANCH  83  85
ATOM     85  C   UNL A   1      32.405  21.922  23.395  1.00  0.00     0.072 C 
ATOM     86  C   UNL A   1      32.430  20.884  24.246  1.00  0.00     0.014 C 
BRANCH  86  87
ATOM     87  C   UNL A   1      32.976  19.542  23.947  1.00  0.00    -0.025 A 
ATOM     88  C   UNL A   1      32.319  18.751  22.992  1.00  0.00     0.008 A 
ATOM     89  C   UNL A   1      34.110  19.007  24.577  1.00  0.00     0.008 A 
ATOM     90  C   UNL A   1      32.781  17.468  22.676  1.00  0.00     0.001 A 
ATOM     91  C   UNL A   1      34.573  17.726  24.261  1.00  0.00     0.001 A 
ATOM     92  C   UNL A   1      33.909  16.956  23.310  1.00  0.00     0.000 A 
ENDBRANCH  86  87
ENDBRANCH  83  85
ENDBRANCH  79  83
ENDBRANCH  74  77
ENDBRANCH  72  73
ENDBRANCH   1  72
TORSDOF 13
ENDMDL
