MODEL 1
REMARK VINA RESULT:     -11.9      0.000      0.000
REMARK SMILES C[N@H+](CC(=O)NCCCNC(=O)c1ccc(-c2c3nc(c(-c4c(F)c(F)c(F)c(F)c4F)c4ccc([nH]4)c(-c4c(F)c(F)c(F)c(F)c4F)c4nc(c(-c5c(F)c(F)c(F)c(F)c5F)c5ccc2[nH]5)C=C4)C=C3)cc1)Cc1cccc2c1OCCO2
REMARK SMILES IDX 7 1 6 2 4 3 5 4 3 6 2 7 1 8 76 10 77 11 78 12 82 13 79 14
REMARK SMILES IDX 81 15 83 16 80 17 86 18 84 19 85 20 8 21 9 22 10 23 11 24
REMARK SMILES IDX 12 26 13 27 14 28 75 29 15 30 74 31 16 32 17 33 18 34 68 35
REMARK SMILES IDX 19 36 73 37 67 38 69 39 20 40 72 41 66 42 65 43 21 45 53 46
REMARK SMILES IDX 33 47 52 48 34 49 37 50 51 51 70 52 35 53 36 54 50 56 71 57
REMARK SMILES IDX 38 58 22 59 23 60 31 61 24 62 25 63 29 64 32 65 26 66 27 67
REMARK SMILES IDX 30 68 28 69 54 70 55 71 63 72 56 73 57 74 61 75 64 76 58 77
REMARK SMILES IDX 59 78 62 79 60 80 39 81 40 82 48 83 41 84 42 85 46 86 49 87
REMARK SMILES IDX 43 88 44 89 47 90 45 91
REMARK H PARENT 6 5 2 9 10 25 69 44 37 55
REMARK Flexibility Score: inf
ROOT
ATOM      1  C   UNL A   1      31.622  30.938  26.522  1.00  0.00     0.118 C 
ENDROOT
BRANCH   1   2
ATOM      2  N   UNL A   1      31.537  30.316  25.218  1.00  0.00    -0.351 N 
ATOM      3  C   UNL A   1      31.321  28.991  24.925  1.00  0.00     0.275 C 
ATOM      4  O   UNL A   1      30.893  28.696  23.805  1.00  0.00    -0.269 OA
ATOM      5  H   UNL A   1      31.647  30.917  24.445  1.00  0.00     0.163 HD
BRANCH   3   6
ATOM      6  C   UNL A   1      31.577  27.921  25.993  1.00  0.00     0.363 C 
BRANCH   6   7
ATOM      7  N   UNL A   1      32.907  27.310  25.803  1.00  0.00    -0.326 N 
ATOM      8  C   UNL A   1      33.949  28.097  26.450  1.00  0.00     0.333 C 
ATOM      9  H   UNL A   1      33.105  27.319  24.803  1.00  0.00     0.348 HD
BRANCH   7  10
ATOM     10  C   UNL A   1      32.933  25.892  26.212  1.00  0.00     0.303 C 
BRANCH  10  11
ATOM     11  C   UNL A   1      33.624  25.003  25.194  1.00  0.00     0.052 A 
ATOM     12  C   UNL A   1      34.654  24.132  25.589  1.00  0.00     0.014 A 
ATOM     13  C   UNL A   1      33.233  24.997  23.843  1.00  0.00     0.170 A 
ATOM     14  C   UNL A   1      35.284  23.302  24.656  1.00  0.00     0.005 A 
ATOM     15  C   UNL A   1      33.918  24.223  22.898  1.00  0.00     0.161 A 
ATOM     16  O   UNL A   1      32.153  25.761  23.498  1.00  0.00    -0.486 OA
ATOM     17  C   UNL A   1      34.928  23.360  23.309  1.00  0.00     0.050 A 
ATOM     18  O   UNL A   1      33.641  24.253  21.554  1.00  0.00    -0.486 OA
ATOM     19  C   UNL A   1      31.645  25.466  22.198  1.00  0.00     0.271 C 
ATOM     20  C   UNL A   1      32.786  25.350  21.209  1.00  0.00     0.271 C 
ENDBRANCH  10  11
ENDBRANCH   7  10
ENDBRANCH   6   7
ENDBRANCH   3   6
ENDBRANCH   1   2
BRANCH   1  21
ATOM     21  C   UNL A   1      31.567  32.462  26.591  1.00  0.00     0.042 C 
BRANCH  21  22
ATOM     22  C   UNL A   1      32.693  33.220  27.283  1.00  0.00     0.118 C 
BRANCH  22  23
ATOM     23  N   UNL A   1      32.341  34.510  27.851  1.00  0.00    -0.352 N 
ATOM     24  C   UNL A   1      32.995  35.244  28.810  1.00  0.00     0.251 C 
ATOM     25  H   UNL A   1      31.516  34.915  27.498  1.00  0.00     0.163 HD
ATOM     26  O   UNL A   1      32.556  36.341  29.148  1.00  0.00    -0.269 OA
BRANCH  24  27
ATOM     27  C   UNL A   1      34.195  34.699  29.486  1.00  0.00     0.039 A 
ATOM     28  C   UNL A   1      34.020  34.045  30.710  1.00  0.00     0.014 A 
ATOM     29  C   UNL A   1      35.472  34.817  28.932  1.00  0.00     0.014 A 
ATOM     30  C   UNL A   1      35.110  33.436  31.336  1.00  0.00     0.010 A 
ATOM     31  C   UNL A   1      36.553  34.167  29.536  1.00  0.00     0.010 A 
ATOM     32  C   UNL A   1      36.378  33.457  30.734  1.00  0.00    -0.014 A 
BRANCH  32  33
ATOM     33  C   UNL A   1      37.509  32.701  31.334  1.00  0.00     0.031 A 
ATOM     34  C   UNL A   1      38.027  33.043  32.700  1.00  0.00     0.074 A 
ATOM     35  C   UNL A   1      38.094  31.715  30.625  1.00  0.00     0.049 A 
ATOM     36  N   UNL A   1      38.998  32.485  33.381  1.00  0.00    -0.248 NA
ATOM     37  C   UNL A   1      37.378  34.170  33.386  1.00  0.00     0.031 C 
ATOM     38  C   UNL A   1      37.707  31.305  29.274  1.00  0.00     0.029 A 
ATOM     39  N   UNL A   1      39.136  30.878  30.942  1.00  0.00    -0.354 N 
ATOM     40  C   UNL A   1      39.074  33.188  34.576  1.00  0.00     0.074 A 
ATOM     41  C   UNL A   1      38.086  34.246  34.504  1.00  0.00     0.031 C 
ATOM     42  C   UNL A   1      38.480  30.277  28.890  1.00  0.00     0.029 A 
ATOM     43  C   UNL A   1      39.436  29.974  29.952  1.00  0.00     0.049 A 
ATOM     44  H   UNL A   1      39.621  30.922  31.797  1.00  0.00     0.167 HD
ATOM     45  C   UNL A   1      39.877  32.959  35.644  1.00  0.00     0.037 A 
ATOM     46  C   UNL A   1      40.372  29.008  29.906  1.00  0.00     0.037 A 
ATOM     47  C   UNL A   1      40.861  31.910  35.715  1.00  0.00     0.049 A 
ATOM     48  C   UNL A   1      41.278  28.800  31.089  1.00  0.00     0.074 A 
ATOM     49  C   UNL A   1      41.697  31.578  36.767  1.00  0.00     0.029 A 
ATOM     50  N   UNL A   1      41.147  31.024  34.686  1.00  0.00    -0.354 N 
ATOM     51  N   UNL A   1      41.296  29.428  32.239  1.00  0.00    -0.248 NA
ATOM     52  C   UNL A   1      42.293  27.744  30.966  1.00  0.00     0.031 C 
ATOM     53  C   UNL A   1      42.519  30.521  36.361  1.00  0.00     0.029 A 
ATOM     54  C   UNL A   1      42.163  30.162  35.070  1.00  0.00     0.049 A 
ATOM     55  H   UNL A   1      40.695  31.010  33.812  1.00  0.00     0.167 HD
ATOM     56  C   UNL A   1      42.297  28.823  32.989  1.00  0.00     0.074 A 
ATOM     57  C   UNL A   1      42.859  27.773  32.166  1.00  0.00     0.031 C 
ATOM     58  C   UNL A   1      42.709  29.113  34.247  1.00  0.00     0.037 A 
BRANCH  45  59
ATOM     59  C   UNL A   1      39.721  33.872  36.826  1.00  0.00     0.064 A 
ATOM     60  C   UNL A   1      38.915  33.521  37.921  1.00  0.00     0.173 A 
ATOM     61  C   UNL A   1      40.394  35.101  36.876  1.00  0.00     0.173 A 
ATOM     62  F   UNL A   1      38.243  32.361  37.919  1.00  0.00    -0.203 F 
ATOM     63  C   UNL A   1      38.761  34.383  39.003  1.00  0.00     0.198 A 
ATOM     64  C   UNL A   1      40.261  35.948  37.973  1.00  0.00     0.198 A 
ATOM     65  F   UNL A   1      41.185  35.481  35.860  1.00  0.00    -0.203 F 
ATOM     66  F   UNL A   1      37.943  34.050  40.012  1.00  0.00    -0.200 F 
ATOM     67  C   UNL A   1      39.437  35.593  39.031  1.00  0.00     0.200 A 
ATOM     68  F   UNL A   1      40.925  37.112  38.005  1.00  0.00    -0.200 F 
ATOM     69  F   UNL A   1      39.287  36.423  40.073  1.00  0.00    -0.200 F 
ENDBRANCH  45  59
BRANCH  46  70
ATOM     70  C   UNL A   1      40.475  28.132  28.710  1.00  0.00     0.064 A 
ATOM     71  C   UNL A   1      39.796  26.906  28.663  1.00  0.00     0.173 A 
ATOM     72  C   UNL A   1      41.249  28.495  27.600  1.00  0.00     0.173 A 
ATOM     73  F   UNL A   1      39.062  26.507  29.712  1.00  0.00    -0.203 F 
ATOM     74  C   UNL A   1      39.899  26.070  27.554  1.00  0.00     0.198 A 
ATOM     75  C   UNL A   1      41.331  27.669  26.480  1.00  0.00     0.198 A 
ATOM     76  F   UNL A   1      41.918  29.658  27.597  1.00  0.00    -0.203 F 
ATOM     77  F   UNL A   1      39.270  24.886  27.550  1.00  0.00    -0.200 F 
ATOM     78  C   UNL A   1      40.661  26.454  26.460  1.00  0.00     0.200 A 
ATOM     79  F   UNL A   1      42.059  28.048  25.422  1.00  0.00    -0.200 F 
ATOM     80  F   UNL A   1      40.756  25.652  25.392  1.00  0.00    -0.200 F 
ENDBRANCH  46  70
BRANCH  58  81
ATOM     81  C   UNL A   1      43.797  28.258  34.828  1.00  0.00     0.064 A 
ATOM     82  C   UNL A   1      45.151  28.610  34.714  1.00  0.00     0.173 A 
ATOM     83  C   UNL A   1      43.479  27.089  35.535  1.00  0.00     0.173 A 
ATOM     84  F   UNL A   1      45.508  29.709  34.033  1.00  0.00    -0.203 F 
ATOM     85  C   UNL A   1      46.147  27.811  35.269  1.00  0.00     0.198 A 
ATOM     86  C   UNL A   1      44.476  26.307  36.111  1.00  0.00     0.198 A 
ATOM     87  F   UNL A   1      42.200  26.710  35.675  1.00  0.00    -0.203 F 
ATOM     88  F   UNL A   1      47.436  28.141  35.109  1.00  0.00    -0.200 F 
ATOM     89  C   UNL A   1      45.809  26.664  35.972  1.00  0.00     0.200 A 
ATOM     90  F   UNL A   1      44.147  25.204  36.799  1.00  0.00    -0.200 F 
ATOM     91  F   UNL A   1      46.769  25.898  36.509  1.00  0.00    -0.200 F 
ENDBRANCH  58  81
ENDBRANCH  32  33
ENDBRANCH  24  27
ENDBRANCH  22  23
ENDBRANCH  21  22
ENDBRANCH   1  21
TORSDOF 13
ENDMDL
MODEL 2
REMARK VINA RESULT:     -11.8      5.463     10.811
REMARK SMILES C[N@H+](CC(=O)NCCCNC(=O)c1ccc(-c2c3nc(c(-c4c(F)c(F)c(F)c(F)c4F)c4ccc([nH]4)c(-c4c(F)c(F)c(F)c(F)c4F)c4nc(c(-c5c(F)c(F)c(F)c(F)c5F)c5ccc2[nH]5)C=C4)C=C3)cc1)Cc1cccc2c1OCCO2
REMARK SMILES IDX 7 1 6 2 4 3 5 4 3 6 2 7 1 8 76 10 77 11 78 12 82 13 79 14
REMARK SMILES IDX 81 15 83 16 80 17 86 18 84 19 85 20 8 21 9 22 10 23 11 24
REMARK SMILES IDX 12 26 13 27 14 28 75 29 15 30 74 31 16 32 17 33 18 34 68 35
REMARK SMILES IDX 19 36 73 37 67 38 69 39 20 40 72 41 66 42 65 43 21 45 53 46
REMARK SMILES IDX 33 47 52 48 34 49 37 50 51 51 70 52 35 53 36 54 50 56 71 57
REMARK SMILES IDX 38 58 22 59 23 60 31 61 24 62 25 63 29 64 32 65 26 66 27 67
REMARK SMILES IDX 30 68 28 69 54 70 55 71 63 72 56 73 57 74 61 75 64 76 58 77
REMARK SMILES IDX 59 78 62 79 60 80 39 81 40 82 48 83 41 84 42 85 46 86 49 87
REMARK SMILES IDX 43 88 44 89 47 90 45 91
REMARK H PARENT 6 5 2 9 10 25 69 44 37 55
REMARK Flexibility Score: inf
ROOT
ATOM      1  C   UNL A   1      37.303  21.173  24.596  1.00  0.00     0.118 C 
ENDROOT
BRANCH   1   2
ATOM      2  N   UNL A   1      37.810  22.467  25.003  1.00  0.00    -0.351 N 
ATOM      3  C   UNL A   1      37.177  23.424  25.759  1.00  0.00     0.275 C 
ATOM      4  O   UNL A   1      37.865  24.273  26.333  1.00  0.00    -0.269 OA
ATOM      5  H   UNL A   1      38.720  22.688  24.700  1.00  0.00     0.163 HD
BRANCH   3   6
ATOM      6  C   UNL A   1      35.651  23.396  25.904  1.00  0.00     0.363 C 
BRANCH   6   7
ATOM      7  N   UNL A   1      35.029  24.390  25.007  1.00  0.00    -0.326 N 
ATOM      8  C   UNL A   1      34.968  23.901  23.636  1.00  0.00     0.333 C 
ATOM      9  H   UNL A   1      35.631  25.213  25.002  1.00  0.00     0.348 HD
BRANCH   7  10
ATOM     10  C   UNL A   1      33.717  24.848  25.505  1.00  0.00     0.303 C 
BRANCH  10  11
ATOM     11  C   UNL A   1      33.485  26.328  25.267  1.00  0.00     0.052 A 
ATOM     12  C   UNL A   1      34.106  27.288  26.084  1.00  0.00     0.014 A 
ATOM     13  C   UNL A   1      32.678  26.781  24.209  1.00  0.00     0.170 A 
ATOM     14  C   UNL A   1      33.905  28.655  25.860  1.00  0.00     0.005 A 
ATOM     15  C   UNL A   1      32.416  28.146  24.036  1.00  0.00     0.161 A 
ATOM     16  O   UNL A   1      32.178  25.840  23.352  1.00  0.00    -0.486 OA
ATOM     17  C   UNL A   1      33.047  29.082  24.847  1.00  0.00     0.050 A 
ATOM     18  O   UNL A   1      31.560  28.636  23.080  1.00  0.00    -0.486 OA
ATOM     19  C   UNL A   1      31.635  26.396  22.156  1.00  0.00     0.271 C 
ATOM     20  C   UNL A   1      30.772  27.596  22.487  1.00  0.00     0.271 C 
ENDBRANCH  10  11
ENDBRANCH   7  10
ENDBRANCH   6   7
ENDBRANCH   3   6
ENDBRANCH   1   2
BRANCH   1  21
ATOM     21  C   UNL A   1      38.083  19.933  25.028  1.00  0.00     0.042 C 
BRANCH  21  22
ATOM     22  C   UNL A   1      39.270  20.089  25.972  1.00  0.00     0.118 C 
BRANCH  22  23
ATOM     23  N   UNL A   1      40.340  19.120  25.817  1.00  0.00    -0.352 N 
ATOM     24  C   UNL A   1      41.681  19.256  26.083  1.00  0.00     0.251 C 
ATOM     25  H   UNL A   1      40.066  18.240  25.472  1.00  0.00     0.163 HD
ATOM     26  O   UNL A   1      42.440  18.304  25.915  1.00  0.00    -0.269 OA
BRANCH  24  27
ATOM     27  C   UNL A   1      42.232  20.561  26.516  1.00  0.00     0.039 A 
ATOM     28  C   UNL A   1      42.736  21.421  25.534  1.00  0.00     0.014 A 
ATOM     29  C   UNL A   1      42.252  20.946  27.859  1.00  0.00     0.014 A 
ATOM     30  C   UNL A   1      43.180  22.697  25.887  1.00  0.00     0.010 A 
ATOM     31  C   UNL A   1      42.652  22.240  28.205  1.00  0.00     0.010 A 
ATOM     32  C   UNL A   1      43.105  23.132  27.220  1.00  0.00    -0.014 A 
BRANCH  32  33
ATOM     33  C   UNL A   1      43.455  24.532  27.576  1.00  0.00     0.031 A 
ATOM     34  C   UNL A   1      44.886  24.984  27.611  1.00  0.00     0.074 A 
ATOM     35  C   UNL A   1      42.473  25.397  27.900  1.00  0.00     0.049 A 
ATOM     36  N   UNL A   1      45.375  26.167  27.891  1.00  0.00    -0.248 NA
ATOM     37  C   UNL A   1      45.904  23.968  27.305  1.00  0.00     0.031 C 
ATOM     38  C   UNL A   1      41.046  25.077  27.936  1.00  0.00     0.029 A 
ATOM     39  N   UNL A   1      42.526  26.722  28.259  1.00  0.00    -0.354 N 
ATOM     40  C   UNL A   1      46.754  26.040  27.791  1.00  0.00     0.074 A 
ATOM     41  C   UNL A   1      47.025  24.653  27.476  1.00  0.00     0.031 C 
ATOM     42  C   UNL A   1      40.357  26.180  28.267  1.00  0.00     0.029 A 
ATOM     43  C   UNL A   1      41.293  27.277  28.497  1.00  0.00     0.049 A 
ATOM     44  H   UNL A   1      43.369  27.225  28.338  1.00  0.00     0.167 HD
ATOM     45  C   UNL A   1      47.704  26.997  27.926  1.00  0.00     0.037 A 
ATOM     46  C   UNL A   1      40.953  28.530  28.856  1.00  0.00     0.037 A 
ATOM     47  C   UNL A   1      47.435  28.377  28.242  1.00  0.00     0.049 A 
ATOM     48  C   UNL A   1      42.031  29.563  29.040  1.00  0.00     0.074 A 
ATOM     49  C   UNL A   1      48.329  29.426  28.367  1.00  0.00     0.029 A 
ATOM     50  N   UNL A   1      46.173  28.897  28.493  1.00  0.00    -0.354 N 
ATOM     51  N   UNL A   1      43.326  29.448  28.877  1.00  0.00    -0.248 NA
ATOM     52  C   UNL A   1      41.595  30.905  29.453  1.00  0.00     0.031 C 
ATOM     53  C   UNL A   1      47.615  30.573  28.734  1.00  0.00     0.029 A 
ATOM     54  C   UNL A   1      46.269  30.248  28.793  1.00  0.00     0.049 A 
ATOM     55  H   UNL A   1      45.334  28.384  28.462  1.00  0.00     0.167 HD
ATOM     56  C   UNL A   1      43.857  30.706  29.134  1.00  0.00     0.074 A 
ATOM     57  C   UNL A   1      42.742  31.572  29.457  1.00  0.00     0.031 C 
ATOM     58  C   UNL A   1      45.152  31.104  29.103  1.00  0.00     0.037 A 
BRANCH  45  59
ATOM     59  C   UNL A   1      49.132  26.576  27.734  1.00  0.00     0.064 A 
ATOM     60  C   UNL A   1      49.975  26.324  28.828  1.00  0.00     0.173 A 
ATOM     61  C   UNL A   1      49.662  26.406  26.446  1.00  0.00     0.173 A 
ATOM     62  F   UNL A   1      49.521  26.480  30.080  1.00  0.00    -0.203 F 
ATOM     63  C   UNL A   1      51.304  25.953  28.639  1.00  0.00     0.198 A 
ATOM     64  C   UNL A   1      50.983  26.007  26.261  1.00  0.00     0.198 A 
ATOM     65  F   UNL A   1      48.897  26.625  25.365  1.00  0.00    -0.203 F 
ATOM     66  F   UNL A   1      52.104  25.770  29.699  1.00  0.00    -0.200 F 
ATOM     67  C   UNL A   1      51.806  25.790  27.357  1.00  0.00     0.200 A 
ATOM     68  F   UNL A   1      51.464  25.837  25.021  1.00  0.00    -0.200 F 
ATOM     69  F   UNL A   1      53.085  25.435  27.176  1.00  0.00    -0.200 F 
ENDBRANCH  45  59
BRANCH  46  70
ATOM     70  C   UNL A   1      39.522  28.889  29.027  1.00  0.00     0.064 A 
ATOM     71  C   UNL A   1      38.904  28.782  30.281  1.00  0.00     0.173 A 
ATOM     72  C   UNL A   1      38.746  29.343  27.952  1.00  0.00     0.173 A 
ATOM     73  F   UNL A   1      39.600  28.330  31.334  1.00  0.00    -0.203 F 
ATOM     74  C   UNL A   1      37.558  29.101  30.449  1.00  0.00     0.198 A 
ATOM     75  C   UNL A   1      37.407  29.687  28.126  1.00  0.00     0.198 A 
ATOM     76  F   UNL A   1      39.293  29.465  26.732  1.00  0.00    -0.203 F 
ATOM     77  F   UNL A   1      36.982  28.952  31.649  1.00  0.00    -0.200 F 
ATOM     78  C   UNL A   1      36.812  29.559  29.373  1.00  0.00     0.200 A 
ATOM     79  F   UNL A   1      36.693  30.139  27.087  1.00  0.00    -0.200 F 
ATOM     80  F   UNL A   1      35.520  29.871  29.535  1.00  0.00    -0.200 F 
ENDBRANCH  46  70
BRANCH  58  81
ATOM     81  C   UNL A   1      45.433  32.550  29.389  1.00  0.00     0.064 A 
ATOM     82  C   UNL A   1      45.409  33.521  28.376  1.00  0.00     0.173 A 
ATOM     83  C   UNL A   1      45.697  32.975  30.700  1.00  0.00     0.173 A 
ATOM     84  F   UNL A   1      45.179  33.163  27.104  1.00  0.00    -0.203 F 
ATOM     85  C   UNL A   1      45.662  34.860  28.662  1.00  0.00     0.198 A 
ATOM     86  C   UNL A   1      45.922  34.319  30.986  1.00  0.00     0.198 A 
ATOM     87  F   UNL A   1      45.728  32.088  31.705  1.00  0.00    -0.203 F 
ATOM     88  F   UNL A   1      45.680  35.763  27.672  1.00  0.00    -0.200 F 
ATOM     89  C   UNL A   1      45.912  35.259  29.967  1.00  0.00     0.200 A 
ATOM     90  F   UNL A   1      46.154  34.704  32.249  1.00  0.00    -0.200 F 
ATOM     91  F   UNL A   1      46.150  36.549  30.241  1.00  0.00    -0.200 F 
ENDBRANCH  58  81
ENDBRANCH  32  33
ENDBRANCH  24  27
ENDBRANCH  22  23
ENDBRANCH  21  22
ENDBRANCH   1  21
TORSDOF 13
ENDMDL
MODEL 3
REMARK VINA RESULT:     -11.8      1.026      1.660
REMARK SMILES C[N@H+](CC(=O)NCCCNC(=O)c1ccc(-c2c3nc(c(-c4c(F)c(F)c(F)c(F)c4F)c4ccc([nH]4)c(-c4c(F)c(F)c(F)c(F)c4F)c4nc(c(-c5c(F)c(F)c(F)c(F)c5F)c5ccc2[nH]5)C=C4)C=C3)cc1)Cc1cccc2c1OCCO2
REMARK SMILES IDX 7 1 6 2 4 3 5 4 3 6 2 7 1 8 76 10 77 11 78 12 82 13 79 14
REMARK SMILES IDX 81 15 83 16 80 17 86 18 84 19 85 20 8 21 9 22 10 23 11 24
REMARK SMILES IDX 12 26 13 27 14 28 75 29 15 30 74 31 16 32 17 33 18 34 68 35
REMARK SMILES IDX 19 36 73 37 67 38 69 39 20 40 72 41 66 42 65 43 21 45 53 46
REMARK SMILES IDX 33 47 52 48 34 49 37 50 51 51 70 52 35 53 36 54 50 56 71 57
REMARK SMILES IDX 38 58 22 59 23 60 31 61 24 62 25 63 29 64 32 65 26 66 27 67
REMARK SMILES IDX 30 68 28 69 54 70 55 71 63 72 56 73 57 74 61 75 64 76 58 77
REMARK SMILES IDX 59 78 62 79 60 80 39 81 40 82 48 83 41 84 42 85 46 86 49 87
REMARK SMILES IDX 43 88 44 89 47 90 45 91
REMARK H PARENT 6 5 2 9 10 25 69 44 37 55
REMARK Flexibility Score: inf
ROOT
ATOM      1  C   UNL A   1      31.783  30.482  26.543  1.00  0.00     0.118 C 
ENDROOT
BRANCH   1   2
ATOM      2  N   UNL A   1      32.825  29.847  27.322  1.00  0.00    -0.351 N 
ATOM      3  C   UNL A   1      33.850  29.050  26.874  1.00  0.00     0.275 C 
ATOM      4  O   UNL A   1      34.850  28.918  27.586  1.00  0.00    -0.269 OA
ATOM      5  H   UNL A   1      32.794  30.006  28.293  1.00  0.00     0.163 HD
BRANCH   3   6
ATOM      6  C   UNL A   1      33.752  28.381  25.498  1.00  0.00     0.363 C 
BRANCH   6   7
ATOM      7  N   UNL A   1      33.636  26.916  25.645  1.00  0.00    -0.326 N 
ATOM      8  C   UNL A   1      32.313  26.534  26.121  1.00  0.00     0.333 C 
ATOM      9  H   UNL A   1      34.304  26.629  26.359  1.00  0.00     0.348 HD
BRANCH   7  10
ATOM     10  C   UNL A   1      34.024  26.200  24.414  1.00  0.00     0.303 C 
BRANCH  10  11
ATOM     11  C   UNL A   1      34.369  24.745  24.668  1.00  0.00     0.052 A 
ATOM     12  C   UNL A   1      35.517  24.400  25.399  1.00  0.00     0.014 A 
ATOM     13  C   UNL A   1      33.536  23.706  24.214  1.00  0.00     0.170 A 
ATOM     14  C   UNL A   1      35.832  23.060  25.647  1.00  0.00     0.005 A 
ATOM     15  C   UNL A   1      33.894  22.364  24.395  1.00  0.00     0.161 A 
ATOM     16  O   UNL A   1      32.363  24.060  23.608  1.00  0.00    -0.486 OA
ATOM     17  C   UNL A   1      35.030  22.042  25.130  1.00  0.00     0.050 A 
ATOM     18  O   UNL A   1      33.169  21.314  23.889  1.00  0.00    -0.486 OA
ATOM     19  C   UNL A   1      31.455  22.971  23.456  1.00  0.00     0.271 C 
ATOM     20  C   UNL A   1      32.188  21.751  22.940  1.00  0.00     0.271 C 
ENDBRANCH  10  11
ENDBRANCH   7  10
ENDBRANCH   6   7
ENDBRANCH   3   6
ENDBRANCH   1   2
BRANCH   1  21
ATOM     21  C   UNL A   1      31.495  31.958  26.805  1.00  0.00     0.042 C 
BRANCH  21  22
ATOM     22  C   UNL A   1      32.653  32.906  27.093  1.00  0.00     0.118 C 
BRANCH  22  23
ATOM     23  N   UNL A   1      32.295  34.210  27.623  1.00  0.00    -0.352 N 
ATOM     24  C   UNL A   1      32.941  34.971  28.568  1.00  0.00     0.251 C 
ATOM     25  H   UNL A   1      31.473  34.605  27.253  1.00  0.00     0.163 HD
ATOM     26  O   UNL A   1      32.497  36.076  28.872  1.00  0.00    -0.269 OA
BRANCH  24  27
ATOM     27  C   UNL A   1      34.135  34.446  29.268  1.00  0.00     0.039 A 
ATOM     28  C   UNL A   1      33.939  33.693  30.430  1.00  0.00     0.014 A 
ATOM     29  C   UNL A   1      35.430  34.677  28.794  1.00  0.00     0.014 A 
ATOM     30  C   UNL A   1      35.031  33.102  31.069  1.00  0.00     0.010 A 
ATOM     31  C   UNL A   1      36.516  34.046  29.408  1.00  0.00     0.010 A 
ATOM     32  C   UNL A   1      36.324  33.240  30.541  1.00  0.00    -0.014 A 
BRANCH  32  33
ATOM     33  C   UNL A   1      37.467  32.507  31.145  1.00  0.00     0.031 A 
ATOM     34  C   UNL A   1      37.973  32.860  32.514  1.00  0.00     0.074 A 
ATOM     35  C   UNL A   1      38.074  31.531  30.440  1.00  0.00     0.049 A 
ATOM     36  N   UNL A   1      38.952  32.321  33.199  1.00  0.00    -0.248 NA
ATOM     37  C   UNL A   1      37.300  33.974  33.196  1.00  0.00     0.031 C 
ATOM     38  C   UNL A   1      37.701  31.112  29.088  1.00  0.00     0.029 A 
ATOM     39  N   UNL A   1      39.131  30.714  30.762  1.00  0.00    -0.354 N 
ATOM     40  C   UNL A   1      39.009  33.027  34.394  1.00  0.00     0.074 A 
ATOM     41  C   UNL A   1      38.002  34.065  34.317  1.00  0.00     0.031 C 
ATOM     42  C   UNL A   1      38.494  30.099  28.708  1.00  0.00     0.029 A 
ATOM     43  C   UNL A   1      39.452  29.816  29.774  1.00  0.00     0.049 A 
ATOM     44  H   UNL A   1      39.612  30.769  31.619  1.00  0.00     0.167 HD
ATOM     45  C   UNL A   1      39.813  32.815  35.465  1.00  0.00     0.037 A 
ATOM     46  C   UNL A   1      40.407  28.868  29.733  1.00  0.00     0.037 A 
ATOM     47  C   UNL A   1      40.816  31.784  35.541  1.00  0.00     0.049 A 
ATOM     48  C   UNL A   1      41.312  28.679  30.920  1.00  0.00     0.074 A 
ATOM     49  C   UNL A   1      41.655  31.470  36.597  1.00  0.00     0.029 A 
ATOM     50  N   UNL A   1      41.124  30.904  34.514  1.00  0.00    -0.354 N 
ATOM     51  N   UNL A   1      41.313  29.308  32.069  1.00  0.00    -0.248 NA
ATOM     52  C   UNL A   1      42.348  27.642  30.802  1.00  0.00     0.031 C 
ATOM     53  C   UNL A   1      42.499  30.428  36.194  1.00  0.00     0.029 A 
ATOM     54  C   UNL A   1      42.155  30.061  34.903  1.00  0.00     0.049 A 
ATOM     55  H   UNL A   1      40.676  30.880  33.637  1.00  0.00     0.167 HD
ATOM     56  C   UNL A   1      42.322  28.723  32.823  1.00  0.00     0.074 A 
ATOM     57  C   UNL A   1      42.908  27.683  32.003  1.00  0.00     0.031 C 
ATOM     58  C   UNL A   1      42.724  29.022  34.083  1.00  0.00     0.037 A 
BRANCH  45  59
ATOM     59  C   UNL A   1      39.635  33.725  36.645  1.00  0.00     0.064 A 
ATOM     60  C   UNL A   1      38.819  33.367  37.730  1.00  0.00     0.173 A 
ATOM     61  C   UNL A   1      40.296  34.961  36.703  1.00  0.00     0.173 A 
ATOM     62  F   UNL A   1      38.157  32.200  37.720  1.00  0.00    -0.203 F 
ATOM     63  C   UNL A   1      38.644  34.227  38.811  1.00  0.00     0.198 A 
ATOM     64  C   UNL A   1      40.143  35.806  37.800  1.00  0.00     0.198 A 
ATOM     65  F   UNL A   1      41.096  35.348  35.697  1.00  0.00    -0.203 F 
ATOM     66  F   UNL A   1      37.818  33.886  39.810  1.00  0.00    -0.200 F 
ATOM     67  C   UNL A   1      39.309  35.443  38.847  1.00  0.00     0.200 A 
ATOM     68  F   UNL A   1      40.796  36.975  37.840  1.00  0.00    -0.200 F 
ATOM     69  F   UNL A   1      39.139  36.270  39.887  1.00  0.00    -0.200 F 
ENDBRANCH  45  59
BRANCH  46  70
ATOM     70  C   UNL A   1      40.532  27.993  28.539  1.00  0.00     0.064 A 
ATOM     71  C   UNL A   1      41.320  28.383  27.447  1.00  0.00     0.173 A 
ATOM     72  C   UNL A   1      39.872  26.758  28.461  1.00  0.00     0.173 A 
ATOM     73  F   UNL A   1      41.951  29.566  27.466  1.00  0.00    -0.203 F 
ATOM     74  C   UNL A   1      41.430  27.578  26.315  1.00  0.00     0.198 A 
ATOM     75  C   UNL A   1      40.004  25.942  27.340  1.00  0.00     0.198 A 
ATOM     76  F   UNL A   1      39.107  26.340  29.481  1.00  0.00    -0.203 F 
ATOM     77  F   UNL A   1      42.158  27.993  25.270  1.00  0.00    -0.200 F 
ATOM     78  C   UNL A   1      40.778  26.355  26.265  1.00  0.00     0.200 A 
ATOM     79  F   UNL A   1      39.381  24.757  27.300  1.00  0.00    -0.200 F 
ATOM     80  F   UNL A   1      40.889  25.578  25.179  1.00  0.00    -0.200 F 
ENDBRANCH  46  70
BRANCH  58  81
ATOM     81  C   UNL A   1      43.827  28.189  34.669  1.00  0.00     0.064 A 
ATOM     82  C   UNL A   1      45.170  28.586  34.592  1.00  0.00     0.173 A 
ATOM     83  C   UNL A   1      43.531  26.996  35.343  1.00  0.00     0.173 A 
ATOM     84  F   UNL A   1      45.507  29.710  33.942  1.00  0.00    -0.203 F 
ATOM     85  C   UNL A   1      46.179  27.806  35.151  1.00  0.00     0.198 A 
ATOM     86  C   UNL A   1      44.540  26.232  35.924  1.00  0.00     0.198 A 
ATOM     87  F   UNL A   1      42.262  26.574  35.447  1.00  0.00    -0.203 F 
ATOM     88  F   UNL A   1      47.460  28.180  35.027  1.00  0.00    -0.200 F 
ATOM     89  C   UNL A   1      45.863  26.634  35.822  1.00  0.00     0.200 A 
ATOM     90  F   UNL A   1      44.231  25.105  36.581  1.00  0.00    -0.200 F 
ATOM     91  F   UNL A   1      46.835  25.887  36.364  1.00  0.00    -0.200 F 
ENDBRANCH  58  81
ENDBRANCH  32  33
ENDBRANCH  24  27
ENDBRANCH  22  23
ENDBRANCH  21  22
ENDBRANCH   1  21
TORSDOF 13
ENDMDL
