MODEL 1
REMARK VINA RESULT:     -13.0      0.000      0.000
REMARK SMILES COc1ccc(/C=C(\CCC(=O)NCCCNC(=O)c2ccc(-c3c4nc(c(-c5c(F)c(F)c(F)c(F)c5F)c5ccc([nH]5)c(-c5c(F)c(F)c(F)c(F)c5F)c5nc(c(-c6c(F)c(F)c(F)c(F)c6F)c6ccc3[nH]6)C=C5)C=C4)cc2)c2nc3ccccc3s2)cc1F
REMARK SMILES IDX 14 1 13 2 11 3 12 4 10 6 9 7 8 8 7 9 6 10 3 11 4 12 93 13
REMARK SMILES IDX 5 14 92 15 94 16 2 17 1 18 83 19 84 20 91 21 85 22 90 23
REMARK SMILES IDX 86 24 89 25 87 26 88 27 15 28 16 29 17 30 18 31 19 33 20 34
REMARK SMILES IDX 21 35 82 36 22 37 81 38 23 39 24 40 25 41 75 42 26 43 80 44
REMARK SMILES IDX 74 45 76 46 27 47 79 48 73 49 72 50 28 52 60 53 40 54 59 55
REMARK SMILES IDX 41 56 44 57 58 58 77 59 42 60 43 61 57 63 78 64 45 65 29 66
REMARK SMILES IDX 30 67 38 68 31 69 32 70 36 71 39 72 33 73 34 74 37 75 35 76
REMARK SMILES IDX 61 77 62 78 70 79 63 80 64 81 68 82 71 83 65 84 66 85 69 86
REMARK SMILES IDX 67 87 46 88 47 89 55 90 48 91 49 92 53 93 56 94 50 95 51 96
REMARK SMILES IDX 54 97 52 98
REMARK H PARENT 13 5 17 32 76 51 44 62
REMARK Flexibility Score: inf
ROOT
ATOM      1  C   UNL A   1      32.602  26.685  26.434  1.00  0.00     0.117 C 
ENDROOT
BRANCH   1   2
ATOM      2  N   UNL A   1      31.655  25.604  26.656  1.00  0.00    -0.356 N 
ATOM      3  C   UNL A   1      31.842  24.275  26.900  1.00  0.00     0.220 C 
ATOM      4  O   UNL A   1      30.871  23.615  27.278  1.00  0.00    -0.275 OA
ATOM      5  H   UNL A   1      30.711  25.881  26.624  1.00  0.00     0.163 HD
BRANCH   3   6
ATOM      6  C   UNL A   1      33.197  23.622  26.715  1.00  0.00     0.105 C 
BRANCH   6   7
ATOM      7  C   UNL A   1      33.720  23.754  25.281  1.00  0.00     0.048 C 
BRANCH   7   8
ATOM      8  C   UNL A   1      33.035  22.794  24.293  1.00  0.00    -0.011 C 
ATOM      9  C   UNL A   1      32.102  23.201  23.393  1.00  0.00     0.015 C 
BRANCH   9  10
ATOM     10  C   UNL A   1      31.586  24.570  23.124  1.00  0.00    -0.022 A 
ATOM     11  C   UNL A   1      30.476  27.120  22.530  1.00  0.00     0.154 A 
ATOM     12  C   UNL A   1      31.723  26.753  22.034  1.00  0.00     0.050 A 
ATOM     13  C   UNL A   1      29.771  26.199  23.302  1.00  0.00     0.165 A 
ATOM     14  C   UNL A   1      32.257  25.487  22.308  1.00  0.00     0.012 A 
ATOM     15  C   UNL A   1      30.318  24.941  23.604  1.00  0.00     0.051 A 
ATOM     16  F   UNL A   1      28.530  26.470  23.735  1.00  0.00    -0.203 F 
BRANCH  11  17
ATOM     17  O   UNL A   1      30.021  28.336  22.103  1.00  0.00    -0.494 OA
ATOM     18  C   UNL A   1      30.100  29.389  23.057  1.00  0.00     0.278 C 
ENDBRANCH  11  17
ENDBRANCH   9  10
BRANCH   8  19
ATOM     19  C   UNL A   1      33.358  21.383  24.463  1.00  0.00     0.120 A 
ATOM     20  N   UNL A   1      32.476  20.459  24.138  1.00  0.00    -0.236 NA
ATOM     21  S   UNL A   1      34.853  20.703  25.013  1.00  0.00    -0.114 S 
ATOM     22  C   UNL A   1      33.028  19.213  24.060  1.00  0.00     0.082 A 
ATOM     23  C   UNL A   1      34.337  19.125  24.514  1.00  0.00     0.055 A 
ATOM     24  C   UNL A   1      32.388  18.078  23.528  1.00  0.00     0.030 A 
ATOM     25  C   UNL A   1      35.027  17.901  24.487  1.00  0.00     0.021 A 
ATOM     26  C   UNL A   1      33.086  16.876  23.435  1.00  0.00     0.002 A 
ATOM     27  C   UNL A   1      34.389  16.789  23.916  1.00  0.00     0.002 A 
ENDBRANCH   8  19
ENDBRANCH   7   8
ENDBRANCH   6   7
ENDBRANCH   3   6
ENDBRANCH   1   2
BRANCH   1  28
ATOM     28  C   UNL A   1      32.017  27.923  25.749  1.00  0.00     0.042 C 
BRANCH  28  29
ATOM     29  C   UNL A   1      33.016  29.027  25.385  1.00  0.00     0.118 C 
BRANCH  29  30
ATOM     30  N   UNL A   1      32.572  30.353  25.794  1.00  0.00    -0.352 N 
ATOM     31  C   UNL A   1      33.041  31.203  26.765  1.00  0.00     0.251 C 
ATOM     32  H   UNL A   1      31.803  30.699  25.286  1.00  0.00     0.163 HD
ATOM     33  O   UNL A   1      32.385  32.219  27.022  1.00  0.00    -0.269 OA
BRANCH  31  34
ATOM     34  C   UNL A   1      34.288  30.956  27.535  1.00  0.00     0.039 A 
ATOM     35  C   UNL A   1      34.477  29.692  28.109  1.00  0.00     0.014 A 
ATOM     36  C   UNL A   1      35.223  31.958  27.805  1.00  0.00     0.014 A 
ATOM     37  C   UNL A   1      35.611  29.419  28.887  1.00  0.00     0.010 A 
ATOM     38  C   UNL A   1      36.385  31.670  28.542  1.00  0.00     0.010 A 
ATOM     39  C   UNL A   1      36.599  30.396  29.089  1.00  0.00    -0.014 A 
BRANCH  39  40
ATOM     40  C   UNL A   1      37.854  30.072  29.836  1.00  0.00     0.031 A 
ATOM     41  C   UNL A   1      38.112  30.606  31.222  1.00  0.00     0.074 A 
ATOM     42  C   UNL A   1      38.796  29.298  29.257  1.00  0.00     0.049 A 
ATOM     43  N   UNL A   1      39.149  30.413  32.003  1.00  0.00    -0.248 NA
ATOM     44  C   UNL A   1      37.084  31.481  31.804  1.00  0.00     0.031 C 
ATOM     45  C   UNL A   1      38.710  28.737  27.909  1.00  0.00     0.029 A 
ATOM     46  N   UNL A   1      40.007  28.846  29.728  1.00  0.00    -0.354 N 
ATOM     47  C   UNL A   1      38.900  31.138  33.162  1.00  0.00     0.074 A 
ATOM     48  C   UNL A   1      37.635  31.814  32.965  1.00  0.00     0.031 C 
ATOM     49  C   UNL A   1      39.800  27.989  27.675  1.00  0.00     0.029 A 
ATOM     50  C   UNL A   1      40.682  28.044  28.837  1.00  0.00     0.049 A 
ATOM     51  H   UNL A   1      40.358  29.074  30.619  1.00  0.00     0.167 HD
ATOM     52  C   UNL A   1      39.642  31.217  34.294  1.00  0.00     0.037 A 
ATOM     53  C   UNL A   1      41.874  27.422  28.935  1.00  0.00     0.037 A 
ATOM     54  C   UNL A   1      40.888  30.526  34.518  1.00  0.00     0.049 A 
ATOM     55  C   UNL A   1      42.689  27.543  30.194  1.00  0.00     0.074 A 
ATOM     56  C   UNL A   1      41.661  30.500  35.668  1.00  0.00     0.029 A 
ATOM     57  N   UNL A   1      41.544  29.746  33.581  1.00  0.00    -0.354 N 
ATOM     58  N   UNL A   1      42.407  28.182  31.301  1.00  0.00    -0.248 NA
ATOM     59  C   UNL A   1      43.990  26.855  30.216  1.00  0.00     0.031 C 
ATOM     60  C   UNL A   1      42.807  29.744  35.412  1.00  0.00     0.029 A 
ATOM     61  C   UNL A   1      42.727  29.258  34.118  1.00  0.00     0.049 A 
ATOM     62  H   UNL A   1      41.220  29.565  32.669  1.00  0.00     0.167 HD
ATOM     63  C   UNL A   1      43.478  27.959  32.155  1.00  0.00     0.074 A 
ATOM     64  C   UNL A   1      44.415  27.116  31.445  1.00  0.00     0.031 C 
ATOM     65  C   UNL A   1      43.662  28.418  33.416  1.00  0.00     0.037 A 
BRANCH  52  66
ATOM     66  C   UNL A   1      39.127  32.071  35.416  1.00  0.00     0.064 A 
ATOM     67  C   UNL A   1      39.478  33.427  35.500  1.00  0.00     0.173 A 
ATOM     68  C   UNL A   1      38.375  31.521  36.464  1.00  0.00     0.173 A 
ATOM     69  F   UNL A   1      40.210  33.997  34.531  1.00  0.00    -0.203 F 
ATOM     70  C   UNL A   1      39.106  34.197  36.600  1.00  0.00     0.198 A 
ATOM     71  C   UNL A   1      37.983  32.299  37.550  1.00  0.00     0.198 A 
ATOM     72  F   UNL A   1      38.013  30.229  36.430  1.00  0.00    -0.203 F 
ATOM     73  F   UNL A   1      39.484  35.480  36.676  1.00  0.00    -0.200 F 
ATOM     74  C   UNL A   1      38.357  33.633  37.622  1.00  0.00     0.200 A 
ATOM     75  F   UNL A   1      37.246  31.759  38.529  1.00  0.00    -0.200 F 
ATOM     76  F   UNL A   1      37.997  34.375  38.678  1.00  0.00    -0.200 F 
ENDBRANCH  52  66
BRANCH  53  77
ATOM     77  C   UNL A   1      42.358  26.592  27.803  1.00  0.00     0.064 A 
ATOM     78  C   UNL A   1      43.201  27.125  26.816  1.00  0.00     0.173 A 
ATOM     79  C   UNL A   1      41.965  25.253  27.674  1.00  0.00     0.173 A 
ATOM     80  F   UNL A   1      43.603  28.402  26.896  1.00  0.00    -0.203 F 
ATOM     81  C   UNL A   1      43.614  26.355  25.732  1.00  0.00     0.198 A 
ATOM     82  C   UNL A   1      42.400  24.477  26.603  1.00  0.00     0.198 A 
ATOM     83  F   UNL A   1      41.180  24.694  28.607  1.00  0.00    -0.203 F 
ATOM     84  F   UNL A   1      44.393  26.897  24.786  1.00  0.00    -0.200 F 
ATOM     85  C   UNL A   1      43.217  25.030  25.628  1.00  0.00     0.200 A 
ATOM     86  F   UNL A   1      42.033  23.190  26.518  1.00  0.00    -0.200 F 
ATOM     87  F   UNL A   1      43.623  24.287  24.590  1.00  0.00    -0.200 F 
ENDBRANCH  53  77
BRANCH  65  88
ATOM     88  C   UNL A   1      44.915  28.015  34.137  1.00  0.00     0.064 A 
ATOM     89  C   UNL A   1      44.949  26.843  34.909  1.00  0.00     0.173 A 
ATOM     90  C   UNL A   1      46.054  28.832  34.134  1.00  0.00     0.173 A 
ATOM     91  F   UNL A   1      43.883  26.030  34.951  1.00  0.00    -0.203 F 
ATOM     92  C   UNL A   1      46.071  26.514  35.665  1.00  0.00     0.198 A 
ATOM     93  C   UNL A   1      47.185  28.487  34.873  1.00  0.00     0.198 A 
ATOM     94  F   UNL A   1      46.077  29.956  33.402  1.00  0.00    -0.203 F 
ATOM     95  F   UNL A   1      46.068  25.407  36.421  1.00  0.00    -0.200 F 
ATOM     96  C   UNL A   1      47.188  27.336  35.645  1.00  0.00     0.200 A 
ATOM     97  F   UNL A   1      48.271  29.272  34.838  1.00  0.00    -0.200 F 
ATOM     98  F   UNL A   1      48.269  27.016  36.371  1.00  0.00    -0.200 F 
ENDBRANCH  65  88
ENDBRANCH  39  40
ENDBRANCH  31  34
ENDBRANCH  29  30
ENDBRANCH  28  29
ENDBRANCH   1  28
TORSDOF 15
ENDMDL
MODEL 2
REMARK VINA RESULT:     -12.6      1.730      4.121
REMARK SMILES COc1ccc(/C=C(\CCC(=O)NCCCNC(=O)c2ccc(-c3c4nc(c(-c5c(F)c(F)c(F)c(F)c5F)c5ccc([nH]5)c(-c5c(F)c(F)c(F)c(F)c5F)c5nc(c(-c6c(F)c(F)c(F)c(F)c6F)c6ccc3[nH]6)C=C5)C=C4)cc2)c2nc3ccccc3s2)cc1F
REMARK SMILES IDX 14 1 13 2 11 3 12 4 10 6 9 7 8 8 7 9 6 10 3 11 4 12 93 13
REMARK SMILES IDX 5 14 92 15 94 16 2 17 1 18 83 19 84 20 91 21 85 22 90 23
REMARK SMILES IDX 86 24 89 25 87 26 88 27 15 28 16 29 17 30 18 31 19 33 20 34
REMARK SMILES IDX 21 35 82 36 22 37 81 38 23 39 24 40 25 41 75 42 26 43 80 44
REMARK SMILES IDX 74 45 76 46 27 47 79 48 73 49 72 50 28 52 60 53 40 54 59 55
REMARK SMILES IDX 41 56 44 57 58 58 77 59 42 60 43 61 57 63 78 64 45 65 29 66
REMARK SMILES IDX 30 67 38 68 31 69 32 70 36 71 39 72 33 73 34 74 37 75 35 76
REMARK SMILES IDX 61 77 62 78 70 79 63 80 64 81 68 82 71 83 65 84 66 85 69 86
REMARK SMILES IDX 67 87 46 88 47 89 55 90 48 91 49 92 53 93 56 94 50 95 51 96
REMARK SMILES IDX 54 97 52 98
REMARK H PARENT 13 5 17 32 76 51 44 62
REMARK Flexibility Score: inf
ROOT
ATOM      1  C   UNL A   1      32.799  26.563  26.056  1.00  0.00     0.117 C 
ENDROOT
BRANCH   1   2
ATOM      2  N   UNL A   1      31.980  25.521  26.651  1.00  0.00    -0.356 N 
ATOM      3  C   UNL A   1      32.175  24.176  26.773  1.00  0.00     0.220 C 
ATOM      4  O   UNL A   1      31.426  23.549  27.525  1.00  0.00    -0.275 OA
ATOM      5  H   UNL A   1      31.132  25.843  27.035  1.00  0.00     0.163 HD
BRANCH   3   6
ATOM      6  C   UNL A   1      33.277  23.468  26.010  1.00  0.00     0.105 C 
BRANCH   6   7
ATOM      7  C   UNL A   1      32.905  22.027  25.647  1.00  0.00     0.048 C 
BRANCH   7   8
ATOM      8  C   UNL A   1      32.323  21.888  24.229  1.00  0.00    -0.011 C 
ATOM      9  C   UNL A   1      32.292  20.708  23.555  1.00  0.00     0.015 C 
BRANCH   9  10
ATOM     10  C   UNL A   1      32.731  19.358  23.999  1.00  0.00    -0.022 A 
ATOM     11  C   UNL A   1      33.465  16.712  24.741  1.00  0.00     0.154 A 
ATOM     12  C   UNL A   1      32.848  17.562  25.653  1.00  0.00     0.050 A 
ATOM     13  C   UNL A   1      33.691  17.178  23.447  1.00  0.00     0.165 A 
ATOM     14  C   UNL A   1      32.465  18.857  25.278  1.00  0.00     0.012 A 
ATOM     15  C   UNL A   1      33.336  18.486  23.078  1.00  0.00     0.051 A 
ATOM     16  F   UNL A   1      34.206  16.373  22.505  1.00  0.00    -0.203 F 
BRANCH  11  17
ATOM     17  O   UNL A   1      33.690  15.443  25.195  1.00  0.00    -0.494 OA
ATOM     18  C   UNL A   1      32.527  14.706  25.554  1.00  0.00     0.278 C 
ENDBRANCH  11  17
ENDBRANCH   9  10
BRANCH   8  19
ATOM     19  C   UNL A   1      31.915  23.134  23.593  1.00  0.00     0.120 A 
ATOM     20  N   UNL A   1      30.745  23.669  23.878  1.00  0.00    -0.236 NA
ATOM     21  S   UNL A   1      32.833  24.104  22.490  1.00  0.00    -0.114 S 
ATOM     22  C   UNL A   1      30.643  24.963  23.454  1.00  0.00     0.082 A 
ATOM     23  C   UNL A   1      31.692  25.399  22.653  1.00  0.00     0.055 A 
ATOM     24  C   UNL A   1      29.608  25.849  23.804  1.00  0.00     0.030 A 
ATOM     25  C   UNL A   1      31.715  26.710  22.151  1.00  0.00     0.021 A 
ATOM     26  C   UNL A   1      29.656  27.170  23.366  1.00  0.00     0.002 A 
ATOM     27  C   UNL A   1      30.697  27.593  22.543  1.00  0.00     0.002 A 
ENDBRANCH   8  19
ENDBRANCH   7   8
ENDBRANCH   6   7
ENDBRANCH   3   6
ENDBRANCH   1   2
BRANCH   1  28
ATOM     28  C   UNL A   1      32.147  27.948  26.011  1.00  0.00     0.042 C 
BRANCH  28  29
ATOM     29  C   UNL A   1      33.002  29.077  25.424  1.00  0.00     0.118 C 
BRANCH  29  30
ATOM     30  N   UNL A   1      32.607  30.396  25.901  1.00  0.00    -0.352 N 
ATOM     31  C   UNL A   1      33.121  31.189  26.897  1.00  0.00     0.251 C 
ATOM     32  H   UNL A   1      31.838  30.786  25.426  1.00  0.00     0.163 HD
ATOM     33  O   UNL A   1      32.501  32.211  27.213  1.00  0.00    -0.269 OA
BRANCH  31  34
ATOM     34  C   UNL A   1      34.377  30.872  27.627  1.00  0.00     0.039 A 
ATOM     35  C   UNL A   1      35.378  31.850  27.687  1.00  0.00     0.014 A 
ATOM     36  C   UNL A   1      34.645  29.607  28.157  1.00  0.00     0.014 A 
ATOM     37  C   UNL A   1      36.601  31.586  28.320  1.00  0.00     0.010 A 
ATOM     38  C   UNL A   1      35.851  29.359  28.836  1.00  0.00     0.010 A 
ATOM     39  C   UNL A   1      36.844  30.346  28.933  1.00  0.00    -0.014 A 
BRANCH  39  40
ATOM     40  C   UNL A   1      38.110  30.102  29.693  1.00  0.00     0.031 A 
ATOM     41  C   UNL A   1      38.319  30.650  31.081  1.00  0.00     0.074 A 
ATOM     42  C   UNL A   1      39.104  29.390  29.122  1.00  0.00     0.049 A 
ATOM     43  N   UNL A   1      39.358  30.522  31.873  1.00  0.00    -0.248 NA
ATOM     44  C   UNL A   1      37.232  31.457  31.653  1.00  0.00     0.031 C 
ATOM     45  C   UNL A   1      39.068  28.826  27.773  1.00  0.00     0.029 A 
ATOM     46  N   UNL A   1      40.337  29.015  29.605  1.00  0.00    -0.354 N 
ATOM     47  C   UNL A   1      39.052  31.229  33.029  1.00  0.00     0.074 A 
ATOM     48  C   UNL A   1      37.749  31.824  32.820  1.00  0.00     0.031 C 
ATOM     49  C   UNL A   1      40.205  28.149  27.550  1.00  0.00     0.029 A 
ATOM     50  C   UNL A   1      41.071  28.259  28.721  1.00  0.00     0.049 A 
ATOM     51  H   UNL A   1      40.664  29.264  30.500  1.00  0.00     0.167 HD
ATOM     52  C   UNL A   1      39.776  31.354  34.168  1.00  0.00     0.037 A 
ATOM     53  C   UNL A   1      42.299  27.713  28.831  1.00  0.00     0.037 A 
ATOM     54  C   UNL A   1      41.061  30.743  34.405  1.00  0.00     0.049 A 
ATOM     55  C   UNL A   1      43.091  27.885  30.098  1.00  0.00     0.074 A 
ATOM     56  C   UNL A   1      41.823  30.765  35.562  1.00  0.00     0.029 A 
ATOM     57  N   UNL A   1      41.775  30.007  33.474  1.00  0.00    -0.354 N 
ATOM     58  N   UNL A   1      42.758  28.504  31.202  1.00  0.00    -0.248 NA
ATOM     59  C   UNL A   1      44.433  27.280  30.133  1.00  0.00     0.031 C 
ATOM     60  C   UNL A   1      43.017  30.084  35.317  1.00  0.00     0.029 A 
ATOM     61  C   UNL A   1      42.981  29.595  34.023  1.00  0.00     0.049 A 
ATOM     62  H   UNL A   1      41.473  29.807  32.559  1.00  0.00     0.167 HD
ATOM     63  C   UNL A   1      43.833  28.348  32.067  1.00  0.00     0.074 A 
ATOM     64  C   UNL A   1      44.829  27.567  31.367  1.00  0.00     0.031 C 
ATOM     65  C   UNL A   1      43.974  28.816  33.330  1.00  0.00     0.037 A 
BRANCH  52  66
ATOM     66  C   UNL A   1      39.197  32.172  35.286  1.00  0.00     0.064 A 
ATOM     67  C   UNL A   1      39.496  33.539  35.399  1.00  0.00     0.173 A 
ATOM     68  C   UNL A   1      38.434  31.580  36.302  1.00  0.00     0.173 A 
ATOM     69  F   UNL A   1      40.235  34.149  34.460  1.00  0.00    -0.203 F 
ATOM     70  C   UNL A   1      39.063  34.278  36.497  1.00  0.00     0.198 A 
ATOM     71  C   UNL A   1      37.982  32.328  37.386  1.00  0.00     0.198 A 
ATOM     72  F   UNL A   1      38.120  30.277  36.239  1.00  0.00    -0.203 F 
ATOM     73  F   UNL A   1      39.391  35.573  36.602  1.00  0.00    -0.200 F 
ATOM     74  C   UNL A   1      38.305  33.674  37.487  1.00  0.00     0.200 A 
ATOM     75  F   UNL A   1      37.235  31.747  38.335  1.00  0.00    -0.200 F 
ATOM     76  F   UNL A   1      37.886  34.387  38.542  1.00  0.00    -0.200 F 
ENDBRANCH  52  66
BRANCH  53  77
ATOM     77  C   UNL A   1      42.846  26.917  27.703  1.00  0.00     0.064 A 
ATOM     78  C   UNL A   1      43.676  27.500  26.735  1.00  0.00     0.173 A 
ATOM     79  C   UNL A   1      42.527  25.560  27.560  1.00  0.00     0.173 A 
ATOM     80  F   UNL A   1      44.009  28.795  26.829  1.00  0.00    -0.203 F 
ATOM     81  C   UNL A   1      44.149  26.759  25.654  1.00  0.00     0.198 A 
ATOM     82  C   UNL A   1      43.021  24.814  26.493  1.00  0.00     0.198 A 
ATOM     83  F   UNL A   1      41.756  24.955  28.476  1.00  0.00    -0.203 F 
ATOM     84  F   UNL A   1      44.915  27.347  24.725  1.00  0.00    -0.200 F 
ATOM     85  C   UNL A   1      43.824  25.416  25.537  1.00  0.00     0.200 A 
ATOM     86  F   UNL A   1      42.724  23.511  26.395  1.00  0.00    -0.200 F 
ATOM     87  F   UNL A   1      44.287  24.702  24.502  1.00  0.00    -0.200 F 
ENDBRANCH  53  77
BRANCH  65  88
ATOM     88  C   UNL A   1      45.244  28.493  34.063  1.00  0.00     0.064 A 
ATOM     89  C   UNL A   1      45.350  27.316  34.821  1.00  0.00     0.173 A 
ATOM     90  C   UNL A   1      46.322  29.389  34.087  1.00  0.00     0.173 A 
ATOM     91  F   UNL A   1      44.344  26.430  34.838  1.00  0.00    -0.203 F 
ATOM     92  C   UNL A   1      46.482  27.057  35.589  1.00  0.00     0.198 A 
ATOM     93  C   UNL A   1      47.464  29.115  34.837  1.00  0.00     0.198 A 
ATOM     94  F   UNL A   1      46.275  30.521  33.369  1.00  0.00    -0.203 F 
ATOM     95  F   UNL A   1      46.548  25.943  36.331  1.00  0.00    -0.200 F 
ATOM     96  C   UNL A   1      47.539  27.956  35.595  1.00  0.00     0.200 A 
ATOM     97  F   UNL A   1      48.492  29.974  34.827  1.00  0.00    -0.200 F 
ATOM     98  F   UNL A   1      48.630  27.704  36.332  1.00  0.00    -0.200 F 
ENDBRANCH  65  88
ENDBRANCH  39  40
ENDBRANCH  31  34
ENDBRANCH  29  30
ENDBRANCH  28  29
ENDBRANCH   1  28
TORSDOF 15
ENDMDL
MODEL 3
REMARK VINA RESULT:     -12.5      1.725      8.261
REMARK SMILES COc1ccc(/C=C(\CCC(=O)NCCCNC(=O)c2ccc(-c3c4nc(c(-c5c(F)c(F)c(F)c(F)c5F)c5ccc([nH]5)c(-c5c(F)c(F)c(F)c(F)c5F)c5nc(c(-c6c(F)c(F)c(F)c(F)c6F)c6ccc3[nH]6)C=C5)C=C4)cc2)c2nc3ccccc3s2)cc1F
REMARK SMILES IDX 14 1 13 2 11 3 12 4 10 6 9 7 8 8 7 9 6 10 3 11 4 12 93 13
REMARK SMILES IDX 5 14 92 15 94 16 2 17 1 18 83 19 84 20 91 21 85 22 90 23
REMARK SMILES IDX 86 24 89 25 87 26 88 27 15 28 16 29 17 30 18 31 19 33 20 34
REMARK SMILES IDX 21 35 82 36 22 37 81 38 23 39 24 40 25 41 75 42 26 43 80 44
REMARK SMILES IDX 74 45 76 46 27 47 79 48 73 49 72 50 28 52 60 53 40 54 59 55
REMARK SMILES IDX 41 56 44 57 58 58 77 59 42 60 43 61 57 63 78 64 45 65 29 66
REMARK SMILES IDX 30 67 38 68 31 69 32 70 36 71 39 72 33 73 34 74 37 75 35 76
REMARK SMILES IDX 61 77 62 78 70 79 63 80 64 81 68 82 71 83 65 84 66 85 69 86
REMARK SMILES IDX 67 87 46 88 47 89 55 90 48 91 49 92 53 93 56 94 50 95 51 96
REMARK SMILES IDX 54 97 52 98
REMARK H PARENT 13 5 17 32 76 51 44 62
REMARK Flexibility Score: inf
ROOT
ATOM      1  C   UNL A   1      32.761  26.456  25.988  1.00  0.00     0.117 C 
ENDROOT
BRANCH   1   2
ATOM      2  N   UNL A   1      31.947  25.449  26.648  1.00  0.00    -0.356 N 
ATOM      3  C   UNL A   1      32.123  24.106  26.806  1.00  0.00     0.220 C 
ATOM      4  O   UNL A   1      31.391  23.518  27.607  1.00  0.00    -0.275 OA
ATOM      5  H   UNL A   1      31.120  25.800  27.052  1.00  0.00     0.163 HD
BRANCH   3   6
ATOM      6  C   UNL A   1      33.182  23.352  26.027  1.00  0.00     0.105 C 
BRANCH   6   7
ATOM      7  C   UNL A   1      32.741  21.931  25.663  1.00  0.00     0.048 C 
BRANCH   7   8
ATOM      8  C   UNL A   1      32.265  21.795  24.206  1.00  0.00    -0.011 C 
ATOM      9  C   UNL A   1      32.310  20.624  23.519  1.00  0.00     0.015 C 
BRANCH   9  10
ATOM     10  C   UNL A   1      32.747  19.279  23.980  1.00  0.00    -0.022 A 
ATOM     11  C   UNL A   1      33.478  16.642  24.755  1.00  0.00     0.154 A 
ATOM     12  C   UNL A   1      32.879  17.510  25.661  1.00  0.00     0.050 A 
ATOM     13  C   UNL A   1      33.688  17.084  23.450  1.00  0.00     0.165 A 
ATOM     14  C   UNL A   1      32.497  18.800  25.270  1.00  0.00     0.012 A 
ATOM     15  C   UNL A   1      33.335  18.388  23.065  1.00  0.00     0.051 A 
ATOM     16  F   UNL A   1      34.185  16.261  22.515  1.00  0.00    -0.203 F 
BRANCH  11  17
ATOM     17  O   UNL A   1      33.703  15.378  25.227  1.00  0.00    -0.494 OA
ATOM     18  C   UNL A   1      32.538  14.630  25.551  1.00  0.00     0.278 C 
ENDBRANCH  11  17
ENDBRANCH   9  10
BRANCH   8  19
ATOM     19  C   UNL A   1      31.874  23.040  23.556  1.00  0.00     0.120 A 
ATOM     20  N   UNL A   1      30.722  23.606  23.851  1.00  0.00    -0.236 NA
ATOM     21  S   UNL A   1      32.794  23.969  22.420  1.00  0.00    -0.114 S 
ATOM     22  C   UNL A   1      30.642  24.895  23.406  1.00  0.00     0.082 A 
ATOM     23  C   UNL A   1      31.685  25.292  22.579  1.00  0.00     0.055 A 
ATOM     24  C   UNL A   1      29.633  25.810  23.759  1.00  0.00     0.030 A 
ATOM     25  C   UNL A   1      31.729  26.594  22.054  1.00  0.00     0.021 A 
ATOM     26  C   UNL A   1      29.704  27.123  23.297  1.00  0.00     0.002 A 
ATOM     27  C   UNL A   1      30.738  27.506  22.449  1.00  0.00     0.002 A 
ENDBRANCH   8  19
ENDBRANCH   7   8
ENDBRANCH   6   7
ENDBRANCH   3   6
ENDBRANCH   1   2
BRANCH   1  28
ATOM     28  C   UNL A   1      32.108  27.836  25.869  1.00  0.00     0.042 C 
BRANCH  28  29
ATOM     29  C   UNL A   1      32.985  28.948  25.282  1.00  0.00     0.118 C 
BRANCH  29  30
ATOM     30  N   UNL A   1      32.618  30.274  25.761  1.00  0.00    -0.352 N 
ATOM     31  C   UNL A   1      33.126  31.038  26.784  1.00  0.00     0.251 C 
ATOM     32  H   UNL A   1      31.879  30.695  25.267  1.00  0.00     0.163 HD
ATOM     33  O   UNL A   1      32.530  32.077  27.092  1.00  0.00    -0.269 OA
BRANCH  31  34
ATOM     34  C   UNL A   1      34.345  30.670  27.551  1.00  0.00     0.039 A 
ATOM     35  C   UNL A   1      35.342  31.639  27.721  1.00  0.00     0.014 A 
ATOM     36  C   UNL A   1      34.588  29.373  28.010  1.00  0.00     0.014 A 
ATOM     37  C   UNL A   1      36.534  31.330  28.393  1.00  0.00     0.010 A 
ATOM     38  C   UNL A   1      35.760  29.078  28.728  1.00  0.00     0.010 A 
ATOM     39  C   UNL A   1      36.747  30.053  28.935  1.00  0.00    -0.014 A 
BRANCH  39  40
ATOM     40  C   UNL A   1      37.975  29.756  29.737  1.00  0.00     0.031 A 
ATOM     41  C   UNL A   1      39.061  28.848  29.217  1.00  0.00     0.074 A 
ATOM     42  C   UNL A   1      38.117  30.295  30.966  1.00  0.00     0.049 A 
ATOM     43  N   UNL A   1      40.188  28.495  29.790  1.00  0.00    -0.248 NA
ATOM     44  C   UNL A   1      38.852  28.245  27.893  1.00  0.00     0.031 C 
ATOM     45  C   UNL A   1      37.139  31.162  31.622  1.00  0.00     0.029 A 
ATOM     46  N   UNL A   1      39.140  30.197  31.882  1.00  0.00    -0.354 N 
ATOM     47  C   UNL A   1      40.819  27.633  28.901  1.00  0.00     0.074 A 
ATOM     48  C   UNL A   1      39.929  27.478  27.769  1.00  0.00     0.031 C 
ATOM     49  C   UNL A   1      37.622  31.545  32.814  1.00  0.00     0.029 A 
ATOM     50  C   UNL A   1      38.926  30.924  33.029  1.00  0.00     0.049 A 
ATOM     51  H   UNL A   1      39.949  29.657  31.729  1.00  0.00     0.167 HD
ATOM     52  C   UNL A   1      42.035  27.044  29.004  1.00  0.00     0.037 A 
ATOM     53  C   UNL A   1      39.685  31.078  34.133  1.00  0.00     0.037 A 
ATOM     54  C   UNL A   1      42.947  27.212  30.108  1.00  0.00     0.049 A 
ATOM     55  C   UNL A   1      41.022  30.395  34.232  1.00  0.00     0.074 A 
ATOM     56  C   UNL A   1      44.229  26.704  30.250  1.00  0.00     0.029 A 
ATOM     57  N   UNL A   1      42.678  27.937  31.258  1.00  0.00    -0.354 N 
ATOM     58  N   UNL A   1      41.627  29.635  33.355  1.00  0.00    -0.248 NA
ATOM     59  C   UNL A   1      41.781  30.592  35.477  1.00  0.00     0.031 C 
ATOM     60  C   UNL A   1      44.717  27.081  31.503  1.00  0.00     0.029 A 
ATOM     61  C   UNL A   1      43.760  27.865  32.124  1.00  0.00     0.049 A 
ATOM     62  H   UNL A   1      41.845  28.430  31.434  1.00  0.00     0.167 HD
ATOM     63  C   UNL A   1      42.841  29.281  33.929  1.00  0.00     0.074 A 
ATOM     64  C   UNL A   1      42.895  29.916  35.227  1.00  0.00     0.031 C 
ATOM     65  C   UNL A   1      43.819  28.496  33.417  1.00  0.00     0.037 A 
BRANCH  52  66
ATOM     66  C   UNL A   1      42.488  26.161  27.877  1.00  0.00     0.064 A 
ATOM     67  C   UNL A   1      43.300  26.672  26.853  1.00  0.00     0.173 A 
ATOM     68  C   UNL A   1      42.032  24.841  27.758  1.00  0.00     0.173 A 
ATOM     69  F   UNL A   1      43.750  27.933  26.912  1.00  0.00    -0.203 F 
ATOM     70  C   UNL A   1      43.625  25.895  25.742  1.00  0.00     0.198 A 
ATOM     71  C   UNL A   1      42.379  24.059  26.659  1.00  0.00     0.198 A 
ATOM     72  F   UNL A   1      41.254  24.306  28.712  1.00  0.00    -0.203 F 
ATOM     73  F   UNL A   1      44.371  26.416  24.759  1.00  0.00    -0.200 F 
ATOM     74  C   UNL A   1      43.167  24.590  25.648  1.00  0.00     0.200 A 
ATOM     75  F   UNL A   1      41.950  22.793  26.576  1.00  0.00    -0.200 F 
ATOM     76  F   UNL A   1      43.483  23.843  24.581  1.00  0.00    -0.200 F 
ENDBRANCH  52  66
BRANCH  53  77
ATOM     77  C   UNL A   1      39.203  31.952  35.233  1.00  0.00     0.064 A 
ATOM     78  C   UNL A   1      38.461  31.433  36.304  1.00  0.00     0.173 A 
ATOM     79  C   UNL A   1      39.456  33.330  35.219  1.00  0.00     0.173 A 
ATOM     80  F   UNL A   1      38.193  30.120  36.361  1.00  0.00    -0.203 F 
ATOM     81  C   UNL A   1      37.973  32.265  37.309  1.00  0.00     0.198 A 
ATOM     82  C   UNL A   1      38.989  34.157  36.237  1.00  0.00     0.198 A 
ATOM     83  F   UNL A   1      40.183  33.866  34.227  1.00  0.00    -0.203 F 
ATOM     84  F   UNL A   1      37.239  31.749  38.304  1.00  0.00    -0.200 F 
ATOM     85  C   UNL A   1      38.240  33.625  37.276  1.00  0.00     0.200 A 
ATOM     86  F   UNL A   1      39.269  35.467  36.215  1.00  0.00    -0.200 F 
ATOM     87  F   UNL A   1      37.778  34.423  38.248  1.00  0.00    -0.200 F 
ENDBRANCH  53  77
BRANCH  65  88
ATOM     88  C   UNL A   1      45.053  28.279  34.244  1.00  0.00     0.064 A 
ATOM     89  C   UNL A   1      46.163  29.126  34.105  1.00  0.00     0.173 A 
ATOM     90  C   UNL A   1      45.168  27.182  35.110  1.00  0.00     0.173 A 
ATOM     91  F   UNL A   1      46.107  30.185  33.284  1.00  0.00    -0.203 F 
ATOM     92  C   UNL A   1      47.349  28.872  34.788  1.00  0.00     0.198 A 
ATOM     93  C   UNL A   1      46.348  26.945  35.812  1.00  0.00     0.198 A 
ATOM     94  F   UNL A   1      44.130  26.351  35.288  1.00  0.00    -0.203 F 
ATOM     95  F   UNL A   1      48.408  29.676  34.614  1.00  0.00    -0.200 F 
ATOM     96  C   UNL A   1      47.440  27.783  35.643  1.00  0.00     0.200 A 
ATOM     97  F   UNL A   1      46.428  25.904  36.651  1.00  0.00    -0.200 F 
ATOM     98  F   UNL A   1      48.581  27.542  36.303  1.00  0.00    -0.200 F 
ENDBRANCH  65  88
ENDBRANCH  39  40
ENDBRANCH  31  34
ENDBRANCH  29  30
ENDBRANCH  28  29
ENDBRANCH   1  28
TORSDOF 15
ENDMDL
