MODEL 1
REMARK VINA RESULT:     -14.3      0.000      0.000
REMARK SMILES CCc1cc(N2CCC[C@H](C(=O)NCCCNC(=O)c3ccc(-c4c5nc(c(-c6c(F)c(F)c(F)c(F)c6F)c6ccc([nH]6)c(-c6c(F)c(F)c(F)c(F)c6F)c6nc(c(-c7c(F)c(F)c(F)c(F)c7F)c7ccc4[nH]7)C=C6)C=C5)cc3)C2)nc(-c2ccc(Cl)cc2)n1
REMARK SMILES IDX 15 1 14 2 13 3 11 4 12 5 10 7 6 8 7 9 83 10 8 11 9 12 5 13
REMARK SMILES IDX 3 14 4 15 93 16 85 17 84 18 2 19 1 20 86 21 87 22 92 23
REMARK SMILES IDX 88 24 91 25 89 26 90 27 16 28 17 29 18 30 19 32 20 33 21 34
REMARK SMILES IDX 82 35 22 36 81 37 23 38 24 39 25 40 75 41 26 42 80 43 74 44
REMARK SMILES IDX 76 45 27 46 79 47 73 48 72 49 28 51 60 52 40 53 59 54 41 55
REMARK SMILES IDX 44 56 58 57 77 58 42 59 43 60 57 62 78 63 45 64 29 65 30 66
REMARK SMILES IDX 38 67 31 68 32 69 36 70 39 71 33 72 34 73 37 74 35 75 61 76
REMARK SMILES IDX 62 77 70 78 63 79 64 80 68 81 71 82 65 83 66 84 69 85 67 86
REMARK SMILES IDX 46 87 47 88 55 89 48 90 49 91 53 92 56 93 50 94 51 95 54 96
REMARK SMILES IDX 52 97
REMARK H PARENT 13 6 17 31 76 50 44 61
REMARK Flexibility Score: inf
ROOT
ATOM      1  C   UNL A   1      31.405  30.054  25.376  1.00  0.00     0.042 C 
ENDROOT
BRANCH   1   2
ATOM      2  C   UNL A   1      31.382  28.627  24.865  1.00  0.00     0.117 C 
BRANCH   2   3
ATOM      3  N   UNL A   1      32.425  27.785  25.393  1.00  0.00    -0.356 N 
ATOM      4  C   UNL A   1      32.885  26.596  24.932  1.00  0.00     0.224 C 
ATOM      5  O   UNL A   1      34.042  26.295  25.252  1.00  0.00    -0.275 OA
ATOM      6  H   UNL A   1      32.867  28.122  26.205  1.00  0.00     0.163 HD
BRANCH   4   7
ATOM      7  C   UNL A   1      32.064  25.627  24.080  1.00  0.00     0.098 C 
ATOM      8  N   UNL A   1      33.295  23.558  23.621  1.00  0.00    -0.356 N 
ATOM      9  C   UNL A   1      33.148  23.589  22.176  1.00  0.00     0.118 C 
ATOM     10  C   UNL A   1      32.259  24.160  24.440  1.00  0.00     0.131 C 
ATOM     11  C   UNL A   1      32.903  25.020  21.682  1.00  0.00     0.022 C 
ATOM     12  C   UNL A   1      32.041  25.918  22.576  1.00  0.00     0.017 C 
BRANCH   8  13
ATOM     13  C   UNL A   1      34.149  22.646  24.215  1.00  0.00     0.132 A 
ATOM     14  C   UNL A   1      36.306  21.974  24.924  1.00  0.00     0.046 A 
ATOM     15  C   UNL A   1      35.469  22.975  24.465  1.00  0.00     0.070 A 
ATOM     16  N   UNL A   1      35.861  20.719  25.122  1.00  0.00    -0.233 NA
ATOM     17  C   UNL A   1      34.572  20.479  24.844  1.00  0.00     0.161 A 
ATOM     18  N   UNL A   1      33.688  21.398  24.408  1.00  0.00    -0.211 NA
BRANCH  14  19
ATOM     19  C   UNL A   1      37.784  22.160  25.145  1.00  0.00     0.053 C 
ATOM     20  C   UNL A   1      38.201  23.245  26.126  1.00  0.00     0.011 C 
ENDBRANCH  14  19
BRANCH  17  21
ATOM     21  C   UNL A   1      34.130  19.082  24.915  1.00  0.00     0.019 A 
ATOM     22  C   UNL A   1      34.963  18.037  24.484  1.00  0.00     0.013 A 
ATOM     23  C   UNL A   1      32.860  18.746  25.420  1.00  0.00     0.013 A 
ATOM     24  C   UNL A   1      34.569  16.698  24.612  1.00  0.00     0.021 A 
ATOM     25  C   UNL A   1      32.459  17.412  25.546  1.00  0.00     0.021 A 
ATOM     26  C   UNL A   1      33.325  16.393  25.157  1.00  0.00     0.041 A 
ATOM     27  Cl  UNL A   1      32.862  14.751  25.376  1.00  0.00    -0.084 Cl
ENDBRANCH  17  21
ENDBRANCH   8  13
ENDBRANCH   4   7
ENDBRANCH   2   3
ENDBRANCH   1   2
BRANCH   1  28
ATOM     28  C   UNL A   1      32.373  30.208  26.535  1.00  0.00     0.118 C 
BRANCH  28  29
ATOM     29  N   UNL A   1      32.430  31.538  27.118  1.00  0.00    -0.352 N 
ATOM     30  C   UNL A   1      33.486  32.217  27.691  1.00  0.00     0.251 C 
ATOM     31  H   UNL A   1      31.578  32.033  27.103  1.00  0.00     0.163 HD
ATOM     32  O   UNL A   1      33.284  33.310  28.200  1.00  0.00    -0.269 OA
BRANCH  30  33
ATOM     33  C   UNL A   1      34.835  31.601  27.816  1.00  0.00     0.039 A 
ATOM     34  C   UNL A   1      35.917  32.472  27.984  1.00  0.00     0.014 A 
ATOM     35  C   UNL A   1      35.053  30.228  27.905  1.00  0.00     0.014 A 
ATOM     36  C   UNL A   1      37.142  31.981  28.426  1.00  0.00     0.010 A 
ATOM     37  C   UNL A   1      36.218  29.752  28.488  1.00  0.00     0.010 A 
ATOM     38  C   UNL A   1      37.258  30.633  28.791  1.00  0.00    -0.014 A 
BRANCH  38  39
ATOM     39  C   UNL A   1      38.421  30.176  29.583  1.00  0.00     0.031 A 
ATOM     40  C   UNL A   1      38.612  30.629  30.997  1.00  0.00     0.074 A 
ATOM     41  C   UNL A   1      39.330  29.386  28.976  1.00  0.00     0.049 A 
ATOM     42  N   UNL A   1      39.538  30.282  31.852  1.00  0.00    -0.248 NA
ATOM     43  C   UNL A   1      37.667  31.633  31.512  1.00  0.00     0.031 C 
ATOM     44  C   UNL A   1      39.294  28.987  27.565  1.00  0.00     0.029 A 
ATOM     45  N   UNL A   1      40.446  28.758  29.464  1.00  0.00    -0.354 N 
ATOM     46  C   UNL A   1      39.286  31.021  32.998  1.00  0.00     0.074 A 
ATOM     47  C   UNL A   1      38.172  31.895  32.706  1.00  0.00     0.031 C 
ATOM     48  C   UNL A   1      40.292  28.126  27.322  1.00  0.00     0.029 A 
ATOM     49  C   UNL A   1      41.060  27.940  28.546  1.00  0.00     0.049 A 
ATOM     50  H   UNL A   1      40.776  28.883  30.383  1.00  0.00     0.167 HD
ATOM     51  C   UNL A   1      39.907  30.944  34.198  1.00  0.00     0.037 A 
ATOM     52  C   UNL A   1      42.112  27.114  28.690  1.00  0.00     0.037 A 
ATOM     53  C   UNL A   1      41.001  30.051  34.470  1.00  0.00     0.049 A 
ATOM     54  C   UNL A   1      42.753  27.013  30.045  1.00  0.00     0.074 A 
ATOM     55  C   UNL A   1      41.672  29.839  35.660  1.00  0.00     0.029 A 
ATOM     56  N   UNL A   1      41.587  29.217  33.525  1.00  0.00    -0.354 N 
ATOM     57  N   UNL A   1      42.442  27.639  31.154  1.00  0.00    -0.248 NA
ATOM     58  C   UNL A   1      43.881  26.083  30.173  1.00  0.00     0.031 C 
ATOM     59  C   UNL A   1      42.692  28.910  35.425  1.00  0.00     0.029 A 
ATOM     60  C   UNL A   1      42.625  28.504  34.101  1.00  0.00     0.049 A 
ATOM     61  H   UNL A   1      41.304  29.144  32.585  1.00  0.00     0.167 HD
ATOM     62  C   UNL A   1      43.325  27.173  32.116  1.00  0.00     0.074 A 
ATOM     63  C   UNL A   1      44.161  26.184  31.464  1.00  0.00     0.031 C 
ATOM     64  C   UNL A   1      43.444  27.534  33.418  1.00  0.00     0.037 A 
BRANCH  51  65
ATOM     65  C   UNL A   1      39.404  31.838  35.293  1.00  0.00     0.064 A 
ATOM     66  C   UNL A   1      39.802  33.182  35.390  1.00  0.00     0.173 A 
ATOM     67  C   UNL A   1      38.508  31.353  36.258  1.00  0.00     0.173 A 
ATOM     68  F   UNL A   1      40.670  33.693  34.503  1.00  0.00    -0.203 F 
ATOM     69  C   UNL A   1      39.354  33.992  36.429  1.00  0.00     0.198 A 
ATOM     70  C   UNL A   1      38.036  32.176  37.277  1.00  0.00     0.198 A 
ATOM     71  F   UNL A   1      38.093  30.078  36.215  1.00  0.00    -0.203 F 
ATOM     72  F   UNL A   1      39.797  35.253  36.532  1.00  0.00    -0.200 F 
ATOM     73  C   UNL A   1      38.466  33.492  37.368  1.00  0.00     0.200 A 
ATOM     74  F   UNL A   1      37.171  31.693  38.180  1.00  0.00    -0.200 F 
ATOM     75  F   UNL A   1      38.034  34.273  38.367  1.00  0.00    -0.200 F 
ENDBRANCH  51  65
BRANCH  52  76
ATOM     76  C   UNL A   1      42.579  26.288  27.543  1.00  0.00     0.064 A 
ATOM     77  C   UNL A   1      43.630  26.721  26.723  1.00  0.00     0.173 A 
ATOM     78  C   UNL A   1      41.993  25.049  27.249  1.00  0.00     0.173 A 
ATOM     79  F   UNL A   1      44.217  27.904  26.954  1.00  0.00    -0.203 F 
ATOM     80  C   UNL A   1      44.061  25.957  25.639  1.00  0.00     0.198 A 
ATOM     81  C   UNL A   1      42.444  24.272  26.183  1.00  0.00     0.198 A 
ATOM     82  F   UNL A   1      40.991  24.581  28.008  1.00  0.00    -0.203 F 
ATOM     83  F   UNL A   1      45.036  26.418  24.843  1.00  0.00    -0.200 F 
ATOM     84  C   UNL A   1      43.471  24.732  25.373  1.00  0.00     0.200 A 
ATOM     85  F   UNL A   1      41.883  23.079  25.940  1.00  0.00    -0.200 F 
ATOM     86  F   UNL A   1      43.887  23.997  24.333  1.00  0.00    -0.200 F 
ENDBRANCH  52  76
BRANCH  64  87
ATOM     87  C   UNL A   1      44.515  26.845  34.210  1.00  0.00     0.064 A 
ATOM     88  C   UNL A   1      45.802  27.390  34.330  1.00  0.00     0.173 A 
ATOM     89  C   UNL A   1      44.246  25.636  34.869  1.00  0.00     0.173 A 
ATOM     90  F   UNL A   1      46.111  28.537  33.704  1.00  0.00    -0.203 F 
ATOM     91  C   UNL A   1      46.791  26.731  35.053  1.00  0.00     0.198 A 
ATOM     92  C   UNL A   1      45.228  24.998  35.618  1.00  0.00     0.198 A 
ATOM     93  F   UNL A   1      43.028  25.078  34.791  1.00  0.00    -0.203 F 
ATOM     94  F   UNL A   1      48.030  27.239  35.103  1.00  0.00    -0.200 F 
ATOM     95  C   UNL A   1      46.503  25.540  35.700  1.00  0.00     0.200 A 
ATOM     96  F   UNL A   1      44.945  23.854  36.257  1.00  0.00    -0.200 F 
ATOM     97  F   UNL A   1      47.457  24.907  36.397  1.00  0.00    -0.200 F 
ENDBRANCH  64  87
ENDBRANCH  38  39
ENDBRANCH  30  33
ENDBRANCH  28  29
ENDBRANCH   1  28
TORSDOF 13
ENDMDL
MODEL 2
REMARK VINA RESULT:     -13.9      4.482     10.446
REMARK SMILES CCc1cc(N2CCC[C@H](C(=O)NCCCNC(=O)c3ccc(-c4c5nc(c(-c6c(F)c(F)c(F)c(F)c6F)c6ccc([nH]6)c(-c6c(F)c(F)c(F)c(F)c6F)c6nc(c(-c7c(F)c(F)c(F)c(F)c7F)c7ccc4[nH]7)C=C6)C=C5)cc3)C2)nc(-c2ccc(Cl)cc2)n1
REMARK SMILES IDX 15 1 14 2 13 3 11 4 12 5 10 7 6 8 7 9 83 10 8 11 9 12 5 13
REMARK SMILES IDX 3 14 4 15 93 16 85 17 84 18 2 19 1 20 86 21 87 22 92 23
REMARK SMILES IDX 88 24 91 25 89 26 90 27 16 28 17 29 18 30 19 32 20 33 21 34
REMARK SMILES IDX 82 35 22 36 81 37 23 38 24 39 25 40 75 41 26 42 80 43 74 44
REMARK SMILES IDX 76 45 27 46 79 47 73 48 72 49 28 51 60 52 40 53 59 54 41 55
REMARK SMILES IDX 44 56 58 57 77 58 42 59 43 60 57 62 78 63 45 64 29 65 30 66
REMARK SMILES IDX 38 67 31 68 32 69 36 70 39 71 33 72 34 73 37 74 35 75 61 76
REMARK SMILES IDX 62 77 70 78 63 79 64 80 68 81 71 82 65 83 66 84 69 85 67 86
REMARK SMILES IDX 46 87 47 88 55 89 48 90 49 91 53 92 56 93 50 94 51 95 54 96
REMARK SMILES IDX 52 97
REMARK H PARENT 13 6 17 31 76 50 44 61
REMARK Flexibility Score: inf
ROOT
ATOM      1  C   UNL A   1      36.069  20.600  25.001  1.00  0.00     0.042 C 
ENDROOT
BRANCH   1   2
ATOM      2  C   UNL A   1      34.793  21.416  24.938  1.00  0.00     0.117 C 
BRANCH   2   3
ATOM      3  N   UNL A   1      34.958  22.811  25.257  1.00  0.00    -0.356 N 
ATOM      4  C   UNL A   1      34.014  23.764  25.454  1.00  0.00     0.224 C 
ATOM      5  O   UNL A   1      34.352  24.734  26.144  1.00  0.00    -0.275 OA
ATOM      6  H   UNL A   1      35.889  23.115  25.344  1.00  0.00     0.163 HD
BRANCH   4   7
ATOM      7  C   UNL A   1      32.603  23.712  24.867  1.00  0.00     0.098 C 
ATOM      8  N   UNL A   1      31.393  25.813  25.234  1.00  0.00    -0.356 N 
ATOM      9  C   UNL A   1      30.218  25.225  25.856  1.00  0.00     0.118 C 
ATOM     10  C   UNL A   1      32.131  25.028  24.261  1.00  0.00     0.131 C 
ATOM     11  C   UNL A   1      30.552  23.863  26.476  1.00  0.00     0.022 C 
ATOM     12  C   UNL A   1      31.554  22.988  25.716  1.00  0.00     0.017 C 
BRANCH   8  13
ATOM     13  C   UNL A   1      31.572  27.184  25.238  1.00  0.00     0.132 A 
ATOM     14  C   UNL A   1      32.333  29.179  26.261  1.00  0.00     0.046 A 
ATOM     15  C   UNL A   1      32.315  27.796  26.230  1.00  0.00     0.070 A 
ATOM     16  N   UNL A   1      31.652  29.913  25.360  1.00  0.00    -0.233 NA
ATOM     17  C   UNL A   1      30.947  29.243  24.438  1.00  0.00     0.161 A 
ATOM     18  N   UNL A   1      30.886  27.902  24.330  1.00  0.00    -0.211 NA
BRANCH  14  19
ATOM     19  C   UNL A   1      33.015  29.979  27.338  1.00  0.00     0.053 C 
ATOM     20  C   UNL A   1      34.533  29.893  27.401  1.00  0.00     0.011 C 
ENDBRANCH  14  19
BRANCH  17  21
ATOM     21  C   UNL A   1      30.087  30.041  23.556  1.00  0.00     0.019 A 
ATOM     22  C   UNL A   1      29.427  31.186  24.032  1.00  0.00     0.013 A 
ATOM     23  C   UNL A   1      29.901  29.686  22.207  1.00  0.00     0.013 A 
ATOM     24  C   UNL A   1      28.660  31.987  23.175  1.00  0.00     0.021 A 
ATOM     25  C   UNL A   1      29.132  30.479  21.348  1.00  0.00     0.021 A 
ATOM     26  C   UNL A   1      28.530  31.636  21.834  1.00  0.00     0.041 A 
ATOM     27  Cl  UNL A   1      27.642  32.649  20.763  1.00  0.00    -0.084 Cl
ENDBRANCH  17  21
ENDBRANCH   8  13
ENDBRANCH   4   7
ENDBRANCH   2   3
ENDBRANCH   1   2
BRANCH   1  28
ATOM     28  C   UNL A   1      37.264  21.473  25.342  1.00  0.00     0.118 C 
BRANCH  28  29
ATOM     29  N   UNL A   1      38.529  20.767  25.459  1.00  0.00    -0.352 N 
ATOM     30  C   UNL A   1      39.687  21.116  26.125  1.00  0.00     0.251 C 
ATOM     31  H   UNL A   1      38.566  19.903  24.989  1.00  0.00     0.163 HD
ATOM     32  O   UNL A   1      40.672  20.400  26.018  1.00  0.00    -0.269 OA
BRANCH  30  33
ATOM     33  C   UNL A   1      39.806  22.402  26.864  1.00  0.00     0.039 A 
ATOM     34  C   UNL A   1      40.762  22.461  27.884  1.00  0.00     0.014 A 
ATOM     35  C   UNL A   1      39.122  23.563  26.512  1.00  0.00     0.014 A 
ATOM     36  C   UNL A   1      41.157  23.693  28.396  1.00  0.00     0.010 A 
ATOM     37  C   UNL A   1      39.614  24.799  26.905  1.00  0.00     0.010 A 
ATOM     38  C   UNL A   1      40.666  24.873  27.820  1.00  0.00    -0.014 A 
BRANCH  38  39
ATOM     39  C   UNL A   1      41.325  26.166  28.100  1.00  0.00     0.031 A 
ATOM     40  C   UNL A   1      42.715  26.440  27.615  1.00  0.00     0.074 A 
ATOM     41  C   UNL A   1      40.660  27.068  28.851  1.00  0.00     0.049 A 
ATOM     42  N   UNL A   1      43.420  27.536  27.719  1.00  0.00    -0.248 NA
ATOM     43  C   UNL A   1      43.426  25.330  26.962  1.00  0.00     0.031 C 
ATOM     44  C   UNL A   1      39.349  26.848  29.471  1.00  0.00     0.029 A 
ATOM     45  N   UNL A   1      40.976  28.353  29.206  1.00  0.00    -0.354 N 
ATOM     46  C   UNL A   1      44.649  27.247  27.146  1.00  0.00     0.074 A 
ATOM     47  C   UNL A   1      44.627  25.851  26.770  1.00  0.00     0.031 C 
ATOM     48  C   UNL A   1      38.942  27.980  30.062  1.00  0.00     0.029 A 
ATOM     49  C   UNL A   1      39.975  28.994  29.897  1.00  0.00     0.049 A 
ATOM     50  H   UNL A   1      41.838  28.777  28.987  1.00  0.00     0.167 HD
ATOM     51  C   UNL A   1      45.687  28.086  26.922  1.00  0.00     0.037 A 
ATOM     52  C   UNL A   1      39.897  30.266  30.327  1.00  0.00     0.037 A 
ATOM     53  C   UNL A   1      45.678  29.476  27.288  1.00  0.00     0.049 A 
ATOM     54  C   UNL A   1      41.043  31.188  30.022  1.00  0.00     0.074 A 
ATOM     55  C   UNL A   1      46.643  30.440  27.060  1.00  0.00     0.029 A 
ATOM     56  N   UNL A   1      44.639  30.102  27.967  1.00  0.00    -0.354 N 
ATOM     57  N   UNL A   1      42.162  30.934  29.387  1.00  0.00    -0.248 NA
ATOM     58  C   UNL A   1      40.913  32.576  30.481  1.00  0.00     0.031 C 
ATOM     59  C   UNL A   1      46.208  31.637  27.640  1.00  0.00     0.029 A 
ATOM     60  C   UNL A   1      44.949  31.434  28.185  1.00  0.00     0.049 A 
ATOM     61  H   UNL A   1      43.806  29.662  28.252  1.00  0.00     0.167 HD
ATOM     62  C   UNL A   1      42.865  32.128  29.357  1.00  0.00     0.074 A 
ATOM     63  C   UNL A   1      42.027  33.116  30.009  1.00  0.00     0.031 C 
ATOM     64  C   UNL A   1      44.095  32.388  28.848  1.00  0.00     0.037 A 
BRANCH  51  65
ATOM     65  C   UNL A   1      46.898  27.517  26.241  1.00  0.00     0.064 A 
ATOM     66  C   UNL A   1      47.940  26.920  26.970  1.00  0.00     0.173 A 
ATOM     67  C   UNL A   1      47.021  27.563  24.845  1.00  0.00     0.173 A 
ATOM     68  F   UNL A   1      47.881  26.864  28.309  1.00  0.00    -0.203 F 
ATOM     69  C   UNL A   1      49.073  26.425  26.330  1.00  0.00     0.198 A 
ATOM     70  C   UNL A   1      48.142  27.037  24.205  1.00  0.00     0.198 A 
ATOM     71  F   UNL A   1      46.057  28.122  24.099  1.00  0.00    -0.203 F 
ATOM     72  F   UNL A   1      50.080  25.915  27.053  1.00  0.00    -0.200 F 
ATOM     73  C   UNL A   1      49.171  26.478  24.949  1.00  0.00     0.200 A 
ATOM     74  F   UNL A   1      48.231  27.081  22.869  1.00  0.00    -0.200 F 
ATOM     75  F   UNL A   1      50.261  26.000  24.334  1.00  0.00    -0.200 F 
ENDBRANCH  51  65
BRANCH  52  76
ATOM     76  C   UNL A   1      38.677  30.746  31.031  1.00  0.00     0.064 A 
ATOM     77  C   UNL A   1      38.607  30.749  32.431  1.00  0.00     0.173 A 
ATOM     78  C   UNL A   1      37.562  31.218  30.324  1.00  0.00     0.173 A 
ATOM     79  F   UNL A   1      39.641  30.297  33.155  1.00  0.00    -0.203 F 
ATOM     80  C   UNL A   1      37.461  31.183  33.096  1.00  0.00     0.198 A 
ATOM     81  C   UNL A   1      36.428  31.679  30.990  1.00  0.00     0.198 A 
ATOM     82  F   UNL A   1      37.579  31.247  28.983  1.00  0.00    -0.203 F 
ATOM     83  F   UNL A   1      37.404  31.131  34.434  1.00  0.00    -0.200 F 
ATOM     84  C   UNL A   1      36.374  31.652  32.374  1.00  0.00     0.200 A 
ATOM     85  F   UNL A   1      35.386  32.149  30.288  1.00  0.00    -0.200 F 
ATOM     86  F   UNL A   1      35.274  32.073  33.013  1.00  0.00    -0.200 F 
ENDBRANCH  52  76
BRANCH  64  87
ATOM     87  C   UNL A   1      44.592  33.796  28.978  1.00  0.00     0.064 A 
ATOM     88  C   UNL A   1      44.317  34.763  28.001  1.00  0.00     0.173 A 
ATOM     89  C   UNL A   1      45.338  34.185  30.100  1.00  0.00     0.173 A 
ATOM     90  F   UNL A   1      43.621  34.433  26.901  1.00  0.00    -0.203 F 
ATOM     91  C   UNL A   1      44.801  36.061  28.125  1.00  0.00     0.198 A 
ATOM     92  C   UNL A   1      45.792  35.492  30.237  1.00  0.00     0.198 A 
ATOM     93  F   UNL A   1      45.622  33.299  31.067  1.00  0.00    -0.203 F 
ATOM     94  F   UNL A   1      44.578  36.952  27.149  1.00  0.00    -0.200 F 
ATOM     95  C   UNL A   1      45.532  36.427  29.244  1.00  0.00     0.200 A 
ATOM     96  F   UNL A   1      46.486  35.850  31.327  1.00  0.00    -0.200 F 
ATOM     97  F   UNL A   1      45.996  37.678  29.363  1.00  0.00    -0.200 F 
ENDBRANCH  64  87
ENDBRANCH  38  39
ENDBRANCH  30  33
ENDBRANCH  28  29
ENDBRANCH   1  28
TORSDOF 13
ENDMDL
MODEL 3
REMARK VINA RESULT:     -13.9      4.486     10.425
REMARK SMILES CCc1cc(N2CCC[C@H](C(=O)NCCCNC(=O)c3ccc(-c4c5nc(c(-c6c(F)c(F)c(F)c(F)c6F)c6ccc([nH]6)c(-c6c(F)c(F)c(F)c(F)c6F)c6nc(c(-c7c(F)c(F)c(F)c(F)c7F)c7ccc4[nH]7)C=C6)C=C5)cc3)C2)nc(-c2ccc(Cl)cc2)n1
REMARK SMILES IDX 15 1 14 2 13 3 11 4 12 5 10 7 6 8 7 9 83 10 8 11 9 12 5 13
REMARK SMILES IDX 3 14 4 15 93 16 85 17 84 18 2 19 1 20 86 21 87 22 92 23
REMARK SMILES IDX 88 24 91 25 89 26 90 27 16 28 17 29 18 30 19 32 20 33 21 34
REMARK SMILES IDX 82 35 22 36 81 37 23 38 24 39 25 40 75 41 26 42 80 43 74 44
REMARK SMILES IDX 76 45 27 46 79 47 73 48 72 49 28 51 60 52 40 53 59 54 41 55
REMARK SMILES IDX 44 56 58 57 77 58 42 59 43 60 57 62 78 63 45 64 29 65 30 66
REMARK SMILES IDX 38 67 31 68 32 69 36 70 39 71 33 72 34 73 37 74 35 75 61 76
REMARK SMILES IDX 62 77 70 78 63 79 64 80 68 81 71 82 65 83 66 84 69 85 67 86
REMARK SMILES IDX 46 87 47 88 55 89 48 90 49 91 53 92 56 93 50 94 51 95 54 96
REMARK SMILES IDX 52 97
REMARK H PARENT 13 6 17 31 76 50 44 61
REMARK Flexibility Score: inf
ROOT
ATOM      1  C   UNL A   1      36.100  20.627  24.947  1.00  0.00     0.042 C 
ENDROOT
BRANCH   1   2
ATOM      2  C   UNL A   1      34.861  21.471  24.721  1.00  0.00     0.117 C 
BRANCH   2   3
ATOM      3  N   UNL A   1      34.992  22.847  25.124  1.00  0.00    -0.356 N 
ATOM      4  C   UNL A   1      34.024  23.760  25.389  1.00  0.00     0.224 C 
ATOM      5  O   UNL A   1      34.343  24.694  26.135  1.00  0.00    -0.275 OA
ATOM      6  H   UNL A   1      35.915  23.171  25.222  1.00  0.00     0.163 HD
BRANCH   4   7
ATOM      7  C   UNL A   1      32.609  23.706  24.812  1.00  0.00     0.098 C 
ATOM      8  N   UNL A   1      31.401  25.807  25.182  1.00  0.00    -0.356 N 
ATOM      9  C   UNL A   1      30.231  25.220  25.814  1.00  0.00     0.118 C 
ATOM     10  C   UNL A   1      32.132  25.020  24.206  1.00  0.00     0.131 C 
ATOM     11  C   UNL A   1      30.570  23.860  26.436  1.00  0.00     0.022 C 
ATOM     12  C   UNL A   1      31.566  22.983  25.671  1.00  0.00     0.017 C 
BRANCH   8  13
ATOM     13  C   UNL A   1      31.579  27.178  25.181  1.00  0.00     0.132 A 
ATOM     14  C   UNL A   1      32.353  29.175  26.189  1.00  0.00     0.046 A 
ATOM     15  C   UNL A   1      32.336  27.792  26.161  1.00  0.00     0.070 A 
ATOM     16  N   UNL A   1      31.660  29.907  25.297  1.00  0.00    -0.233 NA
ATOM     17  C   UNL A   1      30.942  29.235  24.385  1.00  0.00     0.161 A 
ATOM     18  N   UNL A   1      30.880  27.894  24.281  1.00  0.00    -0.211 NA
BRANCH  14  19
ATOM     19  C   UNL A   1      33.050  29.978  27.255  1.00  0.00     0.053 C 
ATOM     20  C   UNL A   1      34.520  29.671  27.496  1.00  0.00     0.011 C 
ENDBRANCH  14  19
BRANCH  17  21
ATOM     21  C   UNL A   1      30.070  30.032  23.514  1.00  0.00     0.019 A 
ATOM     22  C   UNL A   1      29.406  31.170  24.000  1.00  0.00     0.013 A 
ATOM     23  C   UNL A   1      29.876  29.681  22.165  1.00  0.00     0.013 A 
ATOM     24  C   UNL A   1      28.627  31.969  23.153  1.00  0.00     0.021 A 
ATOM     25  C   UNL A   1      29.094  30.472  21.315  1.00  0.00     0.021 A 
ATOM     26  C   UNL A   1      28.488  31.623  21.811  1.00  0.00     0.041 A 
ATOM     27  Cl  UNL A   1      27.585  32.634  20.753  1.00  0.00    -0.084 Cl
ENDBRANCH  17  21
ENDBRANCH   8  13
ENDBRANCH   4   7
ENDBRANCH   2   3
ENDBRANCH   1   2
BRANCH   1  28
ATOM     28  C   UNL A   1      37.286  21.488  25.347  1.00  0.00     0.118 C 
BRANCH  28  29
ATOM     29  N   UNL A   1      38.551  20.781  25.456  1.00  0.00    -0.352 N 
ATOM     30  C   UNL A   1      39.711  21.124  26.122  1.00  0.00     0.251 C 
ATOM     31  H   UNL A   1      38.587  19.921  24.978  1.00  0.00     0.163 HD
ATOM     32  O   UNL A   1      40.696  20.410  26.007  1.00  0.00    -0.269 OA
BRANCH  30  33
ATOM     33  C   UNL A   1      39.832  22.405  26.871  1.00  0.00     0.039 A 
ATOM     34  C   UNL A   1      40.800  22.461  27.879  1.00  0.00     0.014 A 
ATOM     35  C   UNL A   1      39.136  23.565  26.538  1.00  0.00     0.014 A 
ATOM     36  C   UNL A   1      41.194  23.691  28.396  1.00  0.00     0.010 A 
ATOM     37  C   UNL A   1      39.625  24.800  26.935  1.00  0.00     0.010 A 
ATOM     38  C   UNL A   1      40.688  24.873  27.838  1.00  0.00    -0.014 A 
BRANCH  38  39
ATOM     39  C   UNL A   1      41.344  26.168  28.121  1.00  0.00     0.031 A 
ATOM     40  C   UNL A   1      42.734  26.445  27.641  1.00  0.00     0.074 A 
ATOM     41  C   UNL A   1      40.673  27.068  28.869  1.00  0.00     0.049 A 
ATOM     42  N   UNL A   1      43.436  27.543  27.747  1.00  0.00    -0.248 NA
ATOM     43  C   UNL A   1      43.451  25.337  26.989  1.00  0.00     0.031 C 
ATOM     44  C   UNL A   1      39.361  26.844  29.485  1.00  0.00     0.029 A 
ATOM     45  N   UNL A   1      40.985  28.353  29.226  1.00  0.00    -0.354 N 
ATOM     46  C   UNL A   1      44.669  27.257  27.179  1.00  0.00     0.074 A 
ATOM     47  C   UNL A   1      44.651  25.861  26.802  1.00  0.00     0.031 C 
ATOM     48  C   UNL A   1      38.949  27.975  30.075  1.00  0.00     0.029 A 
ATOM     49  C   UNL A   1      39.980  28.991  29.914  1.00  0.00     0.049 A 
ATOM     50  H   UNL A   1      41.847  28.779  29.011  1.00  0.00     0.167 HD
ATOM     51  C   UNL A   1      45.705  28.098  26.959  1.00  0.00     0.037 A 
ATOM     52  C   UNL A   1      39.897  30.263  30.344  1.00  0.00     0.037 A 
ATOM     53  C   UNL A   1      45.691  29.489  27.326  1.00  0.00     0.049 A 
ATOM     54  C   UNL A   1      41.042  31.188  30.044  1.00  0.00     0.074 A 
ATOM     55  C   UNL A   1      46.654  30.455  27.102  1.00  0.00     0.029 A 
ATOM     56  N   UNL A   1      44.648  30.111  28.002  1.00  0.00    -0.354 N 
ATOM     57  N   UNL A   1      42.164  30.936  29.412  1.00  0.00    -0.248 NA
ATOM     58  C   UNL A   1      40.907  32.575  30.503  1.00  0.00     0.031 C 
ATOM     59  C   UNL A   1      46.214  31.650  27.680  1.00  0.00     0.029 A 
ATOM     60  C   UNL A   1      44.954  31.444  28.221  1.00  0.00     0.049 A 
ATOM     61  H   UNL A   1      43.815  29.669  28.283  1.00  0.00     0.167 HD
ATOM     62  C   UNL A   1      42.864  32.132  29.386  1.00  0.00     0.074 A 
ATOM     63  C   UNL A   1      42.022  33.118  30.035  1.00  0.00     0.031 C 
ATOM     64  C   UNL A   1      44.095  32.395  28.881  1.00  0.00     0.037 A 
BRANCH  51  65
ATOM     65  C   UNL A   1      46.920  27.533  26.283  1.00  0.00     0.064 A 
ATOM     66  C   UNL A   1      47.070  27.569  24.887  1.00  0.00     0.173 A 
ATOM     67  C   UNL A   1      47.952  26.951  27.035  1.00  0.00     0.173 A 
ATOM     68  F   UNL A   1      46.105  28.099  24.118  1.00  0.00    -0.203 F 
ATOM     69  C   UNL A   1      48.186  27.012  24.268  1.00  0.00     0.198 A 
ATOM     70  C   UNL A   1      49.082  26.425  26.415  1.00  0.00     0.198 A 
ATOM     71  F   UNL A   1      47.863  26.890  28.372  1.00  0.00    -0.203 F 
ATOM     72  F   UNL A   1      48.275  27.006  22.931  1.00  0.00    -0.200 F 
ATOM     73  C   UNL A   1      49.194  26.447  25.032  1.00  0.00     0.200 A 
ATOM     74  F   UNL A   1      50.061  25.886  27.155  1.00  0.00    -0.200 F 
ATOM     75  F   UNL A   1      50.269  25.913  24.436  1.00  0.00    -0.200 F 
ENDBRANCH  51  65
BRANCH  52  76
ATOM     76  C   UNL A   1      38.674  30.739  31.044  1.00  0.00     0.064 A 
ATOM     77  C   UNL A   1      37.554  31.177  30.322  1.00  0.00     0.173 A 
ATOM     78  C   UNL A   1      38.592  30.758  32.443  1.00  0.00     0.173 A 
ATOM     79  F   UNL A   1      37.584  31.191  28.982  1.00  0.00    -0.203 F 
ATOM     80  C   UNL A   1      36.411  31.638  30.973  1.00  0.00     0.198 A 
ATOM     81  C   UNL A   1      37.437  31.191  33.093  1.00  0.00     0.198 A 
ATOM     82  F   UNL A   1      39.630  30.339  33.184  1.00  0.00    -0.203 F 
ATOM     83  F   UNL A   1      35.374  32.096  30.258  1.00  0.00    -0.200 F 
ATOM     84  C   UNL A   1      36.352  31.640  32.358  1.00  0.00     0.200 A 
ATOM     85  F   UNL A   1      37.378  31.175  34.432  1.00  0.00    -0.200 F 
ATOM     86  F   UNL A   1      35.252  32.080  32.983  1.00  0.00    -0.200 F 
ENDBRANCH  52  76
BRANCH  64  87
ATOM     87  C   UNL A   1      44.589  33.805  29.014  1.00  0.00     0.064 A 
ATOM     88  C   UNL A   1      45.338  34.216  30.125  1.00  0.00     0.173 A 
ATOM     89  C   UNL A   1      44.322  34.748  28.011  1.00  0.00     0.173 A 
ATOM     90  F   UNL A   1      45.604  33.353  31.118  1.00  0.00    -0.203 F 
ATOM     91  C   UNL A   1      45.774  35.532  30.245  1.00  0.00     0.198 A 
ATOM     92  C   UNL A   1      44.788  36.054  28.118  1.00  0.00     0.198 A 
ATOM     93  F   UNL A   1      43.615  34.402  26.925  1.00  0.00    -0.203 F 
ATOM     94  F   UNL A   1      46.435  35.919  31.344  1.00  0.00    -0.200 F 
ATOM     95  C   UNL A   1      45.504  36.448  29.240  1.00  0.00     0.200 A 
ATOM     96  F   UNL A   1      44.540  36.936  27.139  1.00  0.00    -0.200 F 
ATOM     97  F   UNL A   1      45.925  37.715  29.356  1.00  0.00    -0.200 F 
ENDBRANCH  64  87
ENDBRANCH  38  39
ENDBRANCH  30  33
ENDBRANCH  28  29
ENDBRANCH   1  28
TORSDOF 13
ENDMDL
