MODEL 1
REMARK VINA RESULT:     -12.7      0.000      0.000
REMARK SMILES N#Cc1ccccc1NC(=O)C[N@H+]1CCCC[C@H]1C(=O)NCCCNC(=O)c1ccc(-c2c3nc(c(-c4c(F)c(F)c(F)c(F)c4F)c4ccc([nH]4)c(-c4c(F)c(F)c(F)c(F)c4F)c4nc(c(-c5c(F)c(F)c(F)c(F)c5F)c5ccc2[nH]5)C=C4)C=C3)cc1
REMARK SMILES IDX 22 1 21 2 19 3 20 4 18 6 13 7 14 8 15 10 17 11 16 12 12 13
REMARK SMILES IDX 10 14 9 15 11 17 8 18 3 19 4 20 5 21 7 22 6 23 2 24 1 25
REMARK SMILES IDX 23 26 24 27 25 28 26 29 27 31 28 32 29 33 90 34 30 35 89 36
REMARK SMILES IDX 31 37 32 38 33 39 83 40 34 41 88 42 82 43 84 44 35 45 87 46
REMARK SMILES IDX 81 47 80 48 36 50 68 51 48 52 67 53 49 54 52 55 66 56 85 57
REMARK SMILES IDX 50 58 51 59 65 61 86 62 53 63 37 64 38 65 46 66 39 67 40 68
REMARK SMILES IDX 44 69 47 70 41 71 42 72 45 73 43 74 69 75 70 76 78 77 71 78
REMARK SMILES IDX 72 79 76 80 79 81 73 82 74 83 77 84 75 85 54 86 55 87 63 88
REMARK SMILES IDX 56 89 57 90 61 91 64 92 58 93 59 94 62 95 60 96
REMARK H PARENT 21 5 13 9 9 16 25 30 84 49 52 60
REMARK Flexibility Score: inf
ROOT
ATOM      1  C   UNL A   1      31.809  30.768  26.528  1.00  0.00     0.118 C 
ENDROOT
BRANCH   1   2
ATOM      2  N   UNL A   1      31.174  30.316  25.313  1.00  0.00    -0.351 N 
ATOM      3  C   UNL A   1      31.613  29.423  24.392  1.00  0.00     0.278 C 
ATOM      4  O   UNL A   1      31.106  29.533  23.274  1.00  0.00    -0.268 OA
ATOM      5  H   UNL A   1      30.294  30.713  25.126  1.00  0.00     0.163 HD
BRANCH   3   6
ATOM      6  C   UNL A   1      32.615  28.312  24.798  1.00  0.00     0.274 C 
ATOM      7  N   UNL A   1      32.190  26.971  24.356  1.00  0.00    -0.317 N 
ATOM      8  C   UNL A   1      32.174  26.812  22.896  1.00  0.00     0.263 C 
ATOM      9  H   UNL A   1      32.957  26.391  24.694  1.00  0.00     0.349 HD
ATOM     10  C   UNL A   1      33.500  27.245  22.241  1.00  0.00     0.062 C 
ATOM     11  C   UNL A   1      34.031  28.570  24.272  1.00  0.00     0.076 C 
ATOM     12  C   UNL A   1      34.045  28.570  22.756  1.00  0.00     0.012 C 
BRANCH   7  13
ATOM     13  C   UNL A   1      31.056  26.332  25.064  1.00  0.00     0.364 C 
BRANCH  13  14
ATOM     14  C   UNL A   1      30.024  25.534  24.255  1.00  0.00     0.279 C 
ATOM     15  N   UNL A   1      30.162  24.212  23.904  1.00  0.00    -0.320 N 
ATOM     16  H   UNL A   1      29.388  23.860  23.409  1.00  0.00     0.170 HD
ATOM     17  O   UNL A   1      28.986  26.092  23.872  1.00  0.00    -0.268 OA
BRANCH  15  18
ATOM     18  C   UNL A   1      31.178  23.246  24.104  1.00  0.00     0.059 A 
ATOM     19  C   UNL A   1      31.314  22.623  25.365  1.00  0.00     0.076 A 
ATOM     20  C   UNL A   1      32.455  21.853  25.657  1.00  0.00     0.021 A 
ATOM     21  C   UNL A   1      33.455  21.685  24.705  1.00  0.00     0.002 A 
ATOM     22  C   UNL A   1      32.117  22.928  23.120  1.00  0.00     0.027 A 
ATOM     23  C   UNL A   1      33.268  22.193  23.427  1.00  0.00     0.002 A 
BRANCH  19  24
ATOM     24  C   UNL A   1      30.411  22.880  26.449  1.00  0.00     0.101 C 
ATOM     25  N   UNL A   1      29.672  23.161  27.304  1.00  0.00    -0.192 NA
ENDBRANCH  19  24
ENDBRANCH  15  18
ENDBRANCH  13  14
ENDBRANCH   7  13
ENDBRANCH   3   6
ENDBRANCH   1   2
BRANCH   1  26
ATOM     26  C   UNL A   1      31.642  32.273  26.635  1.00  0.00     0.042 C 
BRANCH  26  27
ATOM     27  C   UNL A   1      32.845  32.916  27.314  1.00  0.00     0.118 C 
BRANCH  27  28
ATOM     28  N   UNL A   1      32.606  34.319  27.646  1.00  0.00    -0.352 N 
ATOM     29  C   UNL A   1      33.081  35.019  28.727  1.00  0.00     0.251 C 
ATOM     30  H   UNL A   1      32.036  34.822  27.021  1.00  0.00     0.163 HD
ATOM     31  O   UNL A   1      32.612  36.104  29.043  1.00  0.00    -0.269 OA
BRANCH  29  32
ATOM     32  C   UNL A   1      34.171  34.404  29.500  1.00  0.00     0.039 A 
ATOM     33  C   UNL A   1      33.878  33.607  30.605  1.00  0.00     0.014 A 
ATOM     34  C   UNL A   1      35.480  34.537  29.027  1.00  0.00     0.014 A 
ATOM     35  C   UNL A   1      34.905  32.881  31.203  1.00  0.00     0.010 A 
ATOM     36  C   UNL A   1      36.469  33.722  29.546  1.00  0.00     0.010 A 
ATOM     37  C   UNL A   1      36.197  32.905  30.653  1.00  0.00    -0.014 A 
BRANCH  37  38
ATOM     38  C   UNL A   1      37.318  32.130  31.235  1.00  0.00     0.031 A 
ATOM     39  C   UNL A   1      37.821  32.500  32.601  1.00  0.00     0.074 A 
ATOM     40  C   UNL A   1      37.937  31.181  30.511  1.00  0.00     0.049 A 
ATOM     41  N   UNL A   1      38.879  32.074  33.241  1.00  0.00    -0.248 NA
ATOM     42  C   UNL A   1      37.055  33.529  33.325  1.00  0.00     0.031 C 
ATOM     43  C   UNL A   1      37.561  30.764  29.160  1.00  0.00     0.029 A 
ATOM     44  N   UNL A   1      39.033  30.410  30.805  1.00  0.00    -0.354 N 
ATOM     45  C   UNL A   1      38.916  32.800  34.423  1.00  0.00     0.074 A 
ATOM     46  C   UNL A   1      37.826  33.747  34.378  1.00  0.00     0.031 C 
ATOM     47  C   UNL A   1      38.400  29.800  28.749  1.00  0.00     0.029 A 
ATOM     48  C   UNL A   1      39.405  29.571  29.784  1.00  0.00     0.049 A 
ATOM     49  H   UNL A   1      39.507  30.453  31.667  1.00  0.00     0.167 HD
ATOM     50  C   UNL A   1      39.768  32.670  35.467  1.00  0.00     0.037 A 
ATOM     51  C   UNL A   1      40.453  28.731  29.688  1.00  0.00     0.037 A 
ATOM     52  C   UNL A   1      40.841  31.714  35.502  1.00  0.00     0.049 A 
ATOM     53  C   UNL A   1      41.408  28.618  30.846  1.00  0.00     0.074 A 
ATOM     54  C   UNL A   1      41.732  31.457  36.527  1.00  0.00     0.029 A 
ATOM     55  N   UNL A   1      41.174  30.863  34.456  1.00  0.00    -0.354 N 
ATOM     56  N   UNL A   1      41.403  29.264  31.989  1.00  0.00    -0.248 NA
ATOM     57  C   UNL A   1      42.510  27.657  30.707  1.00  0.00     0.031 C 
ATOM     58  C   UNL A   1      42.651  30.506  36.074  1.00  0.00     0.029 A 
ATOM     59  C   UNL A   1      42.278  30.102  34.801  1.00  0.00     0.049 A 
ATOM     60  H   UNL A   1      40.695  30.810  33.597  1.00  0.00     0.167 HD
ATOM     61  C   UNL A   1      42.473  28.761  32.718  1.00  0.00     0.074 A 
ATOM     62  C   UNL A   1      43.105  27.755  31.889  1.00  0.00     0.031 C 
ATOM     63  C   UNL A   1      42.885  29.095  33.967  1.00  0.00     0.037 A 
BRANCH  50  64
ATOM     64  C   UNL A   1      39.578  33.599  36.632  1.00  0.00     0.064 A 
ATOM     65  C   UNL A   1      38.798  33.245  37.747  1.00  0.00     0.173 A 
ATOM     66  C   UNL A   1      40.174  34.868  36.632  1.00  0.00     0.173 A 
ATOM     67  F   UNL A   1      38.196  32.047  37.798  1.00  0.00    -0.203 F 
ATOM     68  C   UNL A   1      38.578  34.146  38.785  1.00  0.00     0.198 A 
ATOM     69  C   UNL A   1      39.989  35.750  37.694  1.00  0.00     0.198 A 
ATOM     70  F   UNL A   1      40.935  35.259  35.599  1.00  0.00    -0.203 F 
ATOM     71  F   UNL A   1      37.762  33.814  39.795  1.00  0.00    -0.200 F 
ATOM     72  C   UNL A   1      39.178  35.395  38.761  1.00  0.00     0.200 A 
ATOM     73  F   UNL A   1      40.586  36.950  37.677  1.00  0.00    -0.200 F 
ATOM     74  F   UNL A   1      38.966  36.262  39.760  1.00  0.00    -0.200 F 
ENDBRANCH  50  64
BRANCH  51  75
ATOM     75  C   UNL A   1      40.635  27.919  28.455  1.00  0.00     0.064 A 
ATOM     76  C   UNL A   1      40.052  26.650  28.335  1.00  0.00     0.173 A 
ATOM     77  C   UNL A   1      41.371  28.404  27.365  1.00  0.00     0.173 A 
ATOM     78  F   UNL A   1      39.352  26.136  29.356  1.00  0.00    -0.203 F 
ATOM     79  C   UNL A   1      40.214  25.890  27.178  1.00  0.00     0.198 A 
ATOM     80  C   UNL A   1      41.505  27.657  26.196  1.00  0.00     0.198 A 
ATOM     81  F   UNL A   1      41.941  29.617  27.424  1.00  0.00    -0.203 F 
ATOM     82  F   UNL A   1      39.679  24.663  27.105  1.00  0.00    -0.200 F 
ATOM     83  C   UNL A   1      40.932  26.397  26.106  1.00  0.00     0.200 A 
ATOM     84  F   UNL A   1      42.183  28.160  25.155  1.00  0.00    -0.200 F 
ATOM     85  F   UNL A   1      41.075  25.672  24.989  1.00  0.00    -0.200 F 
ENDBRANCH  51  75
BRANCH  63  86
ATOM     86  C   UNL A   1      44.036  28.324  34.551  1.00  0.00     0.064 A 
ATOM     87  C   UNL A   1      43.856  27.111  35.228  1.00  0.00     0.173 A 
ATOM     88  C   UNL A   1      45.351  28.778  34.355  1.00  0.00     0.173 A 
ATOM     89  F   UNL A   1      42.620  26.639  35.454  1.00  0.00    -0.203 F 
ATOM     90  C   UNL A   1      44.948  26.389  35.704  1.00  0.00     0.198 A 
ATOM     91  C   UNL A   1      46.440  28.035  34.798  1.00  0.00     0.198 A 
ATOM     92  F   UNL A   1      45.580  29.929  33.706  1.00  0.00    -0.203 F 
ATOM     93  F   UNL A   1      44.750  25.253  36.388  1.00  0.00    -0.200 F 
ATOM     94  C   UNL A   1      46.239  26.845  35.478  1.00  0.00     0.200 A 
ATOM     95  F   UNL A   1      47.686  28.469  34.559  1.00  0.00    -0.200 F 
ATOM     96  F   UNL A   1      47.288  26.138  35.919  1.00  0.00    -0.200 F 
ENDBRANCH  63  86
ENDBRANCH  37  38
ENDBRANCH  29  32
ENDBRANCH  27  28
ENDBRANCH  26  27
ENDBRANCH   1  26
TORSDOF 14
ENDMDL
MODEL 2
REMARK VINA RESULT:     -12.7      1.154      7.480
REMARK SMILES N#Cc1ccccc1NC(=O)C[N@H+]1CCCC[C@H]1C(=O)NCCCNC(=O)c1ccc(-c2c3nc(c(-c4c(F)c(F)c(F)c(F)c4F)c4ccc([nH]4)c(-c4c(F)c(F)c(F)c(F)c4F)c4nc(c(-c5c(F)c(F)c(F)c(F)c5F)c5ccc2[nH]5)C=C4)C=C3)cc1
REMARK SMILES IDX 22 1 21 2 19 3 20 4 18 6 13 7 14 8 15 10 17 11 16 12 12 13
REMARK SMILES IDX 10 14 9 15 11 17 8 18 3 19 4 20 5 21 7 22 6 23 2 24 1 25
REMARK SMILES IDX 23 26 24 27 25 28 26 29 27 31 28 32 29 33 90 34 30 35 89 36
REMARK SMILES IDX 31 37 32 38 33 39 83 40 34 41 88 42 82 43 84 44 35 45 87 46
REMARK SMILES IDX 81 47 80 48 36 50 68 51 48 52 67 53 49 54 52 55 66 56 85 57
REMARK SMILES IDX 50 58 51 59 65 61 86 62 53 63 37 64 38 65 46 66 39 67 40 68
REMARK SMILES IDX 44 69 47 70 41 71 42 72 45 73 43 74 69 75 70 76 78 77 71 78
REMARK SMILES IDX 72 79 76 80 79 81 73 82 74 83 77 84 75 85 54 86 55 87 63 88
REMARK SMILES IDX 56 89 57 90 61 91 64 92 58 93 59 94 62 95 60 96
REMARK H PARENT 21 5 13 9 9 16 25 30 84 49 52 60
REMARK Flexibility Score: inf
ROOT
ATOM      1  C   UNL A   1      32.415  30.256  26.422  1.00  0.00     0.118 C 
ENDROOT
BRANCH   1   2
ATOM      2  N   UNL A   1      31.415  29.635  25.585  1.00  0.00    -0.351 N 
ATOM      3  C   UNL A   1      31.556  28.657  24.656  1.00  0.00     0.278 C 
ATOM      4  O   UNL A   1      30.663  28.611  23.807  1.00  0.00    -0.268 OA
ATOM      5  H   UNL A   1      30.498  29.969  25.707  1.00  0.00     0.163 HD
BRANCH   3   6
ATOM      6  C   UNL A   1      32.727  27.646  24.759  1.00  0.00     0.274 C 
ATOM      7  N   UNL A   1      32.456  26.386  24.042  1.00  0.00    -0.317 N 
ATOM      8  C   UNL A   1      32.354  26.548  22.587  1.00  0.00     0.263 C 
ATOM      9  H   UNL A   1      33.317  25.866  24.208  1.00  0.00     0.349 HD
ATOM     10  C   UNL A   1      33.556  27.305  21.992  1.00  0.00     0.062 C 
ATOM     11  C   UNL A   1      34.051  28.221  24.246  1.00  0.00     0.076 C 
ATOM     12  C   UNL A   1      33.953  28.553  22.770  1.00  0.00     0.012 C 
BRANCH   7  13
ATOM     13  C   UNL A   1      31.475  25.446  24.634  1.00  0.00     0.364 C 
BRANCH  13  14
ATOM     14  C   UNL A   1      31.761  24.839  26.014  1.00  0.00     0.279 C 
ATOM     15  N   UNL A   1      32.869  24.086  26.321  1.00  0.00    -0.320 N 
ATOM     16  H   UNL A   1      32.896  23.803  27.263  1.00  0.00     0.170 HD
ATOM     17  O   UNL A   1      30.952  25.016  26.938  1.00  0.00    -0.268 OA
BRANCH  15  18
ATOM     18  C   UNL A   1      33.982  23.632  25.573  1.00  0.00     0.059 A 
ATOM     19  C   UNL A   1      33.961  22.338  25.004  1.00  0.00     0.076 A 
ATOM     20  C   UNL A   1      35.138  21.777  24.473  1.00  0.00     0.021 A 
ATOM     21  C   UNL A   1      36.331  22.493  24.490  1.00  0.00     0.002 A 
ATOM     22  C   UNL A   1      35.151  24.383  25.431  1.00  0.00     0.027 A 
ATOM     23  C   UNL A   1      36.327  23.807  24.937  1.00  0.00     0.002 A 
BRANCH  19  24
ATOM     24  C   UNL A   1      32.818  21.478  25.094  1.00  0.00     0.101 C 
ATOM     25  N   UNL A   1      31.937  20.721  25.176  1.00  0.00    -0.192 NA
ENDBRANCH  19  24
ENDBRANCH  15  18
ENDBRANCH  13  14
ENDBRANCH   7  13
ENDBRANCH   3   6
ENDBRANCH   1   2
BRANCH   1  26
ATOM     26  C   UNL A   1      31.920  31.630  26.834  1.00  0.00     0.042 C 
BRANCH  26  27
ATOM     27  C   UNL A   1      33.033  32.448  27.478  1.00  0.00     0.118 C 
BRANCH  27  28
ATOM     28  N   UNL A   1      32.674  33.858  27.613  1.00  0.00    -0.352 N 
ATOM     29  C   UNL A   1      33.089  34.743  28.577  1.00  0.00     0.251 C 
ATOM     30  H   UNL A   1      32.061  34.216  26.931  1.00  0.00     0.163 HD
ATOM     31  O   UNL A   1      32.529  35.818  28.743  1.00  0.00    -0.269 OA
BRANCH  29  32
ATOM     32  C   UNL A   1      34.231  34.340  29.411  1.00  0.00     0.039 A 
ATOM     33  C   UNL A   1      34.013  33.652  30.604  1.00  0.00     0.014 A 
ATOM     34  C   UNL A   1      35.523  34.550  28.920  1.00  0.00     0.014 A 
ATOM     35  C   UNL A   1      35.105  33.113  31.280  1.00  0.00     0.010 A 
ATOM     36  C   UNL A   1      36.587  33.909  29.528  1.00  0.00     0.010 A 
ATOM     37  C   UNL A   1      36.392  33.205  30.726  1.00  0.00    -0.014 A 
BRANCH  37  38
ATOM     38  C   UNL A   1      37.581  32.624  31.390  1.00  0.00     0.031 A 
ATOM     39  C   UNL A   1      38.293  31.478  30.730  1.00  0.00     0.074 A 
ATOM     40  C   UNL A   1      37.954  33.049  32.611  1.00  0.00     0.049 A 
ATOM     41  N   UNL A   1      39.249  30.716  31.192  1.00  0.00    -0.248 NA
ATOM     42  C   UNL A   1      37.829  31.109  29.381  1.00  0.00     0.031 C 
ATOM     43  C   UNL A   1      37.314  34.127  33.366  1.00  0.00     0.029 A 
ATOM     44  N   UNL A   1      38.951  32.606  33.442  1.00  0.00    -0.354 N 
ATOM     45  C   UNL A   1      39.477  29.766  30.206  1.00  0.00     0.074 A 
ATOM     46  C   UNL A   1      38.511  29.999  29.157  1.00  0.00     0.031 C 
ATOM     47  C   UNL A   1      37.947  34.274  34.541  1.00  0.00     0.029 A 
ATOM     48  C   UNL A   1      38.999  33.266  34.644  1.00  0.00     0.049 A 
ATOM     49  H   UNL A   1      39.575  31.885  33.199  1.00  0.00     0.167 HD
ATOM     50  C   UNL A   1      40.428  28.804  30.165  1.00  0.00     0.037 A 
ATOM     51  C   UNL A   1      39.787  33.063  35.717  1.00  0.00     0.037 A 
ATOM     52  C   UNL A   1      41.392  28.594  31.211  1.00  0.00     0.049 A 
ATOM     53  C   UNL A   1      40.821  31.969  35.668  1.00  0.00     0.074 A 
ATOM     54  C   UNL A   1      42.433  27.685  31.253  1.00  0.00     0.029 A 
ATOM     55  N   UNL A   1      41.423  29.299  32.407  1.00  0.00    -0.354 N 
ATOM     56  N   UNL A   1      41.074  31.114  34.706  1.00  0.00    -0.248 NA
ATOM     57  C   UNL A   1      41.682  31.816  36.847  1.00  0.00     0.031 C 
ATOM     58  C   UNL A   1      43.046  27.788  32.506  1.00  0.00     0.029 A 
ATOM     59  C   UNL A   1      42.447  28.822  33.208  1.00  0.00     0.049 A 
ATOM     60  H   UNL A   1      40.808  30.029  32.649  1.00  0.00     0.167 HD
ATOM     61  C   UNL A   1      42.147  30.349  35.146  1.00  0.00     0.074 A 
ATOM     62  C   UNL A   1      42.497  30.842  36.462  1.00  0.00     0.031 C 
ATOM     63  C   UNL A   1      42.790  29.337  34.511  1.00  0.00     0.037 A 
BRANCH  50  64
ATOM     64  C   UNL A   1      40.447  27.904  28.962  1.00  0.00     0.064 A 
ATOM     65  C   UNL A   1      41.213  28.201  27.821  1.00  0.00     0.173 A 
ATOM     66  C   UNL A   1      39.680  26.730  28.943  1.00  0.00     0.173 A 
ATOM     67  F   UNL A   1      41.959  29.316  27.779  1.00  0.00    -0.203 F 
ATOM     68  C   UNL A   1      41.162  27.390  26.691  1.00  0.00     0.198 A 
ATOM     69  C   UNL A   1      39.668  25.897  27.827  1.00  0.00     0.198 A 
ATOM     70  F   UNL A   1      38.934  26.390  30.005  1.00  0.00    -0.203 F 
ATOM     71  F   UNL A   1      41.836  27.742  25.587  1.00  0.00    -0.200 F 
ATOM     72  C   UNL A   1      40.396  26.236  26.697  1.00  0.00     0.200 A 
ATOM     73  F   UNL A   1      38.941  24.771  27.842  1.00  0.00    -0.200 F 
ATOM     74  F   UNL A   1      40.348  25.455  25.608  1.00  0.00    -0.200 F 
ENDBRANCH  50  64
BRANCH  51  75
ATOM     75  C   UNL A   1      39.637  33.930  36.916  1.00  0.00     0.064 A 
ATOM     76  C   UNL A   1      40.269  35.179  36.986  1.00  0.00     0.173 A 
ATOM     77  C   UNL A   1      38.842  33.540  38.004  1.00  0.00     0.173 A 
ATOM     78  F   UNL A   1      41.053  35.590  35.979  1.00  0.00    -0.203 F 
ATOM     79  C   UNL A   1      40.124  35.998  38.105  1.00  0.00     0.198 A 
ATOM     80  C   UNL A   1      38.671  34.373  39.107  1.00  0.00     0.198 A 
ATOM     81  F   UNL A   1      38.207  32.358  37.983  1.00  0.00    -0.203 F 
ATOM     82  F   UNL A   1      40.771  37.170  38.162  1.00  0.00    -0.200 F 
ATOM     83  C   UNL A   1      39.318  35.599  39.161  1.00  0.00     0.200 A 
ATOM     84  F   UNL A   1      37.875  33.992  40.116  1.00  0.00    -0.200 F 
ATOM     85  F   UNL A   1      39.167  36.392  40.229  1.00  0.00    -0.200 F 
ENDBRANCH  51  75
BRANCH  63  86
ATOM     86  C   UNL A   1      43.985  28.732  35.193  1.00  0.00     0.064 A 
ATOM     87  C   UNL A   1      43.879  27.622  36.042  1.00  0.00     0.173 A 
ATOM     88  C   UNL A   1      45.270  29.232  34.923  1.00  0.00     0.173 A 
ATOM     89  F   UNL A   1      42.674  27.114  36.343  1.00  0.00    -0.203 F 
ATOM     90  C   UNL A   1      45.013  27.046  36.610  1.00  0.00     0.198 A 
ATOM     91  C   UNL A   1      46.402  28.630  35.462  1.00  0.00     0.198 A 
ATOM     92  F   UNL A   1      45.428  30.288  34.111  1.00  0.00    -0.203 F 
ATOM     93  F   UNL A   1      44.885  26.012  37.454  1.00  0.00    -0.200 F 
ATOM     94  C   UNL A   1      46.273  27.542  36.310  1.00  0.00     0.200 A 
ATOM     95  F   UNL A   1      47.619  29.100  35.152  1.00  0.00    -0.200 F 
ATOM     96  F   UNL A   1      47.364  26.973  36.842  1.00  0.00    -0.200 F 
ENDBRANCH  63  86
ENDBRANCH  37  38
ENDBRANCH  29  32
ENDBRANCH  27  28
ENDBRANCH  26  27
ENDBRANCH   1  26
TORSDOF 14
ENDMDL
MODEL 3
REMARK VINA RESULT:     -12.7      5.296      9.615
REMARK SMILES N#Cc1ccccc1NC(=O)C[N@H+]1CCCC[C@H]1C(=O)NCCCNC(=O)c1ccc(-c2c3nc(c(-c4c(F)c(F)c(F)c(F)c4F)c4ccc([nH]4)c(-c4c(F)c(F)c(F)c(F)c4F)c4nc(c(-c5c(F)c(F)c(F)c(F)c5F)c5ccc2[nH]5)C=C4)C=C3)cc1
REMARK SMILES IDX 22 1 21 2 19 3 20 4 18 6 13 7 14 8 15 10 17 11 16 12 12 13
REMARK SMILES IDX 10 14 9 15 11 17 8 18 3 19 4 20 5 21 7 22 6 23 2 24 1 25
REMARK SMILES IDX 23 26 24 27 25 28 26 29 27 31 28 32 29 33 90 34 30 35 89 36
REMARK SMILES IDX 31 37 32 38 33 39 83 40 34 41 88 42 82 43 84 44 35 45 87 46
REMARK SMILES IDX 81 47 80 48 36 50 68 51 48 52 67 53 49 54 52 55 66 56 85 57
REMARK SMILES IDX 50 58 51 59 65 61 86 62 53 63 37 64 38 65 46 66 39 67 40 68
REMARK SMILES IDX 44 69 47 70 41 71 42 72 45 73 43 74 69 75 70 76 78 77 71 78
REMARK SMILES IDX 72 79 76 80 79 81 73 82 74 83 77 84 75 85 54 86 55 87 63 88
REMARK SMILES IDX 56 89 57 90 61 91 64 92 58 93 59 94 62 95 60 96
REMARK H PARENT 21 5 13 9 9 16 25 30 84 49 52 60
REMARK Flexibility Score: inf
ROOT
ATOM      1  C   UNL A   1      36.990  21.631  25.445  1.00  0.00     0.118 C 
ENDROOT
BRANCH   1   2
ATOM      2  N   UNL A   1      35.823  21.320  24.654  1.00  0.00    -0.351 N 
ATOM      3  C   UNL A   1      34.550  21.770  24.783  1.00  0.00     0.278 C 
ATOM      4  O   UNL A   1      33.687  21.050  24.277  1.00  0.00    -0.268 OA
ATOM      5  H   UNL A   1      35.972  20.691  23.913  1.00  0.00     0.163 HD
BRANCH   3   6
ATOM      6  C   UNL A   1      34.272  23.141  25.451  1.00  0.00     0.274 C 
ATOM      7  N   UNL A   1      33.498  24.051  24.585  1.00  0.00    -0.317 N 
ATOM      8  C   UNL A   1      32.131  23.587  24.319  1.00  0.00     0.263 C 
ATOM      9  H   UNL A   1      33.406  24.873  25.181  1.00  0.00     0.349 HD
ATOM     10  C   UNL A   1      31.368  23.228  25.609  1.00  0.00     0.062 C 
ATOM     11  C   UNL A   1      33.541  23.010  26.791  1.00  0.00     0.076 C 
ATOM     12  C   UNL A   1      32.171  22.389  26.594  1.00  0.00     0.012 C 
BRANCH   7  13
ATOM     13  C   UNL A   1      34.187  24.657  23.422  1.00  0.00     0.364 C 
BRANCH  13  14
ATOM     14  C   UNL A   1      33.576  25.896  22.754  1.00  0.00     0.279 C 
ATOM     15  N   UNL A   1      33.055  26.971  23.433  1.00  0.00    -0.320 N 
ATOM     16  H   UNL A   1      32.731  27.685  22.838  1.00  0.00     0.170 HD
ATOM     17  O   UNL A   1      33.530  25.962  21.516  1.00  0.00    -0.268 OA
BRANCH  15  18
ATOM     18  C   UNL A   1      32.884  27.273  24.806  1.00  0.00     0.059 A 
ATOM     19  C   UNL A   1      31.597  27.195  25.385  1.00  0.00     0.076 A 
ATOM     20  C   UNL A   1      31.363  27.721  26.669  1.00  0.00     0.021 A 
ATOM     21  C   UNL A   1      32.397  28.313  27.388  1.00  0.00     0.002 A 
ATOM     22  C   UNL A   1      33.931  27.726  25.613  1.00  0.00     0.027 A 
ATOM     23  C   UNL A   1      33.685  28.283  26.873  1.00  0.00     0.002 A 
BRANCH  19  24
ATOM     24  C   UNL A   1      30.450  26.750  24.648  1.00  0.00     0.101 C 
ATOM     25  N   UNL A   1      29.567  26.364  23.995  1.00  0.00    -0.192 NA
ENDBRANCH  19  24
ENDBRANCH  15  18
ENDBRANCH  13  14
ENDBRANCH   7  13
ENDBRANCH   3   6
ENDBRANCH   1   2
BRANCH   1  26
ATOM     26  C   UNL A   1      38.084  20.633  25.112  1.00  0.00     0.042 C 
BRANCH  26  27
ATOM     27  C   UNL A   1      39.252  20.748  26.084  1.00  0.00     0.118 C 
BRANCH  27  28
ATOM     28  N   UNL A   1      40.114  19.569  26.052  1.00  0.00    -0.352 N 
ATOM     29  C   UNL A   1      41.486  19.528  26.086  1.00  0.00     0.251 C 
ATOM     30  H   UNL A   1      39.656  18.699  26.000  1.00  0.00     0.163 HD
ATOM     31  O   UNL A   1      42.104  18.513  25.795  1.00  0.00    -0.269 OA
BRANCH  29  32
ATOM     32  C   UNL A   1      42.184  20.762  26.475  1.00  0.00     0.039 A 
ATOM     33  C   UNL A   1      42.632  21.647  25.496  1.00  0.00     0.014 A 
ATOM     34  C   UNL A   1      42.272  21.078  27.835  1.00  0.00     0.014 A 
ATOM     35  C   UNL A   1      43.116  22.894  25.886  1.00  0.00     0.010 A 
ATOM     36  C   UNL A   1      42.636  22.359  28.206  1.00  0.00     0.010 A 
ATOM     37  C   UNL A   1      43.084  23.271  27.239  1.00  0.00    -0.014 A 
BRANCH  37  38
ATOM     38  C   UNL A   1      43.561  24.595  27.701  1.00  0.00     0.031 A 
ATOM     39  C   UNL A   1      42.548  25.642  28.066  1.00  0.00     0.074 A 
ATOM     40  C   UNL A   1      44.875  24.885  27.696  1.00  0.00     0.049 A 
ATOM     41  N   UNL A   1      42.723  26.908  28.343  1.00  0.00    -0.248 NA
ATOM     42  C   UNL A   1      41.138  25.216  28.071  1.00  0.00     0.031 C 
ATOM     43  C   UNL A   1      45.946  23.961  27.324  1.00  0.00     0.029 A 
ATOM     44  N   UNL A   1      45.529  26.053  27.994  1.00  0.00    -0.354 N 
ATOM     45  C   UNL A   1      41.450  27.429  28.525  1.00  0.00     0.074 A 
ATOM     46  C   UNL A   1      40.511  26.366  28.252  1.00  0.00     0.031 C 
ATOM     47  C   UNL A   1      47.126  24.592  27.434  1.00  0.00     0.029 A 
ATOM     48  C   UNL A   1      46.890  25.977  27.829  1.00  0.00     0.049 A 
ATOM     49  H   UNL A   1      45.068  26.867  28.297  1.00  0.00     0.167 HD
ATOM     50  C   UNL A   1      41.097  28.676  28.915  1.00  0.00     0.037 A 
ATOM     51  C   UNL A   1      47.835  26.928  27.959  1.00  0.00     0.037 A 
ATOM     52  C   UNL A   1      42.045  29.719  29.196  1.00  0.00     0.049 A 
ATOM     53  C   UNL A   1      47.423  28.318  28.365  1.00  0.00     0.074 A 
ATOM     54  C   UNL A   1      41.803  31.003  29.648  1.00  0.00     0.029 A 
ATOM     55  N   UNL A   1      43.419  29.599  29.039  1.00  0.00    -0.354 N 
ATOM     56  N   UNL A   1      46.221  28.790  28.597  1.00  0.00    -0.248 NA
ATOM     57  C   UNL A   1      48.496  29.306  28.533  1.00  0.00     0.031 C 
ATOM     58  C   UNL A   1      43.024  31.683  29.692  1.00  0.00     0.029 A 
ATOM     59  C   UNL A   1      44.036  30.797  29.356  1.00  0.00     0.049 A 
ATOM     60  H   UNL A   1      43.885  28.782  28.746  1.00  0.00     0.167 HD
ATOM     61  C   UNL A   1      46.395  30.114  28.977  1.00  0.00     0.074 A 
ATOM     62  C   UNL A   1      47.820  30.371  28.944  1.00  0.00     0.031 C 
ATOM     63  C   UNL A   1      45.459  31.030  29.331  1.00  0.00     0.037 A 
BRANCH  50  64
ATOM     64  C   UNL A   1      39.628  28.970  29.033  1.00  0.00     0.064 A 
ATOM     65  C   UNL A   1      38.945  28.871  30.258  1.00  0.00     0.173 A 
ATOM     66  C   UNL A   1      38.887  29.349  27.904  1.00  0.00     0.173 A 
ATOM     67  F   UNL A   1      39.600  28.505  31.370  1.00  0.00    -0.203 F 
ATOM     68  C   UNL A   1      37.570  29.082  30.333  1.00  0.00     0.198 A 
ATOM     69  C   UNL A   1      37.521  29.603  27.992  1.00  0.00     0.198 A 
ATOM     70  F   UNL A   1      39.486  29.467  26.709  1.00  0.00    -0.203 F 
ATOM     71  F   UNL A   1      36.930  28.898  31.495  1.00  0.00    -0.200 F 
ATOM     72  C   UNL A   1      36.861  29.453  29.202  1.00  0.00     0.200 A 
ATOM     73  F   UNL A   1      36.841  29.981  26.901  1.00  0.00    -0.200 F 
ATOM     74  F   UNL A   1      35.538  29.656  29.274  1.00  0.00    -0.200 F 
ENDBRANCH  50  64
BRANCH  51  75
ATOM     75  C   UNL A   1      49.262  26.584  27.721  1.00  0.00     0.064 A 
ATOM     76  C   UNL A   1      50.138  26.359  28.792  1.00  0.00     0.173 A 
ATOM     77  C   UNL A   1      49.774  26.450  26.422  1.00  0.00     0.173 A 
ATOM     78  F   UNL A   1      49.701  26.491  30.053  1.00  0.00    -0.203 F 
ATOM     79  C   UNL A   1      51.474  26.029  28.573  1.00  0.00     0.198 A 
ATOM     80  C   UNL A   1      51.101  26.088  26.204  1.00  0.00     0.198 A 
ATOM     81  F   UNL A   1      48.976  26.644  25.362  1.00  0.00    -0.203 F 
ATOM     82  F   UNL A   1      52.299  25.858  29.615  1.00  0.00    -0.200 F 
ATOM     83  C   UNL A   1      51.953  25.884  27.280  1.00  0.00     0.200 A 
ATOM     84  F   UNL A   1      51.554  25.929  24.952  1.00  0.00    -0.200 F 
ATOM     85  F   UNL A   1      53.234  25.553  27.069  1.00  0.00    -0.200 F 
ENDBRANCH  51  75
BRANCH  63  86
ATOM     86  C   UNL A   1      45.939  32.381  29.781  1.00  0.00     0.064 A 
ATOM     87  C   UNL A   1      46.067  33.462  28.898  1.00  0.00     0.173 A 
ATOM     88  C   UNL A   1      46.200  32.611  31.143  1.00  0.00     0.173 A 
ATOM     89  F   UNL A   1      45.843  33.292  27.586  1.00  0.00    -0.203 F 
ATOM     90  C   UNL A   1      46.456  34.718  29.357  1.00  0.00     0.198 A 
ATOM     91  C   UNL A   1      46.550  33.876  31.603  1.00  0.00     0.198 A 
ATOM     92  F   UNL A   1      46.085  31.614  32.032  1.00  0.00    -0.203 F 
ATOM     93  F   UNL A   1      46.614  35.726  28.489  1.00  0.00    -0.200 F 
ATOM     94  C   UNL A   1      46.684  34.927  30.710  1.00  0.00     0.200 A 
ATOM     95  F   UNL A   1      46.750  34.079  32.913  1.00  0.00    -0.200 F 
ATOM     96  F   UNL A   1      47.037  36.142  31.151  1.00  0.00    -0.200 F 
ENDBRANCH  63  86
ENDBRANCH  37  38
ENDBRANCH  29  32
ENDBRANCH  27  28
ENDBRANCH  26  27
ENDBRANCH   1  26
TORSDOF 14
ENDMDL
