MODEL 1
REMARK VINA RESULT:     -12.7      0.000      0.000
REMARK SMILES Nc1cc(C(=O)NCCCNC(=O)c2ccc(-c3c4nc(c(-c5c(F)c(F)c(F)c(F)c5F)c5ccc([nH]5)c(-c5c(F)c(F)c(F)c(F)c5F)c5nc(c(-c6c(F)c(F)c(F)c(F)c6F)c6ccc3[nH]6)C=C5)C=C4)cc2)nc2ccc(F)cc12
REMARK SMILES IDX 9 1 8 2 7 3 5 4 6 5 4 7 2 8 3 9 84 10 78 11 83 12 77 13
REMARK SMILES IDX 79 14 81 15 80 16 82 17 1 18 10 21 11 22 12 23 13 25 14 26
REMARK SMILES IDX 15 27 76 28 16 29 75 30 17 31 18 32 19 33 69 34 20 35 74 36
REMARK SMILES IDX 68 37 70 38 21 39 73 40 67 41 66 42 22 44 54 45 34 46 53 47
REMARK SMILES IDX 35 48 38 49 52 50 71 51 36 52 37 53 51 55 72 56 39 57 23 58
REMARK SMILES IDX 24 59 32 60 25 61 26 62 30 63 33 64 27 65 28 66 31 67 29 68
REMARK SMILES IDX 55 69 56 70 64 71 57 72 58 73 62 74 65 75 59 76 60 77 63 78
REMARK SMILES IDX 61 79 40 80 41 81 49 82 42 83 43 84 47 85 50 86 44 87 45 88
REMARK SMILES IDX 48 89 46 90
REMARK H PARENT 7 6 1 19 1 20 11 24 70 43 38 54
REMARK Flexibility Score: inf
ROOT
ATOM      1  C   UNL A   1      31.480  32.054  26.712  1.00  0.00     0.042 C 
ENDROOT
BRANCH   1   2
ATOM      2  C   UNL A   1      31.706  30.554  26.525  1.00  0.00     0.118 C 
BRANCH   2   3
ATOM      3  N   UNL A   1      32.939  30.128  27.157  1.00  0.00    -0.351 N 
ATOM      4  C   UNL A   1      33.880  29.174  26.841  1.00  0.00     0.269 C 
ATOM      5  O   UNL A   1      34.848  29.111  27.603  1.00  0.00    -0.268 OA
ATOM      6  H   UNL A   1      33.146  30.624  27.983  1.00  0.00     0.163 HD
BRANCH   4   7
ATOM      7  C   UNL A   1      33.802  28.254  25.646  1.00  0.00     0.130 A 
ATOM      8  C   UNL A   1      33.627  27.737  23.303  1.00  0.00     0.043 A 
ATOM      9  C   UNL A   1      33.650  28.674  24.338  1.00  0.00     0.060 A 
ATOM     10  C   UNL A   1      33.655  26.362  23.628  1.00  0.00     0.026 A 
ATOM     11  C   UNL A   1      33.752  26.022  24.996  1.00  0.00     0.073 A 
ATOM     12  C   UNL A   1      33.591  25.322  22.672  1.00  0.00     0.051 A 
ATOM     13  N   UNL A   1      33.845  26.937  25.967  1.00  0.00    -0.242 NA
ATOM     14  C   UNL A   1      33.742  24.682  25.363  1.00  0.00     0.032 A 
ATOM     15  C   UNL A   1      33.592  23.993  23.075  1.00  0.00     0.124 A 
ATOM     16  C   UNL A   1      33.657  23.661  24.415  1.00  0.00     0.041 A 
ATOM     17  F   UNL A   1      33.525  23.025  22.152  1.00  0.00    -0.207 F 
BRANCH   8  18
ATOM     18  N   UNL A   1      33.453  28.204  22.001  1.00  0.00    -0.398 N 
ATOM     19  H   UNL A   1      32.836  27.738  21.390  1.00  0.00     0.156 HD
ATOM     20  H   UNL A   1      33.947  28.997  21.692  1.00  0.00     0.156 HD
ENDBRANCH   8  18
ENDBRANCH   4   7
ENDBRANCH   2   3
ENDBRANCH   1   2
BRANCH   1  21
ATOM     21  C   UNL A   1      32.705  32.785  27.250  1.00  0.00     0.118 C 
BRANCH  21  22
ATOM     22  N   UNL A   1      32.408  34.162  27.629  1.00  0.00    -0.352 N 
ATOM     23  C   UNL A   1      32.973  34.959  28.598  1.00  0.00     0.251 C 
ATOM     24  H   UNL A   1      31.689  34.588  27.109  1.00  0.00     0.163 HD
ATOM     25  O   UNL A   1      32.458  36.032  28.876  1.00  0.00    -0.269 OA
BRANCH  23  26
ATOM     26  C   UNL A   1      34.181  34.506  29.327  1.00  0.00     0.039 A 
ATOM     27  C   UNL A   1      35.457  34.719  28.808  1.00  0.00     0.014 A 
ATOM     28  C   UNL A   1      34.029  33.854  30.555  1.00  0.00     0.014 A 
ATOM     29  C   UNL A   1      36.554  34.116  29.409  1.00  0.00     0.010 A 
ATOM     30  C   UNL A   1      35.149  33.335  31.214  1.00  0.00     0.010 A 
ATOM     31  C   UNL A   1      36.415  33.406  30.614  1.00  0.00    -0.014 A 
BRANCH  31  32
ATOM     32  C   UNL A   1      37.606  32.724  31.187  1.00  0.00     0.031 A 
ATOM     33  C   UNL A   1      38.077  33.045  32.582  1.00  0.00     0.074 A 
ATOM     34  C   UNL A   1      38.204  31.741  30.485  1.00  0.00     0.049 A 
ATOM     35  N   UNL A   1      39.029  32.480  33.283  1.00  0.00    -0.248 NA
ATOM     36  C   UNL A   1      37.398  34.146  33.286  1.00  0.00     0.031 C 
ATOM     37  C   UNL A   1      37.836  31.339  29.126  1.00  0.00     0.029 A 
ATOM     38  N   UNL A   1      39.207  30.869  30.828  1.00  0.00    -0.354 N 
ATOM     39  C   UNL A   1      39.066  33.157  34.494  1.00  0.00     0.074 A 
ATOM     40  C   UNL A   1      38.075  34.207  34.424  1.00  0.00     0.031 C 
ATOM     41  C   UNL A   1      38.547  30.256  28.779  1.00  0.00     0.029 A 
ATOM     42  C   UNL A   1      39.465  29.924  29.865  1.00  0.00     0.049 A 
ATOM     43  H   UNL A   1      39.696  30.918  31.681  1.00  0.00     0.167 HD
ATOM     44  C   UNL A   1      39.838  32.908  35.578  1.00  0.00     0.037 A 
ATOM     45  C   UNL A   1      40.342  28.902  29.854  1.00  0.00     0.037 A 
ATOM     46  C   UNL A   1      40.799  31.841  35.660  1.00  0.00     0.049 A 
ATOM     47  C   UNL A   1      41.223  28.683  31.053  1.00  0.00     0.074 A 
ATOM     48  C   UNL A   1      41.598  31.483  36.732  1.00  0.00     0.029 A 
ATOM     49  N   UNL A   1      41.087  30.957  34.632  1.00  0.00    -0.354 N 
ATOM     50  N   UNL A   1      41.218  29.307  32.206  1.00  0.00    -0.248 NA
ATOM     51  C   UNL A   1      42.243  27.630  30.945  1.00  0.00     0.031 C 
ATOM     52  C   UNL A   1      42.406  30.415  36.335  1.00  0.00     0.029 A 
ATOM     53  C   UNL A   1      42.079  30.077  35.032  1.00  0.00     0.049 A 
ATOM     54  H   UNL A   1      40.652  30.955  33.749  1.00  0.00     0.167 HD
ATOM     55  C   UNL A   1      42.227  28.723  32.960  1.00  0.00     0.074 A 
ATOM     56  C   UNL A   1      42.804  27.674  32.146  1.00  0.00     0.031 C 
ATOM     57  C   UNL A   1      42.644  29.039  34.208  1.00  0.00     0.037 A 
BRANCH  44  58
ATOM     58  C   UNL A   1      39.678  33.795  36.779  1.00  0.00     0.064 A 
ATOM     59  C   UNL A   1      40.288  35.057  36.845  1.00  0.00     0.173 A 
ATOM     60  C   UNL A   1      38.841  33.414  37.839  1.00  0.00     0.173 A 
ATOM     61  F   UNL A   1      41.105  35.464  35.863  1.00  0.00    -0.203 F 
ATOM     62  C   UNL A   1      40.075  35.899  37.934  1.00  0.00     0.198 A 
ATOM     63  C   UNL A   1      38.610  34.270  38.914  1.00  0.00     0.198 A 
ATOM     64  F   UNL A   1      38.228  32.221  37.822  1.00  0.00    -0.203 F 
ATOM     65  F   UNL A   1      40.693  37.087  37.989  1.00  0.00    -0.200 F 
ATOM     66  C   UNL A   1      39.230  35.510  38.962  1.00  0.00     0.200 A 
ATOM     67  F   UNL A   1      37.781  33.898  39.899  1.00  0.00    -0.200 F 
ATOM     68  F   UNL A   1      39.013  36.329  39.999  1.00  0.00    -0.200 F 
ENDBRANCH  44  58
BRANCH  45  69
ATOM     69  C   UNL A   1      40.427  28.010  28.667  1.00  0.00     0.064 A 
ATOM     70  C   UNL A   1      41.209  28.357  27.557  1.00  0.00     0.173 A 
ATOM     71  C   UNL A   1      39.742  26.787  28.624  1.00  0.00     0.173 A 
ATOM     72  F   UNL A   1      41.866  29.527  27.540  1.00  0.00    -0.203 F 
ATOM     73  C   UNL A   1      41.298  27.518  26.448  1.00  0.00     0.198 A 
ATOM     74  C   UNL A   1      39.855  25.934  27.528  1.00  0.00     0.198 A 
ATOM     75  F   UNL A   1      38.980  26.407  29.660  1.00  0.00    -0.203 F 
ATOM     76  F   UNL A   1      42.023  27.890  25.385  1.00  0.00    -0.200 F 
ATOM     77  C   UNL A   1      40.628  26.304  26.439  1.00  0.00     0.200 A 
ATOM     78  F   UNL A   1      39.220  24.755  27.532  1.00  0.00    -0.200 F 
ATOM     79  F   UNL A   1      40.724  25.491  25.377  1.00  0.00    -0.200 F 
ENDBRANCH  45  69
BRANCH  57  80
ATOM     80  C   UNL A   1      43.790  28.260  34.779  1.00  0.00     0.064 A 
ATOM     81  C   UNL A   1      45.104  28.742  34.696  1.00  0.00     0.173 A 
ATOM     82  C   UNL A   1      43.564  27.080  35.504  1.00  0.00     0.173 A 
ATOM     83  F   UNL A   1      45.370  29.859  34.002  1.00  0.00    -0.203 F 
ATOM     84  C   UNL A   1      46.152  28.071  35.319  1.00  0.00     0.198 A 
ATOM     85  C   UNL A   1      44.610  26.426  36.148  1.00  0.00     0.198 A 
ATOM     86  F   UNL A   1      42.323  26.584  35.619  1.00  0.00    -0.203 F 
ATOM     87  F   UNL A   1      47.403  28.539  35.211  1.00  0.00    -0.200 F 
ATOM     88  C   UNL A   1      45.903  26.921  36.055  1.00  0.00     0.200 A 
ATOM     89  F   UNL A   1      44.365  25.326  36.874  1.00  0.00    -0.200 F 
ATOM     90  F   UNL A   1      46.909  26.292  36.677  1.00  0.00    -0.200 F 
ENDBRANCH  57  80
ENDBRANCH  31  32
ENDBRANCH  23  26
ENDBRANCH  21  22
ENDBRANCH   1  21
TORSDOF 11
ENDMDL
MODEL 2
REMARK VINA RESULT:     -12.7      1.309      1.995
REMARK SMILES Nc1cc(C(=O)NCCCNC(=O)c2ccc(-c3c4nc(c(-c5c(F)c(F)c(F)c(F)c5F)c5ccc([nH]5)c(-c5c(F)c(F)c(F)c(F)c5F)c5nc(c(-c6c(F)c(F)c(F)c(F)c6F)c6ccc3[nH]6)C=C5)C=C4)cc2)nc2ccc(F)cc12
REMARK SMILES IDX 9 1 8 2 7 3 5 4 6 5 4 7 2 8 3 9 84 10 78 11 83 12 77 13
REMARK SMILES IDX 79 14 81 15 80 16 82 17 1 18 10 21 11 22 12 23 13 25 14 26
REMARK SMILES IDX 15 27 76 28 16 29 75 30 17 31 18 32 19 33 69 34 20 35 74 36
REMARK SMILES IDX 68 37 70 38 21 39 73 40 67 41 66 42 22 44 54 45 34 46 53 47
REMARK SMILES IDX 35 48 38 49 52 50 71 51 36 52 37 53 51 55 72 56 39 57 23 58
REMARK SMILES IDX 24 59 32 60 25 61 26 62 30 63 33 64 27 65 28 66 31 67 29 68
REMARK SMILES IDX 55 69 56 70 64 71 57 72 58 73 62 74 65 75 59 76 60 77 63 78
REMARK SMILES IDX 61 79 40 80 41 81 49 82 42 83 43 84 47 85 50 86 44 87 45 88
REMARK SMILES IDX 48 89 46 90
REMARK H PARENT 7 6 1 19 1 20 11 24 70 43 38 54
REMARK Flexibility Score: inf
ROOT
ATOM      1  C   UNL A   1      31.544  31.861  26.571  1.00  0.00     0.042 C 
ENDROOT
BRANCH   1   2
ATOM      2  C   UNL A   1      31.816  30.393  26.250  1.00  0.00     0.118 C 
BRANCH   2   3
ATOM      3  N   UNL A   1      31.421  30.072  24.893  1.00  0.00    -0.351 N 
ATOM      4  C   UNL A   1      31.213  28.884  24.227  1.00  0.00     0.269 C 
ATOM      5  O   UNL A   1      30.833  28.991  23.058  1.00  0.00    -0.268 OA
ATOM      6  H   UNL A   1      31.269  30.867  24.331  1.00  0.00     0.163 HD
BRANCH   4   7
ATOM      7  C   UNL A   1      31.398  27.515  24.835  1.00  0.00     0.130 A 
ATOM      8  C   UNL A   1      30.665  25.499  25.924  1.00  0.00     0.043 A 
ATOM      9  C   UNL A   1      30.390  26.773  25.425  1.00  0.00     0.060 A 
ATOM     10  C   UNL A   1      31.999  25.034  25.911  1.00  0.00     0.026 A 
ATOM     11  C   UNL A   1      32.975  25.883  25.343  1.00  0.00     0.073 A 
ATOM     12  C   UNL A   1      32.405  23.782  26.429  1.00  0.00     0.051 A 
ATOM     13  N   UNL A   1      32.679  27.071  24.804  1.00  0.00    -0.242 NA
ATOM     14  C   UNL A   1      34.305  25.482  25.344  1.00  0.00     0.032 A 
ATOM     15  C   UNL A   1      33.744  23.412  26.407  1.00  0.00     0.124 A 
ATOM     16  C   UNL A   1      34.702  24.255  25.877  1.00  0.00     0.041 A 
ATOM     17  F   UNL A   1      34.107  22.224  26.908  1.00  0.00    -0.207 F 
BRANCH   8  18
ATOM     18  N   UNL A   1      29.623  24.794  26.526  1.00  0.00    -0.398 N 
ATOM     19  H   UNL A   1      29.804  23.931  26.967  1.00  0.00     0.156 HD
ATOM     20  H   UNL A   1      28.709  25.157  26.512  1.00  0.00     0.156 HD
ENDBRANCH   8  18
ENDBRANCH   4   7
ENDBRANCH   2   3
ENDBRANCH   1   2
BRANCH   1  21
ATOM     21  C   UNL A   1      32.698  32.543  27.295  1.00  0.00     0.118 C 
BRANCH  21  22
ATOM     22  N   UNL A   1      32.403  33.932  27.629  1.00  0.00    -0.352 N 
ATOM     23  C   UNL A   1      32.980  34.765  28.560  1.00  0.00     0.251 C 
ATOM     24  H   UNL A   1      31.674  34.337  27.106  1.00  0.00     0.163 HD
ATOM     25  O   UNL A   1      32.465  35.847  28.808  1.00  0.00    -0.269 OA
BRANCH  23  26
ATOM     26  C   UNL A   1      34.200  34.343  29.286  1.00  0.00     0.039 A 
ATOM     27  C   UNL A   1      35.469  34.616  28.779  1.00  0.00     0.014 A 
ATOM     28  C   UNL A   1      34.067  33.659  30.499  1.00  0.00     0.014 A 
ATOM     29  C   UNL A   1      36.586  34.042  29.374  1.00  0.00     0.010 A 
ATOM     30  C   UNL A   1      35.203  33.169  31.153  1.00  0.00     0.010 A 
ATOM     31  C   UNL A   1      36.468  33.301  30.562  1.00  0.00    -0.014 A 
BRANCH  31  32
ATOM     32  C   UNL A   1      37.682  32.652  31.127  1.00  0.00     0.031 A 
ATOM     33  C   UNL A   1      38.157  32.994  32.515  1.00  0.00     0.074 A 
ATOM     34  C   UNL A   1      38.296  31.680  30.425  1.00  0.00     0.049 A 
ATOM     35  N   UNL A   1      39.130  32.456  33.210  1.00  0.00    -0.248 NA
ATOM     36  C   UNL A   1      37.458  34.080  33.220  1.00  0.00     0.031 C 
ATOM     37  C   UNL A   1      37.926  31.262  29.072  1.00  0.00     0.029 A 
ATOM     38  N   UNL A   1      39.325  30.836  30.763  1.00  0.00    -0.354 N 
ATOM     39  C   UNL A   1      39.161  33.141  34.417  1.00  0.00     0.074 A 
ATOM     40  C   UNL A   1      38.144  34.165  34.351  1.00  0.00     0.031 C 
ATOM     41  C   UNL A   1      38.660  30.195  28.724  1.00  0.00     0.029 A 
ATOM     42  C   UNL A   1      39.597  29.892  29.803  1.00  0.00     0.049 A 
ATOM     43  H   UNL A   1      39.820  30.902  31.611  1.00  0.00     0.167 HD
ATOM     44  C   UNL A   1      39.950  32.918  35.496  1.00  0.00     0.037 A 
ATOM     45  C   UNL A   1      40.500  28.893  29.789  1.00  0.00     0.037 A 
ATOM     46  C   UNL A   1      40.938  31.875  35.574  1.00  0.00     0.049 A 
ATOM     47  C   UNL A   1      41.398  28.702  30.980  1.00  0.00     0.074 A 
ATOM     48  C   UNL A   1      41.756  31.545  36.640  1.00  0.00     0.029 A 
ATOM     49  N   UNL A   1      41.238  30.993  34.547  1.00  0.00    -0.354 N 
ATOM     50  N   UNL A   1      41.388  29.333  32.129  1.00  0.00    -0.248 NA
ATOM     51  C   UNL A   1      42.442  27.675  30.868  1.00  0.00     0.031 C 
ATOM     52  C   UNL A   1      42.587  30.494  36.241  1.00  0.00     0.029 A 
ATOM     53  C   UNL A   1      42.256  30.140  34.943  1.00  0.00     0.049 A 
ATOM     54  H   UNL A   1      40.795  30.975  33.669  1.00  0.00     0.167 HD
ATOM     55  C   UNL A   1      42.418  28.779  32.877  1.00  0.00     0.074 A 
ATOM     56  C   UNL A   1      43.014  27.741  32.063  1.00  0.00     0.031 C 
ATOM     57  C   UNL A   1      42.839  29.113  34.119  1.00  0.00     0.037 A 
BRANCH  44  58
ATOM     58  C   UNL A   1      39.779  33.808  36.693  1.00  0.00     0.064 A 
ATOM     59  C   UNL A   1      40.390  35.069  36.763  1.00  0.00     0.173 A 
ATOM     60  C   UNL A   1      38.931  33.430  37.745  1.00  0.00     0.173 A 
ATOM     61  F   UNL A   1      41.218  35.473  35.788  1.00  0.00    -0.203 F 
ATOM     62  C   UNL A   1      40.169  35.913  37.847  1.00  0.00     0.198 A 
ATOM     63  C   UNL A   1      38.690  34.288  38.815  1.00  0.00     0.198 A 
ATOM     64  F   UNL A   1      38.316  32.238  37.724  1.00  0.00    -0.203 F 
ATOM     65  F   UNL A   1      40.788  37.101  37.907  1.00  0.00    -0.200 F 
ATOM     66  C   UNL A   1      39.312  35.527  38.867  1.00  0.00     0.200 A 
ATOM     67  F   UNL A   1      37.851  33.920  39.793  1.00  0.00    -0.200 F 
ATOM     68  F   UNL A   1      39.086  36.349  39.901  1.00  0.00    -0.200 F 
ENDBRANCH  44  58
BRANCH  45  69
ATOM     69  C   UNL A   1      40.595  27.996  28.606  1.00  0.00     0.064 A 
ATOM     70  C   UNL A   1      39.906  26.777  28.566  1.00  0.00     0.173 A 
ATOM     71  C   UNL A   1      41.363  28.347  27.485  1.00  0.00     0.173 A 
ATOM     72  F   UNL A   1      39.176  26.386  29.622  1.00  0.00    -0.203 F 
ATOM     73  C   UNL A   1      39.986  25.940  27.456  1.00  0.00     0.198 A 
ATOM     74  C   UNL A   1      41.418  27.525  26.362  1.00  0.00     0.198 A 
ATOM     75  F   UNL A   1      42.042  29.504  27.471  1.00  0.00    -0.203 F 
ATOM     76  F   UNL A   1      39.347  24.763  27.458  1.00  0.00    -0.200 F 
ATOM     77  C   UNL A   1      40.735  26.319  26.351  1.00  0.00     0.200 A 
ATOM     78  F   UNL A   1      42.128  27.903  25.292  1.00  0.00    -0.200 F 
ATOM     79  F   UNL A   1      40.801  25.519  25.277  1.00  0.00    -0.200 F 
ENDBRANCH  45  69
BRANCH  57  80
ATOM     80  C   UNL A   1      44.010  28.365  34.683  1.00  0.00     0.064 A 
ATOM     81  C   UNL A   1      45.311  28.878  34.581  1.00  0.00     0.173 A 
ATOM     82  C   UNL A   1      43.820  27.187  35.421  1.00  0.00     0.173 A 
ATOM     83  F   UNL A   1      45.542  29.994  33.873  1.00  0.00    -0.203 F 
ATOM     84  C   UNL A   1      46.381  28.237  35.197  1.00  0.00     0.198 A 
ATOM     85  C   UNL A   1      44.889  26.564  36.058  1.00  0.00     0.198 A 
ATOM     86  F   UNL A   1      42.593  26.664  35.556  1.00  0.00    -0.203 F 
ATOM     87  F   UNL A   1      47.620  28.733  35.070  1.00  0.00    -0.200 F 
ATOM     88  C   UNL A   1      46.168  27.089  35.945  1.00  0.00     0.200 A 
ATOM     89  F   UNL A   1      44.679  25.465  36.797  1.00  0.00    -0.200 F 
ATOM     90  F   UNL A   1      47.196  26.489  36.562  1.00  0.00    -0.200 F 
ENDBRANCH  57  80
ENDBRANCH  31  32
ENDBRANCH  23  26
ENDBRANCH  21  22
ENDBRANCH   1  21
TORSDOF 11
ENDMDL
MODEL 3
REMARK VINA RESULT:     -12.6      1.332      2.322
REMARK SMILES Nc1cc(C(=O)NCCCNC(=O)c2ccc(-c3c4nc(c(-c5c(F)c(F)c(F)c(F)c5F)c5ccc([nH]5)c(-c5c(F)c(F)c(F)c(F)c5F)c5nc(c(-c6c(F)c(F)c(F)c(F)c6F)c6ccc3[nH]6)C=C5)C=C4)cc2)nc2ccc(F)cc12
REMARK SMILES IDX 9 1 8 2 7 3 5 4 6 5 4 7 2 8 3 9 84 10 78 11 83 12 77 13
REMARK SMILES IDX 79 14 81 15 80 16 82 17 1 18 10 21 11 22 12 23 13 25 14 26
REMARK SMILES IDX 15 27 76 28 16 29 75 30 17 31 18 32 19 33 69 34 20 35 74 36
REMARK SMILES IDX 68 37 70 38 21 39 73 40 67 41 66 42 22 44 54 45 34 46 53 47
REMARK SMILES IDX 35 48 38 49 52 50 71 51 36 52 37 53 51 55 72 56 39 57 23 58
REMARK SMILES IDX 24 59 32 60 25 61 26 62 30 63 33 64 27 65 28 66 31 67 29 68
REMARK SMILES IDX 55 69 56 70 64 71 57 72 58 73 62 74 65 75 59 76 60 77 63 78
REMARK SMILES IDX 61 79 40 80 41 81 49 82 42 83 43 84 47 85 50 86 44 87 45 88
REMARK SMILES IDX 48 89 46 90
REMARK H PARENT 7 6 1 19 1 20 11 24 70 43 38 54
REMARK Flexibility Score: inf
ROOT
ATOM      1  C   UNL A   1      31.555  31.842  26.520  1.00  0.00     0.042 C 
ENDROOT
BRANCH   1   2
ATOM      2  C   UNL A   1      31.815  30.371  26.200  1.00  0.00     0.118 C 
BRANCH   2   3
ATOM      3  N   UNL A   1      31.373  30.041  24.860  1.00  0.00    -0.351 N 
ATOM      4  C   UNL A   1      31.144  28.849  24.209  1.00  0.00     0.269 C 
ATOM      5  O   UNL A   1      30.723  28.948  23.054  1.00  0.00    -0.268 OA
ATOM      6  H   UNL A   1      31.200  30.832  24.299  1.00  0.00     0.163 HD
BRANCH   4   7
ATOM      7  C   UNL A   1      31.351  27.484  24.820  1.00  0.00     0.130 A 
ATOM      8  C   UNL A   1      30.654  25.461  25.920  1.00  0.00     0.043 A 
ATOM      9  C   UNL A   1      30.359  26.731  25.419  1.00  0.00     0.060 A 
ATOM     10  C   UNL A   1      31.994  25.014  25.896  1.00  0.00     0.026 A 
ATOM     11  C   UNL A   1      32.954  25.874  25.318  1.00  0.00     0.073 A 
ATOM     12  C   UNL A   1      32.421  23.769  26.414  1.00  0.00     0.051 A 
ATOM     13  N   UNL A   1      32.638  27.056  24.778  1.00  0.00    -0.242 NA
ATOM     14  C   UNL A   1      34.289  25.491  25.309  1.00  0.00     0.032 A 
ATOM     15  C   UNL A   1      33.764  23.416  26.381  1.00  0.00     0.124 A 
ATOM     16  C   UNL A   1      34.706  24.270  25.841  1.00  0.00     0.041 A 
ATOM     17  F   UNL A   1      34.146  22.234  26.883  1.00  0.00    -0.207 F 
BRANCH   8  18
ATOM     18  N   UNL A   1      29.627  24.744  26.533  1.00  0.00    -0.398 N 
ATOM     19  H   UNL A   1      29.486  23.796  26.306  1.00  0.00     0.156 HD
ATOM     20  H   UNL A   1      29.043  25.185  27.191  1.00  0.00     0.156 HD
ENDBRANCH   8  18
ENDBRANCH   4   7
ENDBRANCH   2   3
ENDBRANCH   1   2
BRANCH   1  21
ATOM     21  C   UNL A   1      32.691  32.500  27.295  1.00  0.00     0.118 C 
BRANCH  21  22
ATOM     22  N   UNL A   1      32.413  33.897  27.611  1.00  0.00    -0.352 N 
ATOM     23  C   UNL A   1      32.997  34.733  28.534  1.00  0.00     0.251 C 
ATOM     24  H   UNL A   1      31.692  34.305  27.080  1.00  0.00     0.163 HD
ATOM     25  O   UNL A   1      32.497  35.824  28.766  1.00  0.00    -0.269 OA
BRANCH  23  26
ATOM     26  C   UNL A   1      34.209  34.303  29.270  1.00  0.00     0.039 A 
ATOM     27  C   UNL A   1      35.483  34.646  28.821  1.00  0.00     0.014 A 
ATOM     28  C   UNL A   1      34.062  33.540  30.434  1.00  0.00     0.014 A 
ATOM     29  C   UNL A   1      36.600  34.070  29.414  1.00  0.00     0.010 A 
ATOM     30  C   UNL A   1      35.194  33.045  31.090  1.00  0.00     0.010 A 
ATOM     31  C   UNL A   1      36.471  33.252  30.549  1.00  0.00    -0.014 A 
BRANCH  31  32
ATOM     32  C   UNL A   1      37.688  32.606  31.111  1.00  0.00     0.031 A 
ATOM     33  C   UNL A   1      38.165  32.946  32.499  1.00  0.00     0.074 A 
ATOM     34  C   UNL A   1      38.304  31.637  30.406  1.00  0.00     0.049 A 
ATOM     35  N   UNL A   1      39.141  32.411  33.190  1.00  0.00    -0.248 NA
ATOM     36  C   UNL A   1      37.464  34.030  33.207  1.00  0.00     0.031 C 
ATOM     37  C   UNL A   1      37.932  31.220  29.052  1.00  0.00     0.029 A 
ATOM     38  N   UNL A   1      39.336  30.796  30.739  1.00  0.00    -0.354 N 
ATOM     39  C   UNL A   1      39.173  33.093  34.399  1.00  0.00     0.074 A 
ATOM     40  C   UNL A   1      38.151  34.114  34.337  1.00  0.00     0.031 C 
ATOM     41  C   UNL A   1      38.670  30.157  28.701  1.00  0.00     0.029 A 
ATOM     42  C   UNL A   1      39.610  29.855  29.777  1.00  0.00     0.049 A 
ATOM     43  H   UNL A   1      39.833  30.862  31.587  1.00  0.00     0.167 HD
ATOM     44  C   UNL A   1      39.964  32.871  35.475  1.00  0.00     0.037 A 
ATOM     45  C   UNL A   1      40.515  28.859  29.759  1.00  0.00     0.037 A 
ATOM     46  C   UNL A   1      40.955  31.831  35.549  1.00  0.00     0.049 A 
ATOM     47  C   UNL A   1      41.416  28.668  30.949  1.00  0.00     0.074 A 
ATOM     48  C   UNL A   1      41.777  31.501  36.613  1.00  0.00     0.029 A 
ATOM     49  N   UNL A   1      41.257  30.952  34.521  1.00  0.00    -0.354 N 
ATOM     50  N   UNL A   1      41.407  29.297  32.099  1.00  0.00    -0.248 NA
ATOM     51  C   UNL A   1      42.464  27.645  30.833  1.00  0.00     0.031 C 
ATOM     52  C   UNL A   1      42.610  30.454  36.211  1.00  0.00     0.029 A 
ATOM     53  C   UNL A   1      42.278  30.102  34.913  1.00  0.00     0.049 A 
ATOM     54  H   UNL A   1      40.811  30.934  33.643  1.00  0.00     0.167 HD
ATOM     55  C   UNL A   1      42.440  28.745  32.843  1.00  0.00     0.074 A 
ATOM     56  C   UNL A   1      43.037  27.710  32.027  1.00  0.00     0.031 C 
ATOM     57  C   UNL A   1      42.862  29.078  34.086  1.00  0.00     0.037 A 
BRANCH  44  58
ATOM     58  C   UNL A   1      39.792  33.758  36.674  1.00  0.00     0.064 A 
ATOM     59  C   UNL A   1      40.413  35.014  36.752  1.00  0.00     0.173 A 
ATOM     60  C   UNL A   1      38.936  33.383  37.720  1.00  0.00     0.173 A 
ATOM     61  F   UNL A   1      41.249  35.415  35.783  1.00  0.00    -0.203 F 
ATOM     62  C   UNL A   1      40.191  35.856  37.838  1.00  0.00     0.198 A 
ATOM     63  C   UNL A   1      38.695  34.239  38.792  1.00  0.00     0.198 A 
ATOM     64  F   UNL A   1      38.312  32.195  37.692  1.00  0.00    -0.203 F 
ATOM     65  F   UNL A   1      40.818  37.039  37.905  1.00  0.00    -0.200 F 
ATOM     66  C   UNL A   1      39.325  35.474  38.852  1.00  0.00     0.200 A 
ATOM     67  F   UNL A   1      37.847  33.874  39.764  1.00  0.00    -0.200 F 
ATOM     68  F   UNL A   1      39.099  36.293  39.887  1.00  0.00    -0.200 F 
ENDBRANCH  44  58
BRANCH  45  69
ATOM     69  C   UNL A   1      40.611  27.964  28.574  1.00  0.00     0.064 A 
ATOM     70  C   UNL A   1      39.920  26.746  28.531  1.00  0.00     0.173 A 
ATOM     71  C   UNL A   1      41.381  28.316  27.456  1.00  0.00     0.173 A 
ATOM     72  F   UNL A   1      39.187  26.355  29.585  1.00  0.00    -0.203 F 
ATOM     73  C   UNL A   1      40.000  25.912  27.419  1.00  0.00     0.198 A 
ATOM     74  C   UNL A   1      41.437  27.496  26.331  1.00  0.00     0.198 A 
ATOM     75  F   UNL A   1      42.063  29.472  27.446  1.00  0.00    -0.203 F 
ATOM     76  F   UNL A   1      39.359  24.736  27.417  1.00  0.00    -0.200 F 
ATOM     77  C   UNL A   1      40.752  26.292  26.316  1.00  0.00     0.200 A 
ATOM     78  F   UNL A   1      42.150  27.876  25.263  1.00  0.00    -0.200 F 
ATOM     79  F   UNL A   1      40.818  25.495  25.240  1.00  0.00    -0.200 F 
ENDBRANCH  45  69
BRANCH  57  80
ATOM     80  C   UNL A   1      44.037  28.333  34.646  1.00  0.00     0.064 A 
ATOM     81  C   UNL A   1      43.866  27.112  35.314  1.00  0.00     0.173 A 
ATOM     82  C   UNL A   1      45.346  28.786  34.422  1.00  0.00     0.173 A 
ATOM     83  F   UNL A   1      42.632  26.646  35.562  1.00  0.00    -0.203 F 
ATOM     84  C   UNL A   1      44.964  26.371  35.739  1.00  0.00     0.198 A 
ATOM     85  C   UNL A   1      46.442  28.029  34.825  1.00  0.00     0.198 A 
ATOM     86  F   UNL A   1      45.560  29.943  33.779  1.00  0.00    -0.203 F 
ATOM     87  F   UNL A   1      44.777  25.216  36.393  1.00  0.00    -0.200 F 
ATOM     88  C   UNL A   1      46.250  26.823  35.483  1.00  0.00     0.200 A 
ATOM     89  F   UNL A   1      47.684  28.457  34.560  1.00  0.00    -0.200 F 
ATOM     90  F   UNL A   1      47.307  26.093  35.868  1.00  0.00    -0.200 F 
ENDBRANCH  57  80
ENDBRANCH  31  32
ENDBRANCH  23  26
ENDBRANCH  21  22
ENDBRANCH   1  21
TORSDOF 11
ENDMDL
