MODEL 1
REMARK VINA RESULT:     -13.5      0.000      0.000
REMARK SMILES O=C(CNC(=O)[C@H]1CC[C@@H](Cn2cnc3ccccc3c2=O)CC1)NCCCNC(=O)c1ccc(-c2c3nc(c(-c4c(F)c(F)c(F)c(F)c4F)c4ccc([nH]4)c(-c4c(F)c(F)c(F)c(F)c4F)c4nc(c(-c5c(F)c(F)c(F)c(F)c5F)c5ccc2[nH]5)C=C4)C=C3)cc1
REMARK SMILES IDX 26 1 25 2 1 3 2 4 3 6 4 7 5 8 6 10 7 11 24 12 8 13 23 14
REMARK SMILES IDX 9 15 10 16 11 17 12 18 13 19 21 20 14 21 20 22 22 23 15 24
REMARK SMILES IDX 19 25 16 26 18 27 17 28 27 29 28 30 29 31 30 32 31 34 32 35
REMARK SMILES IDX 33 36 94 37 34 38 93 39 35 40 36 41 37 42 87 43 38 44 92 45
REMARK SMILES IDX 86 46 88 47 39 48 91 49 85 50 84 51 40 53 72 54 52 55 71 56
REMARK SMILES IDX 53 57 56 58 70 59 89 60 54 61 55 62 69 64 90 65 57 66 41 67
REMARK SMILES IDX 42 68 50 69 43 70 44 71 48 72 51 73 45 74 46 75 49 76 47 77
REMARK SMILES IDX 73 78 74 79 82 80 75 81 76 82 80 83 83 84 77 85 78 86 81 87
REMARK SMILES IDX 79 88 58 89 59 90 67 91 60 92 61 93 65 94 68 95 62 96 63 97
REMARK SMILES IDX 66 98 64 99
REMARK H PARENT 25 5 4 9 29 33 88 52 56 63
REMARK Flexibility Score: inf
ROOT
ATOM      1  C   UNL A   1      37.210  20.830  24.705  1.00  0.00     0.117 C 
ENDROOT
BRANCH   1   2
ATOM      2  N   UNL A   1      35.964  20.748  25.443  1.00  0.00    -0.355 N 
ATOM      3  O   UNL A   1      35.965  22.929  26.146  1.00  0.00    -0.273 OA
ATOM      4  C   UNL A   1      35.399  21.841  26.062  1.00  0.00     0.239 C 
ATOM      5  H   UNL A   1      35.506  19.879  25.504  1.00  0.00     0.163 HD
BRANCH   4   6
ATOM      6  C   UNL A   1      34.032  21.593  26.716  1.00  0.00     0.216 C 
BRANCH   6   7
ATOM      7  N   UNL A   1      33.451  20.301  26.371  1.00  0.00    -0.347 N 
ATOM      8  C   UNL A   1      32.524  19.959  25.439  1.00  0.00     0.223 C 
ATOM      9  H   UNL A   1      33.788  19.546  26.906  1.00  0.00     0.164 HD
ATOM     10  O   UNL A   1      32.198  18.774  25.376  1.00  0.00    -0.275 OA
BRANCH   8  11
ATOM     11  C   UNL A   1      31.923  21.008  24.513  1.00  0.00     0.078 C 
ATOM     12  C   UNL A   1      31.503  22.235  25.334  1.00  0.00     0.014 C 
ATOM     13  C   UNL A   1      32.952  21.388  23.442  1.00  0.00     0.014 C 
ATOM     14  C   UNL A   1      31.028  23.388  24.448  1.00  0.00     0.006 C 
ATOM     15  C   UNL A   1      32.446  22.520  22.554  1.00  0.00     0.006 C 
ATOM     16  C   UNL A   1      32.039  23.771  23.350  1.00  0.00     0.009 C 
BRANCH  16  17
ATOM     17  C   UNL A   1      33.233  24.553  23.948  1.00  0.00     0.130 C 
BRANCH  17  18
ATOM     18  N   UNL A   1      32.896  25.913  24.361  1.00  0.00    -0.298 N 
ATOM     19  C   UNL A   1      31.926  26.616  23.686  1.00  0.00     0.203 A 
ATOM     20  C   UNL A   1      33.539  26.465  25.462  1.00  0.00     0.261 A 
ATOM     21  N   UNL A   1      31.548  27.819  23.963  1.00  0.00    -0.238 NA
ATOM     22  C   UNL A   1      33.141  27.836  25.827  1.00  0.00     0.066 A 
ATOM     23  O   UNL A   1      34.396  25.887  26.126  1.00  0.00    -0.269 OA
ATOM     24  C   UNL A   1      32.162  28.457  25.051  1.00  0.00     0.077 A 
ATOM     25  C   UNL A   1      33.728  28.490  26.917  1.00  0.00     0.016 A 
ATOM     26  C   UNL A   1      31.774  29.758  25.382  1.00  0.00     0.029 A 
ATOM     27  C   UNL A   1      33.328  29.785  27.238  1.00  0.00     0.001 A 
ATOM     28  C   UNL A   1      32.353  30.420  26.469  1.00  0.00     0.002 A 
ENDBRANCH  17  18
ENDBRANCH  16  17
ENDBRANCH   8  11
ENDBRANCH   6   7
ENDBRANCH   4   6
ENDBRANCH   1   2
BRANCH   1  29
ATOM     29  C   UNL A   1      38.157  19.666  24.978  1.00  0.00     0.042 C 
BRANCH  29  30
ATOM     30  C   UNL A   1      39.371  20.032  25.825  1.00  0.00     0.118 C 
BRANCH  30  31
ATOM     31  N   UNL A   1      40.408  19.005  25.827  1.00  0.00    -0.352 N 
ATOM     32  C   UNL A   1      41.767  19.102  26.011  1.00  0.00     0.251 C 
ATOM     33  H   UNL A   1      40.079  18.090  25.670  1.00  0.00     0.163 HD
ATOM     34  O   UNL A   1      42.476  18.114  25.835  1.00  0.00    -0.269 OA
BRANCH  32  35
ATOM     35  C   UNL A   1      42.392  20.392  26.374  1.00  0.00     0.039 A 
ATOM     36  C   UNL A   1      42.353  20.876  27.682  1.00  0.00     0.014 A 
ATOM     37  C   UNL A   1      43.029  21.138  25.376  1.00  0.00     0.014 A 
ATOM     38  C   UNL A   1      42.774  22.177  27.952  1.00  0.00     0.010 A 
ATOM     39  C   UNL A   1      43.524  22.413  25.666  1.00  0.00     0.010 A 
ATOM     40  C   UNL A   1      43.340  22.968  26.940  1.00  0.00    -0.014 A 
BRANCH  40  41
ATOM     41  C   UNL A   1      43.679  24.390  27.218  1.00  0.00     0.031 A 
ATOM     42  C   UNL A   1      45.065  24.908  26.935  1.00  0.00     0.074 A 
ATOM     43  C   UNL A   1      42.728  25.233  27.662  1.00  0.00     0.049 A 
ATOM     44  N   UNL A   1      45.551  26.112  27.113  1.00  0.00    -0.248 NA
ATOM     45  C   UNL A   1      46.034  23.949  26.381  1.00  0.00     0.031 C 
ATOM     46  C   UNL A   1      41.342  24.863  27.950  1.00  0.00     0.029 A 
ATOM     47  N   UNL A   1      42.776  26.579  27.927  1.00  0.00    -0.354 N 
ATOM     48  C   UNL A   1      46.879  26.049  26.710  1.00  0.00     0.074 A 
ATOM     49  C   UNL A   1      47.135  24.684  26.306  1.00  0.00     0.031 C 
ATOM     50  C   UNL A   1      40.660  25.963  28.305  1.00  0.00     0.029 A 
ATOM     51  C   UNL A   1      41.572  27.103  28.325  1.00  0.00     0.049 A 
ATOM     52  H   UNL A   1      43.597  27.116  27.840  1.00  0.00     0.167 HD
ATOM     53  C   UNL A   1      47.799  27.043  26.666  1.00  0.00     0.037 A 
ATOM     54  C   UNL A   1      41.240  28.360  28.677  1.00  0.00     0.037 A 
ATOM     55  C   UNL A   1      47.542  28.409  27.040  1.00  0.00     0.049 A 
ATOM     56  C   UNL A   1      42.291  29.433  28.664  1.00  0.00     0.074 A 
ATOM     57  C   UNL A   1      48.410  29.487  27.019  1.00  0.00     0.029 A 
ATOM     58  N   UNL A   1      46.322  28.887  27.496  1.00  0.00    -0.354 N 
ATOM     59  N   UNL A   1      43.547  29.356  28.297  1.00  0.00    -0.248 NA
ATOM     60  C   UNL A   1      41.880  30.767  29.124  1.00  0.00     0.031 C 
ATOM     61  C   UNL A   1      47.725  30.610  27.494  1.00  0.00     0.029 A 
ATOM     62  C   UNL A   1      46.420  30.241  27.773  1.00  0.00     0.049 A 
ATOM     63  H   UNL A   1      45.509  28.344  27.606  1.00  0.00     0.167 HD
ATOM     64  C   UNL A   1      44.074  30.628  28.473  1.00  0.00     0.074 A 
ATOM     65  C   UNL A   1      42.995  31.465  28.958  1.00  0.00     0.031 C 
ATOM     66  C   UNL A   1      45.340  31.060  28.259  1.00  0.00     0.037 A 
BRANCH  53  67
ATOM     67  C   UNL A   1      49.182  26.695  26.198  1.00  0.00     0.064 A 
ATOM     68  C   UNL A   1      49.570  26.874  24.862  1.00  0.00     0.173 A 
ATOM     69  C   UNL A   1      50.147  26.240  27.108  1.00  0.00     0.173 A 
ATOM     70  F   UNL A   1      48.679  27.295  23.951  1.00  0.00    -0.203 F 
ATOM     71  C   UNL A   1      50.871  26.597  24.452  1.00  0.00     0.198 A 
ATOM     72  C   UNL A   1      51.454  25.987  26.700  1.00  0.00     0.198 A 
ATOM     73  F   UNL A   1      49.828  26.058  28.398  1.00  0.00    -0.203 F 
ATOM     74  F   UNL A   1      51.213  26.745  23.165  1.00  0.00    -0.200 F 
ATOM     75  C   UNL A   1      51.814  26.162  25.372  1.00  0.00     0.200 A 
ATOM     76  F   UNL A   1      52.366  25.578  27.593  1.00  0.00    -0.200 F 
ATOM     77  F   UNL A   1      53.070  25.909  24.978  1.00  0.00    -0.200 F 
ENDBRANCH  53  67
BRANCH  54  78
ATOM     78  C   UNL A   1      39.841  28.665  29.071  1.00  0.00     0.064 A 
ATOM     79  C   UNL A   1      38.913  29.120  28.126  1.00  0.00     0.173 A 
ATOM     80  C   UNL A   1      39.400  28.488  30.391  1.00  0.00     0.173 A 
ATOM     81  F   UNL A   1      39.295  29.328  26.857  1.00  0.00    -0.203 F 
ATOM     82  C   UNL A   1      37.594  29.391  28.487  1.00  0.00     0.198 A 
ATOM     83  C   UNL A   1      38.076  28.734  30.744  1.00  0.00     0.198 A 
ATOM     84  F   UNL A   1      40.253  28.055  31.330  1.00  0.00    -0.203 F 
ATOM     85  F   UNL A   1      36.733  29.853  27.570  1.00  0.00    -0.200 F 
ATOM     86  C   UNL A   1      37.175  29.188  29.793  1.00  0.00     0.200 A 
ATOM     87  F   UNL A   1      37.672  28.525  32.005  1.00  0.00    -0.200 F 
ATOM     88  F   UNL A   1      35.904  29.436  30.137  1.00  0.00    -0.200 F 
ENDBRANCH  54  78
BRANCH  66  89
ATOM     89  C   UNL A   1      45.630  32.505  28.537  1.00  0.00     0.064 A 
ATOM     90  C   UNL A   1      45.443  33.488  27.554  1.00  0.00     0.173 A 
ATOM     91  C   UNL A   1      46.053  32.916  29.810  1.00  0.00     0.173 A 
ATOM     92  F   UNL A   1      45.054  33.142  26.319  1.00  0.00    -0.203 F 
ATOM     93  C   UNL A   1      45.687  34.831  27.832  1.00  0.00     0.198 A 
ATOM     94  C   UNL A   1      46.271  34.262  30.091  1.00  0.00     0.198 A 
ATOM     95  F   UNL A   1      46.239  32.013  30.784  1.00  0.00    -0.203 F 
ATOM     96  F   UNL A   1      45.538  35.750  26.869  1.00  0.00    -0.200 F 
ATOM     97  C   UNL A   1      46.092  35.217  29.101  1.00  0.00     0.200 A 
ATOM     98  F   UNL A   1      46.653  34.634  31.321  1.00  0.00    -0.200 F 
ATOM     99  F   UNL A   1      46.319  36.510  29.369  1.00  0.00    -0.200 F 
ENDBRANCH  66  89
ENDBRANCH  40  41
ENDBRANCH  32  35
ENDBRANCH  30  31
ENDBRANCH  29  30
ENDBRANCH   1  29
TORSDOF 14
ENDMDL
MODEL 2
REMARK VINA RESULT:     -13.3      1.493      2.778
REMARK SMILES O=C(CNC(=O)[C@H]1CC[C@@H](Cn2cnc3ccccc3c2=O)CC1)NCCCNC(=O)c1ccc(-c2c3nc(c(-c4c(F)c(F)c(F)c(F)c4F)c4ccc([nH]4)c(-c4c(F)c(F)c(F)c(F)c4F)c4nc(c(-c5c(F)c(F)c(F)c(F)c5F)c5ccc2[nH]5)C=C4)C=C3)cc1
REMARK SMILES IDX 26 1 25 2 1 3 2 4 3 6 4 7 5 8 6 10 7 11 24 12 8 13 23 14
REMARK SMILES IDX 9 15 10 16 11 17 12 18 13 19 21 20 14 21 20 22 22 23 15 24
REMARK SMILES IDX 19 25 16 26 18 27 17 28 27 29 28 30 29 31 30 32 31 34 32 35
REMARK SMILES IDX 33 36 94 37 34 38 93 39 35 40 36 41 37 42 87 43 38 44 92 45
REMARK SMILES IDX 86 46 88 47 39 48 91 49 85 50 84 51 40 53 72 54 52 55 71 56
REMARK SMILES IDX 53 57 56 58 70 59 89 60 54 61 55 62 69 64 90 65 57 66 41 67
REMARK SMILES IDX 42 68 50 69 43 70 44 71 48 72 51 73 45 74 46 75 49 76 47 77
REMARK SMILES IDX 73 78 74 79 82 80 75 81 76 82 80 83 83 84 77 85 78 86 81 87
REMARK SMILES IDX 79 88 58 89 59 90 67 91 60 92 61 93 65 94 68 95 62 96 63 97
REMARK SMILES IDX 66 98 64 99
REMARK H PARENT 25 5 4 9 29 33 88 52 56 63
REMARK Flexibility Score: inf
ROOT
ATOM      1  C   UNL A   1      36.817  19.287  25.001  1.00  0.00     0.117 C 
ENDROOT
BRANCH   1   2
ATOM      2  N   UNL A   1      35.474  19.833  24.951  1.00  0.00    -0.355 N 
ATOM      3  O   UNL A   1      34.432  17.845  24.486  1.00  0.00    -0.273 OA
ATOM      4  C   UNL A   1      34.362  19.042  24.758  1.00  0.00     0.239 C 
ATOM      5  H   UNL A   1      35.353  20.803  25.059  1.00  0.00     0.163 HD
BRANCH   4   6
ATOM      6  C   UNL A   1      33.015  19.774  24.828  1.00  0.00     0.216 C 
BRANCH   6   7
ATOM      7  N   UNL A   1      32.838  20.547  26.052  1.00  0.00    -0.347 N 
ATOM      8  C   UNL A   1      33.026  21.866  26.309  1.00  0.00     0.223 C 
ATOM      9  H   UNL A   1      32.529  20.021  26.825  1.00  0.00     0.164 HD
ATOM     10  O   UNL A   1      32.814  22.253  27.458  1.00  0.00    -0.275 OA
BRANCH   8  11
ATOM     11  C   UNL A   1      33.478  22.820  25.211  1.00  0.00     0.078 C 
ATOM     12  C   UNL A   1      32.251  23.353  24.459  1.00  0.00     0.014 C 
ATOM     13  C   UNL A   1      34.285  23.966  25.834  1.00  0.00     0.014 C 
ATOM     14  C   UNL A   1      32.623  24.431  23.439  1.00  0.00     0.006 C 
ATOM     15  C   UNL A   1      34.666  25.013  24.794  1.00  0.00     0.006 C 
ATOM     16  C   UNL A   1      33.452  25.582  24.040  1.00  0.00     0.009 C 
BRANCH  16  17
ATOM     17  C   UNL A   1      32.563  26.516  24.895  1.00  0.00     0.130 C 
BRANCH  17  18
ATOM     18  N   UNL A   1      31.749  27.436  24.104  1.00  0.00    -0.298 N 
ATOM     19  C   UNL A   1      32.355  28.355  23.279  1.00  0.00     0.203 A 
ATOM     20  C   UNL A   1      30.364  27.341  24.169  1.00  0.00     0.261 A 
ATOM     21  N   UNL A   1      31.737  29.212  22.538  1.00  0.00    -0.238 NA
ATOM     22  C   UNL A   1      29.609  28.294  23.336  1.00  0.00     0.066 A 
ATOM     23  O   UNL A   1      29.757  26.530  24.862  1.00  0.00    -0.269 OA
ATOM     24  C   UNL A   1      30.335  29.196  22.559  1.00  0.00     0.077 A 
ATOM     25  C   UNL A   1      28.209  28.289  23.327  1.00  0.00     0.016 A 
ATOM     26  C   UNL A   1      29.635  30.108  21.765  1.00  0.00     0.029 A 
ATOM     27  C   UNL A   1      27.523  29.201  22.528  1.00  0.00     0.001 A 
ATOM     28  C   UNL A   1      28.236  30.112  21.748  1.00  0.00     0.002 A 
ENDBRANCH  17  18
ENDBRANCH  16  17
ENDBRANCH   8  11
ENDBRANCH   6   7
ENDBRANCH   4   6
ENDBRANCH   1   2
BRANCH   1  29
ATOM     29  C   UNL A   1      37.904  20.322  24.733  1.00  0.00     0.042 C 
BRANCH  29  30
ATOM     30  C   UNL A   1      38.925  20.463  25.856  1.00  0.00     0.118 C 
BRANCH  30  31
ATOM     31  N   UNL A   1      39.922  19.398  25.871  1.00  0.00    -0.352 N 
ATOM     32  C   UNL A   1      41.284  19.444  26.062  1.00  0.00     0.251 C 
ATOM     33  H   UNL A   1      39.560  18.495  25.719  1.00  0.00     0.163 HD
ATOM     34  O   UNL A   1      41.956  18.429  25.897  1.00  0.00    -0.269 OA
BRANCH  32  35
ATOM     35  C   UNL A   1      41.954  20.713  26.420  1.00  0.00     0.039 A 
ATOM     36  C   UNL A   1      42.228  21.041  27.749  1.00  0.00     0.014 A 
ATOM     37  C   UNL A   1      42.314  21.598  25.398  1.00  0.00     0.014 A 
ATOM     38  C   UNL A   1      42.678  22.321  28.067  1.00  0.00     0.010 A 
ATOM     39  C   UNL A   1      42.841  22.854  25.714  1.00  0.00     0.010 A 
ATOM     40  C   UNL A   1      42.965  23.250  27.054  1.00  0.00    -0.014 A 
BRANCH  40  41
ATOM     41  C   UNL A   1      43.335  24.644  27.414  1.00  0.00     0.031 A 
ATOM     42  C   UNL A   1      44.727  25.154  27.143  1.00  0.00     0.074 A 
ATOM     43  C   UNL A   1      42.407  25.475  27.925  1.00  0.00     0.049 A 
ATOM     44  N   UNL A   1      45.239  26.335  27.388  1.00  0.00    -0.248 NA
ATOM     45  C   UNL A   1      45.669  24.214  26.516  1.00  0.00     0.031 C 
ATOM     46  C   UNL A   1      41.019  25.114  28.209  1.00  0.00     0.029 A 
ATOM     47  N   UNL A   1      42.485  26.801  28.272  1.00  0.00    -0.354 N 
ATOM     48  C   UNL A   1      46.559  26.273  26.961  1.00  0.00     0.074 A 
ATOM     49  C   UNL A   1      46.783  24.931  26.470  1.00  0.00     0.031 C 
ATOM     50  C   UNL A   1      40.363  26.202  28.643  1.00  0.00     0.029 A 
ATOM     51  C   UNL A   1      41.297  27.322  28.720  1.00  0.00     0.049 A 
ATOM     52  H   UNL A   1      43.314  27.327  28.206  1.00  0.00     0.167 HD
ATOM     53  C   UNL A   1      47.498  27.250  26.965  1.00  0.00     0.037 A 
ATOM     54  C   UNL A   1      40.995  28.559  29.155  1.00  0.00     0.037 A 
ATOM     55  C   UNL A   1      47.272  28.595  27.428  1.00  0.00     0.049 A 
ATOM     56  C   UNL A   1      42.066  29.612  29.193  1.00  0.00     0.074 A 
ATOM     57  C   UNL A   1      48.161  29.656  27.461  1.00  0.00     0.029 A 
ATOM     58  N   UNL A   1      46.069  29.066  27.931  1.00  0.00    -0.354 N 
ATOM     59  N   UNL A   1      43.314  29.535  28.803  1.00  0.00    -0.248 NA
ATOM     60  C   UNL A   1      41.687  30.923  29.741  1.00  0.00     0.031 C 
ATOM     61  C   UNL A   1      47.505  30.760  28.015  1.00  0.00     0.029 A 
ATOM     62  C   UNL A   1      46.196  30.397  28.291  1.00  0.00     0.049 A 
ATOM     63  H   UNL A   1      45.247  28.532  28.020  1.00  0.00     0.167 HD
ATOM     64  C   UNL A   1      43.868  30.783  29.049  1.00  0.00     0.074 A 
ATOM     65  C   UNL A   1      42.813  31.608  29.602  1.00  0.00     0.031 C 
ATOM     66  C   UNL A   1      45.140  31.205  28.843  1.00  0.00     0.037 A 
BRANCH  53  67
ATOM     67  C   UNL A   1      48.867  26.907  26.456  1.00  0.00     0.064 A 
ATOM     68  C   UNL A   1      49.846  26.358  27.298  1.00  0.00     0.173 A 
ATOM     69  C   UNL A   1      49.181  27.066  25.098  1.00  0.00     0.173 A 
ATOM     70  F   UNL A   1      49.597  26.197  28.606  1.00  0.00    -0.203 F 
ATOM     71  C   UNL A   1      51.094  25.994  26.801  1.00  0.00     0.198 A 
ATOM     72  C   UNL A   1      50.422  26.679  24.600  1.00  0.00     0.198 A 
ATOM     73  F   UNL A   1      48.278  27.581  24.251  1.00  0.00    -0.203 F 
ATOM     74  F   UNL A   1      52.025  25.500  27.628  1.00  0.00    -0.200 F 
ATOM     75  C   UNL A   1      51.378  26.147  25.452  1.00  0.00     0.200 A 
ATOM     76  F   UNL A   1      50.691  26.817  23.294  1.00  0.00    -0.200 F 
ATOM     77  F   UNL A   1      52.576  25.783  24.973  1.00  0.00    -0.200 F 
ENDBRANCH  53  67
BRANCH  54  78
ATOM     78  C   UNL A   1      39.608  28.865  29.588  1.00  0.00     0.064 A 
ATOM     79  C   UNL A   1      39.197  28.626  30.906  1.00  0.00     0.173 A 
ATOM     80  C   UNL A   1      38.673  29.422  28.702  1.00  0.00     0.173 A 
ATOM     81  F   UNL A   1      40.048  28.072  31.782  1.00  0.00    -0.203 F 
ATOM     82  C   UNL A   1      37.902  28.928  31.321  1.00  0.00     0.198 A 
ATOM     83  C   UNL A   1      37.387  29.748  29.125  1.00  0.00     0.198 A 
ATOM     84  F   UNL A   1      39.020  29.668  27.430  1.00  0.00    -0.203 F 
ATOM     85  F   UNL A   1      37.525  28.662  32.579  1.00  0.00    -0.200 F 
ATOM     86  C   UNL A   1      37.002  29.497  30.433  1.00  0.00     0.200 A 
ATOM     87  F   UNL A   1      36.525  30.309  28.267  1.00  0.00    -0.200 F 
ATOM     88  F   UNL A   1      35.760  29.801  30.836  1.00  0.00    -0.200 F 
ENDBRANCH  54  78
BRANCH  66  89
ATOM     89  C   UNL A   1      45.462  32.624  29.206  1.00  0.00     0.064 A 
ATOM     90  C   UNL A   1      45.984  32.953  30.466  1.00  0.00     0.173 A 
ATOM     91  C   UNL A   1      45.294  33.655  28.271  1.00  0.00     0.173 A 
ATOM     92  F   UNL A   1      46.150  32.003  31.397  1.00  0.00    -0.203 F 
ATOM     93  C   UNL A   1      46.310  34.269  30.782  1.00  0.00     0.198 A 
ATOM     94  C   UNL A   1      45.644  34.966  28.582  1.00  0.00     0.198 A 
ATOM     95  F   UNL A   1      44.804  33.389  27.051  1.00  0.00    -0.203 F 
ATOM     96  F   UNL A   1      46.772  34.569  32.003  1.00  0.00    -0.200 F 
ATOM     97  C   UNL A   1      46.146  35.273  29.838  1.00  0.00     0.200 A 
ATOM     98  F   UNL A   1      45.495  35.933  27.666  1.00  0.00    -0.200 F 
ATOM     99  F   UNL A   1      46.467  36.538  30.142  1.00  0.00    -0.200 F 
ENDBRANCH  66  89
ENDBRANCH  40  41
ENDBRANCH  32  35
ENDBRANCH  30  31
ENDBRANCH  29  30
ENDBRANCH   1  29
TORSDOF 14
ENDMDL
MODEL 3
REMARK VINA RESULT:     -13.3      2.145      3.167
REMARK SMILES O=C(CNC(=O)[C@H]1CC[C@@H](Cn2cnc3ccccc3c2=O)CC1)NCCCNC(=O)c1ccc(-c2c3nc(c(-c4c(F)c(F)c(F)c(F)c4F)c4ccc([nH]4)c(-c4c(F)c(F)c(F)c(F)c4F)c4nc(c(-c5c(F)c(F)c(F)c(F)c5F)c5ccc2[nH]5)C=C4)C=C3)cc1
REMARK SMILES IDX 26 1 25 2 1 3 2 4 3 6 4 7 5 8 6 10 7 11 24 12 8 13 23 14
REMARK SMILES IDX 9 15 10 16 11 17 12 18 13 19 21 20 14 21 20 22 22 23 15 24
REMARK SMILES IDX 19 25 16 26 18 27 17 28 27 29 28 30 29 31 30 32 31 34 32 35
REMARK SMILES IDX 33 36 94 37 34 38 93 39 35 40 36 41 37 42 87 43 38 44 92 45
REMARK SMILES IDX 86 46 88 47 39 48 91 49 85 50 84 51 40 53 72 54 52 55 71 56
REMARK SMILES IDX 53 57 56 58 70 59 89 60 54 61 55 62 69 64 90 65 57 66 41 67
REMARK SMILES IDX 42 68 50 69 43 70 44 71 48 72 51 73 45 74 46 75 49 76 47 77
REMARK SMILES IDX 73 78 74 79 82 80 75 81 76 82 80 83 83 84 77 85 78 86 81 87
REMARK SMILES IDX 79 88 58 89 59 90 67 91 60 92 61 93 65 94 68 95 62 96 63 97
REMARK SMILES IDX 66 98 64 99
REMARK H PARENT 25 5 4 9 29 33 88 52 56 63
REMARK Flexibility Score: inf
ROOT
ATOM      1  C   UNL A   1      41.006  21.500  26.120  1.00  0.00     0.117 C 
ENDROOT
BRANCH   1   2
ATOM      2  N   UNL A   1      39.672  22.006  25.856  1.00  0.00    -0.355 N 
ATOM      3  O   UNL A   1      39.665  23.544  27.555  1.00  0.00    -0.273 OA
ATOM      4  C   UNL A   1      39.124  23.051  26.568  1.00  0.00     0.239 C 
ATOM      5  H   UNL A   1      39.139  21.587  25.142  1.00  0.00     0.163 HD
BRANCH   4   6
ATOM      6  C   UNL A   1      37.742  23.518  26.092  1.00  0.00     0.216 C 
BRANCH   6   7
ATOM      7  N   UNL A   1      37.535  23.351  24.658  1.00  0.00    -0.347 N 
ATOM      8  C   UNL A   1      36.397  23.300  23.919  1.00  0.00     0.223 C 
ATOM      9  H   UNL A   1      38.364  23.259  24.135  1.00  0.00     0.164 HD
ATOM     10  O   UNL A   1      36.518  23.130  22.706  1.00  0.00    -0.275 OA
BRANCH   8  11
ATOM     11  C   UNL A   1      35.032  23.452  24.577  1.00  0.00     0.078 C 
ATOM     12  C   UNL A   1      34.708  24.943  24.745  1.00  0.00     0.014 C 
ATOM     13  C   UNL A   1      33.973  22.751  23.717  1.00  0.00     0.014 C 
ATOM     14  C   UNL A   1      33.287  25.170  25.264  1.00  0.00     0.006 C 
ATOM     15  C   UNL A   1      32.568  22.969  24.269  1.00  0.00     0.006 C 
ATOM     16  C   UNL A   1      32.209  24.456  24.427  1.00  0.00     0.009 C 
BRANCH  16  17
ATOM     17  C   UNL A   1      31.974  25.193  23.086  1.00  0.00     0.130 C 
BRANCH  17  18
ATOM     18  N   UNL A   1      30.847  26.121  23.116  1.00  0.00    -0.298 N 
ATOM     19  C   UNL A   1      29.640  25.721  23.639  1.00  0.00     0.203 A 
ATOM     20  C   UNL A   1      31.026  27.417  22.648  1.00  0.00     0.261 A 
ATOM     21  N   UNL A   1      28.582  26.456  23.717  1.00  0.00    -0.238 NA
ATOM     22  C   UNL A   1      29.850  28.301  22.719  1.00  0.00     0.066 A 
ATOM     23  O   UNL A   1      32.081  27.850  22.192  1.00  0.00    -0.269 OA
ATOM     24  C   UNL A   1      28.671  27.774  23.248  1.00  0.00     0.077 A 
ATOM     25  C   UNL A   1      29.917  29.626  22.271  1.00  0.00     0.016 A 
ATOM     26  C   UNL A   1      27.545  28.598  23.321  1.00  0.00     0.029 A 
ATOM     27  C   UNL A   1      28.787  30.438  22.354  1.00  0.00     0.001 A 
ATOM     28  C   UNL A   1      27.601  29.923  22.877  1.00  0.00     0.002 A 
ENDBRANCH  17  18
ENDBRANCH  16  17
ENDBRANCH   8  11
ENDBRANCH   6   7
ENDBRANCH   4   6
ENDBRANCH   1   2
BRANCH   1  29
ATOM     29  C   UNL A   1      41.100  19.979  26.069  1.00  0.00     0.042 C 
BRANCH  29  30
ATOM     30  C   UNL A   1      42.480  19.426  26.407  1.00  0.00     0.118 C 
BRANCH  30  31
ATOM     31  N   UNL A   1      43.233  18.988  25.237  1.00  0.00    -0.352 N 
ATOM     32  C   UNL A   1      44.147  19.656  24.455  1.00  0.00     0.251 C 
ATOM     33  H   UNL A   1      43.057  18.060  24.959  1.00  0.00     0.163 HD
ATOM     34  O   UNL A   1      44.562  19.133  23.424  1.00  0.00    -0.269 OA
BRANCH  32  35
ATOM     35  C   UNL A   1      44.602  21.015  24.818  1.00  0.00     0.039 A 
ATOM     36  C   UNL A   1      45.400  21.240  25.940  1.00  0.00     0.014 A 
ATOM     37  C   UNL A   1      44.214  22.094  24.014  1.00  0.00     0.014 A 
ATOM     38  C   UNL A   1      45.646  22.544  26.365  1.00  0.00     0.010 A 
ATOM     39  C   UNL A   1      44.530  23.400  24.399  1.00  0.00     0.010 A 
ATOM     40  C   UNL A   1      45.192  23.638  25.612  1.00  0.00    -0.014 A 
BRANCH  40  41
ATOM     41  C   UNL A   1      45.365  25.019  26.137  1.00  0.00     0.031 A 
ATOM     42  C   UNL A   1      46.698  25.712  26.023  1.00  0.00     0.074 A 
ATOM     43  C   UNL A   1      44.312  25.676  26.660  1.00  0.00     0.049 A 
ATOM     44  N   UNL A   1      47.044  26.912  26.422  1.00  0.00    -0.248 NA
ATOM     45  C   UNL A   1      47.785  24.962  25.374  1.00  0.00     0.031 C 
ATOM     46  C   UNL A   1      42.964  25.127  26.805  1.00  0.00     0.029 A 
ATOM     47  N   UNL A   1      44.206  26.956  27.145  1.00  0.00    -0.354 N 
ATOM     48  C   UNL A   1      48.386  27.050  26.090  1.00  0.00     0.074 A 
ATOM     49  C   UNL A   1      48.802  25.805  25.483  1.00  0.00     0.031 C 
ATOM     50  C   UNL A   1      42.154  26.077  27.297  1.00  0.00     0.029 A 
ATOM     51  C   UNL A   1      42.938  27.283  27.555  1.00  0.00     0.049 A 
ATOM     52  H   UNL A   1      44.966  27.579  27.193  1.00  0.00     0.167 HD
ATOM     53  C   UNL A   1      49.195  28.123  26.261  1.00  0.00     0.037 A 
ATOM     54  C   UNL A   1      42.459  28.422  28.089  1.00  0.00     0.037 A 
ATOM     55  C   UNL A   1      48.778  29.374  26.840  1.00  0.00     0.049 A 
ATOM     56  C   UNL A   1      43.389  29.582  28.311  1.00  0.00     0.074 A 
ATOM     57  C   UNL A   1      49.525  30.521  27.044  1.00  0.00     0.029 A 
ATOM     58  N   UNL A   1      47.497  29.645  27.298  1.00  0.00    -0.354 N 
ATOM     59  N   UNL A   1      44.658  29.693  28.008  1.00  0.00    -0.248 NA
ATOM     60  C   UNL A   1      42.818  30.772  28.960  1.00  0.00     0.031 C 
ATOM     61  C   UNL A   1      48.706  31.474  27.658  1.00  0.00     0.029 A 
ATOM     62  C   UNL A   1      47.438  30.935  27.798  1.00  0.00     0.049 A 
ATOM     63  H   UNL A   1      46.743  29.012  27.272  1.00  0.00     0.167 HD
ATOM     64  C   UNL A   1      45.038  30.963  28.420  1.00  0.00     0.074 A 
ATOM     65  C   UNL A   1      43.858  31.594  28.974  1.00  0.00     0.031 C 
ATOM     66  C   UNL A   1      46.258  31.549  28.351  1.00  0.00     0.037 A 
BRANCH  53  67
ATOM     67  C   UNL A   1      50.624  27.998  25.821  1.00  0.00     0.064 A 
ATOM     68  C   UNL A   1      50.990  28.134  24.473  1.00  0.00     0.173 A 
ATOM     69  C   UNL A   1      51.644  27.807  26.764  1.00  0.00     0.173 A 
ATOM     70  F   UNL A   1      50.049  28.306  23.532  1.00  0.00    -0.203 F 
ATOM     71  C   UNL A   1      52.325  28.068  24.085  1.00  0.00     0.198 A 
ATOM     72  C   UNL A   1      52.981  27.767  26.375  1.00  0.00     0.198 A 
ATOM     73  F   UNL A   1      51.347  27.678  28.065  1.00  0.00    -0.203 F 
ATOM     74  F   UNL A   1      52.651  28.170  22.790  1.00  0.00    -0.200 F 
ATOM     75  C   UNL A   1      53.320  27.894  25.037  1.00  0.00     0.200 A 
ATOM     76  F   UNL A   1      53.941  27.609  27.297  1.00  0.00    -0.200 F 
ATOM     77  F   UNL A   1      54.606  27.845  24.662  1.00  0.00    -0.200 F 
ENDBRANCH  53  67
BRANCH  54  78
ATOM     78  C   UNL A   1      41.022  28.516  28.448  1.00  0.00     0.064 A 
ATOM     79  C   UNL A   1      40.568  28.109  29.710  1.00  0.00     0.173 A 
ATOM     80  C   UNL A   1      40.077  29.033  27.548  1.00  0.00     0.173 A 
ATOM     81  F   UNL A   1      41.429  27.586  30.594  1.00  0.00    -0.203 F 
ATOM     82  C   UNL A   1      39.222  28.212  30.057  1.00  0.00     0.198 A 
ATOM     83  C   UNL A   1      38.738  29.160  27.905  1.00  0.00     0.198 A 
ATOM     84  F   UNL A   1      40.464  29.434  26.328  1.00  0.00    -0.203 F 
ATOM     85  F   UNL A   1      38.809  27.789  31.259  1.00  0.00    -0.200 F 
ATOM     86  C   UNL A   1      38.311  28.746  29.158  1.00  0.00     0.200 A 
ATOM     87  F   UNL A   1      37.863  29.687  27.039  1.00  0.00    -0.200 F 
ATOM     88  F   UNL A   1      37.019  28.858  29.497  1.00  0.00    -0.200 F 
ENDBRANCH  54  78
BRANCH  66  89
ATOM     89  C   UNL A   1      46.381  32.947  28.878  1.00  0.00     0.064 A 
ATOM     90  C   UNL A   1      46.751  33.195  30.208  1.00  0.00     0.173 A 
ATOM     91  C   UNL A   1      46.174  34.049  28.035  1.00  0.00     0.173 A 
ATOM     92  F   UNL A   1      46.946  32.174  31.055  1.00  0.00    -0.203 F 
ATOM     93  C   UNL A   1      46.893  34.497  30.679  1.00  0.00     0.198 A 
ATOM     94  C   UNL A   1      46.341  35.349  28.503  1.00  0.00     0.198 A 
ATOM     95  F   UNL A   1      45.825  33.863  26.753  1.00  0.00    -0.203 F 
ATOM     96  F   UNL A   1      47.211  34.713  31.963  1.00  0.00    -0.200 F 
ATOM     97  C   UNL A   1      46.695  35.572  29.825  1.00  0.00     0.200 A 
ATOM     98  F   UNL A   1      46.160  36.386  27.673  1.00  0.00    -0.200 F 
ATOM     99  F   UNL A   1      46.839  36.825  30.278  1.00  0.00    -0.200 F 
ENDBRANCH  66  89
ENDBRANCH  40  41
ENDBRANCH  32  35
ENDBRANCH  30  31
ENDBRANCH  29  30
ENDBRANCH   1  29
TORSDOF 14
ENDMDL
