MODEL 1
REMARK VINA RESULT:     -11.9      0.000      0.000
REMARK SMILES Cc1ccsc1[C@@H]1[NH2+][C@@H](C(=O)NCCCNC(=O)c2ccc(-c3c4nc(c(-c5c(F)c(F)c(F)c(F)c5F)c5ccc([nH]5)c(-c5c(F)c(F)c(F)c(F)c5F)c5nc(c(-c6c(F)c(F)c(F)c(F)c6F)c6ccc3[nH]6)C=C5)C=C4)cc2)CS1
REMARK SMILES IDX 14 1 13 2 12 3 10 4 11 5 9 7 7 8 8 9 83 10 82 13 6 14 1 15
REMARK SMILES IDX 2 16 3 17 4 18 5 19 15 20 16 21 17 22 18 24 19 25 20 26
REMARK SMILES IDX 81 27 21 28 80 29 22 30 23 31 24 32 74 33 25 34 79 35 73 36
REMARK SMILES IDX 75 37 26 38 78 39 72 40 71 41 27 43 59 44 39 45 58 46 40 47
REMARK SMILES IDX 43 48 57 49 76 50 41 51 42 52 56 54 77 55 44 56 28 57 29 58
REMARK SMILES IDX 37 59 30 60 31 61 35 62 38 63 32 64 33 65 36 66 34 67 60 68
REMARK SMILES IDX 61 69 69 70 62 71 63 72 67 73 70 74 64 75 65 76 68 77 66 78
REMARK SMILES IDX 45 79 46 80 54 81 47 82 48 83 52 84 55 85 49 86 50 87 53 88
REMARK SMILES IDX 51 89
REMARK H PARENT 12 6 8 11 8 12 16 23 75 42 43 53
REMARK Flexibility Score: inf
ROOT
ATOM      1  C   UNL A   1      31.403  32.168  26.504  1.00  0.00     0.042 C 
ENDROOT
BRANCH   1   2
ATOM      2  C   UNL A   1      31.416  30.640  26.461  1.00  0.00     0.118 C 
BRANCH   2   3
ATOM      3  N   UNL A   1      32.073  30.168  25.262  1.00  0.00    -0.351 N 
ATOM      4  C   UNL A   1      32.719  29.011  24.968  1.00  0.00     0.279 C 
ATOM      5  O   UNL A   1      33.209  28.961  23.837  1.00  0.00    -0.268 OA
ATOM      6  H   UNL A   1      32.046  30.810  24.515  1.00  0.00     0.163 HD
BRANCH   4   7
ATOM      7  C   UNL A   1      32.757  27.821  25.961  1.00  0.00     0.283 C 
ATOM      8  C   UNL A   1      33.407  25.641  25.067  1.00  0.00     0.284 C 
ATOM      9  N   UNL A   1      33.895  26.874  25.721  1.00  0.00    -0.320 N 
ATOM     10  S   UNL A   1      31.703  25.917  24.529  1.00  0.00    -0.087 SA
ATOM     11  H   UNL A   1      34.585  27.323  25.119  1.00  0.00     0.348 HD
ATOM     12  H   UNL A   1      34.317  26.628  26.615  1.00  0.00     0.348 HD
ATOM     13  C   UNL A   1      31.425  27.077  25.883  1.00  0.00     0.151 C 
BRANCH   8  14
ATOM     14  C   UNL A   1      33.570  24.383  25.930  1.00  0.00     0.075 A 
ATOM     15  C   UNL A   1      36.113  23.958  25.751  1.00  0.00     0.046 C 
ATOM     16  C   UNL A   1      34.717  23.617  26.154  1.00  0.00    -0.030 A 
ATOM     17  C   UNL A   1      34.403  22.364  26.791  1.00  0.00     0.015 A 
ATOM     18  C   UNL A   1      33.078  22.249  27.122  1.00  0.00     0.065 A 
ATOM     19  S   UNL A   1      32.222  23.667  26.757  1.00  0.00    -0.141 S 
ENDBRANCH   8  14
ENDBRANCH   4   7
ENDBRANCH   2   3
ENDBRANCH   1   2
BRANCH   1  20
ATOM     20  C   UNL A   1      32.579  32.807  27.249  1.00  0.00     0.118 C 
BRANCH  20  21
ATOM     21  N   UNL A   1      32.346  34.193  27.626  1.00  0.00    -0.352 N 
ATOM     22  C   UNL A   1      32.973  34.971  28.570  1.00  0.00     0.251 C 
ATOM     23  H   UNL A   1      31.626  34.644  27.128  1.00  0.00     0.163 HD
ATOM     24  O   UNL A   1      32.528  36.088  28.830  1.00  0.00    -0.269 OA
BRANCH  22  25
ATOM     25  C   UNL A   1      34.156  34.470  29.305  1.00  0.00     0.039 A 
ATOM     26  C   UNL A   1      33.966  33.888  30.562  1.00  0.00     0.014 A 
ATOM     27  C   UNL A   1      35.446  34.579  28.779  1.00  0.00     0.014 A 
ATOM     28  C   UNL A   1      35.053  33.345  31.252  1.00  0.00     0.010 A 
ATOM     29  C   UNL A   1      36.518  33.973  29.433  1.00  0.00     0.010 A 
ATOM     30  C   UNL A   1      36.333  33.340  30.671  1.00  0.00    -0.014 A 
BRANCH  30  31
ATOM     31  C   UNL A   1      37.471  32.645  31.332  1.00  0.00     0.031 A 
ATOM     32  C   UNL A   1      38.157  31.486  30.664  1.00  0.00     0.074 A 
ATOM     33  C   UNL A   1      37.848  33.021  32.571  1.00  0.00     0.049 A 
ATOM     34  N   UNL A   1      39.123  30.724  31.113  1.00  0.00    -0.248 NA
ATOM     35  C   UNL A   1      37.681  31.120  29.322  1.00  0.00     0.031 C 
ATOM     36  C   UNL A   1      37.236  34.101  33.347  1.00  0.00     0.029 A 
ATOM     37  N   UNL A   1      38.827  32.532  33.400  1.00  0.00    -0.354 N 
ATOM     38  C   UNL A   1      39.364  29.787  30.117  1.00  0.00     0.074 A 
ATOM     39  C   UNL A   1      38.406  30.041  29.062  1.00  0.00     0.031 C 
ATOM     40  C   UNL A   1      37.868  34.209  34.527  1.00  0.00     0.029 A 
ATOM     41  C   UNL A   1      38.897  33.177  34.612  1.00  0.00     0.049 A 
ATOM     42  H   UNL A   1      39.422  31.789  33.151  1.00  0.00     0.167 HD
ATOM     43  C   UNL A   1      40.309  28.817  30.076  1.00  0.00     0.037 A 
ATOM     44  C   UNL A   1      39.691  32.957  35.677  1.00  0.00     0.037 A 
ATOM     45  C   UNL A   1      41.269  28.572  31.123  1.00  0.00     0.049 A 
ATOM     46  C   UNL A   1      40.713  31.853  35.617  1.00  0.00     0.074 A 
ATOM     47  C   UNL A   1      42.300  27.650  31.149  1.00  0.00     0.029 A 
ATOM     48  N   UNL A   1      41.308  29.248  32.334  1.00  0.00    -0.354 N 
ATOM     49  N   UNL A   1      40.978  31.021  34.640  1.00  0.00    -0.248 NA
ATOM     50  C   UNL A   1      41.552  31.662  36.808  1.00  0.00     0.031 C 
ATOM     51  C   UNL A   1      42.925  27.725  32.399  1.00  0.00     0.029 A 
ATOM     52  C   UNL A   1      42.326  28.739  33.127  1.00  0.00     0.049 A 
ATOM     53  H   UNL A   1      40.703  29.980  32.592  1.00  0.00     0.167 HD
ATOM     54  C   UNL A   1      42.029  30.230  35.084  1.00  0.00     0.074 A 
ATOM     55  C   UNL A   1      42.366  30.695  36.414  1.00  0.00     0.031 C 
ATOM     56  C   UNL A   1      42.657  29.212  34.448  1.00  0.00     0.037 A 
BRANCH  43  57
ATOM     57  C   UNL A   1      40.354  27.939  28.856  1.00  0.00     0.064 A 
ATOM     58  C   UNL A   1      41.129  28.272  27.735  1.00  0.00     0.173 A 
ATOM     59  C   UNL A   1      39.652  26.724  28.827  1.00  0.00     0.173 A 
ATOM     60  F   UNL A   1      41.815  29.426  27.706  1.00  0.00    -0.203 F 
ATOM     61  C   UNL A   1      41.172  27.441  26.619  1.00  0.00     0.198 A 
ATOM     62  C   UNL A   1      39.725  25.878  27.723  1.00  0.00     0.198 A 
ATOM     63  F   UNL A   1      38.903  26.350  29.876  1.00  0.00    -0.203 F 
ATOM     64  F   UNL A   1      41.877  27.807  25.539  1.00  0.00    -0.200 F 
ATOM     65  C   UNL A   1      40.477  26.241  26.617  1.00  0.00     0.200 A 
ATOM     66  F   UNL A   1      39.066  24.711  27.730  1.00  0.00    -0.200 F 
ATOM     67  F   UNL A   1      40.528  25.437  25.545  1.00  0.00    -0.200 F 
ENDBRANCH  43  57
BRANCH  44  68
ATOM     68  C   UNL A   1      39.561  33.807  36.891  1.00  0.00     0.064 A 
ATOM     69  C   UNL A   1      38.763  33.404  37.972  1.00  0.00     0.173 A 
ATOM     70  C   UNL A   1      40.218  35.042  36.992  1.00  0.00     0.173 A 
ATOM     71  F   UNL A   1      38.097  32.242  37.914  1.00  0.00    -0.203 F 
ATOM     72  C   UNL A   1      38.608  34.213  39.095  1.00  0.00     0.198 A 
ATOM     73  C   UNL A   1      40.090  35.835  38.131  1.00  0.00     0.198 A 
ATOM     74  F   UNL A   1      40.998  35.473  35.990  1.00  0.00    -0.203 F 
ATOM     75  F   UNL A   1      37.799  33.827  40.090  1.00  0.00    -0.200 F 
ATOM     76  C   UNL A   1      39.277  35.425  39.176  1.00  0.00     0.200 A 
ATOM     77  F   UNL A   1      40.752  36.997  38.213  1.00  0.00    -0.200 F 
ATOM     78  F   UNL A   1      39.133  36.202  40.259  1.00  0.00    -0.200 F 
ENDBRANCH  44  68
BRANCH  56  79
ATOM     79  C   UNL A   1      43.801  28.550  35.165  1.00  0.00     0.064 A 
ATOM     80  C   UNL A   1      43.611  27.425  35.980  1.00  0.00     0.173 A 
ATOM     81  C   UNL A   1      45.111  29.031  35.006  1.00  0.00     0.173 A 
ATOM     82  F   UNL A   1      42.379  26.935  36.179  1.00  0.00    -0.203 F 
ATOM     83  C   UNL A   1      44.686  26.824  36.633  1.00  0.00     0.198 A 
ATOM     84  C   UNL A   1      46.186  28.406  35.632  1.00  0.00     0.198 A 
ATOM     85  F   UNL A   1      45.349  30.100  34.232  1.00  0.00    -0.203 F 
ATOM     86  F   UNL A   1      44.472  25.784  37.452  1.00  0.00    -0.200 F 
ATOM     87  C   UNL A   1      45.972  27.310  36.452  1.00  0.00     0.200 A 
ATOM     88  F   UNL A   1      47.430  28.868  35.442  1.00  0.00    -0.200 F 
ATOM     89  F   UNL A   1      47.004  26.726  37.075  1.00  0.00    -0.200 F 
ENDBRANCH  56  79
ENDBRANCH  30  31
ENDBRANCH  22  25
ENDBRANCH  20  21
ENDBRANCH   1  20
TORSDOF 11
ENDMDL
MODEL 2
REMARK VINA RESULT:     -11.9      0.235      2.031
REMARK SMILES Cc1ccsc1[C@@H]1[NH2+][C@@H](C(=O)NCCCNC(=O)c2ccc(-c3c4nc(c(-c5c(F)c(F)c(F)c(F)c5F)c5ccc([nH]5)c(-c5c(F)c(F)c(F)c(F)c5F)c5nc(c(-c6c(F)c(F)c(F)c(F)c6F)c6ccc3[nH]6)C=C5)C=C4)cc2)CS1
REMARK SMILES IDX 14 1 13 2 12 3 10 4 11 5 9 7 7 8 8 9 83 10 82 13 6 14 1 15
REMARK SMILES IDX 2 16 3 17 4 18 5 19 15 20 16 21 17 22 18 24 19 25 20 26
REMARK SMILES IDX 81 27 21 28 80 29 22 30 23 31 24 32 74 33 25 34 79 35 73 36
REMARK SMILES IDX 75 37 26 38 78 39 72 40 71 41 27 43 59 44 39 45 58 46 40 47
REMARK SMILES IDX 43 48 57 49 76 50 41 51 42 52 56 54 77 55 44 56 28 57 29 58
REMARK SMILES IDX 37 59 30 60 31 61 35 62 38 63 32 64 33 65 36 66 34 67 60 68
REMARK SMILES IDX 61 69 69 70 62 71 63 72 67 73 70 74 64 75 65 76 68 77 66 78
REMARK SMILES IDX 45 79 46 80 54 81 47 82 48 83 52 84 55 85 49 86 50 87 53 88
REMARK SMILES IDX 51 89
REMARK H PARENT 12 6 8 11 8 12 16 23 75 42 43 53
REMARK Flexibility Score: inf
ROOT
ATOM      1  C   UNL A   1      31.508  32.133  26.583  1.00  0.00     0.042 C 
ENDROOT
BRANCH   1   2
ATOM      2  C   UNL A   1      31.573  30.606  26.594  1.00  0.00     0.118 C 
BRANCH   2   3
ATOM      3  N   UNL A   1      32.098  30.108  25.341  1.00  0.00    -0.351 N 
ATOM      4  C   UNL A   1      32.680  28.931  24.998  1.00  0.00     0.279 C 
ATOM      5  O   UNL A   1      33.056  28.860  23.825  1.00  0.00    -0.268 OA
ATOM      6  H   UNL A   1      32.016  30.744  24.595  1.00  0.00     0.163 HD
BRANCH   4   7
ATOM      7  C   UNL A   1      32.783  27.747  25.993  1.00  0.00     0.283 C 
ATOM      8  C   UNL A   1      33.383  25.563  25.074  1.00  0.00     0.284 C 
ATOM      9  N   UNL A   1      33.906  26.801  25.689  1.00  0.00    -0.320 N 
ATOM     10  S   UNL A   1      31.648  25.832  24.641  1.00  0.00    -0.087 SA
ATOM     11  H   UNL A   1      34.557  27.248  25.043  1.00  0.00     0.348 HD
ATOM     12  H   UNL A   1      34.384  26.562  26.557  1.00  0.00     0.348 HD
ATOM     13  C   UNL A   1      31.450  26.999  26.002  1.00  0.00     0.151 C 
BRANCH   8  14
ATOM     14  C   UNL A   1      33.602  24.311  25.933  1.00  0.00     0.075 A 
ATOM     15  C   UNL A   1      36.150  23.955  25.687  1.00  0.00     0.046 C 
ATOM     16  C   UNL A   1      34.775  23.577  26.127  1.00  0.00    -0.030 A 
ATOM     17  C   UNL A   1      34.511  22.316  26.772  1.00  0.00     0.015 A 
ATOM     18  C   UNL A   1      33.199  22.166  27.138  1.00  0.00     0.065 A 
ATOM     19  S   UNL A   1      32.296  23.559  26.795  1.00  0.00    -0.141 S 
ENDBRANCH   8  14
ENDBRANCH   4   7
ENDBRANCH   2   3
ENDBRANCH   1   2
BRANCH   1  20
ATOM     20  C   UNL A   1      32.702  32.840  27.232  1.00  0.00     0.118 C 
BRANCH  20  21
ATOM     21  N   UNL A   1      32.420  34.210  27.635  1.00  0.00    -0.352 N 
ATOM     22  C   UNL A   1      32.999  34.981  28.614  1.00  0.00     0.251 C 
ATOM     23  H   UNL A   1      31.702  34.653  27.127  1.00  0.00     0.163 HD
ATOM     24  O   UNL A   1      32.516  36.079  28.887  1.00  0.00    -0.269 OA
BRANCH  22  25
ATOM     25  C   UNL A   1      34.174  34.495  29.370  1.00  0.00     0.039 A 
ATOM     26  C   UNL A   1      33.964  33.852  30.594  1.00  0.00     0.014 A 
ATOM     27  C   UNL A   1      35.477  34.676  28.896  1.00  0.00     0.014 A 
ATOM     28  C   UNL A   1      35.047  33.322  31.300  1.00  0.00     0.010 A 
ATOM     29  C   UNL A   1      36.548  34.084  29.563  1.00  0.00     0.010 A 
ATOM     30  C   UNL A   1      36.346  33.392  30.767  1.00  0.00    -0.014 A 
BRANCH  30  31
ATOM     31  C   UNL A   1      37.487  32.713  31.440  1.00  0.00     0.031 A 
ATOM     32  C   UNL A   1      38.162  31.530  30.803  1.00  0.00     0.074 A 
ATOM     33  C   UNL A   1      37.877  33.128  32.662  1.00  0.00     0.049 A 
ATOM     34  N   UNL A   1      39.128  30.778  31.268  1.00  0.00    -0.248 NA
ATOM     35  C   UNL A   1      37.671  31.123  29.478  1.00  0.00     0.031 C 
ATOM     36  C   UNL A   1      37.278  34.236  33.408  1.00  0.00     0.029 A 
ATOM     37  N   UNL A   1      38.862  32.662  33.497  1.00  0.00    -0.354 N 
ATOM     38  C   UNL A   1      39.356  29.808  30.300  1.00  0.00     0.074 A 
ATOM     39  C   UNL A   1      38.389  30.033  29.247  1.00  0.00     0.031 C 
ATOM     40  C   UNL A   1      37.921  34.379  34.578  1.00  0.00     0.029 A 
ATOM     41  C   UNL A   1      38.947  33.346  34.687  1.00  0.00     0.049 A 
ATOM     42  H   UNL A   1      39.452  31.908  33.267  1.00  0.00     0.167 HD
ATOM     43  C   UNL A   1      40.297  28.834  30.282  1.00  0.00     0.037 A 
ATOM     44  C   UNL A   1      39.750  33.157  35.751  1.00  0.00     0.037 A 
ATOM     45  C   UNL A   1      41.265  28.619  31.328  1.00  0.00     0.049 A 
ATOM     46  C   UNL A   1      40.766  32.047  35.717  1.00  0.00     0.074 A 
ATOM     47  C   UNL A   1      42.292  27.692  31.375  1.00  0.00     0.029 A 
ATOM     48  N   UNL A   1      41.318  29.333  32.516  1.00  0.00    -0.354 N 
ATOM     49  N   UNL A   1      41.018  31.182  34.766  1.00  0.00    -0.248 NA
ATOM     50  C   UNL A   1      41.615  31.891  36.907  1.00  0.00     0.031 C 
ATOM     51  C   UNL A   1      42.929  27.805  32.615  1.00  0.00     0.029 A 
ATOM     52  C   UNL A   1      42.342  28.846  33.315  1.00  0.00     0.049 A 
ATOM     53  H   UNL A   1      40.719  30.076  32.756  1.00  0.00     0.167 HD
ATOM     54  C   UNL A   1      42.070  30.401  35.226  1.00  0.00     0.074 A 
ATOM     55  C   UNL A   1      42.421  30.908  36.537  1.00  0.00     0.031 C 
ATOM     56  C   UNL A   1      42.687  29.360  34.617  1.00  0.00     0.037 A 
BRANCH  43  57
ATOM     57  C   UNL A   1      40.326  27.915  29.092  1.00  0.00     0.064 A 
ATOM     58  C   UNL A   1      39.581  26.727  29.059  1.00  0.00     0.173 A 
ATOM     59  C   UNL A   1      41.071  28.252  27.952  1.00  0.00     0.173 A 
ATOM     60  F   UNL A   1      38.856  26.353  30.125  1.00  0.00    -0.203 F 
ATOM     61  C   UNL A   1      39.607  25.894  27.943  1.00  0.00     0.198 A 
ATOM     62  C   UNL A   1      41.067  27.433  26.824  1.00  0.00     0.198 A 
ATOM     63  F   UNL A   1      41.795  29.381  27.924  1.00  0.00    -0.203 F 
ATOM     64  F   UNL A   1      38.928  24.738  27.956  1.00  0.00    -0.200 F 
ATOM     65  C   UNL A   1      40.343  26.252  26.824  1.00  0.00     0.200 A 
ATOM     66  F   UNL A   1      41.766  27.790  25.737  1.00  0.00    -0.200 F 
ATOM     67  F   UNL A   1      40.359  25.454  25.747  1.00  0.00    -0.200 F 
ENDBRANCH  43  57
BRANCH  44  68
ATOM     68  C   UNL A   1      39.635  34.046  36.937  1.00  0.00     0.064 A 
ATOM     69  C   UNL A   1      40.315  35.272  36.989  1.00  0.00     0.173 A 
ATOM     70  C   UNL A   1      38.856  33.687  38.048  1.00  0.00     0.173 A 
ATOM     71  F   UNL A   1      41.090  35.650  35.962  1.00  0.00    -0.203 F 
ATOM     72  C   UNL A   1      40.240  36.092  38.113  1.00  0.00     0.198 A 
ATOM     73  C   UNL A   1      38.754  34.525  39.157  1.00  0.00     0.198 A 
ATOM     74  F   UNL A   1      38.180  32.530  38.049  1.00  0.00    -0.203 F 
ATOM     75  F   UNL A   1      40.942  37.232  38.156  1.00  0.00    -0.200 F 
ATOM     76  C   UNL A   1      39.455  35.720  39.194  1.00  0.00     0.200 A 
ATOM     77  F   UNL A   1      37.980  34.170  40.192  1.00  0.00    -0.200 F 
ATOM     78  F   UNL A   1      39.378  36.511  40.273  1.00  0.00    -0.200 F 
ENDBRANCH  44  68
BRANCH  56  79
ATOM     79  C   UNL A   1      43.835  28.716  35.345  1.00  0.00     0.064 A 
ATOM     80  C   UNL A   1      45.162  29.117  35.133  1.00  0.00     0.173 A 
ATOM     81  C   UNL A   1      43.598  27.708  36.292  1.00  0.00     0.173 A 
ATOM     82  F   UNL A   1      45.446  30.065  34.228  1.00  0.00    -0.203 F 
ATOM     83  C   UNL A   1      46.213  28.510  35.820  1.00  0.00     0.198 A 
ATOM     84  C   UNL A   1      44.646  27.128  37.002  1.00  0.00     0.198 A 
ATOM     85  F   UNL A   1      42.347  27.291  36.538  1.00  0.00    -0.203 F 
ATOM     86  F   UNL A   1      47.477  28.870  35.560  1.00  0.00    -0.200 F 
ATOM     87  C   UNL A   1      45.953  27.523  36.759  1.00  0.00     0.200 A 
ATOM     88  F   UNL A   1      44.392  26.186  37.920  1.00  0.00    -0.200 F 
ATOM     89  F   UNL A   1      46.963  26.946  37.424  1.00  0.00    -0.200 F 
ENDBRANCH  56  79
ENDBRANCH  30  31
ENDBRANCH  22  25
ENDBRANCH  20  21
ENDBRANCH   1  20
TORSDOF 11
ENDMDL
MODEL 3
REMARK VINA RESULT:     -11.8      4.308      9.978
REMARK SMILES Cc1ccsc1[C@@H]1[NH2+][C@@H](C(=O)NCCCNC(=O)c2ccc(-c3c4nc(c(-c5c(F)c(F)c(F)c(F)c5F)c5ccc([nH]5)c(-c5c(F)c(F)c(F)c(F)c5F)c5nc(c(-c6c(F)c(F)c(F)c(F)c6F)c6ccc3[nH]6)C=C5)C=C4)cc2)CS1
REMARK SMILES IDX 14 1 13 2 12 3 10 4 11 5 9 7 7 8 8 9 83 10 82 13 6 14 1 15
REMARK SMILES IDX 2 16 3 17 4 18 5 19 15 20 16 21 17 22 18 24 19 25 20 26
REMARK SMILES IDX 81 27 21 28 80 29 22 30 23 31 24 32 74 33 25 34 79 35 73 36
REMARK SMILES IDX 75 37 26 38 78 39 72 40 71 41 27 43 59 44 39 45 58 46 40 47
REMARK SMILES IDX 43 48 57 49 76 50 41 51 42 52 56 54 77 55 44 56 28 57 29 58
REMARK SMILES IDX 37 59 30 60 31 61 35 62 38 63 32 64 33 65 36 66 34 67 60 68
REMARK SMILES IDX 61 69 69 70 62 71 63 72 67 73 70 74 64 75 65 76 68 77 66 78
REMARK SMILES IDX 45 79 46 80 54 81 47 82 48 83 52 84 55 85 49 86 50 87 53 88
REMARK SMILES IDX 51 89
REMARK H PARENT 12 6 8 11 8 12 16 23 75 42 43 53
REMARK Flexibility Score: inf
ROOT
ATOM      1  C   UNL A   1      33.557  33.606  28.062  1.00  0.00     0.042 C 
ENDROOT
BRANCH   1   2
ATOM      2  C   UNL A   1      33.880  34.913  28.787  1.00  0.00     0.118 C 
BRANCH   2   3
ATOM      3  N   UNL A   1      33.002  35.097  29.922  1.00  0.00    -0.351 N 
ATOM      4  C   UNL A   1      33.243  35.231  31.251  1.00  0.00     0.279 C 
ATOM      5  O   UNL A   1      32.235  35.328  31.956  1.00  0.00    -0.268 OA
ATOM      6  H   UNL A   1      32.047  35.132  29.685  1.00  0.00     0.163 HD
BRANCH   4   7
ATOM      7  C   UNL A   1      34.683  35.335  31.815  1.00  0.00     0.283 C 
ATOM      8  C   UNL A   1      35.858  33.239  32.270  1.00  0.00     0.284 C 
ATOM      9  N   UNL A   1      35.620  34.299  31.267  1.00  0.00    -0.320 N 
ATOM     10  S   UNL A   1      34.671  33.453  33.617  1.00  0.00    -0.087 SA
ATOM     11  H   UNL A   1      35.210  33.884  30.431  1.00  0.00     0.348 HD
ATOM     12  H   UNL A   1      36.508  34.743  31.039  1.00  0.00     0.348 HD
ATOM     13  C   UNL A   1      34.619  35.234  33.339  1.00  0.00     0.151 C 
BRANCH   8  14
ATOM     14  C   UNL A   1      37.312  33.169  32.755  1.00  0.00     0.075 A 
ATOM     15  C   UNL A   1      37.570  30.645  33.251  1.00  0.00     0.046 C 
ATOM     16  C   UNL A   1      38.017  32.069  33.252  1.00  0.00    -0.030 A 
ATOM     17  C   UNL A   1      39.260  32.467  33.861  1.00  0.00     0.015 A 
ATOM     18  C   UNL A   1      39.518  33.807  33.727  1.00  0.00     0.065 A 
ATOM     19  S   UNL A   1      38.325  34.578  32.801  1.00  0.00    -0.141 S 
ENDBRANCH   8  14
ENDBRANCH   4   7
ENDBRANCH   2   3
ENDBRANCH   1   2
BRANCH   1  20
ATOM     20  C   UNL A   1      34.404  32.402  28.486  1.00  0.00     0.118 C 
BRANCH  20  21
ATOM     21  N   UNL A   1      33.888  31.130  28.003  1.00  0.00    -0.352 N 
ATOM     22  C   UNL A   1      34.537  29.938  27.786  1.00  0.00     0.251 C 
ATOM     23  H   UNL A   1      32.925  31.121  27.800  1.00  0.00     0.163 HD
ATOM     24  O   UNL A   1      33.940  29.011  27.239  1.00  0.00    -0.269 OA
BRANCH  22  25
ATOM     25  C   UNL A   1      35.957  29.764  28.167  1.00  0.00     0.039 A 
ATOM     26  C   UNL A   1      36.253  29.329  29.462  1.00  0.00     0.014 A 
ATOM     27  C   UNL A   1      36.995  30.037  27.272  1.00  0.00     0.014 A 
ATOM     28  C   UNL A   1      37.579  29.090  29.833  1.00  0.00     0.010 A 
ATOM     29  C   UNL A   1      38.310  29.729  27.617  1.00  0.00     0.010 A 
ATOM     30  C   UNL A   1      38.617  29.243  28.897  1.00  0.00    -0.014 A 
BRANCH  30  31
ATOM     31  C   UNL A   1      40.016  28.862  29.236  1.00  0.00     0.031 A 
ATOM     32  C   UNL A   1      40.900  29.795  30.016  1.00  0.00     0.074 A 
ATOM     33  C   UNL A   1      40.512  27.693  28.783  1.00  0.00     0.049 A 
ATOM     34  N   UNL A   1      42.159  29.658  30.350  1.00  0.00    -0.248 NA
ATOM     35  C   UNL A   1      40.296  31.060  30.462  1.00  0.00     0.031 C 
ATOM     36  C   UNL A   1      39.773  26.717  27.979  1.00  0.00     0.029 A 
ATOM     37  N   UNL A   1      41.756  27.130  28.924  1.00  0.00    -0.354 N 
ATOM     38  C   UNL A   1      42.499  30.817  31.035  1.00  0.00     0.074 A 
ATOM     39  C   UNL A   1      41.331  31.671  31.021  1.00  0.00     0.031 C 
ATOM     40  C   UNL A   1      40.568  25.668  27.718  1.00  0.00     0.029 A 
ATOM     41  C   UNL A   1      41.887  25.914  28.295  1.00  0.00     0.049 A 
ATOM     42  H   UNL A   1      42.487  27.556  29.426  1.00  0.00     0.167 HD
ATOM     43  C   UNL A   1      43.672  31.132  31.637  1.00  0.00     0.037 A 
ATOM     44  C   UNL A   1      42.950  25.095  28.182  1.00  0.00     0.037 A 
ATOM     45  C   UNL A   1      44.831  30.275  31.658  1.00  0.00     0.049 A 
ATOM     46  C   UNL A   1      44.249  25.484  28.836  1.00  0.00     0.074 A 
ATOM     47  C   UNL A   1      46.045  30.483  32.289  1.00  0.00     0.029 A 
ATOM     48  N   UNL A   1      44.923  29.052  31.010  1.00  0.00    -0.354 N 
ATOM     49  N   UNL A   1      44.536  26.550  29.541  1.00  0.00    -0.248 NA
ATOM     50  C   UNL A   1      45.372  24.549  28.681  1.00  0.00     0.031 C 
ATOM     51  C   UNL A   1      46.892  29.416  31.974  1.00  0.00     0.029 A 
ATOM     52  C   UNL A   1      46.185  28.509  31.201  1.00  0.00     0.049 A 
ATOM     53  H   UNL A   1      44.199  28.632  30.493  1.00  0.00     0.167 HD
ATOM     54  C   UNL A   1      45.858  26.402  29.938  1.00  0.00     0.074 A 
ATOM     55  C   UNL A   1      46.312  25.132  29.410  1.00  0.00     0.031 C 
ATOM     56  C   UNL A   1      46.626  27.242  30.674  1.00  0.00     0.037 A 
BRANCH  43  57
ATOM     57  C   UNL A   1      43.766  32.466  32.325  1.00  0.00     0.064 A 
ATOM     58  C   UNL A   1      44.299  33.592  31.680  1.00  0.00     0.173 A 
ATOM     59  C   UNL A   1      43.272  32.632  33.628  1.00  0.00     0.173 A 
ATOM     60  F   UNL A   1      44.792  33.488  30.436  1.00  0.00    -0.203 F 
ATOM     61  C   UNL A   1      44.366  34.824  32.325  1.00  0.00     0.198 A 
ATOM     62  C   UNL A   1      43.309  33.874  34.258  1.00  0.00     0.198 A 
ATOM     63  F   UNL A   1      42.742  31.591  34.289  1.00  0.00    -0.203 F 
ATOM     64  F   UNL A   1      44.929  35.872  31.707  1.00  0.00    -0.200 F 
ATOM     65  C   UNL A   1      43.863  34.966  33.609  1.00  0.00     0.200 A 
ATOM     66  F   UNL A   1      42.807  34.012  35.492  1.00  0.00    -0.200 F 
ATOM     67  F   UNL A   1      43.920  36.156  34.225  1.00  0.00    -0.200 F 
ENDBRANCH  43  57
BRANCH  44  68
ATOM     68  C   UNL A   1      42.829  23.818  27.430  1.00  0.00     0.064 A 
ATOM     69  C   UNL A   1      42.359  22.654  28.055  1.00  0.00     0.173 A 
ATOM     70  C   UNL A   1      43.191  23.729  26.077  1.00  0.00     0.173 A 
ATOM     71  F   UNL A   1      42.021  22.682  29.353  1.00  0.00    -0.203 F 
ATOM     72  C   UNL A   1      42.279  21.446  27.365  1.00  0.00     0.198 A 
ATOM     73  C   UNL A   1      43.077  22.529  25.379  1.00  0.00     0.198 A 
ATOM     74  F   UNL A   1      43.641  24.813  25.429  1.00  0.00    -0.203 F 
ATOM     75  F   UNL A   1      41.876  20.339  28.001  1.00  0.00    -0.200 F 
ATOM     76  C   UNL A   1      42.633  21.387  26.025  1.00  0.00     0.200 A 
ATOM     77  F   UNL A   1      43.403  22.480  24.080  1.00  0.00    -0.200 F 
ATOM     78  F   UNL A   1      42.551  20.226  25.359  1.00  0.00    -0.200 F 
ENDBRANCH  44  68
BRANCH  56  79
ATOM     79  C   UNL A   1      48.029  26.801  30.986  1.00  0.00     0.064 A 
ATOM     80  C   UNL A   1      48.315  25.953  32.066  1.00  0.00     0.173 A 
ATOM     81  C   UNL A   1      49.097  27.208  30.172  1.00  0.00     0.173 A 
ATOM     82  F   UNL A   1      47.333  25.548  32.885  1.00  0.00    -0.203 F 
ATOM     83  C   UNL A   1      49.622  25.553  32.337  1.00  0.00     0.198 A 
ATOM     84  C   UNL A   1      50.397  26.778  30.424  1.00  0.00     0.198 A 
ATOM     85  F   UNL A   1      48.879  28.014  29.122  1.00  0.00    -0.203 F 
ATOM     86  F   UNL A   1      49.878  24.788  33.407  1.00  0.00    -0.200 F 
ATOM     87  C   UNL A   1      50.660  25.959  31.511  1.00  0.00     0.200 A 
ATOM     88  F   UNL A   1      51.396  27.159  29.616  1.00  0.00    -0.200 F 
ATOM     89  F   UNL A   1      51.915  25.567  31.768  1.00  0.00    -0.200 F 
ENDBRANCH  56  79
ENDBRANCH  30  31
ENDBRANCH  22  25
ENDBRANCH  20  21
ENDBRANCH   1  20
TORSDOF 11
ENDMDL
