MODEL 1
REMARK VINA RESULT:     -12.5      0.000      0.000
REMARK SMILES O=C(NCCCNC(=O)c1cc(-c2ccc[nH]c2=O)ccc1Cl)c1ccc(-c2c3nc(c(-c4c(F)c(F)c(F)c(F)c4F)c4ccc([nH]4)c(-c4c(F)c(F)c(F)c(F)c4F)c4nc(c(-c5c(F)c(F)c(F)c(F)c5F)c5ccc2[nH]5)C=C4)C=C3)cc1
REMARK SMILES IDX 4 1 3 2 1 3 2 4 24 6 25 7 86 8 26 9 85 10 27 11 28 12 29 13
REMARK SMILES IDX 79 14 30 15 84 16 78 17 80 18 31 19 83 20 77 21 76 22 32 24
REMARK SMILES IDX 64 25 44 26 63 27 45 28 48 29 62 30 81 31 46 32 47 33 61 35
REMARK SMILES IDX 82 36 49 37 33 38 34 39 42 40 35 41 36 42 40 43 43 44 37 45
REMARK SMILES IDX 38 46 41 47 39 48 65 49 66 50 74 51 67 52 68 53 72 54 75 55
REMARK SMILES IDX 69 56 70 57 73 58 71 59 50 60 51 61 59 62 52 63 53 64 57 65
REMARK SMILES IDX 60 66 54 67 55 68 58 69 56 70 5 71 6 72 7 73 8 74 9 76 10 77
REMARK SMILES IDX 11 78 22 79 12 80 21 81 23 82 20 83 13 84 14 85 18 86 15 87
REMARK SMILES IDX 17 88 19 89 16 90
REMARK H PARENT 3 5 80 23 48 34 7 75 17 91
REMARK Flexibility Score: inf
ROOT
ATOM      1  C   UNL A   1      33.213  29.223  25.171  1.00  0.00     0.118 C 
ENDROOT
BRANCH   1   2
ATOM      2  N   UNL A   1      32.688  30.456  25.743  1.00  0.00    -0.352 N 
ATOM      3  O   UNL A   1      32.401  32.109  27.244  1.00  0.00    -0.269 OA
ATOM      4  C   UNL A   1      33.099  31.184  26.831  1.00  0.00     0.251 C 
ATOM      5  H   UNL A   1      31.909  30.828  25.270  1.00  0.00     0.163 HD
BRANCH   4   6
ATOM      6  C   UNL A   1      34.356  30.851  27.532  1.00  0.00     0.039 A 
ATOM      7  C   UNL A   1      34.598  29.562  28.013  1.00  0.00     0.014 A 
ATOM      8  C   UNL A   1      35.330  31.843  27.685  1.00  0.00     0.014 A 
ATOM      9  C   UNL A   1      35.722  29.309  28.790  1.00  0.00     0.010 A 
ATOM     10  C   UNL A   1      36.509  31.561  28.378  1.00  0.00     0.010 A 
ATOM     11  C   UNL A   1      36.698  30.301  28.970  1.00  0.00    -0.014 A 
BRANCH  11  12
ATOM     12  C   UNL A   1      37.931  29.996  29.738  1.00  0.00     0.031 A 
ATOM     13  C   UNL A   1      38.977  29.075  29.179  1.00  0.00     0.074 A 
ATOM     14  C   UNL A   1      38.099  30.553  30.952  1.00  0.00     0.049 A 
ATOM     15  N   UNL A   1      40.087  28.650  29.732  1.00  0.00    -0.248 NA
ATOM     16  C   UNL A   1      38.745  28.553  27.824  1.00  0.00     0.031 C 
ATOM     17  C   UNL A   1      37.152  31.464  31.598  1.00  0.00     0.029 A 
ATOM     18  N   UNL A   1      39.119  30.436  31.860  1.00  0.00    -0.354 N 
ATOM     19  C   UNL A   1      40.670  27.796  28.806  1.00  0.00     0.074 A 
ATOM     20  C   UNL A   1      39.779  27.740  27.667  1.00  0.00     0.031 C 
ATOM     21  C   UNL A   1      37.644  31.841  32.785  1.00  0.00     0.029 A 
ATOM     22  C   UNL A   1      38.906  31.146  33.015  1.00  0.00     0.049 A 
ATOM     23  H   UNL A   1      39.926  29.896  31.699  1.00  0.00     0.167 HD
ATOM     24  C   UNL A   1      41.845  27.127  28.900  1.00  0.00     0.037 A 
ATOM     25  C   UNL A   1      39.627  31.206  34.149  1.00  0.00     0.037 A 
ATOM     26  C   UNL A   1      42.727  27.195  30.038  1.00  0.00     0.049 A 
ATOM     27  C   UNL A   1      40.902  30.419  34.247  1.00  0.00     0.074 A 
ATOM     28  C   UNL A   1      43.954  26.581  30.217  1.00  0.00     0.029 A 
ATOM     29  N   UNL A   1      42.467  27.913  31.198  1.00  0.00    -0.354 N 
ATOM     30  N   UNL A   1      41.461  29.638  33.354  1.00  0.00    -0.248 NA
ATOM     31  C   UNL A   1      41.647  30.521  35.508  1.00  0.00     0.031 C 
ATOM     32  C   UNL A   1      44.409  26.879  31.507  1.00  0.00     0.029 A 
ATOM     33  C   UNL A   1      43.499  27.734  32.107  1.00  0.00     0.049 A 
ATOM     34  H   UNL A   1      41.668  28.467  31.352  1.00  0.00     0.167 HD
ATOM     35  C   UNL A   1      42.635  29.179  33.933  1.00  0.00     0.074 A 
ATOM     36  C   UNL A   1      42.712  29.774  35.251  1.00  0.00     0.031 C 
ATOM     37  C   UNL A   1      43.567  28.341  33.413  1.00  0.00     0.037 A 
BRANCH  24  38
ATOM     38  C   UNL A   1      42.230  26.234  27.752  1.00  0.00     0.064 A 
ATOM     39  C   UNL A   1      43.125  26.650  26.755  1.00  0.00     0.173 A 
ATOM     40  C   UNL A   1      41.711  24.932  27.663  1.00  0.00     0.173 A 
ATOM     41  F   UNL A   1      43.644  27.885  26.786  1.00  0.00    -0.203 F 
ATOM     42  C   UNL A   1      43.456  25.811  25.692  1.00  0.00     0.198 A 
ATOM     43  C   UNL A   1      42.070  24.084  26.617  1.00  0.00     0.198 A 
ATOM     44  F   UNL A   1      40.858  24.477  28.593  1.00  0.00    -0.203 F 
ATOM     45  F   UNL A   1      44.266  26.253  24.720  1.00  0.00    -0.200 F 
ATOM     46  C   UNL A   1      42.933  24.528  25.627  1.00  0.00     0.200 A 
ATOM     47  F   UNL A   1      41.575  22.840  26.565  1.00  0.00    -0.200 F 
ATOM     48  F   UNL A   1      43.252  23.723  24.604  1.00  0.00    -0.200 F 
ENDBRANCH  24  38
BRANCH  25  49
ATOM     49  C   UNL A   1      39.144  32.042  35.278  1.00  0.00     0.064 A 
ATOM     50  C   UNL A   1      38.393  31.484  36.320  1.00  0.00     0.173 A 
ATOM     51  C   UNL A   1      39.455  33.409  35.355  1.00  0.00     0.173 A 
ATOM     52  F   UNL A   1      38.057  30.186  36.282  1.00  0.00    -0.203 F 
ATOM     53  C   UNL A   1      37.961  32.262  37.391  1.00  0.00     0.198 A 
ATOM     54  C   UNL A   1      39.051  34.178  36.443  1.00  0.00     0.198 A 
ATOM     55  F   UNL A   1      40.180  33.988  34.387  1.00  0.00    -0.203 F 
ATOM     56  F   UNL A   1      37.214  31.712  38.359  1.00  0.00    -0.200 F 
ATOM     57  C   UNL A   1      38.298  33.607  37.457  1.00  0.00     0.200 A 
ATOM     58  F   UNL A   1      39.396  35.471  36.511  1.00  0.00    -0.200 F 
ATOM     59  F   UNL A   1      37.896  34.350  38.496  1.00  0.00    -0.200 F 
ENDBRANCH  25  49
BRANCH  37  60
ATOM     60  C   UNL A   1      44.781  28.058  34.251  1.00  0.00     0.064 A 
ATOM     61  C   UNL A   1      44.845  26.956  35.116  1.00  0.00     0.173 A 
ATOM     62  C   UNL A   1      45.916  28.877  34.146  1.00  0.00     0.173 A 
ATOM     63  F   UNL A   1      43.781  26.151  35.264  1.00  0.00    -0.203 F 
ATOM     64  C   UNL A   1      45.993  26.698  35.861  1.00  0.00     0.198 A 
ATOM     65  C   UNL A   1      47.072  28.598  34.868  1.00  0.00     0.198 A 
ATOM     66  F   UNL A   1      45.909  29.942  33.330  1.00  0.00    -0.203 F 
ATOM     67  F   UNL A   1      46.016  25.666  36.716  1.00  0.00    -0.200 F 
ATOM     68  C   UNL A   1      47.107  27.513  35.730  1.00  0.00     0.200 A 
ATOM     69  F   UNL A   1      48.153  29.378  34.727  1.00  0.00    -0.200 F 
ATOM     70  F   UNL A   1      48.216  27.255  36.439  1.00  0.00    -0.200 F 
ENDBRANCH  37  60
ENDBRANCH  11  12
ENDBRANCH   4   6
ENDBRANCH   1   2
BRANCH   1  71
ATOM     71  C   UNL A   1      32.931  29.090  23.681  1.00  0.00     0.042 C 
BRANCH  71  72
ATOM     72  C   UNL A   1      34.094  28.530  22.878  1.00  0.00     0.118 C 
BRANCH  72  73
ATOM     73  N   UNL A   1      33.676  27.534  21.905  1.00  0.00    -0.352 N 
ATOM     74  C   UNL A   1      33.410  26.200  22.079  1.00  0.00     0.252 C 
ATOM     75  H   UNL A   1      33.566  27.866  20.985  1.00  0.00     0.163 HD
ATOM     76  O   UNL A   1      33.159  25.493  21.108  1.00  0.00    -0.269 OA
BRANCH  74  77
ATOM     77  C   UNL A   1      33.506  25.591  23.417  1.00  0.00     0.059 A 
ATOM     78  C   UNL A   1      34.714  24.945  23.733  1.00  0.00     0.024 A 
ATOM     79  C   UNL A   1      32.449  25.592  24.334  1.00  0.00     0.053 A 
ATOM     80  C   UNL A   1      34.893  24.354  24.991  1.00  0.00    -0.012 A 
ATOM     81  C   UNL A   1      32.650  25.068  25.611  1.00  0.00     0.022 A 
ATOM     82  Cl  UNL A   1      30.863  26.162  23.950  1.00  0.00    -0.083 Cl
ATOM     83  C   UNL A   1      33.866  24.464  25.938  1.00  0.00     0.010 A 
BRANCH  80  84
ATOM     84  C   UNL A   1      36.093  23.556  25.300  1.00  0.00     0.047 A 
ATOM     85  C   UNL A   1      37.177  24.098  25.891  1.00  0.00     0.016 A 
ATOM     86  C   UNL A   1      36.140  22.086  24.955  1.00  0.00     0.255 A 
ATOM     87  C   UNL A   1      38.351  23.308  26.190  1.00  0.00     0.019 A 
ATOM     88  N   UNL A   1      37.301  21.422  25.276  1.00  0.00    -0.329 N 
ATOM     89  O   UNL A   1      35.203  21.499  24.420  1.00  0.00    -0.269 OA
ATOM     90  C   UNL A   1      38.380  22.008  25.877  1.00  0.00     0.086 A 
ATOM     91  H   UNL A   1      37.357  20.464  25.059  1.00  0.00     0.169 HD
ENDBRANCH  80  84
ENDBRANCH  74  77
ENDBRANCH  72  73
ENDBRANCH  71  72
ENDBRANCH   1  71
TORSDOF 11
ENDMDL
MODEL 2
REMARK VINA RESULT:     -12.4      0.207      1.630
REMARK SMILES O=C(NCCCNC(=O)c1cc(-c2ccc[nH]c2=O)ccc1Cl)c1ccc(-c2c3nc(c(-c4c(F)c(F)c(F)c(F)c4F)c4ccc([nH]4)c(-c4c(F)c(F)c(F)c(F)c4F)c4nc(c(-c5c(F)c(F)c(F)c(F)c5F)c5ccc2[nH]5)C=C4)C=C3)cc1
REMARK SMILES IDX 4 1 3 2 1 3 2 4 24 6 25 7 86 8 26 9 85 10 27 11 28 12 29 13
REMARK SMILES IDX 79 14 30 15 84 16 78 17 80 18 31 19 83 20 77 21 76 22 32 24
REMARK SMILES IDX 64 25 44 26 63 27 45 28 48 29 62 30 81 31 46 32 47 33 61 35
REMARK SMILES IDX 82 36 49 37 33 38 34 39 42 40 35 41 36 42 40 43 43 44 37 45
REMARK SMILES IDX 38 46 41 47 39 48 65 49 66 50 74 51 67 52 68 53 72 54 75 55
REMARK SMILES IDX 69 56 70 57 73 58 71 59 50 60 51 61 59 62 52 63 53 64 57 65
REMARK SMILES IDX 60 66 54 67 55 68 58 69 56 70 5 71 6 72 7 73 8 74 9 76 10 77
REMARK SMILES IDX 11 78 22 79 12 80 21 81 23 82 20 83 13 84 14 85 18 86 15 87
REMARK SMILES IDX 17 88 19 89 16 90
REMARK H PARENT 3 5 80 23 48 34 7 75 17 91
REMARK Flexibility Score: inf
ROOT
ATOM      1  C   UNL A   1      33.305  29.245  25.098  1.00  0.00     0.118 C 
ENDROOT
BRANCH   1   2
ATOM      2  N   UNL A   1      32.769  30.468  25.681  1.00  0.00    -0.352 N 
ATOM      3  O   UNL A   1      32.453  32.095  27.205  1.00  0.00    -0.269 OA
ATOM      4  C   UNL A   1      33.158  31.177  26.789  1.00  0.00     0.251 C 
ATOM      5  H   UNL A   1      31.999  30.848  25.200  1.00  0.00     0.163 HD
BRANCH   4   6
ATOM      6  C   UNL A   1      34.403  30.831  27.509  1.00  0.00     0.039 A 
ATOM      7  C   UNL A   1      34.616  29.546  28.009  1.00  0.00     0.014 A 
ATOM      8  C   UNL A   1      35.392  31.808  27.658  1.00  0.00     0.014 A 
ATOM      9  C   UNL A   1      35.727  29.284  28.801  1.00  0.00     0.010 A 
ATOM     10  C   UNL A   1      36.559  31.515  28.368  1.00  0.00     0.010 A 
ATOM     11  C   UNL A   1      36.719  30.260  28.978  1.00  0.00    -0.014 A 
BRANCH  11  12
ATOM     12  C   UNL A   1      37.938  29.944  29.763  1.00  0.00     0.031 A 
ATOM     13  C   UNL A   1      38.989  29.022  29.215  1.00  0.00     0.074 A 
ATOM     14  C   UNL A   1      38.089  30.493  30.984  1.00  0.00     0.049 A 
ATOM     15  N   UNL A   1      40.088  28.589  29.782  1.00  0.00    -0.248 NA
ATOM     16  C   UNL A   1      38.776  28.511  27.853  1.00  0.00     0.031 C 
ATOM     17  C   UNL A   1      37.137  31.403  31.621  1.00  0.00     0.029 A 
ATOM     18  N   UNL A   1      39.094  30.365  31.907  1.00  0.00    -0.354 N 
ATOM     19  C   UNL A   1      40.682  27.738  28.860  1.00  0.00     0.074 A 
ATOM     20  C   UNL A   1      39.809  27.694  27.706  1.00  0.00     0.031 C 
ATOM     21  C   UNL A   1      37.612  31.770  32.819  1.00  0.00     0.029 A 
ATOM     22  C   UNL A   1      38.867  31.068  33.064  1.00  0.00     0.049 A 
ATOM     23  H   UNL A   1      39.901  29.821  31.755  1.00  0.00     0.167 HD
ATOM     24  C   UNL A   1      41.852  27.063  28.967  1.00  0.00     0.037 A 
ATOM     25  C   UNL A   1      39.570  31.117  34.209  1.00  0.00     0.037 A 
ATOM     26  C   UNL A   1      42.716  27.119  30.120  1.00  0.00     0.049 A 
ATOM     27  C   UNL A   1      40.840  30.323  34.322  1.00  0.00     0.074 A 
ATOM     28  C   UNL A   1      43.938  26.499  30.314  1.00  0.00     0.029 A 
ATOM     29  N   UNL A   1      42.441  27.830  31.280  1.00  0.00    -0.354 N 
ATOM     30  N   UNL A   1      41.409  29.546  33.433  1.00  0.00    -0.248 NA
ATOM     31  C   UNL A   1      41.565  30.413  35.595  1.00  0.00     0.031 C 
ATOM     32  C   UNL A   1      44.373  26.785  31.613  1.00  0.00     0.029 A 
ATOM     33  C   UNL A   1      43.458  27.641  32.205  1.00  0.00     0.049 A 
ATOM     34  H   UNL A   1      41.642  28.387  31.426  1.00  0.00     0.167 HD
ATOM     35  C   UNL A   1      42.572  29.077  34.026  1.00  0.00     0.074 A 
ATOM     36  C   UNL A   1      42.630  29.663  35.349  1.00  0.00     0.031 C 
ATOM     37  C   UNL A   1      43.508  28.239  33.516  1.00  0.00     0.037 A 
BRANCH  24  38
ATOM     38  C   UNL A   1      42.251  26.175  27.820  1.00  0.00     0.064 A 
ATOM     39  C   UNL A   1      41.682  24.907  27.629  1.00  0.00     0.173 A 
ATOM     40  C   UNL A   1      43.202  26.612  26.884  1.00  0.00     0.173 A 
ATOM     41  F   UNL A   1      40.775  24.436  28.497  1.00  0.00    -0.203 F 
ATOM     42  C   UNL A   1      42.078  24.095  26.568  1.00  0.00     0.198 A 
ATOM     43  C   UNL A   1      43.571  25.811  25.805  1.00  0.00     0.198 A 
ATOM     44  F   UNL A   1      43.773  27.820  27.011  1.00  0.00    -0.203 F 
ATOM     45  F   UNL A   1      41.564  22.864  26.442  1.00  0.00    -0.200 F 
ATOM     46  C   UNL A   1      43.018  24.550  25.655  1.00  0.00     0.200 A 
ATOM     47  F   UNL A   1      44.468  26.260  24.916  1.00  0.00    -0.200 F 
ATOM     48  F   UNL A   1      43.397  23.768  24.635  1.00  0.00    -0.200 F 
ENDBRANCH  24  38
BRANCH  25  49
ATOM     49  C   UNL A   1      39.073  31.947  35.336  1.00  0.00     0.064 A 
ATOM     50  C   UNL A   1      38.326  31.380  36.376  1.00  0.00     0.173 A 
ATOM     51  C   UNL A   1      39.366  33.318  35.413  1.00  0.00     0.173 A 
ATOM     52  F   UNL A   1      38.007  30.078  36.338  1.00  0.00    -0.203 F 
ATOM     53  C   UNL A   1      37.881  32.153  37.446  1.00  0.00     0.198 A 
ATOM     54  C   UNL A   1      38.949  34.083  36.499  1.00  0.00     0.198 A 
ATOM     55  F   UNL A   1      40.087  33.906  34.447  1.00  0.00    -0.203 F 
ATOM     56  F   UNL A   1      37.139  31.595  38.411  1.00  0.00    -0.200 F 
ATOM     57  C   UNL A   1      38.201  33.503  37.511  1.00  0.00     0.200 A 
ATOM     58  F   UNL A   1      39.277  35.381  36.567  1.00  0.00    -0.200 F 
ATOM     59  F   UNL A   1      37.786  34.242  38.548  1.00  0.00    -0.200 F 
ENDBRANCH  25  49
BRANCH  37  60
ATOM     60  C   UNL A   1      44.707  27.944  34.370  1.00  0.00     0.064 A 
ATOM     61  C   UNL A   1      45.807  28.811  34.431  1.00  0.00     0.173 A 
ATOM     62  C   UNL A   1      44.731  26.795  35.177  1.00  0.00     0.173 A 
ATOM     63  F   UNL A   1      45.841  29.914  33.668  1.00  0.00    -0.203 F 
ATOM     64  C   UNL A   1      46.896  28.529  35.253  1.00  0.00     0.198 A 
ATOM     65  C   UNL A   1      45.806  26.533  36.021  1.00  0.00     0.198 A 
ATOM     66  F   UNL A   1      43.703  25.933  35.159  1.00  0.00    -0.203 F 
ATOM     67  F   UNL A   1      47.956  29.349  35.262  1.00  0.00    -0.200 F 
ATOM     68  C   UNL A   1      46.890  27.396  36.053  1.00  0.00     0.200 A 
ATOM     69  F   UNL A   1      45.791  25.446  36.804  1.00  0.00    -0.200 F 
ATOM     70  F   UNL A   1      47.933  27.133  36.853  1.00  0.00    -0.200 F 
ENDBRANCH  37  60
ENDBRANCH  11  12
ENDBRANCH   4   6
ENDBRANCH   1   2
BRANCH   1  71
ATOM     71  C   UNL A   1      32.970  29.093  23.621  1.00  0.00     0.042 C 
BRANCH  71  72
ATOM     72  C   UNL A   1      34.023  28.342  22.822  1.00  0.00     0.118 C 
BRANCH  72  73
ATOM     73  N   UNL A   1      33.448  27.330  21.950  1.00  0.00    -0.352 N 
ATOM     74  C   UNL A   1      33.126  26.024  22.221  1.00  0.00     0.252 C 
ATOM     75  H   UNL A   1      33.262  27.624  21.029  1.00  0.00     0.163 HD
ATOM     76  O   UNL A   1      32.734  25.290  21.319  1.00  0.00    -0.269 OA
BRANCH  74  77
ATOM     77  C   UNL A   1      33.326  25.473  23.573  1.00  0.00     0.059 A 
ATOM     78  C   UNL A   1      34.535  24.796  23.807  1.00  0.00     0.024 A 
ATOM     79  C   UNL A   1      32.361  25.558  24.582  1.00  0.00     0.053 A 
ATOM     80  C   UNL A   1      34.811  24.258  25.071  1.00  0.00    -0.012 A 
ATOM     81  C   UNL A   1      32.662  25.086  25.859  1.00  0.00     0.022 A 
ATOM     82  Cl  UNL A   1      30.766  26.170  24.318  1.00  0.00    -0.083 Cl
ATOM     83  C   UNL A   1      33.882  24.450  26.102  1.00  0.00     0.010 A 
BRANCH  80  84
ATOM     84  C   UNL A   1      36.008  23.428  25.307  1.00  0.00     0.047 A 
ATOM     85  C   UNL A   1      37.142  23.944  25.821  1.00  0.00     0.016 A 
ATOM     86  C   UNL A   1      35.991  21.955  24.972  1.00  0.00     0.255 A 
ATOM     87  C   UNL A   1      38.311  23.123  26.048  1.00  0.00     0.019 A 
ATOM     88  N   UNL A   1      37.152  21.262  25.221  1.00  0.00    -0.329 N 
ATOM     89  O   UNL A   1      35.005  21.391  24.505  1.00  0.00    -0.269 OA
ATOM     90  C   UNL A   1      38.285  21.821  25.744  1.00  0.00     0.086 A 
ATOM     91  H   UNL A   1      37.168  20.300  25.010  1.00  0.00     0.169 HD
ENDBRANCH  80  84
ENDBRANCH  74  77
ENDBRANCH  72  73
ENDBRANCH  71  72
ENDBRANCH   1  71
TORSDOF 11
ENDMDL
MODEL 3
REMARK VINA RESULT:     -12.4      0.164      1.628
REMARK SMILES O=C(NCCCNC(=O)c1cc(-c2ccc[nH]c2=O)ccc1Cl)c1ccc(-c2c3nc(c(-c4c(F)c(F)c(F)c(F)c4F)c4ccc([nH]4)c(-c4c(F)c(F)c(F)c(F)c4F)c4nc(c(-c5c(F)c(F)c(F)c(F)c5F)c5ccc2[nH]5)C=C4)C=C3)cc1
REMARK SMILES IDX 4 1 3 2 1 3 2 4 24 6 25 7 86 8 26 9 85 10 27 11 28 12 29 13
REMARK SMILES IDX 79 14 30 15 84 16 78 17 80 18 31 19 83 20 77 21 76 22 32 24
REMARK SMILES IDX 64 25 44 26 63 27 45 28 48 29 62 30 81 31 46 32 47 33 61 35
REMARK SMILES IDX 82 36 49 37 33 38 34 39 42 40 35 41 36 42 40 43 43 44 37 45
REMARK SMILES IDX 38 46 41 47 39 48 65 49 66 50 74 51 67 52 68 53 72 54 75 55
REMARK SMILES IDX 69 56 70 57 73 58 71 59 50 60 51 61 59 62 52 63 53 64 57 65
REMARK SMILES IDX 60 66 54 67 55 68 58 69 56 70 5 71 6 72 7 73 8 74 9 76 10 77
REMARK SMILES IDX 11 78 22 79 12 80 21 81 23 82 20 83 13 84 14 85 18 86 15 87
REMARK SMILES IDX 17 88 19 89 16 90
REMARK H PARENT 3 5 80 23 48 34 7 75 17 91
REMARK Flexibility Score: inf
ROOT
ATOM      1  C   UNL A   1      33.356  29.243  25.139  1.00  0.00     0.118 C 
ENDROOT
BRANCH   1   2
ATOM      2  N   UNL A   1      32.822  30.460  25.737  1.00  0.00    -0.352 N 
ATOM      3  O   UNL A   1      32.520  32.076  27.274  1.00  0.00    -0.269 OA
ATOM      4  C   UNL A   1      33.224  31.165  26.843  1.00  0.00     0.251 C 
ATOM      5  H   UNL A   1      32.043  30.837  25.270  1.00  0.00     0.163 HD
BRANCH   4   6
ATOM      6  C   UNL A   1      34.481  30.823  27.541  1.00  0.00     0.039 A 
ATOM      7  C   UNL A   1      34.706  29.538  28.040  1.00  0.00     0.014 A 
ATOM      8  C   UNL A   1      35.471  31.801  27.673  1.00  0.00     0.014 A 
ATOM      9  C   UNL A   1      35.831  29.280  28.814  1.00  0.00     0.010 A 
ATOM     10  C   UNL A   1      36.650  31.512  28.363  1.00  0.00     0.010 A 
ATOM     11  C   UNL A   1      36.823  30.259  28.972  1.00  0.00    -0.014 A 
BRANCH  11  12
ATOM     12  C   UNL A   1      38.056  29.946  29.737  1.00  0.00     0.031 A 
ATOM     13  C   UNL A   1      39.089  29.006  29.183  1.00  0.00     0.074 A 
ATOM     14  C   UNL A   1      38.238  30.514  30.944  1.00  0.00     0.049 A 
ATOM     15  N   UNL A   1      40.195  28.574  29.734  1.00  0.00    -0.248 NA
ATOM     16  C   UNL A   1      38.843  28.474  27.834  1.00  0.00     0.031 C 
ATOM     17  C   UNL A   1      37.306  31.443  31.586  1.00  0.00     0.029 A 
ATOM     18  N   UNL A   1      39.261  30.393  31.848  1.00  0.00    -0.354 N 
ATOM     19  C   UNL A   1      40.763  27.702  28.814  1.00  0.00     0.074 A 
ATOM     20  C   UNL A   1      39.866  27.646  27.680  1.00  0.00     0.031 C 
ATOM     21  C   UNL A   1      37.809  31.826  32.766  1.00  0.00     0.029 A 
ATOM     22  C   UNL A   1      39.063  31.118  32.997  1.00  0.00     0.049 A 
ATOM     23  H   UNL A   1      40.060  29.841  31.689  1.00  0.00     0.167 HD
ATOM     24  C   UNL A   1      41.930  27.020  28.909  1.00  0.00     0.037 A 
ATOM     25  C   UNL A   1      39.791  31.181  34.127  1.00  0.00     0.037 A 
ATOM     26  C   UNL A   1      42.819  27.089  30.042  1.00  0.00     0.049 A 
ATOM     27  C   UNL A   1      41.057  30.379  34.226  1.00  0.00     0.074 A 
ATOM     28  C   UNL A   1      44.040  26.462  30.221  1.00  0.00     0.029 A 
ATOM     29  N   UNL A   1      42.574  27.822  31.195  1.00  0.00    -0.354 N 
ATOM     30  N   UNL A   1      41.601  29.582  33.339  1.00  0.00    -0.248 NA
ATOM     31  C   UNL A   1      41.809  30.485  35.483  1.00  0.00     0.031 C 
ATOM     32  C   UNL A   1      44.504  26.767  31.505  1.00  0.00     0.029 A 
ATOM     33  C   UNL A   1      43.608  27.640  32.101  1.00  0.00     0.049 A 
ATOM     34  H   UNL A   1      41.783  28.387  31.348  1.00  0.00     0.167 HD
ATOM     35  C   UNL A   1      42.772  29.114  33.916  1.00  0.00     0.074 A 
ATOM     36  C   UNL A   1      42.863  29.722  35.227  1.00  0.00     0.031 C 
ATOM     37  C   UNL A   1      43.691  28.260  33.401  1.00  0.00     0.037 A 
BRANCH  24  38
ATOM     38  C   UNL A   1      42.298  26.110  27.769  1.00  0.00     0.064 A 
ATOM     39  C   UNL A   1      41.734  24.833  27.625  1.00  0.00     0.173 A 
ATOM     40  C   UNL A   1      43.214  26.533  26.792  1.00  0.00     0.173 A 
ATOM     41  F   UNL A   1      40.861  24.375  28.534  1.00  0.00    -0.203 F 
ATOM     42  C   UNL A   1      42.101  24.001  26.570  1.00  0.00     0.198 A 
ATOM     43  C   UNL A   1      43.553  25.711  25.719  1.00  0.00     0.198 A 
ATOM     44  F   UNL A   1      43.779  27.747  26.873  1.00  0.00    -0.203 F 
ATOM     45  F   UNL A   1      41.593  22.763  26.488  1.00  0.00    -0.200 F 
ATOM     46  C   UNL A   1      43.006  24.442  25.615  1.00  0.00     0.200 A 
ATOM     47  F   UNL A   1      44.416  26.146  24.790  1.00  0.00    -0.200 F 
ATOM     48  F   UNL A   1      43.357  23.640  24.601  1.00  0.00    -0.200 F 
ENDBRANCH  24  38
BRANCH  25  49
ATOM     49  C   UNL A   1      39.324  32.034  35.249  1.00  0.00     0.064 A 
ATOM     50  C   UNL A   1      39.613  33.404  35.284  1.00  0.00     0.173 A 
ATOM     51  C   UNL A   1      38.547  31.503  36.291  1.00  0.00     0.173 A 
ATOM     52  F   UNL A   1      40.366  33.953  34.319  1.00  0.00    -0.203 F 
ATOM     53  C   UNL A   1      39.154  34.209  36.323  1.00  0.00     0.198 A 
ATOM     54  C   UNL A   1      38.061  32.315  37.312  1.00  0.00     0.198 A 
ATOM     55  F   UNL A   1      38.235  30.199  36.298  1.00  0.00    -0.203 F 
ATOM     56  F   UNL A   1      39.473  35.510  36.352  1.00  0.00    -0.200 F 
ATOM     57  C   UNL A   1      38.370  33.666  37.332  1.00  0.00     0.200 A 
ATOM     58  F   UNL A   1      37.289  31.790  38.273  1.00  0.00    -0.200 F 
ATOM     59  F   UNL A   1      37.916  34.445  38.322  1.00  0.00    -0.200 F 
ENDBRANCH  25  49
BRANCH  37  60
ATOM     60  C   UNL A   1      44.906  27.969  34.234  1.00  0.00     0.064 A 
ATOM     61  C   UNL A   1      44.959  26.878  35.112  1.00  0.00     0.173 A 
ATOM     62  C   UNL A   1      46.051  28.772  34.114  1.00  0.00     0.173 A 
ATOM     63  F   UNL A   1      43.886  26.089  35.277  1.00  0.00    -0.203 F 
ATOM     64  C   UNL A   1      46.108  26.613  35.855  1.00  0.00     0.198 A 
ATOM     65  C   UNL A   1      47.208  28.486  34.832  1.00  0.00     0.198 A 
ATOM     66  F   UNL A   1      46.054  29.827  33.285  1.00  0.00    -0.203 F 
ATOM     67  F   UNL A   1      46.122  25.591  36.722  1.00  0.00    -0.200 F 
ATOM     68  C   UNL A   1      47.233  27.411  35.707  1.00  0.00     0.200 A 
ATOM     69  F   UNL A   1      48.298  29.249  34.676  1.00  0.00    -0.200 F 
ATOM     70  F   UNL A   1      48.342  27.146  36.413  1.00  0.00    -0.200 F 
ENDBRANCH  37  60
ENDBRANCH  11  12
ENDBRANCH   4   6
ENDBRANCH   1   2
BRANCH   1  71
ATOM     71  C   UNL A   1      32.947  29.064  23.685  1.00  0.00     0.042 C 
BRANCH  71  72
ATOM     72  C   UNL A   1      34.009  28.406  22.818  1.00  0.00     0.118 C 
BRANCH  72  73
ATOM     73  N   UNL A   1      33.459  27.401  21.923  1.00  0.00    -0.352 N 
ATOM     74  C   UNL A   1      33.143  26.089  22.171  1.00  0.00     0.252 C 
ATOM     75  H   UNL A   1      33.287  27.706  21.003  1.00  0.00     0.163 HD
ATOM     76  O   UNL A   1      32.774  25.364  21.252  1.00  0.00    -0.269 OA
BRANCH  74  77
ATOM     77  C   UNL A   1      33.323  25.522  23.519  1.00  0.00     0.059 A 
ATOM     78  C   UNL A   1      34.539  24.863  23.770  1.00  0.00     0.024 A 
ATOM     79  C   UNL A   1      32.335  25.575  24.508  1.00  0.00     0.053 A 
ATOM     80  C   UNL A   1      34.797  24.310  25.031  1.00  0.00    -0.012 A 
ATOM     81  C   UNL A   1      32.618  25.089  25.784  1.00  0.00     0.022 A 
ATOM     82  Cl  UNL A   1      30.736  26.164  24.218  1.00  0.00    -0.083 Cl
ATOM     83  C   UNL A   1      33.843  24.472  26.045  1.00  0.00     0.010 A 
BRANCH  80  84
ATOM     84  C   UNL A   1      36.003  23.498  25.281  1.00  0.00     0.047 A 
ATOM     85  C   UNL A   1      37.110  24.022  25.844  1.00  0.00     0.016 A 
ATOM     86  C   UNL A   1      36.027  22.035  24.906  1.00  0.00     0.255 A 
ATOM     87  C   UNL A   1      38.289  23.218  26.085  1.00  0.00     0.019 A 
ATOM     88  N   UNL A   1      37.193  21.358  25.171  1.00  0.00    -0.329 N 
ATOM     89  O   UNL A   1      35.067  21.465  24.393  1.00  0.00    -0.269 OA
ATOM     90  C   UNL A   1      38.298  21.924  25.745  1.00  0.00     0.086 A 
ATOM     91  H   UNL A   1      37.235  20.403  24.934  1.00  0.00     0.169 HD
ENDBRANCH  80  84
ENDBRANCH  74  77
ENDBRANCH  72  73
ENDBRANCH  71  72
ENDBRANCH   1  71
TORSDOF 11
ENDMDL
