MODEL 1
REMARK VINA RESULT:     -11.0      0.000      0.000
REMARK SMILES C[C@H](Cc1cccs1)N(C)C(=O)N1CC[C@@H](CC(=O)NCCCNC(=O)c2ccc(-c3c4nc(c(-c5c(F)c(F)c(F)c(F)c5F)c5ccc([nH]5)c(-c5c(F)c(F)c(F)c(F)c5F)c5nc(c(-c6c(F)c(F)c(F)c(F)c6F)c6ccc3[nH]6)C=C5)C=C4)cc2)C1
REMARK SMILES IDX 18 1 19 2 20 3 17 5 16 6 13 7 14 8 90 9 15 10 11 11 12 12
REMARK SMILES IDX 9 13 10 14 2 15 1 16 3 17 4 18 5 19 8 20 6 21 7 22 21 23
REMARK SMILES IDX 22 24 23 25 24 26 25 27 26 29 27 30 28 31 89 32 29 33 88 34
REMARK SMILES IDX 30 35 31 36 32 37 82 38 33 39 87 40 81 41 83 42 34 43 86 44
REMARK SMILES IDX 80 45 79 46 35 48 67 49 47 50 66 51 48 52 51 53 65 54 84 55
REMARK SMILES IDX 49 56 50 57 64 59 85 60 52 61 36 62 37 63 45 64 38 65 39 66
REMARK SMILES IDX 43 67 46 68 40 69 41 70 44 71 42 72 68 73 69 74 77 75 70 76
REMARK SMILES IDX 71 77 75 78 78 79 72 80 73 81 76 82 74 83 53 84 54 85 62 86
REMARK SMILES IDX 55 87 56 88 60 89 63 90 57 91 58 92 61 93 59 94
REMARK H PARENT 20 4 24 28 83 47 51 58
REMARK Flexibility Score: inf
ROOT
ATOM      1  C   UNL A   1      36.291  33.869  28.729  1.00  0.00     0.220 C 
ATOM      2  O   UNL A   1      37.263  33.897  29.483  1.00  0.00    -0.275 OA
ATOM      3  N   UNL A   1      35.477  34.960  28.653  1.00  0.00    -0.356 N 
ATOM      4  H   UNL A   1      35.814  35.766  29.108  1.00  0.00     0.163 HD
ENDROOT
BRANCH   1   5
ATOM      5  C   UNL A   1      35.998  32.650  27.878  1.00  0.00     0.105 C 
BRANCH   5   6
ATOM      6  C   UNL A   1      35.056  31.591  28.474  1.00  0.00     0.020 C 
ATOM      7  N   UNL A   1      33.401  30.329  27.264  1.00  0.00    -0.324 N 
ATOM      8  C   UNL A   1      34.670  29.653  27.068  1.00  0.00     0.122 C 
ATOM      9  C   UNL A   1      33.598  31.573  28.003  1.00  0.00     0.125 C 
ATOM     10  C   UNL A   1      35.545  30.160  28.204  1.00  0.00     0.027 C 
BRANCH   7  11
ATOM     11  C   UNL A   1      32.236  30.184  26.537  1.00  0.00     0.320 C 
ATOM     12  O   UNL A   1      31.469  31.144  26.444  1.00  0.00    -0.248 OA
BRANCH  11  13
ATOM     13  N   UNL A   1      31.906  28.937  26.024  1.00  0.00    -0.325 N 
ATOM     14  C   UNL A   1      31.404  27.831  26.824  1.00  0.00     0.149 C 
BRANCH  13  15
ATOM     15  C   UNL A   1      31.762  28.767  24.551  1.00  0.00     0.088 C 
ATOM     16  C   UNL A   1      30.566  27.929  24.088  1.00  0.00     0.031 C 
BRANCH  15  17
ATOM     17  C   UNL A   1      33.090  28.395  23.836  1.00  0.00     0.071 C 
BRANCH  17  18
ATOM     18  C   UNL A   1      33.469  26.938  23.829  1.00  0.00     0.007 A 
ATOM     19  C   UNL A   1      34.033  26.196  24.852  1.00  0.00     0.015 A 
ATOM     20  S   UNL A   1      33.285  25.992  22.411  1.00  0.00    -0.149 S 
ATOM     21  C   UNL A   1      34.215  24.828  24.502  1.00  0.00     0.012 A 
ATOM     22  C   UNL A   1      33.867  24.586  23.193  1.00  0.00     0.065 A 
ENDBRANCH  17  18
ENDBRANCH  15  17
ENDBRANCH  13  15
ENDBRANCH  11  13
ENDBRANCH   7  11
ENDBRANCH   5   6
ENDBRANCH   1   5
BRANCH   3  23
ATOM     23  C   UNL A   1      34.187  35.110  27.999  1.00  0.00     0.117 C 
BRANCH  23  24
ATOM     24  C   UNL A   1      33.065  35.234  29.019  1.00  0.00     0.042 C 
BRANCH  24  25
ATOM     25  C   UNL A   1      33.063  36.540  29.797  1.00  0.00     0.118 C 
BRANCH  25  26
ATOM     26  N   UNL A   1      32.310  36.413  31.034  1.00  0.00    -0.352 N 
ATOM     27  C   UNL A   1      32.511  35.603  32.123  1.00  0.00     0.251 C 
ATOM     28  H   UNL A   1      31.526  37.005  31.102  1.00  0.00     0.163 HD
ATOM     29  O   UNL A   1      31.591  35.469  32.928  1.00  0.00    -0.269 OA
BRANCH  27  30
ATOM     30  C   UNL A   1      33.795  34.891  32.363  1.00  0.00     0.039 A 
ATOM     31  C   UNL A   1      33.736  33.560  32.796  1.00  0.00     0.014 A 
ATOM     32  C   UNL A   1      35.038  35.521  32.278  1.00  0.00     0.014 A 
ATOM     33  C   UNL A   1      34.907  32.868  33.122  1.00  0.00     0.010 A 
ATOM     34  C   UNL A   1      36.214  34.804  32.520  1.00  0.00     0.010 A 
ATOM     35  C   UNL A   1      36.162  33.479  32.973  1.00  0.00    -0.014 A 
BRANCH  35  36
ATOM     36  C   UNL A   1      37.412  32.755  33.328  1.00  0.00     0.031 A 
ATOM     37  C   UNL A   1      38.150  33.081  34.602  1.00  0.00     0.074 A 
ATOM     38  C   UNL A   1      37.905  31.819  32.495  1.00  0.00     0.049 A 
ATOM     39  N   UNL A   1      39.259  32.565  35.074  1.00  0.00    -0.248 NA
ATOM     40  C   UNL A   1      37.575  34.136  35.450  1.00  0.00     0.031 C 
ATOM     41  C   UNL A   1      37.312  31.431  31.216  1.00  0.00     0.029 A 
ATOM     42  N   UNL A   1      39.025  31.030  32.596  1.00  0.00    -0.354 N 
ATOM     43  C   UNL A   1      39.516  33.238  36.261  1.00  0.00     0.074 A 
ATOM     44  C   UNL A   1      38.479  34.236  36.413  1.00  0.00     0.031 C 
ATOM     45  C   UNL A   1      38.066  30.472  30.654  1.00  0.00     0.029 A 
ATOM     46  C   UNL A   1      39.207  30.193  31.522  1.00  0.00     0.049 A 
ATOM     47  H   UNL A   1      39.639  31.061  33.365  1.00  0.00     0.167 HD
ATOM     48  C   UNL A   1      40.510  33.028  37.159  1.00  0.00     0.037 A 
ATOM     49  C   UNL A   1      40.183  29.302  31.264  1.00  0.00     0.037 A 
ATOM     50  C   UNL A   1      41.528  32.019  37.025  1.00  0.00     0.049 A 
ATOM     51  C   UNL A   1      41.274  29.086  32.276  1.00  0.00     0.074 A 
ATOM     52  C   UNL A   1      42.539  31.689  37.910  1.00  0.00     0.029 A 
ATOM     53  N   UNL A   1      41.664  31.177  35.932  1.00  0.00    -0.354 N 
ATOM     54  N   UNL A   1      41.461  29.674  33.431  1.00  0.00    -0.248 NA
ATOM     55  C   UNL A   1      42.282  28.063  31.955  1.00  0.00     0.031 C 
ATOM     56  C   UNL A   1      43.311  30.674  37.336  1.00  0.00     0.029 A 
ATOM     57  C   UNL A   1      42.753  30.338  36.115  1.00  0.00     0.049 A 
ATOM     58  H   UNL A   1      41.075  31.174  35.143  1.00  0.00     0.167 HD
ATOM     59  C   UNL A   1      42.580  29.072  33.991  1.00  0.00     0.074 A 
ATOM     60  C   UNL A   1      43.026  28.066  33.052  1.00  0.00     0.031 C 
ATOM     61  C   UNL A   1      43.179  29.329  35.180  1.00  0.00     0.037 A 
BRANCH  48  62
ATOM     62  C   UNL A   1      40.539  33.902  38.380  1.00  0.00     0.064 A 
ATOM     63  C   UNL A   1      41.298  35.082  38.419  1.00  0.00     0.173 A 
ATOM     64  C   UNL A   1      39.766  33.581  39.506  1.00  0.00     0.173 A 
ATOM     65  F   UNL A   1      42.060  35.430  37.372  1.00  0.00    -0.203 F 
ATOM     66  C   UNL A   1      41.305  35.893  39.551  1.00  0.00     0.198 A 
ATOM     67  C   UNL A   1      39.753  34.410  40.627  1.00  0.00     0.198 A 
ATOM     68  F   UNL A   1      39.015  32.470  39.518  1.00  0.00    -0.203 F 
ATOM     69  F   UNL A   1      42.071  36.991  39.582  1.00  0.00    -0.200 F 
ATOM     70  C   UNL A   1      40.528  35.560  40.651  1.00  0.00     0.200 A 
ATOM     71  F   UNL A   1      38.990  34.095  41.682  1.00  0.00    -0.200 F 
ATOM     72  F   UNL A   1      40.529  36.345  41.737  1.00  0.00    -0.200 F 
ENDBRANCH  48  62
BRANCH  49  73
ATOM     73  C   UNL A   1      40.145  28.513  30.007  1.00  0.00     0.064 A 
ATOM     74  C   UNL A   1      40.759  28.988  28.840  1.00  0.00     0.173 A 
ATOM     75  C   UNL A   1      39.498  27.270  29.946  1.00  0.00     0.173 A 
ATOM     76  F   UNL A   1      41.374  30.179  28.845  1.00  0.00    -0.203 F 
ATOM     77  C   UNL A   1      40.710  28.258  27.653  1.00  0.00     0.198 A 
ATOM     78  C   UNL A   1      39.474  26.529  28.767  1.00  0.00     0.198 A 
ATOM     79  F   UNL A   1      38.904  26.766  31.038  1.00  0.00    -0.203 F 
ATOM     80  F   UNL A   1      41.271  28.754  26.543  1.00  0.00    -0.200 F 
ATOM     81  C   UNL A   1      40.073  27.028  27.619  1.00  0.00     0.200 A 
ATOM     82  F   UNL A   1      38.872  25.332  28.742  1.00  0.00    -0.200 F 
ATOM     83  F   UNL A   1      40.033  26.323  26.480  1.00  0.00    -0.200 F 
ENDBRANCH  49  73
BRANCH  61  84
ATOM     84  C   UNL A   1      44.353  28.475  35.557  1.00  0.00     0.064 A 
ATOM     85  C   UNL A   1      44.198  27.280  36.275  1.00  0.00     0.173 A 
ATOM     86  C   UNL A   1      45.650  28.843  35.168  1.00  0.00     0.173 A 
ATOM     87  F   UNL A   1      42.982  26.892  36.685  1.00  0.00    -0.203 F 
ATOM     88  C   UNL A   1      45.301  26.501  36.614  1.00  0.00     0.198 A 
ATOM     89  C   UNL A   1      46.747  28.048  35.483  1.00  0.00     0.198 A 
ATOM     90  F   UNL A   1      45.853  29.974  34.474  1.00  0.00    -0.203 F 
ATOM     91  F   UNL A   1      45.135  25.389  37.344  1.00  0.00    -0.200 F 
ATOM     92  C   UNL A   1      46.573  26.881  36.213  1.00  0.00     0.200 A 
ATOM     93  F   UNL A   1      47.975  28.411  35.084  1.00  0.00    -0.200 F 
ATOM     94  F   UNL A   1      47.633  26.128  36.537  1.00  0.00    -0.200 F 
ENDBRANCH  61  84
ENDBRANCH  35  36
ENDBRANCH  27  30
ENDBRANCH  25  26
ENDBRANCH  24  25
ENDBRANCH  23  24
ENDBRANCH   3  23
TORSDOF 16
ENDMDL
MODEL 2
REMARK VINA RESULT:     -10.8      0.793      2.249
REMARK SMILES C[C@H](Cc1cccs1)N(C)C(=O)N1CC[C@@H](CC(=O)NCCCNC(=O)c2ccc(-c3c4nc(c(-c5c(F)c(F)c(F)c(F)c5F)c5ccc([nH]5)c(-c5c(F)c(F)c(F)c(F)c5F)c5nc(c(-c6c(F)c(F)c(F)c(F)c6F)c6ccc3[nH]6)C=C5)C=C4)cc2)C1
REMARK SMILES IDX 18 1 19 2 20 3 17 5 16 6 13 7 14 8 90 9 15 10 11 11 12 12
REMARK SMILES IDX 9 13 10 14 2 15 1 16 3 17 4 18 5 19 8 20 6 21 7 22 21 23
REMARK SMILES IDX 22 24 23 25 24 26 25 27 26 29 27 30 28 31 89 32 29 33 88 34
REMARK SMILES IDX 30 35 31 36 32 37 82 38 33 39 87 40 81 41 83 42 34 43 86 44
REMARK SMILES IDX 80 45 79 46 35 48 67 49 47 50 66 51 48 52 51 53 65 54 84 55
REMARK SMILES IDX 49 56 50 57 64 59 85 60 52 61 36 62 37 63 45 64 38 65 39 66
REMARK SMILES IDX 43 67 46 68 40 69 41 70 44 71 42 72 68 73 69 74 77 75 70 76
REMARK SMILES IDX 71 77 75 78 78 79 72 80 73 81 76 82 74 83 53 84 54 85 62 86
REMARK SMILES IDX 55 87 56 88 60 89 63 90 57 91 58 92 61 93 59 94
REMARK H PARENT 20 4 24 28 83 47 51 58
REMARK Flexibility Score: inf
ROOT
ATOM      1  C   UNL A   1      36.412  33.877  28.838  1.00  0.00     0.220 C 
ATOM      2  O   UNL A   1      37.329  33.934  29.657  1.00  0.00    -0.275 OA
ATOM      3  N   UNL A   1      35.574  34.944  28.705  1.00  0.00    -0.356 N 
ATOM      4  H   UNL A   1      35.855  35.760  29.180  1.00  0.00     0.163 HD
ENDROOT
BRANCH   1   5
ATOM      5  C   UNL A   1      36.214  32.651  27.971  1.00  0.00     0.105 C 
BRANCH   5   6
ATOM      6  C   UNL A   1      35.215  31.595  28.470  1.00  0.00     0.020 C 
ATOM      7  N   UNL A   1      33.632  30.392  27.113  1.00  0.00    -0.324 N 
ATOM      8  C   UNL A   1      34.901  29.699  26.992  1.00  0.00     0.122 C 
ATOM      9  C   UNL A   1      33.795  31.614  27.896  1.00  0.00     0.125 C 
ATOM     10  C   UNL A   1      35.700  30.162  28.199  1.00  0.00     0.027 C 
BRANCH   7  11
ATOM     11  C   UNL A   1      32.520  30.286  26.301  1.00  0.00     0.320 C 
ATOM     12  O   UNL A   1      31.694  31.201  26.300  1.00  0.00    -0.248 OA
BRANCH  11  13
ATOM     13  N   UNL A   1      32.305  29.111  25.594  1.00  0.00    -0.325 N 
ATOM     14  C   UNL A   1      32.715  28.900  24.215  1.00  0.00     0.149 C 
BRANCH  13  15
ATOM     15  C   UNL A   1      31.903  27.879  26.329  1.00  0.00     0.088 C 
ATOM     16  C   UNL A   1      31.403  28.088  27.763  1.00  0.00     0.031 C 
BRANCH  15  17
ATOM     17  C   UNL A   1      32.923  26.715  26.195  1.00  0.00     0.071 C 
BRANCH  17  18
ATOM     18  C   UNL A   1      32.367  25.367  25.819  1.00  0.00     0.007 A 
ATOM     19  C   UNL A   1      31.158  24.807  26.189  1.00  0.00     0.015 A 
ATOM     20  S   UNL A   1      33.284  24.276  24.866  1.00  0.00    -0.149 S 
ATOM     21  C   UNL A   1      30.944  23.527  25.606  1.00  0.00     0.012 A 
ATOM     22  C   UNL A   1      32.034  23.109  24.877  1.00  0.00     0.065 A 
ENDBRANCH  17  18
ENDBRANCH  15  17
ENDBRANCH  13  15
ENDBRANCH  11  13
ENDBRANCH   7  11
ENDBRANCH   5   6
ENDBRANCH   1   5
BRANCH   3  23
ATOM     23  C   UNL A   1      34.328  35.057  27.963  1.00  0.00     0.117 C 
BRANCH  23  24
ATOM     24  C   UNL A   1      33.154  35.316  28.897  1.00  0.00     0.042 C 
BRANCH  24  25
ATOM     25  C   UNL A   1      33.382  36.437  29.898  1.00  0.00     0.118 C 
BRANCH  25  26
ATOM     26  N   UNL A   1      32.455  36.340  31.013  1.00  0.00    -0.352 N 
ATOM     27  C   UNL A   1      32.488  35.557  32.139  1.00  0.00     0.251 C 
ATOM     28  H   UNL A   1      31.673  36.936  30.951  1.00  0.00     0.163 HD
ATOM     29  O   UNL A   1      31.459  35.444  32.802  1.00  0.00    -0.269 OA
BRANCH  27  30
ATOM     30  C   UNL A   1      33.719  34.848  32.582  1.00  0.00     0.039 A 
ATOM     31  C   UNL A   1      34.941  35.526  32.475  1.00  0.00     0.014 A 
ATOM     32  C   UNL A   1      33.719  33.515  32.997  1.00  0.00     0.014 A 
ATOM     33  C   UNL A   1      36.140  34.880  32.793  1.00  0.00     0.010 A 
ATOM     34  C   UNL A   1      34.907  32.896  33.397  1.00  0.00     0.010 A 
ATOM     35  C   UNL A   1      36.135  33.561  33.272  1.00  0.00    -0.014 A 
BRANCH  35  36
ATOM     36  C   UNL A   1      37.406  32.862  33.602  1.00  0.00     0.031 A 
ATOM     37  C   UNL A   1      38.157  33.196  34.866  1.00  0.00     0.074 A 
ATOM     38  C   UNL A   1      37.905  31.941  32.756  1.00  0.00     0.049 A 
ATOM     39  N   UNL A   1      39.284  32.701  35.316  1.00  0.00    -0.248 NA
ATOM     40  C   UNL A   1      37.574  34.234  35.729  1.00  0.00     0.031 C 
ATOM     41  C   UNL A   1      37.299  31.547  31.484  1.00  0.00     0.029 A 
ATOM     42  N   UNL A   1      39.043  31.175  32.834  1.00  0.00    -0.354 N 
ATOM     43  C   UNL A   1      39.547  33.373  36.503  1.00  0.00     0.074 A 
ATOM     44  C   UNL A   1      38.492  34.349  36.678  1.00  0.00     0.031 C 
ATOM     45  C   UNL A   1      38.064  30.608  30.905  1.00  0.00     0.029 A 
ATOM     46  C   UNL A   1      39.224  30.348  31.752  1.00  0.00     0.049 A 
ATOM     47  H   UNL A   1      39.668  31.215  33.593  1.00  0.00     0.167 HD
ATOM     48  C   UNL A   1      40.560  33.179  37.384  1.00  0.00     0.037 A 
ATOM     49  C   UNL A   1      40.214  29.479  31.474  1.00  0.00     0.037 A 
ATOM     50  C   UNL A   1      41.596  32.192  37.228  1.00  0.00     0.049 A 
ATOM     51  C   UNL A   1      41.326  29.280  32.466  1.00  0.00     0.074 A 
ATOM     52  C   UNL A   1      42.628  31.879  38.094  1.00  0.00     0.029 A 
ATOM     53  N   UNL A   1      41.732  31.359  36.128  1.00  0.00    -0.354 N 
ATOM     54  N   UNL A   1      41.520  29.866  33.622  1.00  0.00    -0.248 NA
ATOM     55  C   UNL A   1      42.349  28.281  32.123  1.00  0.00     0.031 C 
ATOM     56  C   UNL A   1      43.412  30.883  37.502  1.00  0.00     0.029 A 
ATOM     57  C   UNL A   1      42.841  30.542  36.288  1.00  0.00     0.049 A 
ATOM     58  H   UNL A   1      41.130  31.348  35.348  1.00  0.00     0.167 HD
ATOM     59  C   UNL A   1      42.659  29.285  34.160  1.00  0.00     0.074 A 
ATOM     60  C   UNL A   1      43.111  28.293  33.208  1.00  0.00     0.031 C 
ATOM     61  C   UNL A   1      43.272  29.548  35.340  1.00  0.00     0.037 A 
BRANCH  48  62
ATOM     62  C   UNL A   1      40.590  34.047  38.609  1.00  0.00     0.064 A 
ATOM     63  C   UNL A   1      39.923  33.676  39.787  1.00  0.00     0.173 A 
ATOM     64  C   UNL A   1      41.329  35.240  38.621  1.00  0.00     0.173 A 
ATOM     65  F   UNL A   1      39.197  32.549  39.826  1.00  0.00    -0.203 F 
ATOM     66  C   UNL A   1      39.971  34.481  40.922  1.00  0.00     0.198 A 
ATOM     67  C   UNL A   1      41.398  36.028  39.768  1.00  0.00     0.198 A 
ATOM     68  F   UNL A   1      41.993  35.636  37.526  1.00  0.00    -0.203 F 
ATOM     69  F   UNL A   1      39.291  34.129  42.021  1.00  0.00    -0.200 F 
ATOM     70  C   UNL A   1      40.714  35.652  40.914  1.00  0.00     0.200 A 
ATOM     71  F   UNL A   1      42.129  37.152  39.763  1.00  0.00    -0.200 F 
ATOM     72  F   UNL A   1      40.767  36.422  42.010  1.00  0.00    -0.200 F 
ENDBRANCH  48  62
BRANCH  49  73
ATOM     73  C   UNL A   1      40.172  28.696  30.212  1.00  0.00     0.064 A 
ATOM     74  C   UNL A   1      39.502  27.467  30.150  1.00  0.00     0.173 A 
ATOM     75  C   UNL A   1      40.796  29.160  29.045  1.00  0.00     0.173 A 
ATOM     76  F   UNL A   1      38.905  26.974  31.245  1.00  0.00    -0.203 F 
ATOM     77  C   UNL A   1      39.474  26.721  28.973  1.00  0.00     0.198 A 
ATOM     78  C   UNL A   1      40.745  28.427  27.862  1.00  0.00     0.198 A 
ATOM     79  F   UNL A   1      41.441  30.336  29.050  1.00  0.00    -0.203 F 
ATOM     80  F   UNL A   1      38.860  25.531  28.952  1.00  0.00    -0.200 F 
ATOM     81  C   UNL A   1      40.091  27.204  27.829  1.00  0.00     0.200 A 
ATOM     82  F   UNL A   1      41.327  28.905  26.754  1.00  0.00    -0.200 F 
ATOM     83  F   UNL A   1      40.058  26.490  26.696  1.00  0.00    -0.200 F 
ENDBRANCH  49  73
BRANCH  61  84
ATOM     84  C   UNL A   1      44.471  28.716  35.693  1.00  0.00     0.064 A 
ATOM     85  C   UNL A   1      45.765  29.078  35.291  1.00  0.00     0.173 A 
ATOM     86  C   UNL A   1      44.324  27.556  36.469  1.00  0.00     0.173 A 
ATOM     87  F   UNL A   1      45.957  30.169  34.535  1.00  0.00    -0.203 F 
ATOM     88  C   UNL A   1      46.865  28.294  35.631  1.00  0.00     0.198 A 
ATOM     89  C   UNL A   1      45.427  26.790  36.830  1.00  0.00     0.198 A 
ATOM     90  F   UNL A   1      43.108  27.169  36.883  1.00  0.00    -0.203 F 
ATOM     91  F   UNL A   1      48.086  28.631  35.195  1.00  0.00    -0.200 F 
ATOM     92  C   UNL A   1      46.696  27.155  36.404  1.00  0.00     0.200 A 
ATOM     93  F   UNL A   1      45.264  25.696  37.587  1.00  0.00    -0.200 F 
ATOM     94  F   UNL A   1      47.756  26.403  36.732  1.00  0.00    -0.200 F 
ENDBRANCH  61  84
ENDBRANCH  35  36
ENDBRANCH  27  30
ENDBRANCH  25  26
ENDBRANCH  24  25
ENDBRANCH  23  24
ENDBRANCH   3  23
TORSDOF 16
ENDMDL
MODEL 3
REMARK VINA RESULT:     -10.6      2.815      4.347
REMARK SMILES C[C@H](Cc1cccs1)N(C)C(=O)N1CC[C@@H](CC(=O)NCCCNC(=O)c2ccc(-c3c4nc(c(-c5c(F)c(F)c(F)c(F)c5F)c5ccc([nH]5)c(-c5c(F)c(F)c(F)c(F)c5F)c5nc(c(-c6c(F)c(F)c(F)c(F)c6F)c6ccc3[nH]6)C=C5)C=C4)cc2)C1
REMARK SMILES IDX 18 1 19 2 20 3 17 5 16 6 13 7 14 8 90 9 15 10 11 11 12 12
REMARK SMILES IDX 9 13 10 14 2 15 1 16 3 17 4 18 5 19 8 20 6 21 7 22 21 23
REMARK SMILES IDX 22 24 23 25 24 26 25 27 26 29 27 30 28 31 89 32 29 33 88 34
REMARK SMILES IDX 30 35 31 36 32 37 82 38 33 39 87 40 81 41 83 42 34 43 86 44
REMARK SMILES IDX 80 45 79 46 35 48 67 49 47 50 66 51 48 52 51 53 65 54 84 55
REMARK SMILES IDX 49 56 50 57 64 59 85 60 52 61 36 62 37 63 45 64 38 65 39 66
REMARK SMILES IDX 43 67 46 68 40 69 41 70 44 71 42 72 68 73 69 74 77 75 70 76
REMARK SMILES IDX 71 77 75 78 78 79 72 80 73 81 76 82 74 83 53 84 54 85 62 86
REMARK SMILES IDX 55 87 56 88 60 89 63 90 57 91 58 92 61 93 59 94
REMARK H PARENT 20 4 24 28 83 47 51 58
REMARK Flexibility Score: inf
ROOT
ATOM      1  C   UNL A   1      32.670  28.886  24.212  1.00  0.00     0.220 C 
ATOM      2  O   UNL A   1      33.613  28.881  23.421  1.00  0.00    -0.275 OA
ATOM      3  N   UNL A   1      32.225  30.076  24.705  1.00  0.00    -0.356 N 
ATOM      4  H   UNL A   1      32.602  30.877  24.274  1.00  0.00     0.163 HD
ENDROOT
BRANCH   1   5
ATOM      5  C   UNL A   1      31.993  27.596  24.628  1.00  0.00     0.105 C 
BRANCH   5   6
ATOM      6  C   UNL A   1      32.510  26.916  25.906  1.00  0.00     0.020 C 
ATOM      7  N   UNL A   1      32.658  24.543  26.284  1.00  0.00    -0.324 N 
ATOM      8  C   UNL A   1      33.844  24.924  25.540  1.00  0.00     0.122 C 
ATOM      9  C   UNL A   1      31.760  25.686  26.425  1.00  0.00     0.125 C 
ATOM     10  C   UNL A   1      33.958  26.424  25.757  1.00  0.00     0.027 C 
BRANCH   7  11
ATOM     11  C   UNL A   1      32.132  23.279  26.464  1.00  0.00     0.320 C 
ATOM     12  O   UNL A   1      31.835  22.914  27.603  1.00  0.00    -0.248 OA
BRANCH  11  13
ATOM     13  N   UNL A   1      32.056  22.415  25.381  1.00  0.00    -0.325 N 
ATOM     14  C   UNL A   1      31.486  22.769  24.091  1.00  0.00     0.149 C 
BRANCH  13  15
ATOM     15  C   UNL A   1      32.846  21.151  25.397  1.00  0.00     0.088 C 
ATOM     16  C   UNL A   1      34.363  21.312  25.544  1.00  0.00     0.031 C 
BRANCH  15  17
ATOM     17  C   UNL A   1      32.437  20.149  24.282  1.00  0.00     0.071 C 
BRANCH  17  18
ATOM     18  C   UNL A   1      32.686  18.691  24.558  1.00  0.00     0.007 A 
ATOM     19  C   UNL A   1      32.528  18.006  25.750  1.00  0.00     0.015 A 
ATOM     20  S   UNL A   1      33.307  17.661  23.336  1.00  0.00    -0.149 S 
ATOM     21  C   UNL A   1      32.817  16.618  25.630  1.00  0.00     0.012 A 
ATOM     22  C   UNL A   1      33.273  16.299  24.372  1.00  0.00     0.065 A 
ENDBRANCH  17  18
ENDBRANCH  15  17
ENDBRANCH  13  15
ENDBRANCH  11  13
ENDBRANCH   7  11
ENDBRANCH   5   6
ENDBRANCH   1   5
BRANCH   3  23
ATOM     23  C   UNL A   1      31.273  30.338  25.775  1.00  0.00     0.117 C 
BRANCH  23  24
ATOM     24  C   UNL A   1      31.342  31.789  26.228  1.00  0.00     0.042 C 
BRANCH  24  25
ATOM     25  C   UNL A   1      32.610  32.153  26.983  1.00  0.00     0.118 C 
BRANCH  25  26
ATOM     26  N   UNL A   1      32.607  33.555  27.367  1.00  0.00    -0.352 N 
ATOM     27  C   UNL A   1      33.266  34.206  28.379  1.00  0.00     0.251 C 
ATOM     28  H   UNL A   1      32.038  34.134  26.808  1.00  0.00     0.163 HD
ATOM     29  O   UNL A   1      32.895  35.338  28.683  1.00  0.00    -0.269 OA
BRANCH  27  30
ATOM     30  C   UNL A   1      34.407  33.595  29.112  1.00  0.00     0.039 A 
ATOM     31  C   UNL A   1      35.705  33.935  28.706  1.00  0.00     0.014 A 
ATOM     32  C   UNL A   1      34.240  32.627  30.105  1.00  0.00     0.014 A 
ATOM     33  C   UNL A   1      36.815  33.325  29.299  1.00  0.00     0.010 A 
ATOM     34  C   UNL A   1      35.350  32.081  30.756  1.00  0.00     0.010 A 
ATOM     35  C   UNL A   1      36.650  32.401  30.342  1.00  0.00    -0.014 A 
BRANCH  35  36
ATOM     36  C   UNL A   1      37.824  31.738  30.971  1.00  0.00     0.031 A 
ATOM     37  C   UNL A   1      38.266  32.121  32.360  1.00  0.00     0.074 A 
ATOM     38  C   UNL A   1      38.515  30.807  30.286  1.00  0.00     0.049 A 
ATOM     39  N   UNL A   1      39.270  31.663  33.068  1.00  0.00    -0.248 NA
ATOM     40  C   UNL A   1      37.488  33.169  33.038  1.00  0.00     0.031 C 
ATOM     41  C   UNL A   1      38.218  30.367  28.924  1.00  0.00     0.029 A 
ATOM     42  N   UNL A   1      39.618  30.068  30.642  1.00  0.00    -0.354 N 
ATOM     43  C   UNL A   1      39.248  32.371  34.262  1.00  0.00     0.074 A 
ATOM     44  C   UNL A   1      38.166  33.328  34.165  1.00  0.00     0.031 C 
ATOM     45  C   UNL A   1      39.108  29.429  28.560  1.00  0.00     0.029 A 
ATOM     46  C   UNL A   1      40.052  29.217  29.655  1.00  0.00     0.049 A 
ATOM     47  H   UNL A   1      40.055  30.141  31.520  1.00  0.00     0.167 HD
ATOM     48  C   UNL A   1      40.039  32.222  35.353  1.00  0.00     0.037 A 
ATOM     49  C   UNL A   1      41.092  28.363  29.632  1.00  0.00     0.037 A 
ATOM     50  C   UNL A   1      41.099  31.255  35.465  1.00  0.00     0.049 A 
ATOM     51  C   UNL A   1      41.954  28.214  30.855  1.00  0.00     0.074 A 
ATOM     52  C   UNL A   1      41.913  30.986  36.550  1.00  0.00     0.029 A 
ATOM     53  N   UNL A   1      41.492  30.396  34.449  1.00  0.00    -0.354 N 
ATOM     54  N   UNL A   1      41.873  28.834  32.006  1.00  0.00    -0.248 NA
ATOM     55  C   UNL A   1      43.044  27.229  30.781  1.00  0.00     0.031 C 
ATOM     56  C   UNL A   1      42.826  29.993  36.180  1.00  0.00     0.029 A 
ATOM     57  C   UNL A   1      42.549  29.608  34.879  1.00  0.00     0.049 A 
ATOM     58  H   UNL A   1      41.081  30.352  33.555  1.00  0.00     0.167 HD
ATOM     59  C   UNL A   1      42.871  28.292  32.805  1.00  0.00     0.074 A 
ATOM     60  C   UNL A   1      43.541  27.286  32.009  1.00  0.00     0.031 C 
ATOM     61  C   UNL A   1      43.198  28.599  34.084  1.00  0.00     0.037 A 
BRANCH  48  62
ATOM     62  C   UNL A   1      39.779  33.122  36.527  1.00  0.00     0.064 A 
ATOM     63  C   UNL A   1      38.832  32.791  37.510  1.00  0.00     0.173 A 
ATOM     64  C   UNL A   1      40.513  34.306  36.697  1.00  0.00     0.173 A 
ATOM     65  F   UNL A   1      38.098  31.675  37.391  1.00  0.00    -0.203 F 
ATOM     66  C   UNL A   1      38.610  33.626  38.602  1.00  0.00     0.198 A 
ATOM     67  C   UNL A   1      40.309  35.124  37.806  1.00  0.00     0.198 A 
ATOM     68  F   UNL A   1      41.436  34.665  35.793  1.00  0.00    -0.203 F 
ATOM     69  F   UNL A   1      37.671  33.312  39.503  1.00  0.00    -0.200 F 
ATOM     70  C   UNL A   1      39.353  34.787  38.753  1.00  0.00     0.200 A 
ATOM     71  F   UNL A   1      41.038  36.238  37.958  1.00  0.00    -0.200 F 
ATOM     72  F   UNL A   1      39.145  35.586  39.809  1.00  0.00    -0.200 F 
ENDBRANCH  48  62
BRANCH  49  73
ATOM     73  C   UNL A   1      41.347  27.546  28.418  1.00  0.00     0.064 A 
ATOM     74  C   UNL A   1      42.267  27.966  27.448  1.00  0.00     0.173 A 
ATOM     75  C   UNL A   1      40.680  26.331  28.204  1.00  0.00     0.173 A 
ATOM     76  F   UNL A   1      42.916  29.130  27.602  1.00  0.00    -0.203 F 
ATOM     77  C   UNL A   1      42.497  27.212  26.299  1.00  0.00     0.198 A 
ATOM     78  C   UNL A   1      40.930  25.565  27.068  1.00  0.00     0.198 A 
ATOM     79  F   UNL A   1      39.797  25.880  29.107  1.00  0.00    -0.203 F 
ATOM     80  F   UNL A   1      43.353  27.656  25.370  1.00  0.00    -0.200 F 
ATOM     81  C   UNL A   1      41.833  26.010  26.113  1.00  0.00     0.200 A 
ATOM     82  F   UNL A   1      40.299  24.395  26.900  1.00  0.00    -0.200 F 
ATOM     83  F   UNL A   1      42.059  25.281  25.012  1.00  0.00    -0.200 F 
ENDBRANCH  49  73
BRANCH  61  84
ATOM     84  C   UNL A   1      44.298  27.803  34.722  1.00  0.00     0.064 A 
ATOM     85  C   UNL A   1      44.045  26.598  35.394  1.00  0.00     0.173 A 
ATOM     86  C   UNL A   1      45.629  28.239  34.634  1.00  0.00     0.173 A 
ATOM     87  F   UNL A   1      42.788  26.147  35.520  1.00  0.00    -0.203 F 
ATOM     88  C   UNL A   1      45.080  25.874  35.979  1.00  0.00     0.198 A 
ATOM     89  C   UNL A   1      46.665  27.498  35.195  1.00  0.00     0.198 A 
ATOM     90  F   UNL A   1      45.926  29.381  33.997  1.00  0.00    -0.203 F 
ATOM     91  F   UNL A   1      44.810  24.751  36.659  1.00  0.00    -0.200 F 
ATOM     92  C   UNL A   1      46.389  26.320  35.874  1.00  0.00     0.200 A 
ATOM     93  F   UNL A   1      47.931  27.925  35.082  1.00  0.00    -0.200 F 
ATOM     94  F   UNL A   1      47.385  25.620  36.434  1.00  0.00    -0.200 F 
ENDBRANCH  61  84
ENDBRANCH  35  36
ENDBRANCH  27  30
ENDBRANCH  25  26
ENDBRANCH  24  25
ENDBRANCH  23  24
ENDBRANCH   3  23
TORSDOF 16
ENDMDL
