MODEL 1
REMARK VINA RESULT:     -13.4      0.000      0.000
REMARK SMILES CC(C)CN(C)c1cc2c(cc1Cl)C=C(C(=O)NCCCNC(=O)c1ccc(-c3c4nc(c(-c5c(F)c(F)c(F)c(F)c5F)c5ccc([nH]5)c(-c5c(F)c(F)c(F)c(F)c5F)c5nc(c(-c6c(F)c(F)c(F)c(F)c6F)c6ccc3[nH]6)C=C5)C=C4)cc1)[C@@H](C(F)(F)F)O2
REMARK SMILES IDX 19 1 18 2 16 3 17 4 15 6 7 7 8 8 12 9 9 10 11 11 13 12 10 13
REMARK SMILES IDX 93 14 14 15 88 16 5 17 6 18 4 19 2 20 1 21 3 22 89 23 90 24
REMARK SMILES IDX 91 25 92 26 20 27 21 28 22 29 23 30 24 32 25 33 26 34 87 35
REMARK SMILES IDX 27 36 86 37 28 38 29 39 30 40 80 41 31 42 85 43 79 44 81 45
REMARK SMILES IDX 32 46 84 47 78 48 77 49 33 51 65 52 45 53 64 54 46 55 49 56
REMARK SMILES IDX 63 57 82 58 47 59 48 60 62 62 83 63 50 64 34 65 35 66 43 67
REMARK SMILES IDX 36 68 37 69 41 70 44 71 38 72 39 73 42 74 40 75 66 76 67 77
REMARK SMILES IDX 75 78 68 79 69 80 73 81 76 82 70 83 71 84 74 85 72 86 51 87
REMARK SMILES IDX 52 88 60 89 53 90 54 91 58 92 61 93 55 94 56 95 59 96 57 97
REMARK H PARENT 18 5 22 31 81 50 49 61
REMARK Flexibility Score: inf
ROOT
ATOM      1  C   UNL A   1      31.776  30.718  26.029  1.00  0.00     0.118 C 
ENDROOT
BRANCH   1   2
ATOM      2  N   UNL A   1      30.823  30.517  24.951  1.00  0.00    -0.352 N 
ATOM      3  C   UNL A   1      30.547  29.546  24.051  1.00  0.00     0.251 C 
ATOM      4  O   UNL A   1      29.605  29.788  23.289  1.00  0.00    -0.270 OA
ATOM      5  H   UNL A   1      30.223  31.290  24.847  1.00  0.00     0.163 HD
BRANCH   3   6
ATOM      6  C   UNL A   1      31.287  28.264  23.928  1.00  0.00     0.067 C 
ATOM      7  C   UNL A   1      32.954  23.544  24.506  1.00  0.00     0.059 A 
ATOM      8  C   UNL A   1      32.725  24.377  23.400  1.00  0.00     0.074 A 
ATOM      9  C   UNL A   1      32.681  24.068  25.790  1.00  0.00     0.065 A 
ATOM     10  C   UNL A   1      32.208  25.657  23.575  1.00  0.00     0.130 A 
ATOM     11  C   UNL A   1      32.070  25.317  25.951  1.00  0.00     0.034 A 
ATOM     12  Cl  UNL A   1      33.096  23.210  27.236  1.00  0.00    -0.082 Cl
ATOM     13  C   UNL A   1      31.816  26.107  24.837  1.00  0.00     0.019 A 
ATOM     14  O   UNL A   1      32.097  26.453  22.463  1.00  0.00    -0.475 OA
ATOM     15  C   UNL A   1      31.134  27.393  24.942  1.00  0.00     0.025 C 
ATOM     16  C   UNL A   1      32.163  27.879  22.769  1.00  0.00     0.314 C 
BRANCH   7  17
ATOM     17  N   UNL A   1      33.397  22.226  24.313  1.00  0.00    -0.373 N 
ATOM     18  C   UNL A   1      32.447  21.185  24.700  1.00  0.00     0.143 C 
BRANCH  17  19
ATOM     19  C   UNL A   1      34.820  21.974  24.620  1.00  0.00     0.119 C 
BRANCH  19  20
ATOM     20  C   UNL A   1      35.711  23.202  24.342  1.00  0.00     0.002 C 
ATOM     21  C   UNL A   1      36.547  23.604  25.561  1.00  0.00     0.009 C 
ATOM     22  C   UNL A   1      36.659  22.935  23.169  1.00  0.00     0.009 C 
ENDBRANCH  19  20
ENDBRANCH  17  19
ENDBRANCH   7  17
BRANCH  16  23
ATOM     23  C   UNL A   1      33.629  28.336  22.971  1.00  0.00     0.429 C 
ATOM     24  F   UNL A   1      33.669  29.626  23.385  1.00  0.00    -0.167 F 
ATOM     25  F   UNL A   1      34.264  27.606  23.922  1.00  0.00    -0.167 F 
ATOM     26  F   UNL A   1      34.382  28.245  21.853  1.00  0.00    -0.167 F 
ENDBRANCH  16  23
ENDBRANCH   3   6
ENDBRANCH   1   2
BRANCH   1  27
ATOM     27  C   UNL A   1      31.439  31.951  26.851  1.00  0.00     0.042 C 
BRANCH  27  28
ATOM     28  C   UNL A   1      32.683  32.676  27.344  1.00  0.00     0.118 C 
BRANCH  28  29
ATOM     29  N   UNL A   1      32.429  34.092  27.609  1.00  0.00    -0.352 N 
ATOM     30  C   UNL A   1      32.991  34.940  28.532  1.00  0.00     0.251 C 
ATOM     31  H   UNL A   1      31.744  34.503  27.034  1.00  0.00     0.163 HD
ATOM     32  O   UNL A   1      32.485  36.038  28.746  1.00  0.00    -0.269 OA
BRANCH  30  33
ATOM     33  C   UNL A   1      34.189  34.520  29.287  1.00  0.00     0.039 A 
ATOM     34  C   UNL A   1      35.460  34.717  28.752  1.00  0.00     0.014 A 
ATOM     35  C   UNL A   1      34.040  33.902  30.532  1.00  0.00     0.014 A 
ATOM     36  C   UNL A   1      36.553  34.102  29.343  1.00  0.00     0.010 A 
ATOM     37  C   UNL A   1      35.163  33.391  31.189  1.00  0.00     0.010 A 
ATOM     38  C   UNL A   1      36.419  33.427  30.567  1.00  0.00    -0.014 A 
BRANCH  38  39
ATOM     39  C   UNL A   1      37.610  32.752  31.144  1.00  0.00     0.031 A 
ATOM     40  C   UNL A   1      38.076  33.071  32.538  1.00  0.00     0.074 A 
ATOM     41  C   UNL A   1      38.205  31.768  30.442  1.00  0.00     0.049 A 
ATOM     42  N   UNL A   1      39.041  32.519  33.232  1.00  0.00    -0.248 NA
ATOM     43  C   UNL A   1      37.372  34.149  33.251  1.00  0.00     0.031 C 
ATOM     44  C   UNL A   1      37.823  31.355  29.090  1.00  0.00     0.029 A 
ATOM     45  N   UNL A   1      39.209  30.898  30.784  1.00  0.00    -0.354 N 
ATOM     46  C   UNL A   1      39.067  33.190  34.448  1.00  0.00     0.074 A 
ATOM     47  C   UNL A   1      38.052  34.218  34.386  1.00  0.00     0.031 C 
ATOM     48  C   UNL A   1      38.511  30.255  28.756  1.00  0.00     0.029 A 
ATOM     49  C   UNL A   1      39.439  29.931  29.835  1.00  0.00     0.049 A 
ATOM     50  H   UNL A   1      39.715  30.960  31.625  1.00  0.00     0.167 HD
ATOM     51  C   UNL A   1      39.850  32.954  35.529  1.00  0.00     0.037 A 
ATOM     52  C   UNL A   1      40.300  28.897  29.833  1.00  0.00     0.037 A 
ATOM     53  C   UNL A   1      40.844  31.915  35.594  1.00  0.00     0.049 A 
ATOM     54  C   UNL A   1      41.211  28.706  31.009  1.00  0.00     0.074 A 
ATOM     55  C   UNL A   1      41.684  31.589  36.644  1.00  0.00     0.029 A 
ATOM     56  N   UNL A   1      41.130  31.031  34.564  1.00  0.00    -0.354 N 
ATOM     57  N   UNL A   1      41.232  29.353  32.148  1.00  0.00    -0.248 NA
ATOM     58  C   UNL A   1      42.236  27.661  30.889  1.00  0.00     0.031 C 
ATOM     59  C   UNL A   1      42.507  30.536  36.235  1.00  0.00     0.029 A 
ATOM     60  C   UNL A   1      42.152  30.177  34.943  1.00  0.00     0.049 A 
ATOM     61  H   UNL A   1      40.672  31.012  33.692  1.00  0.00     0.167 HD
ATOM     62  C   UNL A   1      42.270  28.798  32.882  1.00  0.00     0.074 A 
ATOM     63  C   UNL A   1      42.839  27.742  32.068  1.00  0.00     0.031 C 
ATOM     64  C   UNL A   1      42.715  29.140  34.116  1.00  0.00     0.037 A 
BRANCH  51  65
ATOM     65  C   UNL A   1      39.667  33.842  36.725  1.00  0.00     0.064 A 
ATOM     66  C   UNL A   1      38.858  33.461  37.807  1.00  0.00     0.173 A 
ATOM     67  C   UNL A   1      40.330  35.076  36.806  1.00  0.00     0.173 A 
ATOM     68  F   UNL A   1      38.192  32.298  37.774  1.00  0.00    -0.203 F 
ATOM     69  C   UNL A   1      38.696  34.296  38.910  1.00  0.00     0.198 A 
ATOM     70  C   UNL A   1      40.187  35.896  37.924  1.00  0.00     0.198 A 
ATOM     71  F   UNL A   1      41.121  35.487  35.803  1.00  0.00    -0.203 F 
ATOM     72  F   UNL A   1      37.877  33.933  39.907  1.00  0.00    -0.200 F 
ATOM     73  C   UNL A   1      39.365  35.509  38.970  1.00  0.00     0.200 A 
ATOM     74  F   UNL A   1      40.844  37.063  37.986  1.00  0.00    -0.200 F 
ATOM     75  F   UNL A   1      39.209  36.310  40.035  1.00  0.00    -0.200 F 
ENDBRANCH  51  65
BRANCH  52  76
ATOM     76  C   UNL A   1      40.316  27.965  28.677  1.00  0.00     0.064 A 
ATOM     77  C   UNL A   1      41.052  28.271  27.524  1.00  0.00     0.173 A 
ATOM     78  C   UNL A   1      39.659  26.727  28.725  1.00  0.00     0.173 A 
ATOM     79  F   UNL A   1      41.682  29.450  27.425  1.00  0.00    -0.203 F 
ATOM     80  C   UNL A   1      41.138  27.367  26.466  1.00  0.00     0.198 A 
ATOM     81  C   UNL A   1      39.768  25.813  27.679  1.00  0.00     0.198 A 
ATOM     82  F   UNL A   1      38.947  26.387  29.809  1.00  0.00    -0.203 F 
ATOM     83  F   UNL A   1      41.838  27.687  25.370  1.00  0.00    -0.200 F 
ATOM     84  C   UNL A   1      40.507  26.135  26.551  1.00  0.00     0.200 A 
ATOM     85  F   UNL A   1      39.174  24.617  27.773  1.00  0.00    -0.200 F 
ATOM     86  F   UNL A   1      40.613  25.256  25.545  1.00  0.00    -0.200 F 
ENDBRANCH  52  76
BRANCH  64  87
ATOM     87  C   UNL A   1      43.884  28.380  34.664  1.00  0.00     0.064 A 
ATOM     88  C   UNL A   1      43.703  27.174  35.358  1.00  0.00     0.173 A 
ATOM     89  C   UNL A   1      45.196  28.810  34.417  1.00  0.00     0.173 A 
ATOM     90  F   UNL A   1      42.466  26.732  35.630  1.00  0.00    -0.203 F 
ATOM     91  C   UNL A   1      44.795  26.428  35.788  1.00  0.00     0.198 A 
ATOM     92  C   UNL A   1      46.286  28.048  34.828  1.00  0.00     0.198 A 
ATOM     93  F   UNL A   1      45.419  29.953  33.752  1.00  0.00    -0.203 F 
ATOM     94  F   UNL A   1      44.600  25.290  36.469  1.00  0.00    -0.200 F 
ATOM     95  C   UNL A   1      46.085  26.859  35.513  1.00  0.00     0.200 A 
ATOM     96  F   UNL A   1      47.531  28.457  34.549  1.00  0.00    -0.200 F 
ATOM     97  F   UNL A   1      47.136  26.127  35.909  1.00  0.00    -0.200 F 
ENDBRANCH  64  87
ENDBRANCH  38  39
ENDBRANCH  30  33
ENDBRANCH  28  29
ENDBRANCH  27  28
ENDBRANCH   1  27
TORSDOF 14
ENDMDL
MODEL 2
REMARK VINA RESULT:     -13.4      1.405      2.042
REMARK SMILES CC(C)CN(C)c1cc2c(cc1Cl)C=C(C(=O)NCCCNC(=O)c1ccc(-c3c4nc(c(-c5c(F)c(F)c(F)c(F)c5F)c5ccc([nH]5)c(-c5c(F)c(F)c(F)c(F)c5F)c5nc(c(-c6c(F)c(F)c(F)c(F)c6F)c6ccc3[nH]6)C=C5)C=C4)cc1)[C@@H](C(F)(F)F)O2
REMARK SMILES IDX 19 1 18 2 16 3 17 4 15 6 7 7 8 8 12 9 9 10 11 11 13 12 10 13
REMARK SMILES IDX 93 14 14 15 88 16 5 17 6 18 4 19 2 20 1 21 3 22 89 23 90 24
REMARK SMILES IDX 91 25 92 26 20 27 21 28 22 29 23 30 24 32 25 33 26 34 87 35
REMARK SMILES IDX 27 36 86 37 28 38 29 39 30 40 80 41 31 42 85 43 79 44 81 45
REMARK SMILES IDX 32 46 84 47 78 48 77 49 33 51 65 52 45 53 64 54 46 55 49 56
REMARK SMILES IDX 63 57 82 58 47 59 48 60 62 62 83 63 50 64 34 65 35 66 43 67
REMARK SMILES IDX 36 68 37 69 41 70 44 71 38 72 39 73 42 74 40 75 66 76 67 77
REMARK SMILES IDX 75 78 68 79 69 80 73 81 76 82 70 83 71 84 74 85 72 86 51 87
REMARK SMILES IDX 52 88 60 89 53 90 54 91 58 92 61 93 55 94 56 95 59 96 57 97
REMARK H PARENT 18 5 22 31 81 50 49 61
REMARK Flexibility Score: inf
ROOT
ATOM      1  C   UNL A   1      31.898  30.534  26.268  1.00  0.00     0.118 C 
ENDROOT
BRANCH   1   2
ATOM      2  N   UNL A   1      31.280  30.157  25.009  1.00  0.00    -0.352 N 
ATOM      3  C   UNL A   1      31.117  29.019  24.295  1.00  0.00     0.251 C 
ATOM      4  O   UNL A   1      30.493  29.146  23.237  1.00  0.00    -0.270 OA
ATOM      5  H   UNL A   1      30.875  30.931  24.555  1.00  0.00     0.163 HD
BRANCH   3   6
ATOM      6  C   UNL A   1      31.634  27.684  24.692  1.00  0.00     0.067 C 
ATOM      7  C   UNL A   1      34.468  23.568  25.334  1.00  0.00     0.059 A 
ATOM      8  C   UNL A   1      33.600  24.302  26.158  1.00  0.00     0.074 A 
ATOM      9  C   UNL A   1      34.646  24.014  24.005  1.00  0.00     0.065 A 
ATOM     10  C   UNL A   1      32.978  25.451  25.680  1.00  0.00     0.130 A 
ATOM     11  C   UNL A   1      34.096  25.223  23.564  1.00  0.00     0.034 A 
ATOM     12  Cl  UNL A   1      35.541  23.093  22.843  1.00  0.00    -0.082 Cl
ATOM     13  C   UNL A   1      33.272  25.953  24.412  1.00  0.00     0.019 A 
ATOM     14  O   UNL A   1      32.070  26.068  26.503  1.00  0.00    -0.475 OA
ATOM     15  C   UNL A   1      32.715  27.244  24.022  1.00  0.00     0.025 C 
ATOM     16  C   UNL A   1      31.051  26.819  25.774  1.00  0.00     0.314 C 
BRANCH   7  17
ATOM     17  N   UNL A   1      35.156  22.458  25.851  1.00  0.00    -0.373 N 
ATOM     18  C   UNL A   1      34.356  21.559  26.680  1.00  0.00     0.143 C 
BRANCH  17  19
ATOM     19  C   UNL A   1      36.544  22.708  26.290  1.00  0.00     0.119 C 
BRANCH  19  20
ATOM     20  C   UNL A   1      37.586  22.071  25.346  1.00  0.00     0.002 C 
ATOM     21  C   UNL A   1      38.970  21.961  25.994  1.00  0.00     0.009 C 
ATOM     22  C   UNL A   1      37.142  20.673  24.907  1.00  0.00     0.009 C 
ENDBRANCH  19  20
ENDBRANCH  17  19
ENDBRANCH   7  17
BRANCH  16  23
ATOM     23  C   UNL A   1      29.948  25.876  25.234  1.00  0.00     0.429 C 
ATOM     24  F   UNL A   1      29.515  25.046  26.215  1.00  0.00    -0.167 F 
ATOM     25  F   UNL A   1      28.860  26.560  24.800  1.00  0.00    -0.167 F 
ATOM     26  F   UNL A   1      30.353  25.106  24.201  1.00  0.00    -0.167 F 
ENDBRANCH  16  23
ENDBRANCH   3   6
ENDBRANCH   1   2
BRANCH   1  27
ATOM     27  C   UNL A   1      31.564  31.967  26.647  1.00  0.00     0.042 C 
BRANCH  27  28
ATOM     28  C   UNL A   1      32.724  32.670  27.337  1.00  0.00     0.118 C 
BRANCH  28  29
ATOM     29  N   UNL A   1      32.415  34.062  27.660  1.00  0.00    -0.352 N 
ATOM     30  C   UNL A   1      32.946  34.894  28.616  1.00  0.00     0.251 C 
ATOM     31  H   UNL A   1      31.712  34.468  27.103  1.00  0.00     0.163 HD
ATOM     32  O   UNL A   1      32.397  35.962  28.874  1.00  0.00    -0.269 OA
BRANCH  30  33
ATOM     33  C   UNL A   1      34.162  34.493  29.350  1.00  0.00     0.039 A 
ATOM     34  C   UNL A   1      35.419  34.677  28.780  1.00  0.00     0.014 A 
ATOM     35  C   UNL A   1      34.044  33.905  30.614  1.00  0.00     0.014 A 
ATOM     36  C   UNL A   1      36.527  34.076  29.358  1.00  0.00     0.010 A 
ATOM     37  C   UNL A   1      35.183  33.409  31.255  1.00  0.00     0.010 A 
ATOM     38  C   UNL A   1      36.423  33.430  30.601  1.00  0.00    -0.014 A 
BRANCH  38  39
ATOM     39  C   UNL A   1      37.629  32.769  31.164  1.00  0.00     0.031 A 
ATOM     40  C   UNL A   1      38.130  33.122  32.539  1.00  0.00     0.074 A 
ATOM     41  C   UNL A   1      38.206  31.767  30.473  1.00  0.00     0.049 A 
ATOM     42  N   UNL A   1      39.113  32.588  33.221  1.00  0.00    -0.248 NA
ATOM     43  C   UNL A   1      37.444  34.218  33.241  1.00  0.00     0.031 C 
ATOM     44  C   UNL A   1      37.791  31.321  29.142  1.00  0.00     0.029 A 
ATOM     45  N   UNL A   1      39.218  30.906  30.811  1.00  0.00    -0.354 N 
ATOM     46  C   UNL A   1      39.169  33.288  34.419  1.00  0.00     0.074 A 
ATOM     47  C   UNL A   1      38.153  34.316  34.357  1.00  0.00     0.031 C 
ATOM     48  C   UNL A   1      38.470  30.213  28.818  1.00  0.00     0.029 A 
ATOM     49  C   UNL A   1      39.424  29.915  29.881  1.00  0.00     0.049 A 
ATOM     50  H   UNL A   1      39.746  30.989  31.637  1.00  0.00     0.167 HD
ATOM     51  C   UNL A   1      39.979  33.079  35.485  1.00  0.00     0.037 A 
ATOM     52  C   UNL A   1      40.286  28.881  29.883  1.00  0.00     0.037 A 
ATOM     53  C   UNL A   1      40.974  32.042  35.551  1.00  0.00     0.049 A 
ATOM     54  C   UNL A   1      41.226  28.719  31.040  1.00  0.00     0.074 A 
ATOM     55  C   UNL A   1      41.840  31.742  36.588  1.00  0.00     0.029 A 
ATOM     56  N   UNL A   1      41.234  31.132  34.536  1.00  0.00    -0.354 N 
ATOM     57  N   UNL A   1      41.276  29.394  32.161  1.00  0.00    -0.248 NA
ATOM     58  C   UNL A   1      42.247  27.670  30.920  1.00  0.00     0.031 C 
ATOM     59  C   UNL A   1      42.653  30.678  36.184  1.00  0.00     0.029 A 
ATOM     60  C   UNL A   1      42.266  30.287  34.912  1.00  0.00     0.049 A 
ATOM     61  H   UNL A   1      40.755  31.092  33.677  1.00  0.00     0.167 HD
ATOM     62  C   UNL A   1      42.332  28.857  32.883  1.00  0.00     0.074 A 
ATOM     63  C   UNL A   1      42.880  27.781  32.081  1.00  0.00     0.031 C 
ATOM     64  C   UNL A   1      42.807  29.230  34.096  1.00  0.00     0.037 A 
BRANCH  51  65
ATOM     65  C   UNL A   1      39.826  33.997  36.663  1.00  0.00     0.064 A 
ATOM     66  C   UNL A   1      39.030  33.652  37.766  1.00  0.00     0.173 A 
ATOM     67  C   UNL A   1      40.505  35.224  36.704  1.00  0.00     0.173 A 
ATOM     68  F   UNL A   1      38.349  32.497  37.771  1.00  0.00    -0.203 F 
ATOM     69  C   UNL A   1      38.895  34.514  38.852  1.00  0.00     0.198 A 
ATOM     70  C   UNL A   1      40.391  36.071  37.805  1.00  0.00     0.198 A 
ATOM     71  F   UNL A   1      41.285  35.601  35.681  1.00  0.00    -0.203 F 
ATOM     72  F   UNL A   1      38.089  34.185  39.869  1.00  0.00    -0.200 F 
ATOM     73  C   UNL A   1      39.581  35.719  38.873  1.00  0.00     0.200 A 
ATOM     74  F   UNL A   1      41.064  37.231  37.830  1.00  0.00    -0.200 F 
ATOM     75  F   UNL A   1      39.452  36.546  39.921  1.00  0.00    -0.200 F 
ENDBRANCH  51  65
BRANCH  52  76
ATOM     76  C   UNL A   1      40.273  27.921  28.750  1.00  0.00     0.064 A 
ATOM     77  C   UNL A   1      41.011  28.178  27.588  1.00  0.00     0.173 A 
ATOM     78  C   UNL A   1      39.584  26.702  28.832  1.00  0.00     0.173 A 
ATOM     79  F   UNL A   1      41.671  29.338  27.457  1.00  0.00    -0.203 F 
ATOM     80  C   UNL A   1      41.069  27.247  26.553  1.00  0.00     0.198 A 
ATOM     81  C   UNL A   1      39.665  25.759  27.809  1.00  0.00     0.198 A 
ATOM     82  F   UNL A   1      38.868  26.407  29.927  1.00  0.00    -0.203 F 
ATOM     83  F   UNL A   1      41.772  27.521  25.446  1.00  0.00    -0.200 F 
ATOM     84  C   UNL A   1      40.407  26.033  26.670  1.00  0.00     0.200 A 
ATOM     85  F   UNL A   1      39.040  24.582  27.935  1.00  0.00    -0.200 F 
ATOM     86  F   UNL A   1      40.486  25.127  25.687  1.00  0.00    -0.200 F 
ENDBRANCH  52  76
BRANCH  64  87
ATOM     87  C   UNL A   1      43.990  28.483  34.633  1.00  0.00     0.064 A 
ATOM     88  C   UNL A   1      45.296  28.957  34.441  1.00  0.00     0.173 A 
ATOM     89  C   UNL A   1      43.814  27.334  35.420  1.00  0.00     0.173 A 
ATOM     90  F   UNL A   1      45.514  30.043  33.683  1.00  0.00    -0.203 F 
ATOM     91  C   UNL A   1      46.383  28.308  35.016  1.00  0.00     0.198 A 
ATOM     92  C   UNL A   1      44.901  26.701  36.014  1.00  0.00     0.198 A 
ATOM     93  F   UNL A   1      42.583  26.846  35.636  1.00  0.00    -0.203 F 
ATOM     94  F   UNL A   1      47.625  28.766  34.803  1.00  0.00    -0.200 F 
ATOM     95  C   UNL A   1      46.184  27.188  35.811  1.00  0.00     0.200 A 
ATOM     96  F   UNL A   1      44.708  25.628  36.792  1.00  0.00    -0.200 F 
ATOM     97  F   UNL A   1      47.231  26.575  36.382  1.00  0.00    -0.200 F 
ENDBRANCH  64  87
ENDBRANCH  38  39
ENDBRANCH  30  33
ENDBRANCH  28  29
ENDBRANCH  27  28
ENDBRANCH   1  27
TORSDOF 14
ENDMDL
MODEL 3
REMARK VINA RESULT:     -13.3      5.553     10.983
REMARK SMILES CC(C)CN(C)c1cc2c(cc1Cl)C=C(C(=O)NCCCNC(=O)c1ccc(-c3c4nc(c(-c5c(F)c(F)c(F)c(F)c5F)c5ccc([nH]5)c(-c5c(F)c(F)c(F)c(F)c5F)c5nc(c(-c6c(F)c(F)c(F)c(F)c6F)c6ccc3[nH]6)C=C5)C=C4)cc1)[C@@H](C(F)(F)F)O2
REMARK SMILES IDX 19 1 18 2 16 3 17 4 15 6 7 7 8 8 12 9 9 10 11 11 13 12 10 13
REMARK SMILES IDX 93 14 14 15 88 16 5 17 6 18 4 19 2 20 1 21 3 22 89 23 90 24
REMARK SMILES IDX 91 25 92 26 20 27 21 28 22 29 23 30 24 32 25 33 26 34 87 35
REMARK SMILES IDX 27 36 86 37 28 38 29 39 30 40 80 41 31 42 85 43 79 44 81 45
REMARK SMILES IDX 32 46 84 47 78 48 77 49 33 51 65 52 45 53 64 54 46 55 49 56
REMARK SMILES IDX 63 57 82 58 47 59 48 60 62 62 83 63 50 64 34 65 35 66 43 67
REMARK SMILES IDX 36 68 37 69 41 70 44 71 38 72 39 73 42 74 40 75 66 76 67 77
REMARK SMILES IDX 75 78 68 79 69 80 73 81 76 82 70 83 71 84 74 85 72 86 51 87
REMARK SMILES IDX 52 88 60 89 53 90 54 91 58 92 61 93 55 94 56 95 59 96 57 97
REMARK H PARENT 18 5 22 31 81 50 49 61
REMARK Flexibility Score: inf
ROOT
ATOM      1  C   UNL A   1      36.781  20.538  25.375  1.00  0.00     0.118 C 
ENDROOT
BRANCH   1   2
ATOM      2  N   UNL A   1      35.607  19.797  24.948  1.00  0.00    -0.352 N 
ATOM      3  C   UNL A   1      34.298  20.067  24.734  1.00  0.00     0.251 C 
ATOM      4  O   UNL A   1      33.621  19.110  24.347  1.00  0.00    -0.270 OA
ATOM      5  H   UNL A   1      35.816  18.852  24.770  1.00  0.00     0.163 HD
BRANCH   3   6
ATOM      6  C   UNL A   1      33.658  21.391  24.937  1.00  0.00     0.067 C 
ATOM      7  C   UNL A   1      31.753  26.014  24.304  1.00  0.00     0.059 A 
ATOM      8  C   UNL A   1      31.362  24.881  25.036  1.00  0.00     0.074 A 
ATOM      9  C   UNL A   1      32.942  25.926  23.544  1.00  0.00     0.065 A 
ATOM     10  C   UNL A   1      32.106  23.707  24.969  1.00  0.00     0.130 A 
ATOM     11  C   UNL A   1      33.628  24.715  23.405  1.00  0.00     0.034 A 
ATOM     12  Cl  UNL A   1      33.625  27.307  22.752  1.00  0.00    -0.082 Cl
ATOM     13  C   UNL A   1      33.198  23.595  24.107  1.00  0.00     0.019 A 
ATOM     14  O   UNL A   1      31.724  22.668  25.780  1.00  0.00    -0.475 OA
ATOM     15  C   UNL A   1      33.844  22.296  23.958  1.00  0.00     0.025 C 
ATOM     16  C   UNL A   1      32.825  21.775  26.128  1.00  0.00     0.314 C 
BRANCH   7  17
ATOM     17  N   UNL A   1      30.951  27.166  24.312  1.00  0.00    -0.373 N 
ATOM     18  C   UNL A   1      30.303  27.483  23.041  1.00  0.00     0.143 C 
BRANCH  17  19
ATOM     19  C   UNL A   1      31.469  28.306  25.096  1.00  0.00     0.119 C 
BRANCH  19  20
ATOM     20  C   UNL A   1      32.211  27.857  26.373  1.00  0.00     0.002 C 
ATOM     21  C   UNL A   1      33.600  28.491  26.494  1.00  0.00     0.009 C 
ATOM     22  C   UNL A   1      31.404  28.209  27.626  1.00  0.00     0.009 C 
ENDBRANCH  19  20
ENDBRANCH  17  19
ENDBRANCH   7  17
BRANCH  16  23
ATOM     23  C   UNL A   1      33.684  22.373  27.270  1.00  0.00     0.429 C 
ATOM     24  F   UNL A   1      32.890  22.957  28.201  1.00  0.00    -0.167 F 
ATOM     25  F   UNL A   1      34.404  21.424  27.918  1.00  0.00    -0.167 F 
ATOM     26  F   UNL A   1      34.568  23.304  26.850  1.00  0.00    -0.167 F 
ENDBRANCH  16  23
ENDBRANCH   3   6
ENDBRANCH   1   2
BRANCH   1  27
ATOM     27  C   UNL A   1      38.063  19.879  24.894  1.00  0.00     0.042 C 
BRANCH  27  28
ATOM     28  C   UNL A   1      39.263  20.249  25.753  1.00  0.00     0.118 C 
BRANCH  28  29
ATOM     29  N   UNL A   1      40.244  19.167  25.829  1.00  0.00    -0.352 N 
ATOM     30  C   UNL A   1      41.607  19.209  25.994  1.00  0.00     0.251 C 
ATOM     31  H   UNL A   1      39.865  18.261  25.749  1.00  0.00     0.163 HD
ATOM     32  O   UNL A   1      42.280  18.199  25.811  1.00  0.00    -0.269 OA
BRANCH  30  33
ATOM     33  C   UNL A   1      42.266  20.477  26.366  1.00  0.00     0.039 A 
ATOM     34  C   UNL A   1      42.280  20.898  27.693  1.00  0.00     0.014 A 
ATOM     35  C   UNL A   1      42.857  21.266  25.373  1.00  0.00     0.014 A 
ATOM     36  C   UNL A   1      42.673  22.193  27.995  1.00  0.00     0.010 A 
ATOM     37  C   UNL A   1      43.368  22.525  25.703  1.00  0.00     0.010 A 
ATOM     38  C   UNL A   1      43.219  23.025  27.005  1.00  0.00    -0.014 A 
BRANCH  38  39
ATOM     39  C   UNL A   1      43.592  24.417  27.368  1.00  0.00     0.031 A 
ATOM     40  C   UNL A   1      44.971  24.944  27.080  1.00  0.00     0.074 A 
ATOM     41  C   UNL A   1      42.644  25.239  27.859  1.00  0.00     0.049 A 
ATOM     42  N   UNL A   1      45.444  26.154  27.250  1.00  0.00    -0.248 NA
ATOM     43  C   UNL A   1      45.952  23.994  26.532  1.00  0.00     0.031 C 
ATOM     44  C   UNL A   1      41.265  24.845  28.155  1.00  0.00     0.029 A 
ATOM     45  N   UNL A   1      42.673  26.581  28.138  1.00  0.00    -0.354 N 
ATOM     46  C   UNL A   1      46.772  26.105  26.845  1.00  0.00     0.074 A 
ATOM     47  C   UNL A   1      47.046  24.737  26.462  1.00  0.00     0.031 C 
ATOM     48  C   UNL A   1      40.557  25.934  28.479  1.00  0.00     0.029 A 
ATOM     49  C   UNL A   1      41.447  27.091  28.490  1.00  0.00     0.049 A 
ATOM     50  H   UNL A   1      43.491  27.126  28.091  1.00  0.00     0.167 HD
ATOM     51  C   UNL A   1      47.674  27.113  26.776  1.00  0.00     0.037 A 
ATOM     52  C   UNL A   1      41.077  28.350  28.789  1.00  0.00     0.037 A 
ATOM     53  C   UNL A   1      47.391  28.476  27.138  1.00  0.00     0.049 A 
ATOM     54  C   UNL A   1      42.114  29.434  28.782  1.00  0.00     0.074 A 
ATOM     55  C   UNL A   1      48.232  29.573  27.098  1.00  0.00     0.029 A 
ATOM     56  N   UNL A   1      46.165  28.930  27.606  1.00  0.00    -0.354 N 
ATOM     57  N   UNL A   1      43.368  29.372  28.407  1.00  0.00    -0.248 NA
ATOM     58  C   UNL A   1      41.693  30.755  29.266  1.00  0.00     0.031 C 
ATOM     59  C   UNL A   1      47.531  30.682  27.582  1.00  0.00     0.029 A 
ATOM     60  C   UNL A   1      46.237  30.285  27.884  1.00  0.00     0.049 A 
ATOM     61  H   UNL A   1      45.363  28.371  27.722  1.00  0.00     0.167 HD
ATOM     62  C   UNL A   1      43.889  30.641  28.609  1.00  0.00     0.074 A 
ATOM     63  C   UNL A   1      42.807  31.461  29.117  1.00  0.00     0.031 C 
ATOM     64  C   UNL A   1      45.154  31.082  28.401  1.00  0.00     0.037 A 
BRANCH  51  65
ATOM     65  C   UNL A   1      49.057  26.775  26.298  1.00  0.00     0.064 A 
ATOM     66  C   UNL A   1      50.038  26.283  27.173  1.00  0.00     0.173 A 
ATOM     67  C   UNL A   1      49.398  26.914  24.944  1.00  0.00     0.173 A 
ATOM     68  F   UNL A   1      49.767  26.143  28.479  1.00  0.00    -0.203 F 
ATOM     69  C   UNL A   1      51.317  25.975  26.717  1.00  0.00     0.198 A 
ATOM     70  C   UNL A   1      50.670  26.578  24.486  1.00  0.00     0.198 A 
ATOM     71  F   UNL A   1      48.496  27.373  24.063  1.00  0.00    -0.203 F 
ATOM     72  F   UNL A   1      52.251  25.557  27.581  1.00  0.00    -0.200 F 
ATOM     73  C   UNL A   1      51.630  26.116  25.373  1.00  0.00     0.200 A 
ATOM     74  F   UNL A   1      50.967  26.704  23.185  1.00  0.00    -0.200 F 
ATOM     75  F   UNL A   1      52.861  25.816  24.935  1.00  0.00    -0.200 F 
ENDBRANCH  51  65
BRANCH  52  76
ATOM     76  C   UNL A   1      39.654  28.637  29.102  1.00  0.00     0.064 A 
ATOM     77  C   UNL A   1      39.163  28.473  30.404  1.00  0.00     0.173 A 
ATOM     78  C   UNL A   1      38.779  29.144  28.131  1.00  0.00     0.173 A 
ATOM     79  F   UNL A   1      39.958  27.974  31.362  1.00  0.00    -0.203 F 
ATOM     80  C   UNL A   1      37.851  28.815  30.726  1.00  0.00     0.198 A 
ATOM     81  C   UNL A   1      37.476  29.512  28.459  1.00  0.00     0.198 A 
ATOM     82  F   UNL A   1      39.204  29.325  26.872  1.00  0.00    -0.203 F 
ATOM     83  F   UNL A   1      37.400  28.637  31.974  1.00  0.00    -0.200 F 
ATOM     84  C   UNL A   1      37.013  29.346  29.755  1.00  0.00     0.200 A 
ATOM     85  F   UNL A   1      36.676  30.043  27.525  1.00  0.00    -0.200 F 
ATOM     86  F   UNL A   1      35.760  29.701  30.071  1.00  0.00    -0.200 F 
ENDBRANCH  52  76
BRANCH  64  87
ATOM     87  C   UNL A   1      45.449  32.513  28.732  1.00  0.00     0.064 A 
ATOM     88  C   UNL A   1      45.977  32.874  29.981  1.00  0.00     0.173 A 
ATOM     89  C   UNL A   1      45.288  33.519  27.768  1.00  0.00     0.173 A 
ATOM     90  F   UNL A   1      46.134  31.949  30.939  1.00  0.00    -0.203 F 
ATOM     91  C   UNL A   1      46.331  34.192  30.252  1.00  0.00     0.198 A 
ATOM     92  C   UNL A   1      45.666  34.832  28.034  1.00  0.00     0.198 A 
ATOM     93  F   UNL A   1      44.792  33.222  26.557  1.00  0.00    -0.203 F 
ATOM     94  F   UNL A   1      46.814  34.519  31.459  1.00  0.00    -0.200 F 
ATOM     95  C   UNL A   1      46.187  35.167  29.275  1.00  0.00     0.200 A 
ATOM     96  F   UNL A   1      45.539  35.770  27.087  1.00  0.00    -0.200 F 
ATOM     97  F   UNL A   1      46.549  36.432  29.531  1.00  0.00    -0.200 F 
ENDBRANCH  64  87
ENDBRANCH  38  39
ENDBRANCH  30  33
ENDBRANCH  28  29
ENDBRANCH  27  28
ENDBRANCH   1  27
TORSDOF 14
ENDMDL
