MODEL 1
REMARK VINA RESULT:     -12.6      0.000      0.000
REMARK SMILES O=C(NCCCNC(=O)[C@H]1CC[C@H]2CCCC[C@@H]2[N@H+]1[C@@H]1C[N@H+]2CC[C@@H]1CC2)c1ccc(-c2c3nc(c(-c4c(F)c(F)c(F)c(F)c4F)c4ccc([nH]4)c(-c4c(F)c(F)c(F)c(F)c4F)c4nc(c(-c5c(F)c(F)c(F)c(F)c5F)c5ccc2[nH]5)C=C4)C=C3)cc1
REMARK SMILES IDX 4 1 3 2 1 3 2 4 28 6 29 7 90 8 30 9 89 10 31 11 32 12 33 13
REMARK SMILES IDX 83 14 34 15 88 16 82 17 84 18 35 19 87 20 81 21 80 22 36 24
REMARK SMILES IDX 68 25 48 26 67 27 49 28 52 29 66 30 85 31 50 32 51 33 65 35
REMARK SMILES IDX 86 36 53 37 37 38 38 39 46 40 39 41 40 42 44 43 47 44 41 45
REMARK SMILES IDX 42 46 45 47 43 48 69 49 70 50 78 51 71 52 72 53 76 54 79 55
REMARK SMILES IDX 73 56 74 57 77 58 75 59 54 60 55 61 63 62 56 63 57 64 61 65
REMARK SMILES IDX 64 66 58 67 59 68 62 69 60 70 5 71 6 72 7 73 8 74 9 76 10 77
REMARK SMILES IDX 11 78 19 79 12 80 18 81 13 83 17 84 14 85 16 86 15 87 20 88
REMARK SMILES IDX 21 89 25 90 22 91 26 92 24 93 27 94 23 95
REMARK H PARENT 3 5 84 23 52 34 7 75 19 82 22 96
REMARK Flexibility Score: inf
ROOT
ATOM      1  C   UNL A   1      32.996  29.420  26.370  1.00  0.00     0.118 C 
ENDROOT
BRANCH   1   2
ATOM      2  N   UNL A   1      32.757  30.850  26.533  1.00  0.00    -0.352 N 
ATOM      3  O   UNL A   1      32.984  32.912  27.409  1.00  0.00    -0.269 OA
ATOM      4  C   UNL A   1      33.438  31.783  27.280  1.00  0.00     0.251 C 
ATOM      5  H   UNL A   1      31.989  31.202  26.028  1.00  0.00     0.163 HD
BRANCH   4   6
ATOM      6  C   UNL A   1      34.708  31.419  27.945  1.00  0.00     0.039 A 
ATOM      7  C   UNL A   1      34.879  30.157  28.512  1.00  0.00     0.014 A 
ATOM      8  C   UNL A   1      35.755  32.347  27.982  1.00  0.00     0.014 A 
ATOM      9  C   UNL A   1      36.018  29.884  29.257  1.00  0.00     0.010 A 
ATOM     10  C   UNL A   1      36.948  32.029  28.640  1.00  0.00     0.010 A 
ATOM     11  C   UNL A   1      37.077  30.806  29.311  1.00  0.00    -0.014 A 
BRANCH  11  12
ATOM     12  C   UNL A   1      38.324  30.407  30.013  1.00  0.00     0.031 A 
ATOM     13  C   UNL A   1      38.623  30.865  31.412  1.00  0.00     0.074 A 
ATOM     14  C   UNL A   1      39.159  29.555  29.385  1.00  0.00     0.049 A 
ATOM     15  N   UNL A   1      39.624  30.532  32.190  1.00  0.00    -0.248 NA
ATOM     16  C   UNL A   1      37.689  31.824  32.020  1.00  0.00     0.031 C 
ATOM     17  C   UNL A   1      38.984  29.067  28.014  1.00  0.00     0.029 A 
ATOM     18  N   UNL A   1      40.294  28.921  29.818  1.00  0.00    -0.354 N 
ATOM     19  C   UNL A   1      39.446  31.240  33.370  1.00  0.00     0.074 A 
ATOM     20  C   UNL A   1      38.257  32.050  33.197  1.00  0.00     0.031 C 
ATOM     21  C   UNL A   1      39.934  28.163  27.742  1.00  0.00     0.029 A 
ATOM     22  C   UNL A   1      40.823  28.055  28.893  1.00  0.00     0.049 A 
ATOM     23  H   UNL A   1      40.692  29.072  30.706  1.00  0.00     0.167 HD
ATOM     24  C   UNL A   1      40.198  31.207  34.495  1.00  0.00     0.037 A 
ATOM     25  C   UNL A   1      41.911  27.265  28.956  1.00  0.00     0.037 A 
ATOM     26  C   UNL A   1      41.377  30.392  34.662  1.00  0.00     0.049 A 
ATOM     27  C   UNL A   1      42.723  27.252  30.219  1.00  0.00     0.074 A 
ATOM     28  C   UNL A   1      42.201  30.282  35.770  1.00  0.00     0.029 A 
ATOM     29  N   UNL A   1      41.899  29.547  33.694  1.00  0.00    -0.354 N 
ATOM     30  N   UNL A   1      42.523  27.908  31.336  1.00  0.00    -0.248 NA
ATOM     31  C   UNL A   1      43.910  26.388  30.229  1.00  0.00     0.031 C 
ATOM     32  C   UNL A   1      43.242  29.401  35.457  1.00  0.00     0.029 A 
ATOM     33  C   UNL A   1      43.040  28.924  34.172  1.00  0.00     0.049 A 
ATOM     34  H   UNL A   1      41.514  29.411  32.797  1.00  0.00     0.167 HD
ATOM     35  C   UNL A   1      43.557  27.536  32.183  1.00  0.00     0.074 A 
ATOM     36  C   UNL A   1      44.357  26.565  31.463  1.00  0.00     0.031 C 
ATOM     37  C   UNL A   1      43.829  27.969  33.438  1.00  0.00     0.037 A 
BRANCH  24  38
ATOM     38  C   UNL A   1      39.779  32.076  35.647  1.00  0.00     0.064 A 
ATOM     39  C   UNL A   1      40.311  33.360  35.827  1.00  0.00     0.173 A 
ATOM     40  C   UNL A   1      38.781  31.648  36.536  1.00  0.00     0.173 A 
ATOM     41  F   UNL A   1      41.275  33.812  35.011  1.00  0.00    -0.203 F 
ATOM     42  C   UNL A   1      39.869  34.181  36.862  1.00  0.00     0.198 A 
ATOM     43  C   UNL A   1      38.322  32.482  37.554  1.00  0.00     0.198 A 
ATOM     44  F   UNL A   1      38.233  30.431  36.405  1.00  0.00    -0.203 F 
ATOM     45  F   UNL A   1      40.412  35.395  37.033  1.00  0.00    -0.200 F 
ATOM     46  C   UNL A   1      38.869  33.745  37.718  1.00  0.00     0.200 A 
ATOM     47  F   UNL A   1      37.347  32.064  38.373  1.00  0.00    -0.200 F 
ATOM     48  F   UNL A   1      38.433  34.543  38.704  1.00  0.00    -0.200 F 
ENDBRANCH  24  38
BRANCH  25  49
ATOM     49  C   UNL A   1      42.294  26.438  27.784  1.00  0.00     0.064 A 
ATOM     50  C   UNL A   1      41.730  25.172  27.572  1.00  0.00     0.173 A 
ATOM     51  C   UNL A   1      43.235  26.898  26.851  1.00  0.00     0.173 A 
ATOM     52  F   UNL A   1      40.839  24.681  28.446  1.00  0.00    -0.203 F 
ATOM     53  C   UNL A   1      42.109  24.390  26.483  1.00  0.00     0.198 A 
ATOM     54  C   UNL A   1      43.588  26.131  25.744  1.00  0.00     0.198 A 
ATOM     55  F   UNL A   1      43.798  28.105  27.004  1.00  0.00    -0.203 F 
ATOM     56  F   UNL A   1      41.593  23.164  26.330  1.00  0.00    -0.200 F 
ATOM     57  C   UNL A   1      43.033  24.873  25.567  1.00  0.00     0.200 A 
ATOM     58  F   UNL A   1      44.465  26.609  24.852  1.00  0.00    -0.200 F 
ATOM     59  F   UNL A   1      43.394  24.122  24.517  1.00  0.00    -0.200 F 
ENDBRANCH  25  49
BRANCH  37  60
ATOM     60  C   UNL A   1      45.040  27.385  34.104  1.00  0.00     0.064 A 
ATOM     61  C   UNL A   1      46.299  27.994  33.997  1.00  0.00     0.173 A 
ATOM     62  C   UNL A   1      44.941  26.203  34.853  1.00  0.00     0.173 A 
ATOM     63  F   UNL A   1      46.448  29.115  33.276  1.00  0.00    -0.203 F 
ATOM     64  C   UNL A   1      47.423  27.421  34.585  1.00  0.00     0.198 A 
ATOM     65  C   UNL A   1      46.061  25.649  35.466  1.00  0.00     0.198 A 
ATOM     66  F   UNL A   1      43.758  25.586  34.990  1.00  0.00    -0.203 F 
ATOM     67  F   UNL A   1      48.626  27.986  34.418  1.00  0.00    -0.200 F 
ATOM     68  C   UNL A   1      47.303  26.252  35.321  1.00  0.00     0.200 A 
ATOM     69  F   UNL A   1      45.942  24.525  36.185  1.00  0.00    -0.200 F 
ATOM     70  F   UNL A   1      48.386  25.698  35.882  1.00  0.00    -0.200 F 
ENDBRANCH  37  60
ENDBRANCH  11  12
ENDBRANCH   4   6
ENDBRANCH   1   2
BRANCH   1  71
ATOM     71  C   UNL A   1      32.122  28.565  27.276  1.00  0.00     0.042 C 
BRANCH  71  72
ATOM     72  C   UNL A   1      32.235  27.075  26.991  1.00  0.00     0.118 C 
BRANCH  72  73
ATOM     73  N   UNL A   1      30.931  26.437  26.909  1.00  0.00    -0.351 N 
ATOM     74  C   UNL A   1      30.621  25.163  26.507  1.00  0.00     0.278 C 
ATOM     75  H   UNL A   1      30.165  26.996  27.177  1.00  0.00     0.163 HD
ATOM     76  O   UNL A   1      29.434  24.843  26.439  1.00  0.00    -0.268 OA
BRANCH  74  77
ATOM     77  C   UNL A   1      31.768  24.191  26.180  1.00  0.00     0.274 C 
ATOM     78  C   UNL A   1      31.280  22.760  25.911  1.00  0.00     0.076 C 
ATOM     79  N   UNL A   1      32.697  24.719  25.140  1.00  0.00    -0.315 N 
ATOM     80  C   UNL A   1      32.442  21.804  25.598  1.00  0.00     0.016 C 
ATOM     81  C   UNL A   1      33.864  23.829  25.002  1.00  0.00     0.188 C 
ATOM     82  H   UNL A   1      33.038  25.619  25.477  1.00  0.00     0.349 HD
ATOM     83  C   UNL A   1      33.797  22.492  25.784  1.00  0.00     0.048 C 
ATOM     84  C   UNL A   1      35.133  24.570  25.461  1.00  0.00     0.065 C 
ATOM     85  C   UNL A   1      34.977  21.614  25.348  1.00  0.00     0.010 C 
ATOM     86  C   UNL A   1      36.378  23.746  25.124  1.00  0.00     0.006 C 
ATOM     87  C   UNL A   1      36.307  22.311  25.651  1.00  0.00     0.001 C 
BRANCH  79  88
ATOM     88  C   UNL A   1      32.051  25.111  23.849  1.00  0.00     0.244 C 
ATOM     89  C   UNL A   1      32.594  24.494  22.516  1.00  0.00     0.328 C 
ATOM     90  C   UNL A   1      31.917  26.655  23.602  1.00  0.00     0.064 C 
ATOM     91  N   UNL A   1      32.780  25.496  21.434  1.00  0.00    -0.330 N 
ATOM     92  C   UNL A   1      30.916  26.824  22.430  1.00  0.00     0.071 C 
ATOM     93  C   UNL A   1      33.220  27.301  23.093  1.00  0.00     0.071 C 
ATOM     94  C   UNL A   1      31.494  26.168  21.163  1.00  0.00     0.262 C 
ATOM     95  C   UNL A   1      33.757  26.504  21.896  1.00  0.00     0.262 C 
ATOM     96  H   UNL A   1      33.111  25.037  20.586  1.00  0.00     0.348 HD
ENDBRANCH  79  88
ENDBRANCH  74  77
ENDBRANCH  72  73
ENDBRANCH  71  72
ENDBRANCH   1  71
TORSDOF 11
ENDMDL
MODEL 2
REMARK VINA RESULT:     -12.6      3.876      8.535
REMARK SMILES O=C(NCCCNC(=O)[C@H]1CC[C@H]2CCCC[C@@H]2[N@H+]1[C@@H]1C[N@H+]2CC[C@@H]1CC2)c1ccc(-c2c3nc(c(-c4c(F)c(F)c(F)c(F)c4F)c4ccc([nH]4)c(-c4c(F)c(F)c(F)c(F)c4F)c4nc(c(-c5c(F)c(F)c(F)c(F)c5F)c5ccc2[nH]5)C=C4)C=C3)cc1
REMARK SMILES IDX 4 1 3 2 1 3 2 4 28 6 29 7 90 8 30 9 89 10 31 11 32 12 33 13
REMARK SMILES IDX 83 14 34 15 88 16 82 17 84 18 35 19 87 20 81 21 80 22 36 24
REMARK SMILES IDX 68 25 48 26 67 27 49 28 52 29 66 30 85 31 50 32 51 33 65 35
REMARK SMILES IDX 86 36 53 37 37 38 38 39 46 40 39 41 40 42 44 43 47 44 41 45
REMARK SMILES IDX 42 46 45 47 43 48 69 49 70 50 78 51 71 52 72 53 76 54 79 55
REMARK SMILES IDX 73 56 74 57 77 58 75 59 54 60 55 61 63 62 56 63 57 64 61 65
REMARK SMILES IDX 64 66 58 67 59 68 62 69 60 70 5 71 6 72 7 73 8 74 9 76 10 77
REMARK SMILES IDX 11 78 19 79 12 80 18 81 13 83 17 84 14 85 16 86 15 87 20 88
REMARK SMILES IDX 21 89 25 90 22 91 26 92 24 93 27 94 23 95
REMARK H PARENT 3 5 84 23 52 34 7 75 19 82 22 96
REMARK Flexibility Score: inf
ROOT
ATOM      1  C   UNL A   1      36.876  23.924  25.022  1.00  0.00     0.118 C 
ENDROOT
BRANCH   1   2
ATOM      2  N   UNL A   1      37.807  22.860  25.378  1.00  0.00    -0.352 N 
ATOM      3  O   UNL A   1      39.711  21.928  26.141  1.00  0.00    -0.269 OA
ATOM      4  C   UNL A   1      38.989  22.915  26.082  1.00  0.00     0.251 C 
ATOM      5  H   UNL A   1      37.550  21.962  25.067  1.00  0.00     0.163 HD
BRANCH   4   6
ATOM      6  C   UNL A   1      39.397  24.170  26.750  1.00  0.00     0.039 A 
ATOM      7  C   UNL A   1      40.124  25.139  26.061  1.00  0.00     0.014 A 
ATOM      8  C   UNL A   1      39.029  24.391  28.082  1.00  0.00     0.014 A 
ATOM      9  C   UNL A   1      40.624  26.240  26.742  1.00  0.00     0.010 A 
ATOM     10  C   UNL A   1      39.441  25.555  28.737  1.00  0.00     0.010 A 
ATOM     11  C   UNL A   1      40.270  26.476  28.081  1.00  0.00    -0.014 A 
BRANCH  11  12
ATOM     12  C   UNL A   1      40.726  27.737  28.720  1.00  0.00     0.031 A 
ATOM     13  C   UNL A   1      42.173  27.982  29.040  1.00  0.00     0.074 A 
ATOM     14  C   UNL A   1      39.809  28.700  28.943  1.00  0.00     0.049 A 
ATOM     15  N   UNL A   1      42.738  29.065  29.515  1.00  0.00    -0.248 NA
ATOM     16  C   UNL A   1      43.110  26.873  28.807  1.00  0.00     0.031 C 
ATOM     17  C   UNL A   1      38.371  28.562  28.698  1.00  0.00     0.029 A 
ATOM     18  N   UNL A   1      39.946  29.990  29.388  1.00  0.00    -0.354 N 
ATOM     19  C   UNL A   1      44.088  28.768  29.644  1.00  0.00     0.074 A 
ATOM     20  C   UNL A   1      44.257  27.391  29.227  1.00  0.00     0.031 C 
ATOM     21  C   UNL A   1      37.769  29.737  28.931  1.00  0.00     0.029 A 
ATOM     22  C   UNL A   1      38.765  30.690  29.404  1.00  0.00     0.049 A 
ATOM     23  H   UNL A   1      40.807  30.376  29.670  1.00  0.00     0.167 HD
ATOM     24  C   UNL A   1      45.093  29.576  30.058  1.00  0.00     0.037 A 
ATOM     25  C   UNL A   1      38.506  31.960  29.768  1.00  0.00     0.037 A 
ATOM     26  C   UNL A   1      44.919  30.949  30.465  1.00  0.00     0.049 A 
ATOM     27  C   UNL A   1      39.644  32.828  30.223  1.00  0.00     0.074 A 
ATOM     28  C   UNL A   1      45.877  31.852  30.891  1.00  0.00     0.029 A 
ATOM     29  N   UNL A   1      43.703  31.618  30.493  1.00  0.00    -0.354 N 
ATOM     30  N   UNL A   1      40.918  32.539  30.311  1.00  0.00    -0.248 NA
ATOM     31  C   UNL A   1      39.304  34.198  30.627  1.00  0.00     0.031 C 
ATOM     32  C   UNL A   1      45.237  33.054  31.215  1.00  0.00     0.029 A 
ATOM     33  C   UNL A   1      43.886  32.915  30.944  1.00  0.00     0.049 A 
ATOM     34  H   UNL A   1      42.837  31.226  30.232  1.00  0.00     0.167 HD
ATOM     35  C   UNL A   1      41.535  33.690  30.779  1.00  0.00     0.074 A 
ATOM     36  C   UNL A   1      40.498  34.693  30.916  1.00  0.00     0.031 C 
ATOM     37  C   UNL A   1      42.840  33.895  31.083  1.00  0.00     0.037 A 
BRANCH  24  38
ATOM     38  C   UNL A   1      46.482  29.005  30.099  1.00  0.00     0.064 A 
ATOM     39  C   UNL A   1      46.974  28.357  31.241  1.00  0.00     0.173 A 
ATOM     40  C   UNL A   1      47.301  29.042  28.960  1.00  0.00     0.173 A 
ATOM     41  F   UNL A   1      46.235  28.304  32.358  1.00  0.00    -0.203 F 
ATOM     42  C   UNL A   1      48.240  27.777  31.245  1.00  0.00     0.198 A 
ATOM     43  C   UNL A   1      48.557  28.438  28.960  1.00  0.00     0.198 A 
ATOM     44  F   UNL A   1      46.877  29.643  27.840  1.00  0.00    -0.203 F 
ATOM     45  F   UNL A   1      48.702  27.186  32.358  1.00  0.00    -0.200 F 
ATOM     46  C   UNL A   1      49.026  27.808  30.103  1.00  0.00     0.200 A 
ATOM     47  F   UNL A   1      49.310  28.459  27.852  1.00  0.00    -0.200 F 
ATOM     48  F   UNL A   1      50.238  27.236  30.105  1.00  0.00    -0.200 F 
ENDBRANCH  24  38
BRANCH  25  49
ATOM     49  C   UNL A   1      37.113  32.472  29.727  1.00  0.00     0.064 A 
ATOM     50  C   UNL A   1      36.625  33.163  28.609  1.00  0.00     0.173 A 
ATOM     51  C   UNL A   1      36.240  32.280  30.808  1.00  0.00     0.173 A 
ATOM     52  F   UNL A   1      37.426  33.386  27.557  1.00  0.00    -0.203 F 
ATOM     53  C   UNL A   1      35.324  33.661  28.585  1.00  0.00     0.198 A 
ATOM     54  C   UNL A   1      34.929  32.748  30.769  1.00  0.00     0.198 A 
ATOM     55  F   UNL A   1      36.656  31.619  31.899  1.00  0.00    -0.203 F 
ATOM     56  F   UNL A   1      34.898  34.361  27.525  1.00  0.00    -0.200 F 
ATOM     57  C   UNL A   1      34.476  33.447  29.662  1.00  0.00     0.200 A 
ATOM     58  F   UNL A   1      34.109  32.523  31.803  1.00  0.00    -0.200 F 
ATOM     59  F   UNL A   1      33.223  33.923  29.635  1.00  0.00    -0.200 F 
ENDBRANCH  25  49
BRANCH  37  60
ATOM     60  C   UNL A   1      43.207  35.261  31.585  1.00  0.00     0.064 A 
ATOM     61  C   UNL A   1      43.671  36.259  30.715  1.00  0.00     0.173 A 
ATOM     62  C   UNL A   1      43.098  35.574  32.947  1.00  0.00     0.173 A 
ATOM     63  F   UNL A   1      43.811  36.002  29.406  1.00  0.00    -0.203 F 
ATOM     64  C   UNL A   1      44.048  37.509  31.197  1.00  0.00     0.198 A 
ATOM     65  C   UNL A   1      43.446  36.835  33.422  1.00  0.00     0.198 A 
ATOM     66  F   UNL A   1      42.653  34.655  33.819  1.00  0.00    -0.203 F 
ATOM     67  F   UNL A   1      44.547  38.426  30.358  1.00  0.00    -0.200 F 
ATOM     68  C   UNL A   1      43.932  37.797  32.548  1.00  0.00     0.200 A 
ATOM     69  F   UNL A   1      43.324  37.115  34.727  1.00  0.00    -0.200 F 
ATOM     70  F   UNL A   1      44.300  38.999  33.012  1.00  0.00    -0.200 F 
ENDBRANCH  37  60
ENDBRANCH  11  12
ENDBRANCH   4   6
ENDBRANCH   1   2
BRANCH   1  71
ATOM     71  C   UNL A   1      35.734  24.071  26.017  1.00  0.00     0.042 C 
BRANCH  71  72
ATOM     72  C   UNL A   1      34.707  22.953  25.925  1.00  0.00     0.118 C 
BRANCH  72  73
ATOM     73  N   UNL A   1      33.604  23.150  26.852  1.00  0.00    -0.351 N 
ATOM     74  C   UNL A   1      32.410  23.791  26.642  1.00  0.00     0.278 C 
ATOM     75  H   UNL A   1      33.732  22.774  27.753  1.00  0.00     0.163 HD
ATOM     76  O   UNL A   1      31.637  23.914  27.593  1.00  0.00    -0.268 OA
BRANCH  74  77
ATOM     77  C   UNL A   1      32.084  24.308  25.229  1.00  0.00     0.274 C 
ATOM     78  C   UNL A   1      30.592  24.205  24.884  1.00  0.00     0.076 C 
ATOM     79  N   UNL A   1      32.680  25.646  24.951  1.00  0.00    -0.315 N 
ATOM     80  C   UNL A   1      30.292  24.715  23.466  1.00  0.00     0.016 C 
ATOM     81  C   UNL A   1      32.486  26.003  23.533  1.00  0.00     0.188 C 
ATOM     82  H   UNL A   1      33.683  25.563  25.111  1.00  0.00     0.349 HD
ATOM     83  C   UNL A   1      31.580  25.053  22.710  1.00  0.00     0.048 C 
ATOM     84  C   UNL A   1      33.853  26.065  22.828  1.00  0.00     0.065 C 
ATOM     85  C   UNL A   1      31.317  25.696  21.342  1.00  0.00     0.010 C 
ATOM     86  C   UNL A   1      33.695  26.642  21.419  1.00  0.00     0.006 C 
ATOM     87  C   UNL A   1      32.633  25.916  20.589  1.00  0.00     0.001 C 
BRANCH  79  88
ATOM     88  C   UNL A   1      32.313  26.721  25.924  1.00  0.00     0.244 C 
ATOM     89  C   UNL A   1      31.184  27.735  25.538  1.00  0.00     0.328 C 
ATOM     90  C   UNL A   1      33.511  27.576  26.469  1.00  0.00     0.064 C 
ATOM     91  N   UNL A   1      31.537  29.150  25.822  1.00  0.00    -0.330 N 
ATOM     92  C   UNL A   1      32.970  28.346  27.702  1.00  0.00     0.071 C 
ATOM     93  C   UNL A   1      33.961  28.678  25.492  1.00  0.00     0.071 C 
ATOM     94  C   UNL A   1      31.845  29.298  27.259  1.00  0.00     0.262 C 
ATOM     95  C   UNL A   1      32.742  29.496  25.040  1.00  0.00     0.262 C 
ATOM     96  H   UNL A   1      30.760  29.761  25.575  1.00  0.00     0.348 HD
ENDBRANCH  79  88
ENDBRANCH  74  77
ENDBRANCH  72  73
ENDBRANCH  71  72
ENDBRANCH   1  71
TORSDOF 11
ENDMDL
MODEL 3
REMARK VINA RESULT:     -12.6      1.246      2.636
REMARK SMILES O=C(NCCCNC(=O)[C@H]1CC[C@H]2CCCC[C@@H]2[N@H+]1[C@@H]1C[N@H+]2CC[C@@H]1CC2)c1ccc(-c2c3nc(c(-c4c(F)c(F)c(F)c(F)c4F)c4ccc([nH]4)c(-c4c(F)c(F)c(F)c(F)c4F)c4nc(c(-c5c(F)c(F)c(F)c(F)c5F)c5ccc2[nH]5)C=C4)C=C3)cc1
REMARK SMILES IDX 4 1 3 2 1 3 2 4 28 6 29 7 90 8 30 9 89 10 31 11 32 12 33 13
REMARK SMILES IDX 83 14 34 15 88 16 82 17 84 18 35 19 87 20 81 21 80 22 36 24
REMARK SMILES IDX 68 25 48 26 67 27 49 28 52 29 66 30 85 31 50 32 51 33 65 35
REMARK SMILES IDX 86 36 53 37 37 38 38 39 46 40 39 41 40 42 44 43 47 44 41 45
REMARK SMILES IDX 42 46 45 47 43 48 69 49 70 50 78 51 71 52 72 53 76 54 79 55
REMARK SMILES IDX 73 56 74 57 77 58 75 59 54 60 55 61 63 62 56 63 57 64 61 65
REMARK SMILES IDX 64 66 58 67 59 68 62 69 60 70 5 71 6 72 7 73 8 74 9 76 10 77
REMARK SMILES IDX 11 78 19 79 12 80 18 81 13 83 17 84 14 85 16 86 15 87 20 88
REMARK SMILES IDX 21 89 25 90 22 91 26 92 24 93 27 94 23 95
REMARK H PARENT 3 5 84 23 52 34 7 75 19 82 22 96
REMARK Flexibility Score: inf
ROOT
ATOM      1  C   UNL A   1      33.560  28.900  25.055  1.00  0.00     0.118 C 
ENDROOT
BRANCH   1   2
ATOM      2  N   UNL A   1      32.876  30.062  25.611  1.00  0.00    -0.352 N 
ATOM      3  O   UNL A   1      32.394  31.677  27.106  1.00  0.00    -0.269 OA
ATOM      4  C   UNL A   1      33.186  30.832  26.709  1.00  0.00     0.251 C 
ATOM      5  H   UNL A   1      32.068  30.341  25.123  1.00  0.00     0.163 HD
BRANCH   4   6
ATOM      6  C   UNL A   1      34.465  30.626  27.423  1.00  0.00     0.039 A 
ATOM      7  C   UNL A   1      34.809  29.370  27.920  1.00  0.00     0.014 A 
ATOM      8  C   UNL A   1      35.345  31.702  27.580  1.00  0.00     0.014 A 
ATOM      9  C   UNL A   1      35.939  29.227  28.712  1.00  0.00     0.010 A 
ATOM     10  C   UNL A   1      36.540  31.531  28.286  1.00  0.00     0.010 A 
ATOM     11  C   UNL A   1      36.832  30.298  28.886  1.00  0.00    -0.014 A 
BRANCH  11  12
ATOM     12  C   UNL A   1      38.092  30.052  29.633  1.00  0.00     0.031 A 
ATOM     13  C   UNL A   1      38.298  30.576  31.026  1.00  0.00     0.074 A 
ATOM     14  C   UNL A   1      39.031  29.277  29.055  1.00  0.00     0.049 A 
ATOM     15  N   UNL A   1      39.304  30.371  31.841  1.00  0.00    -0.248 NA
ATOM     16  C   UNL A   1      37.251  31.447  31.579  1.00  0.00     0.031 C 
ATOM     17  C   UNL A   1      38.950  28.736  27.695  1.00  0.00     0.029 A 
ATOM     18  N   UNL A   1      40.212  28.777  29.538  1.00  0.00    -0.354 N 
ATOM     19  C   UNL A   1      39.016  31.089  32.994  1.00  0.00     0.074 A 
ATOM     20  C   UNL A   1      37.756  31.763  32.764  1.00  0.00     0.031 C 
ATOM     21  C   UNL A   1      39.998  27.930  27.477  1.00  0.00     0.029 A 
ATOM     22  C   UNL A   1      40.857  27.948  28.654  1.00  0.00     0.049 A 
ATOM     23  H   UNL A   1      40.565  28.993  30.432  1.00  0.00     0.167 HD
ATOM     24  C   UNL A   1      39.734  31.165  34.140  1.00  0.00     0.037 A 
ATOM     25  C   UNL A   1      42.019  27.279  28.772  1.00  0.00     0.037 A 
ATOM     26  C   UNL A   1      40.985  30.484  34.365  1.00  0.00     0.049 A 
ATOM     27  C   UNL A   1      42.788  27.385  30.057  1.00  0.00     0.074 A 
ATOM     28  C   UNL A   1      41.782  30.491  35.497  1.00  0.00     0.029 A 
ATOM     29  N   UNL A   1      41.622  29.673  33.436  1.00  0.00    -0.354 N 
ATOM     30  N   UNL A   1      42.487  28.046  31.147  1.00  0.00    -0.248 NA
ATOM     31  C   UNL A   1      44.058  26.652  30.125  1.00  0.00     0.031 C 
ATOM     32  C   UNL A   1      42.919  29.716  35.240  1.00  0.00     0.029 A 
ATOM     33  C   UNL A   1      42.807  29.187  33.965  1.00  0.00     0.049 A 
ATOM     34  H   UNL A   1      41.281  29.472  32.534  1.00  0.00     0.167 HD
ATOM     35  C   UNL A   1      43.527  27.808  32.033  1.00  0.00     0.074 A 
ATOM     36  C   UNL A   1      44.447  26.908  31.365  1.00  0.00     0.031 C 
ATOM     37  C   UNL A   1      43.714  28.301  33.281  1.00  0.00     0.037 A 
BRANCH  24  38
ATOM     38  C   UNL A   1      39.190  32.015  35.253  1.00  0.00     0.064 A 
ATOM     39  C   UNL A   1      38.428  31.463  36.292  1.00  0.00     0.173 A 
ATOM     40  C   UNL A   1      39.496  33.383  35.320  1.00  0.00     0.173 A 
ATOM     41  F   UNL A   1      38.099  30.162  36.270  1.00  0.00    -0.203 F 
ATOM     42  C   UNL A   1      37.982  32.250  37.351  1.00  0.00     0.198 A 
ATOM     43  C   UNL A   1      39.071  34.162  36.394  1.00  0.00     0.198 A 
ATOM     44  F   UNL A   1      40.228  33.961  34.356  1.00  0.00    -0.203 F 
ATOM     45  F   UNL A   1      37.230  31.706  38.320  1.00  0.00    -0.200 F 
ATOM     46  C   UNL A   1      38.312  33.595  37.407  1.00  0.00     0.200 A 
ATOM     47  F   UNL A   1      39.400  35.460  36.452  1.00  0.00    -0.200 F 
ATOM     48  F   UNL A   1      37.895  34.348  38.435  1.00  0.00    -0.200 F 
ENDBRANCH  24  38
BRANCH  25  49
ATOM     49  C   UNL A   1      42.522  26.465  27.636  1.00  0.00     0.064 A 
ATOM     50  C   UNL A   1      42.072  25.155  27.424  1.00  0.00     0.173 A 
ATOM     51  C   UNL A   1      43.467  26.984  26.738  1.00  0.00     0.173 A 
ATOM     52  F   UNL A   1      41.182  24.608  28.265  1.00  0.00    -0.203 F 
ATOM     53  C   UNL A   1      42.564  24.388  26.370  1.00  0.00     0.198 A 
ATOM     54  C   UNL A   1      43.933  26.229  25.665  1.00  0.00     0.198 A 
ATOM     55  F   UNL A   1      43.924  28.236  26.892  1.00  0.00    -0.203 F 
ATOM     56  F   UNL A   1      42.155  23.121  26.219  1.00  0.00    -0.200 F 
ATOM     57  C   UNL A   1      43.489  24.928  25.488  1.00  0.00     0.200 A 
ATOM     58  F   UNL A   1      44.811  26.762  24.804  1.00  0.00    -0.200 F 
ATOM     59  F   UNL A   1      43.958  24.191  24.472  1.00  0.00    -0.200 F 
ENDBRANCH  25  49
BRANCH  37  60
ATOM     60  C   UNL A   1      44.958  27.865  33.998  1.00  0.00     0.064 A 
ATOM     61  C   UNL A   1      46.150  28.600  33.907  1.00  0.00     0.173 A 
ATOM     62  C   UNL A   1      44.960  26.702  34.781  1.00  0.00     0.173 A 
ATOM     63  F   UNL A   1      46.203  29.709  33.155  1.00  0.00    -0.203 F 
ATOM     64  C   UNL A   1      47.309  28.164  34.543  1.00  0.00     0.198 A 
ATOM     65  C   UNL A   1      46.112  26.286  35.441  1.00  0.00     0.198 A 
ATOM     66  F   UNL A   1      43.843  25.969  34.906  1.00  0.00    -0.203 F 
ATOM     67  F   UNL A   1      48.451  28.847  34.390  1.00  0.00    -0.200 F 
ATOM     68  C   UNL A   1      47.288  27.011  35.311  1.00  0.00     0.200 A 
ATOM     69  F   UNL A   1      46.089  25.176  36.192  1.00  0.00    -0.200 F 
ATOM     70  F   UNL A   1      48.406  26.589  35.919  1.00  0.00    -0.200 F 
ENDBRANCH  37  60
ENDBRANCH  11  12
ENDBRANCH   4   6
ENDBRANCH   1   2
BRANCH   1  71
ATOM     71  C   UNL A   1      32.606  27.782  24.661  1.00  0.00     0.042 C 
BRANCH  71  72
ATOM     72  C   UNL A   1      33.182  26.392  24.883  1.00  0.00     0.118 C 
BRANCH  72  73
ATOM     73  N   UNL A   1      32.720  25.805  26.131  1.00  0.00    -0.351 N 
ATOM     74  C   UNL A   1      32.212  24.551  26.354  1.00  0.00     0.278 C 
ATOM     75  H   UNL A   1      32.779  26.387  26.923  1.00  0.00     0.163 HD
ATOM     76  O   UNL A   1      31.806  24.277  27.484  1.00  0.00    -0.268 OA
BRANCH  74  77
ATOM     77  C   UNL A   1      32.192  23.542  25.193  1.00  0.00     0.274 C 
ATOM     78  C   UNL A   1      31.969  24.207  23.827  1.00  0.00     0.076 C 
ATOM     79  N   UNL A   1      33.345  22.597  25.226  1.00  0.00    -0.315 N 
ATOM     80  C   UNL A   1      31.941  23.180  22.684  1.00  0.00     0.016 C 
ATOM     81  C   UNL A   1      33.175  21.551  24.201  1.00  0.00     0.188 C 
ATOM     82  H   UNL A   1      33.328  22.139  26.136  1.00  0.00     0.349 HD
ATOM     83  C   UNL A   1      31.991  21.746  23.219  1.00  0.00     0.048 C 
ATOM     84  C   UNL A   1      32.985  20.186  24.888  1.00  0.00     0.065 C 
ATOM     85  C   UNL A   1      32.105  20.697  22.105  1.00  0.00     0.010 C 
ATOM     86  C   UNL A   1      33.024  19.062  23.849  1.00  0.00     0.006 C 
ATOM     87  C   UNL A   1      32.048  19.283  22.691  1.00  0.00     0.001 C 
BRANCH  79  88
ATOM     88  C   UNL A   1      34.696  23.242  25.245  1.00  0.00     0.244 C 
ATOM     89  C   UNL A   1      35.461  23.428  23.892  1.00  0.00     0.328 C 
ATOM     90  C   UNL A   1      35.724  22.625  26.257  1.00  0.00     0.064 C 
ATOM     91  N   UNL A   1      36.890  23.024  23.961  1.00  0.00    -0.330 N 
ATOM     92  C   UNL A   1      36.883  23.648  26.379  1.00  0.00     0.071 C 
ATOM     93  C   UNL A   1      36.395  21.342  25.731  1.00  0.00     0.071 C 
ATOM     94  C   UNL A   1      37.570  23.809  25.011  1.00  0.00     0.262 C 
ATOM     95  C   UNL A   1      36.952  21.592  24.322  1.00  0.00     0.262 C 
ATOM     96  H   UNL A   1      37.344  23.189  23.063  1.00  0.00     0.348 HD
ENDBRANCH  79  88
ENDBRANCH  74  77
ENDBRANCH  72  73
ENDBRANCH  71  72
ENDBRANCH   1  71
TORSDOF 11
ENDMDL
