MODEL 1
REMARK VINA RESULT:     -12.1      0.000      0.000
REMARK SMILES O=C(NCCCNC(=O)[C@H](NC(=O)c1ccc(Br)nc1)c1ccccc1)c1ccc(-c2c3nc(c(-c4c(F)c(F)c(F)c(F)c4F)c4ccc([nH]4)c(-c4c(F)c(F)c(F)c(F)c4F)c4nc(c(-c5c(F)c(F)c(F)c(F)c5F)c5ccc2[nH]5)C=C4)C=C3)cc1
REMARK SMILES IDX 5 1 4 2 3 3 1 4 2 5 27 7 28 8 89 9 29 10 88 11 30 12 31 13
REMARK SMILES IDX 32 14 82 15 33 16 87 17 81 18 83 19 34 20 86 21 80 22 79 23
REMARK SMILES IDX 35 25 67 26 47 27 66 28 48 29 51 30 65 31 84 32 49 33 50 34
REMARK SMILES IDX 64 36 85 37 52 38 36 39 37 40 45 41 38 42 39 43 43 44 46 45
REMARK SMILES IDX 40 46 41 47 44 48 42 49 68 50 69 51 77 52 70 53 71 54 75 55
REMARK SMILES IDX 78 56 72 57 73 58 76 59 74 60 53 61 54 62 62 63 55 64 56 65
REMARK SMILES IDX 60 66 63 67 57 68 58 69 61 70 59 71 6 72 7 73 8 74 9 76
REMARK SMILES IDX 10 77 21 78 22 79 26 80 23 81 25 82 24 83 11 84 12 85 13 87
REMARK SMILES IDX 14 88 15 89 20 90 16 91 19 92 17 93 18 94
REMARK H PARENT 3 6 83 24 51 35 7 75 11 86
REMARK Flexibility Score: inf
ROOT
ATOM      1  C   UNL A   1      32.924  27.778  25.580  1.00  0.00     0.042 C 
ENDROOT
BRANCH   1   2
ATOM      2  C   UNL A   1      33.371  29.121  25.022  1.00  0.00     0.118 C 
BRANCH   2   3
ATOM      3  N   UNL A   1      32.766  30.267  25.691  1.00  0.00    -0.352 N 
ATOM      4  O   UNL A   1      32.412  31.833  27.272  1.00  0.00    -0.269 OA
ATOM      5  C   UNL A   1      33.158  30.979  26.800  1.00  0.00     0.251 C 
ATOM      6  H   UNL A   1      31.932  30.586  25.276  1.00  0.00     0.163 HD
BRANCH   5   7
ATOM      7  C   UNL A   1      34.451  30.700  27.460  1.00  0.00     0.039 A 
ATOM      8  C   UNL A   1      34.750  29.430  27.942  1.00  0.00     0.014 A 
ATOM      9  C   UNL A   1      35.396  31.726  27.586  1.00  0.00     0.014 A 
ATOM     10  C   UNL A   1      35.864  29.240  28.746  1.00  0.00     0.010 A 
ATOM     11  C   UNL A   1      36.594  31.491  28.269  1.00  0.00     0.010 A 
ATOM     12  C   UNL A   1      36.818  30.258  28.895  1.00  0.00    -0.014 A 
BRANCH  12  13
ATOM     13  C   UNL A   1      38.060  29.962  29.657  1.00  0.00     0.031 A 
ATOM     14  C   UNL A   1      38.262  30.472  31.055  1.00  0.00     0.074 A 
ATOM     15  C   UNL A   1      38.984  29.162  29.086  1.00  0.00     0.049 A 
ATOM     16  N   UNL A   1      39.275  30.279  31.863  1.00  0.00    -0.248 NA
ATOM     17  C   UNL A   1      37.198  31.314  31.624  1.00  0.00     0.031 C 
ATOM     18  C   UNL A   1      38.897  28.611  27.730  1.00  0.00     0.029 A 
ATOM     19  N   UNL A   1      40.151  28.638  29.579  1.00  0.00    -0.354 N 
ATOM     20  C   UNL A   1      38.987  30.997  33.016  1.00  0.00     0.074 A 
ATOM     21  C   UNL A   1      37.711  31.645  32.801  1.00  0.00     0.031 C 
ATOM     22  C   UNL A   1      39.914  27.763  27.531  1.00  0.00     0.029 A 
ATOM     23  C   UNL A   1      40.775  27.779  28.706  1.00  0.00     0.049 A 
ATOM     24  H   UNL A   1      40.506  28.855  30.470  1.00  0.00     0.167 HD
ATOM     25  C   UNL A   1      39.722  31.099  34.150  1.00  0.00     0.037 A 
ATOM     26  C   UNL A   1      41.925  27.093  28.828  1.00  0.00     0.037 A 
ATOM     27  C   UNL A   1      40.978  30.427  34.366  1.00  0.00     0.049 A 
ATOM     28  C   UNL A   1      42.722  27.237  30.089  1.00  0.00     0.074 A 
ATOM     29  C   UNL A   1      41.790  30.452  35.486  1.00  0.00     0.029 A 
ATOM     30  N   UNL A   1      41.603  29.606  33.439  1.00  0.00    -0.354 N 
ATOM     31  N   UNL A   1      42.439  27.923  31.170  1.00  0.00    -0.248 NA
ATOM     32  C   UNL A   1      44.006  26.528  30.143  1.00  0.00     0.031 C 
ATOM     33  C   UNL A   1      42.924  29.677  35.223  1.00  0.00     0.029 A 
ATOM     34  C   UNL A   1      42.798  29.131  33.956  1.00  0.00     0.049 A 
ATOM     35  H   UNL A   1      41.250  29.391  32.545  1.00  0.00     0.167 HD
ATOM     36  C   UNL A   1      43.503  27.725  32.034  1.00  0.00     0.074 A 
ATOM     37  C   UNL A   1      44.427  26.833  31.363  1.00  0.00     0.031 C 
ATOM     38  C   UNL A   1      43.704  28.245  33.269  1.00  0.00     0.037 A 
BRANCH  25  39
ATOM     39  C   UNL A   1      39.199  31.985  35.244  1.00  0.00     0.064 A 
ATOM     40  C   UNL A   1      38.425  31.479  36.299  1.00  0.00     0.173 A 
ATOM     41  C   UNL A   1      39.520  33.351  35.264  1.00  0.00     0.173 A 
ATOM     42  F   UNL A   1      38.079  30.183  36.322  1.00  0.00    -0.203 F 
ATOM     43  C   UNL A   1      37.978  32.311  37.323  1.00  0.00     0.198 A 
ATOM     44  C   UNL A   1      39.093  34.175  36.303  1.00  0.00     0.198 A 
ATOM     45  F   UNL A   1      40.262  33.885  34.283  1.00  0.00    -0.203 F 
ATOM     46  F   UNL A   1      37.209  31.812  38.302  1.00  0.00    -0.200 F 
ATOM     47  C   UNL A   1      38.318  33.655  37.328  1.00  0.00     0.200 A 
ATOM     48  F   UNL A   1      39.432  35.471  36.312  1.00  0.00    -0.200 F 
ATOM     49  F   UNL A   1      37.894  34.452  38.320  1.00  0.00    -0.200 F 
ENDBRANCH  25  39
BRANCH  26  50
ATOM     50  C   UNL A   1      42.385  26.224  27.714  1.00  0.00     0.064 A 
ATOM     51  C   UNL A   1      41.850  24.943  27.529  1.00  0.00     0.173 A 
ATOM     52  C   UNL A   1      43.348  26.669  26.794  1.00  0.00     0.173 A 
ATOM     53  F   UNL A   1      40.940  24.467  28.393  1.00  0.00    -0.203 F 
ATOM     54  C   UNL A   1      42.263  24.137  26.470  1.00  0.00     0.198 A 
ATOM     55  C   UNL A   1      43.736  25.876  25.719  1.00  0.00     0.198 A 
ATOM     56  F   UNL A   1      43.887  27.890  26.926  1.00  0.00    -0.203 F 
ATOM     57  F   UNL A   1      41.759  22.904  26.334  1.00  0.00    -0.200 F 
ATOM     58  C   UNL A   1      43.198  24.608  25.560  1.00  0.00     0.200 A 
ATOM     59  F   UNL A   1      44.625  26.343  24.831  1.00  0.00    -0.200 F 
ATOM     60  F   UNL A   1      43.584  23.839  24.533  1.00  0.00    -0.200 F 
ENDBRANCH  26  50
BRANCH  38  61
ATOM     61  C   UNL A   1      44.962  27.842  33.976  1.00  0.00     0.064 A 
ATOM     62  C   UNL A   1      45.014  26.693  34.778  1.00  0.00     0.173 A 
ATOM     63  C   UNL A   1      46.132  28.603  33.834  1.00  0.00     0.173 A 
ATOM     64  F   UNL A   1      43.915  25.945  34.959  1.00  0.00    -0.203 F 
ATOM     65  C   UNL A   1      46.187  26.334  35.435  1.00  0.00     0.198 A 
ATOM     66  C   UNL A   1      47.310  28.226  34.470  1.00  0.00     0.198 A 
ATOM     67  F   UNL A   1      46.131  29.709  33.074  1.00  0.00    -0.203 F 
ATOM     68  F   UNL A   1      46.203  25.260  36.236  1.00  0.00    -0.200 F 
ATOM     69  C   UNL A   1      47.336  27.097  35.277  1.00  0.00     0.200 A 
ATOM     70  F   UNL A   1      48.420  28.959  34.310  1.00  0.00    -0.200 F 
ATOM     71  F   UNL A   1      48.465  26.750  35.909  1.00  0.00    -0.200 F 
ENDBRANCH  38  61
ENDBRANCH  12  13
ENDBRANCH   5   7
ENDBRANCH   2   3
ENDBRANCH   1   2
BRANCH   1  72
ATOM     72  C   UNL A   1      33.902  26.642  25.334  1.00  0.00     0.117 C 
BRANCH  72  73
ATOM     73  N   UNL A   1      33.565  25.438  26.071  1.00  0.00    -0.354 N 
ATOM     74  C   UNL A   1      33.934  24.145  25.863  1.00  0.00     0.247 C 
ATOM     75  H   UNL A   1      32.974  25.579  26.845  1.00  0.00     0.163 HD
ATOM     76  O   UNL A   1      33.490  23.307  26.656  1.00  0.00    -0.272 OA
BRANCH  74  77
ATOM     77  C   UNL A   1      34.767  23.708  24.623  1.00  0.00     0.202 C 
BRANCH  77  78
ATOM     78  C   UNL A   1      36.138  23.164  25.072  1.00  0.00    -0.016 A 
ATOM     79  C   UNL A   1      36.493  21.839  24.737  1.00  0.00     0.006 A 
ATOM     80  C   UNL A   1      37.060  23.893  25.845  1.00  0.00     0.006 A 
ATOM     81  C   UNL A   1      37.725  21.291  25.107  1.00  0.00     0.000 A 
ATOM     82  C   UNL A   1      38.291  23.341  26.221  1.00  0.00     0.000 A 
ATOM     83  C   UNL A   1      38.628  22.044  25.846  1.00  0.00     0.000 A 
ENDBRANCH  77  78
BRANCH  77  84
ATOM     84  N   UNL A   1      34.018  22.808  23.733  1.00  0.00    -0.336 N 
ATOM     85  C   UNL A   1      33.024  23.056  22.825  1.00  0.00     0.253 C 
ATOM     86  H   UNL A   1      34.279  21.862  23.802  1.00  0.00     0.165 HD
ATOM     87  O   UNL A   1      32.594  22.124  22.150  1.00  0.00    -0.269 OA
BRANCH  85  88
ATOM     88  C   UNL A   1      32.355  24.361  22.733  1.00  0.00     0.058 A 
ATOM     89  C   UNL A   1      32.827  25.424  21.970  1.00  0.00     0.018 A 
ATOM     90  C   UNL A   1      31.165  24.530  23.431  1.00  0.00     0.126 A 
ATOM     91  C   UNL A   1      32.115  26.626  21.975  1.00  0.00     0.037 A 
ATOM     92  N   UNL A   1      30.465  25.688  23.466  1.00  0.00    -0.249 NA
ATOM     93  C   UNL A   1      30.954  26.713  22.734  1.00  0.00     0.106 A 
ATOM     94  Br  UNL A   1      29.986  28.342  22.752  1.00  0.00    -0.029 Br
ENDBRANCH  85  88
ENDBRANCH  77  84
ENDBRANCH  74  77
ENDBRANCH  72  73
ENDBRANCH   1  72
TORSDOF 13
ENDMDL
MODEL 2
REMARK VINA RESULT:     -12.1      0.199      1.252
REMARK SMILES O=C(NCCCNC(=O)[C@H](NC(=O)c1ccc(Br)nc1)c1ccccc1)c1ccc(-c2c3nc(c(-c4c(F)c(F)c(F)c(F)c4F)c4ccc([nH]4)c(-c4c(F)c(F)c(F)c(F)c4F)c4nc(c(-c5c(F)c(F)c(F)c(F)c5F)c5ccc2[nH]5)C=C4)C=C3)cc1
REMARK SMILES IDX 5 1 4 2 3 3 1 4 2 5 27 7 28 8 89 9 29 10 88 11 30 12 31 13
REMARK SMILES IDX 32 14 82 15 33 16 87 17 81 18 83 19 34 20 86 21 80 22 79 23
REMARK SMILES IDX 35 25 67 26 47 27 66 28 48 29 51 30 65 31 84 32 49 33 50 34
REMARK SMILES IDX 64 36 85 37 52 38 36 39 37 40 45 41 38 42 39 43 43 44 46 45
REMARK SMILES IDX 40 46 41 47 44 48 42 49 68 50 69 51 77 52 70 53 71 54 75 55
REMARK SMILES IDX 78 56 72 57 73 58 76 59 74 60 53 61 54 62 62 63 55 64 56 65
REMARK SMILES IDX 60 66 63 67 57 68 58 69 61 70 59 71 6 72 7 73 8 74 9 76
REMARK SMILES IDX 10 77 21 78 22 79 26 80 23 81 25 82 24 83 11 84 12 85 13 87
REMARK SMILES IDX 14 88 15 89 20 90 16 91 19 92 17 93 18 94
REMARK H PARENT 3 6 83 24 51 35 7 75 11 86
REMARK Flexibility Score: inf
ROOT
ATOM      1  C   UNL A   1      32.778  27.887  25.581  1.00  0.00     0.042 C 
ENDROOT
BRANCH   1   2
ATOM      2  C   UNL A   1      33.311  29.222  25.083  1.00  0.00     0.118 C 
BRANCH   2   3
ATOM      3  N   UNL A   1      32.723  30.377  25.751  1.00  0.00    -0.352 N 
ATOM      4  O   UNL A   1      32.393  31.951  27.329  1.00  0.00    -0.269 OA
ATOM      5  C   UNL A   1      33.127  31.086  26.857  1.00  0.00     0.251 C 
ATOM      6  H   UNL A   1      31.892  30.705  25.338  1.00  0.00     0.163 HD
BRANCH   5   7
ATOM      7  C   UNL A   1      34.418  30.793  27.514  1.00  0.00     0.039 A 
ATOM      8  C   UNL A   1      34.701  29.522  28.004  1.00  0.00     0.014 A 
ATOM      9  C   UNL A   1      35.378  31.806  27.631  1.00  0.00     0.014 A 
ATOM     10  C   UNL A   1      35.814  29.321  28.805  1.00  0.00     0.010 A 
ATOM     11  C   UNL A   1      36.575  31.558  28.311  1.00  0.00     0.010 A 
ATOM     12  C   UNL A   1      36.783  30.325  28.944  1.00  0.00    -0.014 A 
BRANCH  12  13
ATOM     13  C   UNL A   1      38.024  30.017  29.703  1.00  0.00     0.031 A 
ATOM     14  C   UNL A   1      38.230  30.517  31.104  1.00  0.00     0.074 A 
ATOM     15  C   UNL A   1      38.942  29.214  29.127  1.00  0.00     0.049 A 
ATOM     16  N   UNL A   1      39.242  30.312  31.911  1.00  0.00    -0.248 NA
ATOM     17  C   UNL A   1      37.173  31.363  31.679  1.00  0.00     0.031 C 
ATOM     18  C   UNL A   1      38.851  28.671  27.768  1.00  0.00     0.029 A 
ATOM     19  N   UNL A   1      40.105  28.678  29.616  1.00  0.00    -0.354 N 
ATOM     20  C   UNL A   1      38.960  31.025  33.068  1.00  0.00     0.074 A 
ATOM     21  C   UNL A   1      37.688  31.684  32.857  1.00  0.00     0.031 C 
ATOM     22  C   UNL A   1      39.862  27.817  27.563  1.00  0.00     0.029 A 
ATOM     23  C   UNL A   1      40.723  27.821  28.738  1.00  0.00     0.049 A 
ATOM     24  H   UNL A   1      40.463  28.887  30.509  1.00  0.00     0.167 HD
ATOM     25  C   UNL A   1      39.696  31.116  34.202  1.00  0.00     0.037 A 
ATOM     26  C   UNL A   1      41.868  27.126  28.855  1.00  0.00     0.037 A 
ATOM     27  C   UNL A   1      40.948  30.434  34.413  1.00  0.00     0.049 A 
ATOM     28  C   UNL A   1      42.667  27.257  30.116  1.00  0.00     0.074 A 
ATOM     29  C   UNL A   1      41.760  30.447  35.533  1.00  0.00     0.029 A 
ATOM     30  N   UNL A   1      41.567  29.613  33.481  1.00  0.00    -0.354 N 
ATOM     31  N   UNL A   1      42.389  27.938  31.201  1.00  0.00    -0.248 NA
ATOM     32  C   UNL A   1      43.946  26.538  30.165  1.00  0.00     0.031 C 
ATOM     33  C   UNL A   1      42.889  29.664  35.265  1.00  0.00     0.029 A 
ATOM     34  C   UNL A   1      42.759  29.127  33.994  1.00  0.00     0.049 A 
ATOM     35  H   UNL A   1      41.212  29.406  32.586  1.00  0.00     0.167 HD
ATOM     36  C   UNL A   1      43.453  27.728  32.064  1.00  0.00     0.074 A 
ATOM     37  C   UNL A   1      44.370  26.833  31.387  1.00  0.00     0.031 C 
ATOM     38  C   UNL A   1      43.658  28.239  33.302  1.00  0.00     0.037 A 
BRANCH  25  39
ATOM     39  C   UNL A   1      39.180  31.998  35.302  1.00  0.00     0.064 A 
ATOM     40  C   UNL A   1      38.432  31.486  36.372  1.00  0.00     0.173 A 
ATOM     41  C   UNL A   1      39.482  33.369  35.311  1.00  0.00     0.173 A 
ATOM     42  F   UNL A   1      38.105  30.186  36.406  1.00  0.00    -0.203 F 
ATOM     43  C   UNL A   1      37.991  32.316  37.401  1.00  0.00     0.198 A 
ATOM     44  C   UNL A   1      39.062  34.191  36.353  1.00  0.00     0.198 A 
ATOM     45  F   UNL A   1      40.200  33.909  34.314  1.00  0.00    -0.203 F 
ATOM     46  F   UNL A   1      37.246  31.811  38.394  1.00  0.00    -0.200 F 
ATOM     47  C   UNL A   1      38.313  33.665  37.394  1.00  0.00     0.200 A 
ATOM     48  F   UNL A   1      39.383  35.492  36.352  1.00  0.00    -0.200 F 
ATOM     49  F   UNL A   1      37.895  34.460  38.390  1.00  0.00    -0.200 F 
ENDBRANCH  25  39
BRANCH  26  50
ATOM     50  C   UNL A   1      42.322  26.261  27.735  1.00  0.00     0.064 A 
ATOM     51  C   UNL A   1      41.761  24.994  27.530  1.00  0.00     0.173 A 
ATOM     52  C   UNL A   1      43.304  26.696  26.831  1.00  0.00     0.173 A 
ATOM     53  F   UNL A   1      40.833  24.527  28.378  1.00  0.00    -0.203 F 
ATOM     54  C   UNL A   1      42.168  24.192  26.465  1.00  0.00     0.198 A 
ATOM     55  C   UNL A   1      43.686  25.907  25.750  1.00  0.00     0.198 A 
ATOM     56  F   UNL A   1      43.867  27.903  26.983  1.00  0.00    -0.203 F 
ATOM     57  F   UNL A   1      41.640  22.971  26.309  1.00  0.00    -0.200 F 
ATOM     58  C   UNL A   1      43.124  24.653  25.571  1.00  0.00     0.200 A 
ATOM     59  F   UNL A   1      44.595  26.365  24.878  1.00  0.00    -0.200 F 
ATOM     60  F   UNL A   1      43.504  23.888  24.539  1.00  0.00    -0.200 F 
ENDBRANCH  26  50
BRANCH  38  61
ATOM     61  C   UNL A   1      44.914  27.823  34.005  1.00  0.00     0.064 A 
ATOM     62  C   UNL A   1      46.093  28.575  33.902  1.00  0.00     0.173 A 
ATOM     63  C   UNL A   1      44.932  26.670  34.803  1.00  0.00     0.173 A 
ATOM     64  F   UNL A   1      46.129  29.674  33.135  1.00  0.00    -0.203 F 
ATOM     65  C   UNL A   1      47.255  28.172  34.555  1.00  0.00     0.198 A 
ATOM     66  C   UNL A   1      46.088  26.285  35.476  1.00  0.00     0.198 A 
ATOM     67  F   UNL A   1      43.827  25.920  34.934  1.00  0.00    -0.203 F 
ATOM     68  F   UNL A   1      48.384  28.878  34.404  1.00  0.00    -0.200 F 
ATOM     69  C   UNL A   1      47.250  27.032  35.345  1.00  0.00     0.200 A 
ATOM     70  F   UNL A   1      46.080  25.189  36.246  1.00  0.00    -0.200 F 
ATOM     71  F   UNL A   1      48.369  26.646  35.973  1.00  0.00    -0.200 F 
ENDBRANCH  38  61
ENDBRANCH  12  13
ENDBRANCH   5   7
ENDBRANCH   2   3
ENDBRANCH   1   2
BRANCH   1  72
ATOM     72  C   UNL A   1      33.669  26.699  25.260  1.00  0.00     0.117 C 
BRANCH  72  73
ATOM     73  N   UNL A   1      33.412  25.555  26.115  1.00  0.00    -0.354 N 
ATOM     74  C   UNL A   1      33.756  24.247  25.964  1.00  0.00     0.247 C 
ATOM     75  H   UNL A   1      32.908  25.757  26.936  1.00  0.00     0.163 HD
ATOM     76  O   UNL A   1      33.400  23.472  26.859  1.00  0.00    -0.272 OA
BRANCH  74  77
ATOM     77  C   UNL A   1      34.450  23.714  24.677  1.00  0.00     0.202 C 
BRANCH  77  78
ATOM     78  C   UNL A   1      35.846  23.156  25.022  1.00  0.00    -0.016 A 
ATOM     79  C   UNL A   1      36.751  23.967  25.741  1.00  0.00     0.006 A 
ATOM     80  C   UNL A   1      36.307  21.887  24.628  1.00  0.00     0.006 A 
ATOM     81  C   UNL A   1      38.027  23.516  26.093  1.00  0.00     0.000 A 
ATOM     82  C   UNL A   1      37.588  21.437  24.974  1.00  0.00     0.000 A 
ATOM     83  C   UNL A   1      38.444  22.247  25.712  1.00  0.00     0.000 A 
ENDBRANCH  77  78
BRANCH  77  84
ATOM     84  N   UNL A   1      33.595  22.787  23.922  1.00  0.00    -0.336 N 
ATOM     85  C   UNL A   1      32.544  23.013  23.074  1.00  0.00     0.253 C 
ATOM     86  H   UNL A   1      33.819  21.837  24.047  1.00  0.00     0.165 HD
ATOM     87  O   UNL A   1      32.023  22.054  22.511  1.00  0.00    -0.269 OA
BRANCH  85  88
ATOM     88  C   UNL A   1      31.929  24.339  22.927  1.00  0.00     0.058 A 
ATOM     89  C   UNL A   1      32.387  25.315  22.048  1.00  0.00     0.018 A 
ATOM     90  C   UNL A   1      30.805  24.620  23.696  1.00  0.00     0.126 A 
ATOM     91  C   UNL A   1      31.730  26.548  22.009  1.00  0.00     0.037 A 
ATOM     92  N   UNL A   1      30.162  25.811  23.688  1.00  0.00    -0.249 NA
ATOM     93  C   UNL A   1      30.637  26.751  22.842  1.00  0.00     0.106 A 
ATOM     94  Br  UNL A   1      29.746  28.423  22.801  1.00  0.00    -0.029 Br
ENDBRANCH  85  88
ENDBRANCH  77  84
ENDBRANCH  74  77
ENDBRANCH  72  73
ENDBRANCH   1  72
TORSDOF 13
ENDMDL
MODEL 3
REMARK VINA RESULT:     -12.0      1.738      2.305
REMARK SMILES O=C(NCCCNC(=O)[C@H](NC(=O)c1ccc(Br)nc1)c1ccccc1)c1ccc(-c2c3nc(c(-c4c(F)c(F)c(F)c(F)c4F)c4ccc([nH]4)c(-c4c(F)c(F)c(F)c(F)c4F)c4nc(c(-c5c(F)c(F)c(F)c(F)c5F)c5ccc2[nH]5)C=C4)C=C3)cc1
REMARK SMILES IDX 5 1 4 2 3 3 1 4 2 5 27 7 28 8 89 9 29 10 88 11 30 12 31 13
REMARK SMILES IDX 32 14 82 15 33 16 87 17 81 18 83 19 34 20 86 21 80 22 79 23
REMARK SMILES IDX 35 25 67 26 47 27 66 28 48 29 51 30 65 31 84 32 49 33 50 34
REMARK SMILES IDX 64 36 85 37 52 38 36 39 37 40 45 41 38 42 39 43 43 44 46 45
REMARK SMILES IDX 40 46 41 47 44 48 42 49 68 50 69 51 77 52 70 53 71 54 75 55
REMARK SMILES IDX 78 56 72 57 73 58 76 59 74 60 53 61 54 62 62 63 55 64 56 65
REMARK SMILES IDX 60 66 63 67 57 68 58 69 61 70 59 71 6 72 7 73 8 74 9 76
REMARK SMILES IDX 10 77 21 78 22 79 26 80 23 81 25 82 24 83 11 84 12 85 13 87
REMARK SMILES IDX 14 88 15 89 20 90 16 91 19 92 17 93 18 94
REMARK H PARENT 3 6 83 24 51 35 7 75 11 86
REMARK Flexibility Score: inf
ROOT
ATOM      1  C   UNL A   1      32.369  27.994  25.394  1.00  0.00     0.042 C 
ENDROOT
BRANCH   1   2
ATOM      2  C   UNL A   1      33.267  29.210  25.225  1.00  0.00     0.118 C 
BRANCH   2   3
ATOM      3  N   UNL A   1      32.730  30.428  25.821  1.00  0.00    -0.352 N 
ATOM      4  O   UNL A   1      32.476  32.112  27.294  1.00  0.00    -0.269 OA
ATOM      5  C   UNL A   1      33.173  31.192  26.874  1.00  0.00     0.251 C 
ATOM      6  H   UNL A   1      31.906  30.758  25.395  1.00  0.00     0.163 HD
BRANCH   5   7
ATOM      7  C   UNL A   1      34.461  30.895  27.536  1.00  0.00     0.039 A 
ATOM      8  C   UNL A   1      34.756  29.612  27.984  1.00  0.00     0.014 A 
ATOM      9  C   UNL A   1      35.403  31.917  27.700  1.00  0.00     0.014 A 
ATOM     10  C   UNL A   1      35.863  29.399  28.791  1.00  0.00     0.010 A 
ATOM     11  C   UNL A   1      36.596  31.663  28.385  1.00  0.00     0.010 A 
ATOM     12  C   UNL A   1      36.815  30.412  28.978  1.00  0.00    -0.014 A 
BRANCH  12  13
ATOM     13  C   UNL A   1      38.051  30.095  29.741  1.00  0.00     0.031 A 
ATOM     14  C   UNL A   1      38.244  30.570  31.153  1.00  0.00     0.074 A 
ATOM     15  C   UNL A   1      38.978  29.307  29.157  1.00  0.00     0.049 A 
ATOM     16  N   UNL A   1      39.250  30.355  31.963  1.00  0.00    -0.248 NA
ATOM     17  C   UNL A   1      37.178  31.400  31.734  1.00  0.00     0.031 C 
ATOM     18  C   UNL A   1      38.899  28.789  27.788  1.00  0.00     0.029 A 
ATOM     19  N   UNL A   1      40.140  28.768  29.645  1.00  0.00    -0.354 N 
ATOM     20  C   UNL A   1      38.956  31.045  33.131  1.00  0.00     0.074 A 
ATOM     21  C   UNL A   1      37.683  31.702  32.922  1.00  0.00     0.031 C 
ATOM     22  C   UNL A   1      39.916  27.944  27.575  1.00  0.00     0.029 A 
ATOM     23  C   UNL A   1      40.768  27.929  28.757  1.00  0.00     0.049 A 
ATOM     24  H   UNL A   1      40.489  28.962  30.544  1.00  0.00     0.167 HD
ATOM     25  C   UNL A   1      39.683  31.118  34.272  1.00  0.00     0.037 A 
ATOM     26  C   UNL A   1      41.916  27.238  28.869  1.00  0.00     0.037 A 
ATOM     27  C   UNL A   1      40.936  30.438  34.480  1.00  0.00     0.049 A 
ATOM     28  C   UNL A   1      42.704  27.349  30.140  1.00  0.00     0.074 A 
ATOM     29  C   UNL A   1      41.740  30.434  35.607  1.00  0.00     0.029 A 
ATOM     30  N   UNL A   1      41.566  29.638  33.538  1.00  0.00    -0.354 N 
ATOM     31  N   UNL A   1      42.414  28.009  31.235  1.00  0.00    -0.248 NA
ATOM     32  C   UNL A   1      43.986  26.635  30.186  1.00  0.00     0.031 C 
ATOM     33  C   UNL A   1      42.874  29.662  35.333  1.00  0.00     0.029 A 
ATOM     34  C   UNL A   1      42.756  29.148  34.052  1.00  0.00     0.049 A 
ATOM     35  H   UNL A   1      41.219  29.445  32.637  1.00  0.00     0.167 HD
ATOM     36  C   UNL A   1      43.472  27.788  32.102  1.00  0.00     0.074 A 
ATOM     37  C   UNL A   1      44.398  26.910  31.415  1.00  0.00     0.031 C 
ATOM     38  C   UNL A   1      43.665  28.277  33.350  1.00  0.00     0.037 A 
BRANCH  25  39
ATOM     39  C   UNL A   1      39.154  31.978  35.384  1.00  0.00     0.064 A 
ATOM     40  C   UNL A   1      38.383  31.445  36.427  1.00  0.00     0.173 A 
ATOM     41  C   UNL A   1      39.467  33.345  35.432  1.00  0.00     0.173 A 
ATOM     42  F   UNL A   1      38.044  30.148  36.423  1.00  0.00    -0.203 F 
ATOM     43  C   UNL A   1      37.930  32.254  37.468  1.00  0.00     0.198 A 
ATOM     44  C   UNL A   1      39.034  34.145  36.487  1.00  0.00     0.198 A 
ATOM     45  F   UNL A   1      40.207  33.904  34.463  1.00  0.00    -0.203 F 
ATOM     46  F   UNL A   1      37.163  31.731  38.436  1.00  0.00    -0.200 F 
ATOM     47  C   UNL A   1      38.262  33.600  37.501  1.00  0.00     0.200 A 
ATOM     48  F   UNL A   1      39.366  35.443  36.523  1.00  0.00    -0.200 F 
ATOM     49  F   UNL A   1      37.833  34.374  38.508  1.00  0.00    -0.200 F 
ENDBRANCH  25  39
BRANCH  26  50
ATOM     50  C   UNL A   1      42.382  26.395  27.738  1.00  0.00     0.064 A 
ATOM     51  C   UNL A   1      41.869  25.108  27.537  1.00  0.00     0.173 A 
ATOM     52  C   UNL A   1      43.328  26.873  26.818  1.00  0.00     0.173 A 
ATOM     53  F   UNL A   1      40.975  24.601  28.401  1.00  0.00    -0.203 F 
ATOM     54  C   UNL A   1      42.287  24.327  26.462  1.00  0.00     0.198 A 
ATOM     55  C   UNL A   1      43.722  26.104  25.726  1.00  0.00     0.198 A 
ATOM     56  F   UNL A   1      43.846  28.101  26.964  1.00  0.00    -0.203 F 
ATOM     57  F   UNL A   1      41.805  23.086  26.310  1.00  0.00    -0.200 F 
ATOM     58  C   UNL A   1      43.206  24.829  25.552  1.00  0.00     0.200 A 
ATOM     59  F   UNL A   1      44.595  26.601  24.839  1.00  0.00    -0.200 F 
ATOM     60  F   UNL A   1      43.597  24.084  24.510  1.00  0.00    -0.200 F 
ENDBRANCH  26  50
BRANCH  38  61
ATOM     61  C   UNL A   1      44.917  27.853  34.056  1.00  0.00     0.064 A 
ATOM     62  C   UNL A   1      44.963  26.680  34.823  1.00  0.00     0.173 A 
ATOM     63  C   UNL A   1      46.087  28.620  33.949  1.00  0.00     0.173 A 
ATOM     64  F   UNL A   1      43.864  25.926  34.970  1.00  0.00    -0.203 F 
ATOM     65  C   UNL A   1      46.131  26.303  35.479  1.00  0.00     0.198 A 
ATOM     66  C   UNL A   1      47.260  28.225  34.584  1.00  0.00     0.198 A 
ATOM     67  F   UNL A   1      46.092  29.749  33.224  1.00  0.00    -0.203 F 
ATOM     68  F   UNL A   1      46.141  25.205  36.247  1.00  0.00    -0.200 F 
ATOM     69  C   UNL A   1      47.279  27.072  35.355  1.00  0.00     0.200 A 
ATOM     70  F   UNL A   1      48.371  28.964  34.457  1.00  0.00    -0.200 F 
ATOM     71  F   UNL A   1      48.403  26.707  35.987  1.00  0.00    -0.200 F 
ENDBRANCH  38  61
ENDBRANCH  12  13
ENDBRANCH   5   7
ENDBRANCH   2   3
ENDBRANCH   1   2
BRANCH   1  72
ATOM     72  C   UNL A   1      33.032  26.673  25.047  1.00  0.00     0.117 C 
BRANCH  72  73
ATOM     73  N   UNL A   1      33.342  26.551  23.634  1.00  0.00    -0.354 N 
ATOM     74  C   UNL A   1      33.487  25.445  22.856  1.00  0.00     0.247 C 
ATOM     75  H   UNL A   1      33.469  27.406  23.163  1.00  0.00     0.163 HD
ATOM     76  O   UNL A   1      33.759  25.636  21.665  1.00  0.00    -0.272 OA
BRANCH  74  77
ATOM     77  C   UNL A   1      33.443  24.004  23.443  1.00  0.00     0.202 C 
BRANCH  77  78
ATOM     78  C   UNL A   1      34.799  23.655  24.088  1.00  0.00    -0.016 A 
ATOM     79  C   UNL A   1      35.743  22.916  23.342  1.00  0.00     0.006 A 
ATOM     80  C   UNL A   1      35.152  23.989  25.408  1.00  0.00     0.006 A 
ATOM     81  C   UNL A   1      36.994  22.576  23.867  1.00  0.00     0.000 A 
ATOM     82  C   UNL A   1      36.403  23.642  25.936  1.00  0.00     0.000 A 
ATOM     83  C   UNL A   1      37.326  22.943  25.165  1.00  0.00     0.000 A 
ENDBRANCH  77  78
BRANCH  77  84
ATOM     84  N   UNL A   1      32.280  23.790  24.318  1.00  0.00    -0.336 N 
ATOM     85  C   UNL A   1      31.741  22.645  24.841  1.00  0.00     0.253 C 
ATOM     86  H   UNL A   1      31.808  24.614  24.572  1.00  0.00     0.165 HD
ATOM     87  O   UNL A   1      30.785  22.739  25.606  1.00  0.00    -0.269 OA
BRANCH  85  88
ATOM     88  C   UNL A   1      32.171  21.308  24.408  1.00  0.00     0.058 A 
ATOM     89  C   UNL A   1      32.064  20.842  23.102  1.00  0.00     0.018 A 
ATOM     90  C   UNL A   1      32.744  20.473  25.361  1.00  0.00     0.126 A 
ATOM     91  C   UNL A   1      32.491  19.543  22.813  1.00  0.00     0.037 A 
ATOM     92  N   UNL A   1      33.149  19.205  25.110  1.00  0.00    -0.249 NA
ATOM     93  C   UNL A   1      33.016  18.767  23.839  1.00  0.00     0.106 A 
ATOM     94  Br  UNL A   1      33.589  17.002  23.457  1.00  0.00    -0.029 Br
ENDBRANCH  85  88
ENDBRANCH  77  84
ENDBRANCH  74  77
ENDBRANCH  72  73
ENDBRANCH   1  72
TORSDOF 13
ENDMDL
