MODEL 1
REMARK VINA RESULT:     -14.4      0.000      0.000
REMARK SMILES Cc1ccc(-n2c(C)c(C[NH2+]Cc3ccc(F)cc3)c(C(=O)NCCCNC(=O)c3ccc(-c4c5nc(c(-c6c(F)c(F)c(F)c(F)c6F)c6ccc([nH]6)c(-c6c(F)c(F)c(F)c(F)c6F)c6nc(c(-c7c(F)c(F)c(F)c(F)c7F)c7ccc4[nH]7)C=C6)C=C5)cc3)c2C)cc1
REMARK SMILES IDX 24 1 23 2 21 3 22 4 20 6 6 7 7 8 93 9 8 10 9 11 94 12 5 13
REMARK SMILES IDX 1 14 2 15 3 16 96 17 4 18 95 19 10 20 11 21 12 24 13 25
REMARK SMILES IDX 14 26 19 27 15 28 18 29 16 30 17 31 25 32 26 33 27 34 28 35
REMARK SMILES IDX 29 37 30 38 31 39 92 40 32 41 91 42 33 43 34 44 35 45 85 46
REMARK SMILES IDX 36 47 90 48 84 49 86 50 37 51 89 52 83 53 82 54 38 56 70 57
REMARK SMILES IDX 50 58 69 59 51 60 54 61 68 62 87 63 52 64 53 65 67 67 88 68
REMARK SMILES IDX 55 69 39 70 40 71 48 72 41 73 42 74 46 75 49 76 43 77 44 78
REMARK SMILES IDX 47 79 45 80 71 81 72 82 80 83 73 84 74 85 78 86 81 87 75 88
REMARK SMILES IDX 76 89 79 90 77 91 56 92 57 93 65 94 58 95 59 96 63 97 66 98
REMARK SMILES IDX 60 99 61 100 64 101 62 102
REMARK H PARENT 23 5 11 22 11 23 27 36 86 55 54 66
REMARK Flexibility Score: inf
ROOT
ATOM      1  C   UNL A   1      33.726  28.883  27.189  1.00  0.00     0.118 C 
ENDROOT
BRANCH   1   2
ATOM      2  N   UNL A   1      32.431  28.277  27.433  1.00  0.00    -0.352 N 
ATOM      3  C   UNL A   1      31.704  27.280  26.836  1.00  0.00     0.253 C 
ATOM      4  O   UNL A   1      30.570  27.145  27.309  1.00  0.00    -0.269 OA
ATOM      5  H   UNL A   1      31.968  28.673  28.206  1.00  0.00     0.163 HD
BRANCH   3   6
ATOM      6  C   UNL A   1      32.174  26.375  25.763  1.00  0.00     0.069 A 
ATOM      7  N   UNL A   1      32.973  24.681  24.487  1.00  0.00    -0.317 N 
ATOM      8  C   UNL A   1      33.048  25.803  23.700  1.00  0.00     0.030 A 
ATOM      9  C   UNL A   1      32.572  25.038  25.771  1.00  0.00     0.033 A 
ATOM     10  C   UNL A   1      33.613  25.814  22.320  1.00  0.00     0.065 C 
ATOM     11  C   UNL A   1      32.420  26.830  24.398  1.00  0.00     0.040 A 
ATOM     12  C   UNL A   1      32.698  24.036  26.858  1.00  0.00     0.066 C 
BRANCH   7  13
ATOM     13  C   UNL A   1      33.315  23.351  24.137  1.00  0.00     0.046 A 
ATOM     14  C   UNL A   1      33.867  19.131  24.625  1.00  0.00     0.044 C 
ATOM     15  C   UNL A   1      33.697  20.598  24.357  1.00  0.00    -0.051 A 
ATOM     16  C   UNL A   1      34.754  21.485  24.620  1.00  0.00     0.005 A 
ATOM     17  C   UNL A   1      32.469  21.100  23.906  1.00  0.00     0.005 A 
ATOM     18  C   UNL A   1      34.570  22.866  24.510  1.00  0.00     0.027 A 
ATOM     19  C   UNL A   1      32.272  22.475  23.805  1.00  0.00     0.027 A 
ENDBRANCH   7  13
BRANCH  11  20
ATOM     20  C   UNL A   1      31.957  28.147  23.838  1.00  0.00     0.300 C 
BRANCH  20  21
ATOM     21  N   UNL A   1      30.915  28.029  22.840  1.00  0.00    -0.339 N 
ATOM     22  H   UNL A   1      30.831  27.044  22.589  1.00  0.00     0.346 HD
ATOM     23  H   UNL A   1      31.198  28.627  22.063  1.00  0.00     0.346 HD
BRANCH  21  24
ATOM     24  C   UNL A   1      29.581  28.508  23.259  1.00  0.00     0.297 C 
BRANCH  24  25
ATOM     25  C   UNL A   1      28.969  29.851  22.851  1.00  0.00     0.006 A 
ATOM     26  C   UNL A   1      28.456  29.931  21.536  1.00  0.00     0.012 A 
ATOM     27  C   UNL A   1      29.015  31.055  23.575  1.00  0.00     0.012 A 
ATOM     28  C   UNL A   1      28.027  31.145  20.982  1.00  0.00     0.040 A 
ATOM     29  C   UNL A   1      28.591  32.271  23.025  1.00  0.00     0.040 A 
ATOM     30  C   UNL A   1      28.107  32.306  21.732  1.00  0.00     0.123 A 
ATOM     31  F   UNL A   1      27.730  33.476  21.200  1.00  0.00    -0.207 F 
ENDBRANCH  24  25
ENDBRANCH  21  24
ENDBRANCH  20  21
ENDBRANCH  11  20
ENDBRANCH   3   6
ENDBRANCH   1   2
BRANCH   1  32
ATOM     32  C   UNL A   1      33.728  30.343  27.643  1.00  0.00     0.042 C 
BRANCH  32  33
ATOM     33  C   UNL A   1      35.023  31.111  27.485  1.00  0.00     0.118 C 
BRANCH  33  34
ATOM     34  N   UNL A   1      35.500  31.671  28.753  1.00  0.00    -0.352 N 
ATOM     35  C   UNL A   1      36.382  31.101  29.658  1.00  0.00     0.251 C 
ATOM     36  H   UNL A   1      35.151  32.560  28.992  1.00  0.00     0.163 HD
ATOM     37  O   UNL A   1      36.742  31.677  30.667  1.00  0.00    -0.269 OA
BRANCH  35  38
ATOM     38  C   UNL A   1      36.952  29.796  29.273  1.00  0.00     0.039 A 
ATOM     39  C   UNL A   1      37.343  28.960  30.320  1.00  0.00     0.014 A 
ATOM     40  C   UNL A   1      37.480  29.664  27.992  1.00  0.00     0.014 A 
ATOM     41  C   UNL A   1      38.464  28.158  30.147  1.00  0.00     0.010 A 
ATOM     42  C   UNL A   1      38.650  28.941  27.853  1.00  0.00     0.010 A 
ATOM     43  C   UNL A   1      39.183  28.255  28.954  1.00  0.00    -0.014 A 
BRANCH  43  44
ATOM     44  C   UNL A   1      40.545  27.746  28.819  1.00  0.00     0.031 A 
ATOM     45  C   UNL A   1      40.764  26.321  28.505  1.00  0.00     0.074 A 
ATOM     46  C   UNL A   1      41.617  28.561  28.956  1.00  0.00     0.049 A 
ATOM     47  N   UNL A   1      41.845  25.673  28.783  1.00  0.00    -0.248 NA
ATOM     48  C   UNL A   1      39.740  25.493  27.884  1.00  0.00     0.031 C 
ATOM     49  C   UNL A   1      43.009  28.242  28.641  1.00  0.00     0.029 A 
ATOM     50  N   UNL A   1      41.691  29.792  29.630  1.00  0.00    -0.354 N 
ATOM     51  C   UNL A   1      41.779  24.453  28.154  1.00  0.00     0.074 A 
ATOM     52  C   UNL A   1      40.424  24.369  27.656  1.00  0.00     0.031 C 
ATOM     53  C   UNL A   1      43.808  29.021  29.385  1.00  0.00     0.029 A 
ATOM     54  C   UNL A   1      42.960  29.793  30.270  1.00  0.00     0.049 A 
ATOM     55  H   UNL A   1      41.009  30.502  29.655  1.00  0.00     0.167 HD
ATOM     56  C   UNL A   1      42.914  23.706  28.029  1.00  0.00     0.037 A 
ATOM     57  C   UNL A   1      43.068  29.854  31.628  1.00  0.00     0.037 A 
ATOM     58  C   UNL A   1      44.039  24.297  28.758  1.00  0.00     0.049 A 
ATOM     59  C   UNL A   1      43.722  28.646  32.265  1.00  0.00     0.074 A 
ATOM     60  C   UNL A   1      45.164  25.027  28.407  1.00  0.00     0.029 A 
ATOM     61  N   UNL A   1      43.946  24.397  30.135  1.00  0.00    -0.354 N 
ATOM     62  N   UNL A   1      44.200  27.627  31.606  1.00  0.00    -0.248 NA
ATOM     63  C   UNL A   1      43.778  28.446  33.714  1.00  0.00     0.031 C 
ATOM     64  C   UNL A   1      45.748  25.553  29.597  1.00  0.00     0.029 A 
ATOM     65  C   UNL A   1      44.975  25.150  30.668  1.00  0.00     0.049 A 
ATOM     66  H   UNL A   1      43.231  23.983  30.671  1.00  0.00     0.167 HD
ATOM     67  C   UNL A   1      44.543  26.638  32.491  1.00  0.00     0.074 A 
ATOM     68  C   UNL A   1      44.264  27.199  33.799  1.00  0.00     0.031 C 
ATOM     69  C   UNL A   1      44.979  25.406  32.098  1.00  0.00     0.037 A 
BRANCH  56  70
ATOM     70  C   UNL A   1      43.053  22.563  27.046  1.00  0.00     0.064 A 
ATOM     71  C   UNL A   1      42.314  21.373  27.210  1.00  0.00     0.173 A 
ATOM     72  C   UNL A   1      43.946  22.549  25.959  1.00  0.00     0.173 A 
ATOM     73  F   UNL A   1      41.333  21.275  28.116  1.00  0.00    -0.203 F 
ATOM     74  C   UNL A   1      42.556  20.227  26.447  1.00  0.00     0.198 A 
ATOM     75  C   UNL A   1      44.239  21.386  25.240  1.00  0.00     0.198 A 
ATOM     76  F   UNL A   1      44.513  23.675  25.510  1.00  0.00    -0.203 F 
ATOM     77  F   UNL A   1      41.823  19.124  26.655  1.00  0.00    -0.200 F 
ATOM     78  C   UNL A   1      43.554  20.219  25.495  1.00  0.00     0.200 A 
ATOM     79  F   UNL A   1      45.192  21.411  24.297  1.00  0.00    -0.200 F 
ATOM     80  F   UNL A   1      43.827  19.104  24.803  1.00  0.00    -0.200 F 
ENDBRANCH  56  70
BRANCH  57  81
ATOM     81  C   UNL A   1      41.993  30.680  32.235  1.00  0.00     0.064 A 
ATOM     82  C   UNL A   1      42.092  32.080  32.104  1.00  0.00     0.173 A 
ATOM     83  C   UNL A   1      40.737  30.141  32.534  1.00  0.00     0.173 A 
ATOM     84  F   UNL A   1      43.278  32.645  31.826  1.00  0.00    -0.203 F 
ATOM     85  C   UNL A   1      40.957  32.884  32.101  1.00  0.00     0.198 A 
ATOM     86  C   UNL A   1      39.606  30.958  32.564  1.00  0.00     0.198 A 
ATOM     87  F   UNL A   1      40.577  28.817  32.660  1.00  0.00    -0.203 F 
ATOM     88  F   UNL A   1      41.063  34.188  31.808  1.00  0.00    -0.200 F 
ATOM     89  C   UNL A   1      39.710  32.315  32.298  1.00  0.00     0.200 A 
ATOM     90  F   UNL A   1      38.397  30.407  32.744  1.00  0.00    -0.200 F 
ATOM     91  F   UNL A   1      38.607  33.066  32.178  1.00  0.00    -0.200 F 
ENDBRANCH  57  81
BRANCH  69  92
ATOM     92  C   UNL A   1      45.410  24.334  33.061  1.00  0.00     0.064 A 
ATOM     93  C   UNL A   1      44.557  23.287  33.451  1.00  0.00     0.173 A 
ATOM     94  C   UNL A   1      46.664  24.379  33.707  1.00  0.00     0.173 A 
ATOM     95  F   UNL A   1      43.311  23.200  32.964  1.00  0.00    -0.203 F 
ATOM     96  C   UNL A   1      44.959  22.313  34.367  1.00  0.00     0.198 A 
ATOM     97  C   UNL A   1      47.042  23.436  34.661  1.00  0.00     0.198 A 
ATOM     98  F   UNL A   1      47.571  25.322  33.416  1.00  0.00    -0.203 F 
ATOM     99  F   UNL A   1      44.136  21.295  34.658  1.00  0.00    -0.200 F 
ATOM    100  C   UNL A   1      46.198  22.391  34.977  1.00  0.00     0.200 A 
ATOM    101  F   UNL A   1      48.235  23.541  35.265  1.00  0.00    -0.200 F 
ATOM    102  F   UNL A   1      46.575  21.464  35.867  1.00  0.00    -0.200 F 
ENDBRANCH  69  92
ENDBRANCH  43  44
ENDBRANCH  35  38
ENDBRANCH  33  34
ENDBRANCH  32  33
ENDBRANCH   1  32
TORSDOF 15
ENDMDL
MODEL 2
REMARK VINA RESULT:     -14.4      1.380      1.804
REMARK SMILES Cc1ccc(-n2c(C)c(C[NH2+]Cc3ccc(F)cc3)c(C(=O)NCCCNC(=O)c3ccc(-c4c5nc(c(-c6c(F)c(F)c(F)c(F)c6F)c6ccc([nH]6)c(-c6c(F)c(F)c(F)c(F)c6F)c6nc(c(-c7c(F)c(F)c(F)c(F)c7F)c7ccc4[nH]7)C=C6)C=C5)cc3)c2C)cc1
REMARK SMILES IDX 24 1 23 2 21 3 22 4 20 6 6 7 7 8 93 9 8 10 9 11 94 12 5 13
REMARK SMILES IDX 1 14 2 15 3 16 96 17 4 18 95 19 10 20 11 21 12 24 13 25
REMARK SMILES IDX 14 26 19 27 15 28 18 29 16 30 17 31 25 32 26 33 27 34 28 35
REMARK SMILES IDX 29 37 30 38 31 39 92 40 32 41 91 42 33 43 34 44 35 45 85 46
REMARK SMILES IDX 36 47 90 48 84 49 86 50 37 51 89 52 83 53 82 54 38 56 70 57
REMARK SMILES IDX 50 58 69 59 51 60 54 61 68 62 87 63 52 64 53 65 67 67 88 68
REMARK SMILES IDX 55 69 39 70 40 71 48 72 41 73 42 74 46 75 49 76 43 77 44 78
REMARK SMILES IDX 47 79 45 80 71 81 72 82 80 83 73 84 74 85 78 86 81 87 75 88
REMARK SMILES IDX 76 89 79 90 77 91 56 92 57 93 65 94 58 95 59 96 63 97 66 98
REMARK SMILES IDX 60 99 61 100 64 101 62 102
REMARK H PARENT 23 5 11 22 11 23 27 36 86 55 54 66
REMARK Flexibility Score: inf
ROOT
ATOM      1  C   UNL A   1      33.308  27.766  26.618  1.00  0.00     0.118 C 
ENDROOT
BRANCH   1   2
ATOM      2  N   UNL A   1      31.953  27.262  26.725  1.00  0.00    -0.352 N 
ATOM      3  C   UNL A   1      31.304  26.138  26.283  1.00  0.00     0.253 C 
ATOM      4  O   UNL A   1      30.089  26.149  26.506  1.00  0.00    -0.269 OA
ATOM      5  H   UNL A   1      31.364  27.866  27.231  1.00  0.00     0.163 HD
BRANCH   3   6
ATOM      6  C   UNL A   1      31.929  24.960  25.640  1.00  0.00     0.069 A 
ATOM      7  N   UNL A   1      32.870  22.969  25.104  1.00  0.00    -0.317 N 
ATOM      8  C   UNL A   1      33.174  23.813  24.064  1.00  0.00     0.030 A 
ATOM      9  C   UNL A   1      32.235  23.685  26.114  1.00  0.00     0.033 A 
ATOM     10  C   UNL A   1      34.011  23.422  22.894  1.00  0.00     0.065 C 
ATOM     11  C   UNL A   1      32.479  24.997  24.288  1.00  0.00     0.040 A 
ATOM     12  C   UNL A   1      32.073  23.044  27.443  1.00  0.00     0.066 C 
BRANCH   7  13
ATOM     13  C   UNL A   1      33.195  21.596  25.229  1.00  0.00     0.046 A 
ATOM     14  C   UNL A   1      34.494  17.694  24.026  1.00  0.00     0.044 C 
ATOM     15  C   UNL A   1      34.035  19.028  24.541  1.00  0.00    -0.051 A 
ATOM     16  C   UNL A   1      32.672  19.364  24.499  1.00  0.00     0.005 A 
ATOM     17  C   UNL A   1      34.965  19.967  25.008  1.00  0.00     0.005 A 
ATOM     18  C   UNL A   1      32.244  20.649  24.843  1.00  0.00     0.027 A 
ATOM     19  C   UNL A   1      34.550  21.254  25.342  1.00  0.00     0.027 A 
ENDBRANCH   7  13
BRANCH  11  20
ATOM     20  C   UNL A   1      32.222  26.093  23.289  1.00  0.00     0.300 C 
BRANCH  20  21
ATOM     21  N   UNL A   1      30.822  26.423  23.125  1.00  0.00    -0.339 N 
ATOM     22  H   UNL A   1      30.401  26.480  24.053  1.00  0.00     0.346 HD
ATOM     23  H   UNL A   1      30.425  25.687  22.540  1.00  0.00     0.346 HD
BRANCH  21  24
ATOM     24  C   UNL A   1      30.550  27.694  22.423  1.00  0.00     0.297 C 
BRANCH  24  25
ATOM     25  C   UNL A   1      29.637  28.805  22.950  1.00  0.00     0.006 A 
ATOM     26  C   UNL A   1      28.253  28.640  22.718  1.00  0.00     0.012 A 
ATOM     27  C   UNL A   1      30.035  30.044  23.483  1.00  0.00     0.012 A 
ATOM     28  C   UNL A   1      27.330  29.658  22.993  1.00  0.00     0.040 A 
ATOM     29  C   UNL A   1      29.118  31.065  23.757  1.00  0.00     0.040 A 
ATOM     30  C   UNL A   1      27.775  30.866  23.504  1.00  0.00     0.123 A 
ATOM     31  F   UNL A   1      26.905  31.856  23.740  1.00  0.00    -0.207 F 
ENDBRANCH  24  25
ENDBRANCH  21  24
ENDBRANCH  20  21
ENDBRANCH  11  20
ENDBRANCH   3   6
ENDBRANCH   1   2
BRANCH   1  32
ATOM     32  C   UNL A   1      33.531  28.917  27.600  1.00  0.00     0.042 C 
BRANCH  32  33
ATOM     33  C   UNL A   1      34.588  29.937  27.238  1.00  0.00     0.118 C 
BRANCH  33  34
ATOM     34  N   UNL A   1      34.988  30.760  28.383  1.00  0.00    -0.352 N 
ATOM     35  C   UNL A   1      36.054  30.560  29.246  1.00  0.00     0.251 C 
ATOM     36  H   UNL A   1      34.432  31.553  28.561  1.00  0.00     0.163 HD
ATOM     37  O   UNL A   1      36.318  31.334  30.145  1.00  0.00    -0.269 OA
BRANCH  35  38
ATOM     38  C   UNL A   1      36.923  29.406  28.944  1.00  0.00     0.039 A 
ATOM     39  C   UNL A   1      37.297  28.613  30.030  1.00  0.00     0.014 A 
ATOM     40  C   UNL A   1      37.666  29.436  27.767  1.00  0.00     0.014 A 
ATOM     41  C   UNL A   1      38.566  28.050  30.037  1.00  0.00     0.010 A 
ATOM     42  C   UNL A   1      38.962  28.958  27.816  1.00  0.00     0.010 A 
ATOM     43  C   UNL A   1      39.435  28.337  28.982  1.00  0.00    -0.014 A 
BRANCH  43  44
ATOM     44  C   UNL A   1      40.873  28.104  29.069  1.00  0.00     0.031 A 
ATOM     45  C   UNL A   1      41.454  26.886  28.472  1.00  0.00     0.074 A 
ATOM     46  C   UNL A   1      41.695  28.997  29.670  1.00  0.00     0.049 A 
ATOM     47  N   UNL A   1      42.572  26.358  28.840  1.00  0.00    -0.248 NA
ATOM     48  C   UNL A   1      40.777  26.132  27.427  1.00  0.00     0.031 C 
ATOM     49  C   UNL A   1      43.157  29.001  29.645  1.00  0.00     0.029 A 
ATOM     50  N   UNL A   1      41.365  29.971  30.629  1.00  0.00    -0.354 N 
ATOM     51  C   UNL A   1      42.898  25.382  27.929  1.00  0.00     0.074 A 
ATOM     52  C   UNL A   1      41.720  25.242  27.103  1.00  0.00     0.031 C 
ATOM     53  C   UNL A   1      43.605  29.639  30.736  1.00  0.00     0.029 A 
ATOM     54  C   UNL A   1      42.451  29.977  31.545  1.00  0.00     0.049 A 
ATOM     55  H   UNL A   1      40.554  30.529  30.659  1.00  0.00     0.167 HD
ATOM     56  C   UNL A   1      44.170  24.888  27.910  1.00  0.00     0.037 A 
ATOM     57  C   UNL A   1      42.272  29.651  32.857  1.00  0.00     0.037 A 
ATOM     58  C   UNL A   1      44.973  25.402  29.022  1.00  0.00     0.049 A 
ATOM     59  C   UNL A   1      43.032  28.424  33.313  1.00  0.00     0.074 A 
ATOM     60  C   UNL A   1      45.960  26.367  29.159  1.00  0.00     0.029 A 
ATOM     61  N   UNL A   1      44.589  25.078  30.311  1.00  0.00    -0.354 N 
ATOM     62  N   UNL A   1      43.841  27.730  32.561  1.00  0.00    -0.248 NA
ATOM     63  C   UNL A   1      42.842  27.818  34.632  1.00  0.00     0.031 C 
ATOM     64  C   UNL A   1      46.168  26.602  30.550  1.00  0.00     0.029 A 
ATOM     65  C   UNL A   1      45.304  25.788  31.256  1.00  0.00     0.049 A 
ATOM     66  H   UNL A   1      43.889  24.420  30.528  1.00  0.00     0.167 HD
ATOM     67  C   UNL A   1      44.207  26.589  33.226  1.00  0.00     0.074 A 
ATOM     68  C   UNL A   1      43.560  26.690  34.520  1.00  0.00     0.031 C 
ATOM     69  C   UNL A   1      44.970  25.609  32.658  1.00  0.00     0.037 A 
BRANCH  56  70
ATOM     70  C   UNL A   1      44.745  24.121  26.738  1.00  0.00     0.064 A 
ATOM     71  C   UNL A   1      44.422  22.763  26.533  1.00  0.00     0.173 A 
ATOM     72  C   UNL A   1      45.674  24.644  25.820  1.00  0.00     0.173 A 
ATOM     73  F   UNL A   1      43.460  22.156  27.240  1.00  0.00    -0.203 F 
ATOM     74  C   UNL A   1      45.079  21.969  25.588  1.00  0.00     0.198 A 
ATOM     75  C   UNL A   1      46.381  23.837  24.922  1.00  0.00     0.198 A 
ATOM     76  F   UNL A   1      45.878  25.962  25.711  1.00  0.00    -0.203 F 
ATOM     77  F   UNL A   1      44.729  20.682  25.444  1.00  0.00    -0.200 F 
ATOM     78  C   UNL A   1      46.094  22.494  24.817  1.00  0.00     0.200 A 
ATOM     79  F   UNL A   1      47.342  24.378  24.160  1.00  0.00    -0.200 F 
ATOM     80  F   UNL A   1      46.765  21.720  23.954  1.00  0.00    -0.200 F 
ENDBRANCH  56  70
BRANCH  57  81
ATOM     81  C   UNL A   1      40.945  30.088  33.362  1.00  0.00     0.064 A 
ATOM     82  C   UNL A   1      40.723  31.472  33.506  1.00  0.00     0.173 A 
ATOM     83  C   UNL A   1      39.825  29.253  33.292  1.00  0.00     0.173 A 
ATOM     84  F   UNL A   1      41.767  32.314  33.586  1.00  0.00    -0.203 F 
ATOM     85  C   UNL A   1      39.443  32.009  33.408  1.00  0.00     0.198 A 
ATOM     86  C   UNL A   1      38.541  29.796  33.229  1.00  0.00     0.198 A 
ATOM     87  F   UNL A   1      39.970  27.929  33.145  1.00  0.00    -0.203 F 
ATOM     88  F   UNL A   1      39.279  33.340  33.379  1.00  0.00    -0.200 F 
ATOM     89  C   UNL A   1      38.356  31.170  33.236  1.00  0.00     0.200 A 
ATOM     90  F   UNL A   1      37.488  28.985  33.052  1.00  0.00    -0.200 F 
ATOM     91  F   UNL A   1      37.139  31.689  33.023  1.00  0.00    -0.200 F 
ENDBRANCH  57  81
BRANCH  69  92
ATOM     92  C   UNL A   1      45.423  24.380  33.398  1.00  0.00     0.064 A 
ATOM     93  C   UNL A   1      44.572  23.286  33.630  1.00  0.00     0.173 A 
ATOM     94  C   UNL A   1      46.702  24.301  33.990  1.00  0.00     0.173 A 
ATOM     95  F   UNL A   1      43.306  23.296  33.186  1.00  0.00    -0.203 F 
ATOM     96  C   UNL A   1      44.995  22.162  34.341  1.00  0.00     0.198 A 
ATOM     97  C   UNL A   1      47.103  23.201  34.745  1.00  0.00     0.198 A 
ATOM     98  F   UNL A   1      47.609  25.275  33.834  1.00  0.00    -0.203 F 
ATOM     99  F   UNL A   1      44.170  21.114  34.481  1.00  0.00    -0.200 F 
ATOM    100  C   UNL A   1      46.258  22.122  34.905  1.00  0.00     0.200 A 
ATOM    101  F   UNL A   1      48.320  23.190  35.309  1.00  0.00    -0.200 F 
ATOM    102  F   UNL A   1      46.657  21.049  35.600  1.00  0.00    -0.200 F 
ENDBRANCH  69  92
ENDBRANCH  43  44
ENDBRANCH  35  38
ENDBRANCH  33  34
ENDBRANCH  32  33
ENDBRANCH   1  32
TORSDOF 15
ENDMDL
MODEL 3
REMARK VINA RESULT:     -14.1      3.789     10.675
REMARK SMILES Cc1ccc(-n2c(C)c(C[NH2+]Cc3ccc(F)cc3)c(C(=O)NCCCNC(=O)c3ccc(-c4c5nc(c(-c6c(F)c(F)c(F)c(F)c6F)c6ccc([nH]6)c(-c6c(F)c(F)c(F)c(F)c6F)c6nc(c(-c7c(F)c(F)c(F)c(F)c7F)c7ccc4[nH]7)C=C6)C=C5)cc3)c2C)cc1
REMARK SMILES IDX 24 1 23 2 21 3 22 4 20 6 6 7 7 8 93 9 8 10 9 11 94 12 5 13
REMARK SMILES IDX 1 14 2 15 3 16 96 17 4 18 95 19 10 20 11 21 12 24 13 25
REMARK SMILES IDX 14 26 19 27 15 28 18 29 16 30 17 31 25 32 26 33 27 34 28 35
REMARK SMILES IDX 29 37 30 38 31 39 92 40 32 41 91 42 33 43 34 44 35 45 85 46
REMARK SMILES IDX 36 47 90 48 84 49 86 50 37 51 89 52 83 53 82 54 38 56 70 57
REMARK SMILES IDX 50 58 69 59 51 60 54 61 68 62 87 63 52 64 53 65 67 67 88 68
REMARK SMILES IDX 55 69 39 70 40 71 48 72 41 73 42 74 46 75 49 76 43 77 44 78
REMARK SMILES IDX 47 79 45 80 71 81 72 82 80 83 73 84 74 85 78 86 81 87 75 88
REMARK SMILES IDX 76 89 79 90 77 91 56 92 57 93 65 94 58 95 59 96 63 97 66 98
REMARK SMILES IDX 60 99 61 100 64 101 62 102
REMARK H PARENT 23 5 11 22 11 23 27 36 86 55 54 66
REMARK Flexibility Score: inf
ROOT
ATOM      1  C   UNL A   1      36.579  23.214  25.428  1.00  0.00     0.118 C 
ENDROOT
BRANCH   1   2
ATOM      2  N   UNL A   1      36.009  23.201  24.095  1.00  0.00    -0.352 N 
ATOM      3  C   UNL A   1      34.797  23.554  23.560  1.00  0.00     0.253 C 
ATOM      4  O   UNL A   1      34.687  23.277  22.361  1.00  0.00    -0.269 OA
ATOM      5  H   UNL A   1      36.638  22.861  23.418  1.00  0.00     0.163 HD
BRANCH   3   6
ATOM      6  C   UNL A   1      33.696  24.248  24.266  1.00  0.00     0.069 A 
ATOM      7  N   UNL A   1      32.313  25.692  25.334  1.00  0.00    -0.317 N 
ATOM      8  C   UNL A   1      31.819  24.439  25.603  1.00  0.00     0.030 A 
ATOM      9  C   UNL A   1      33.515  25.579  24.640  1.00  0.00     0.033 A 
ATOM     10  C   UNL A   1      30.642  24.182  26.481  1.00  0.00     0.065 C 
ATOM     11  C   UNL A   1      32.552  23.541  24.834  1.00  0.00     0.040 A 
ATOM     12  C   UNL A   1      34.366  26.787  24.495  1.00  0.00     0.066 C 
BRANCH   7  13
ATOM     13  C   UNL A   1      31.780  26.940  25.739  1.00  0.00     0.046 A 
ATOM     14  C   UNL A   1      31.668  31.156  26.496  1.00  0.00     0.044 C 
ATOM     15  C   UNL A   1      31.610  29.675  26.254  1.00  0.00    -0.051 A 
ATOM     16  C   UNL A   1      32.003  28.785  27.268  1.00  0.00     0.005 A 
ATOM     17  C   UNL A   1      31.227  29.173  25.004  1.00  0.00     0.005 A 
ATOM     18  C   UNL A   1      32.089  27.413  27.017  1.00  0.00     0.027 A 
ATOM     19  C   UNL A   1      31.320  27.809  24.740  1.00  0.00     0.027 A 
ENDBRANCH   7  13
BRANCH  11  20
ATOM     20  C   UNL A   1      32.190  22.113  24.527  1.00  0.00     0.300 C 
BRANCH  20  21
ATOM     21  N   UNL A   1      32.680  21.161  25.501  1.00  0.00    -0.339 N 
ATOM     22  H   UNL A   1      31.898  20.573  25.788  1.00  0.00     0.346 HD
ATOM     23  H   UNL A   1      33.078  21.713  26.261  1.00  0.00     0.346 HD
BRANCH  21  24
ATOM     24  C   UNL A   1      33.766  20.276  25.029  1.00  0.00     0.297 C 
BRANCH  24  25
ATOM     25  C   UNL A   1      33.655  18.755  24.891  1.00  0.00     0.006 A 
ATOM     26  C   UNL A   1      32.632  18.132  25.642  1.00  0.00     0.012 A 
ATOM     27  C   UNL A   1      34.558  17.897  24.240  1.00  0.00     0.012 A 
ATOM     28  C   UNL A   1      32.531  16.738  25.741  1.00  0.00     0.040 A 
ATOM     29  C   UNL A   1      34.464  16.504  24.338  1.00  0.00     0.040 A 
ATOM     30  C   UNL A   1      33.456  15.937  25.092  1.00  0.00     0.123 A 
ATOM     31  F   UNL A   1      33.387  14.605  25.207  1.00  0.00    -0.207 F 
ENDBRANCH  24  25
ENDBRANCH  21  24
ENDBRANCH  20  21
ENDBRANCH  11  20
ENDBRANCH   3   6
ENDBRANCH   1   2
BRANCH   1  32
ATOM     32  C   UNL A   1      38.076  22.909  25.374  1.00  0.00     0.042 C 
BRANCH  32  33
ATOM     33  C   UNL A   1      38.838  22.961  26.681  1.00  0.00     0.118 C 
BRANCH  33  34
ATOM     34  N   UNL A   1      40.279  23.138  26.482  1.00  0.00    -0.352 N 
ATOM     35  C   UNL A   1      40.991  24.325  26.419  1.00  0.00     0.251 C 
ATOM     36  H   UNL A   1      40.807  22.313  26.382  1.00  0.00     0.163 HD
ATOM     37  O   UNL A   1      42.200  24.353  26.290  1.00  0.00    -0.269 OA
BRANCH  35  38
ATOM     38  C   UNL A   1      40.211  25.560  26.629  1.00  0.00     0.039 A 
ATOM     39  C   UNL A   1      40.774  26.738  26.135  1.00  0.00     0.014 A 
ATOM     40  C   UNL A   1      39.264  25.571  27.649  1.00  0.00     0.014 A 
ATOM     41  C   UNL A   1      40.584  27.915  26.847  1.00  0.00     0.010 A 
ATOM     42  C   UNL A   1      39.156  26.720  28.410  1.00  0.00     0.010 A 
ATOM     43  C   UNL A   1      39.880  27.867  28.052  1.00  0.00    -0.014 A 
BRANCH  43  44
ATOM     44  C   UNL A   1      39.939  28.945  29.034  1.00  0.00     0.031 A 
ATOM     45  C   UNL A   1      38.916  30.010  29.012  1.00  0.00     0.074 A 
ATOM     46  C   UNL A   1      40.903  28.979  29.984  1.00  0.00     0.049 A 
ATOM     47  N   UNL A   1      39.087  31.192  29.499  1.00  0.00    -0.248 NA
ATOM     48  C   UNL A   1      37.616  29.828  28.383  1.00  0.00     0.031 C 
ATOM     49  C   UNL A   1      40.959  29.866  31.146  1.00  0.00     0.029 A 
ATOM     50  N   UNL A   1      42.163  28.357  29.964  1.00  0.00    -0.354 N 
ATOM     51  C   UNL A   1      37.869  31.828  29.501  1.00  0.00     0.074 A 
ATOM     52  C   UNL A   1      36.999  30.957  28.742  1.00  0.00     0.031 C 
ATOM     53  C   UNL A   1      42.240  30.005  31.518  1.00  0.00     0.029 A 
ATOM     54  C   UNL A   1      43.053  29.296  30.551  1.00  0.00     0.049 A 
ATOM     55  H   UNL A   1      42.382  27.462  29.617  1.00  0.00     0.167 HD
ATOM     56  C   UNL A   1      37.712  32.963  30.242  1.00  0.00     0.037 A 
ATOM     57  C   UNL A   1      44.094  29.821  29.844  1.00  0.00     0.037 A 
ATOM     58  C   UNL A   1      38.978  33.416  30.822  1.00  0.00     0.049 A 
ATOM     59  C   UNL A   1      44.032  31.321  29.647  1.00  0.00     0.074 A 
ATOM     60  C   UNL A   1      39.561  33.359  32.079  1.00  0.00     0.029 A 
ATOM     61  N   UNL A   1      39.988  33.808  29.962  1.00  0.00    -0.354 N 
ATOM     62  N   UNL A   1      43.102  32.095  30.133  1.00  0.00    -0.248 NA
ATOM     63  C   UNL A   1      44.961  32.046  28.778  1.00  0.00     0.031 C 
ATOM     64  C   UNL A   1      40.931  33.737  31.956  1.00  0.00     0.029 A 
ATOM     65  C   UNL A   1      41.182  34.015  30.627  1.00  0.00     0.049 A 
ATOM     66  H   UNL A   1      39.871  33.925  28.991  1.00  0.00     0.167 HD
ATOM     67  C   UNL A   1      43.244  33.354  29.609  1.00  0.00     0.074 A 
ATOM     68  C   UNL A   1      44.423  33.275  28.769  1.00  0.00     0.031 C 
ATOM     69  C   UNL A   1      42.358  34.364  29.850  1.00  0.00     0.037 A 
BRANCH  56  70
ATOM     70  C   UNL A   1      36.359  33.520  30.630  1.00  0.00     0.064 A 
ATOM     71  C   UNL A   1      35.519  34.119  29.667  1.00  0.00     0.173 A 
ATOM     72  C   UNL A   1      35.858  33.559  31.944  1.00  0.00     0.173 A 
ATOM     73  F   UNL A   1      35.792  34.049  28.358  1.00  0.00    -0.203 F 
ATOM     74  C   UNL A   1      34.359  34.818  30.013  1.00  0.00     0.198 A 
ATOM     75  C   UNL A   1      34.737  34.315  32.301  1.00  0.00     0.198 A 
ATOM     76  F   UNL A   1      36.394  32.810  32.915  1.00  0.00    -0.203 F 
ATOM     77  F   UNL A   1      33.605  35.370  29.051  1.00  0.00    -0.200 F 
ATOM     78  C   UNL A   1      33.995  34.959  31.335  1.00  0.00     0.200 A 
ATOM     79  F   UNL A   1      34.384  34.411  33.591  1.00  0.00    -0.200 F 
ATOM     80  F   UNL A   1      32.916  35.678  31.673  1.00  0.00    -0.200 F 
ENDBRANCH  56  70
BRANCH  57  81
ATOM     81  C   UNL A   1      44.665  28.842  28.883  1.00  0.00     0.064 A 
ATOM     82  C   UNL A   1      45.421  27.775  29.410  1.00  0.00     0.173 A 
ATOM     83  C   UNL A   1      44.148  28.699  27.592  1.00  0.00     0.173 A 
ATOM     84  F   UNL A   1      45.945  27.868  30.643  1.00  0.00    -0.203 F 
ATOM     85  C   UNL A   1      45.508  26.558  28.741  1.00  0.00     0.198 A 
ATOM     86  C   UNL A   1      44.268  27.487  26.912  1.00  0.00     0.198 A 
ATOM     87  F   UNL A   1      43.412  29.674  27.041  1.00  0.00    -0.203 F 
ATOM     88  F   UNL A   1      46.090  25.509  29.340  1.00  0.00    -0.200 F 
ATOM     89  C   UNL A   1      44.901  26.405  27.507  1.00  0.00     0.200 A 
ATOM     90  F   UNL A   1      43.673  27.335  25.721  1.00  0.00    -0.200 F 
ATOM     91  F   UNL A   1      44.881  25.203  26.916  1.00  0.00    -0.200 F 
ENDBRANCH  57  81
BRANCH  69  92
ATOM     92  C   UNL A   1      42.535  35.763  29.325  1.00  0.00     0.064 A 
ATOM     93  C   UNL A   1      41.954  36.191  28.119  1.00  0.00     0.173 A 
ATOM     94  C   UNL A   1      43.380  36.694  29.966  1.00  0.00     0.173 A 
ATOM     95  F   UNL A   1      41.203  35.358  27.385  1.00  0.00    -0.203 F 
ATOM     96  C   UNL A   1      42.147  37.484  27.628  1.00  0.00     0.198 A 
ATOM     97  C   UNL A   1      43.615  37.965  29.445  1.00  0.00     0.198 A 
ATOM     98  F   UNL A   1      43.985  36.410  31.127  1.00  0.00    -0.203 F 
ATOM     99  F   UNL A   1      41.520  37.870  26.508  1.00  0.00    -0.200 F 
ATOM    100  C   UNL A   1      42.983  38.368  28.286  1.00  0.00     0.200 A 
ATOM    101  F   UNL A   1      44.449  38.800  30.080  1.00  0.00    -0.200 F 
ATOM    102  F   UNL A   1      43.179  39.602  27.805  1.00  0.00    -0.200 F 
ENDBRANCH  69  92
ENDBRANCH  43  44
ENDBRANCH  35  38
ENDBRANCH  33  34
ENDBRANCH  32  33
ENDBRANCH   1  32
TORSDOF 15
ENDMDL
