MODEL 1
REMARK VINA RESULT:     -11.2      0.000      0.000
REMARK SMILES C#CC[N@H+](CC(=O)NCCCNC(=O)c1ccc(-c2c3nc(c(-c4c(F)c(F)c(F)c(F)c4F)c4ccc([nH]4)c(-c4c(F)c(F)c(F)c(F)c4F)c4nc(c(-c5c(F)c(F)c(F)c(F)c5F)c5ccc2[nH]5)C=C4)C=C3)cc1)[C@H](C)c1ccccc1[N+](=O)[O-]
REMARK SMILES IDX 9 1 8 2 6 3 7 4 5 6 4 7 3 9 2 10 1 11 78 12 79 13 80 14
REMARK SMILES IDX 81 15 85 16 82 17 84 18 83 19 86 20 87 21 88 22 10 23 11 24
REMARK SMILES IDX 12 25 13 26 14 28 15 29 16 30 77 31 17 32 76 33 18 34 19 35
REMARK SMILES IDX 20 36 70 37 21 38 75 39 69 40 71 41 22 42 74 43 68 44 67 45
REMARK SMILES IDX 23 47 55 48 35 49 54 50 36 51 39 52 53 53 72 54 37 55 38 56
REMARK SMILES IDX 52 58 73 59 40 60 24 61 25 62 33 63 26 64 27 65 31 66 34 67
REMARK SMILES IDX 28 68 29 69 32 70 30 71 56 72 57 73 65 74 58 75 59 76 63 77
REMARK SMILES IDX 66 78 60 79 61 80 64 81 62 82 41 83 42 84 50 85 43 86 44 87
REMARK SMILES IDX 48 88 51 89 45 90 46 91 49 92 47 93
REMARK H PARENT 8 5 4 8 12 27 71 46 39 57
REMARK Flexibility Score: inf
ROOT
ATOM      1  C   UNL A   1      31.196  30.951  26.116  1.00  0.00     0.118 C 
ENDROOT
BRANCH   1   2
ATOM      2  N   UNL A   1      32.419  30.449  25.491  1.00  0.00    -0.351 N 
ATOM      3  C   UNL A   1      32.698  29.272  24.836  1.00  0.00     0.275 C 
ATOM      4  O   UNL A   1      33.855  29.105  24.448  1.00  0.00    -0.269 OA
ATOM      5  H   UNL A   1      33.183  31.068  25.552  1.00  0.00     0.163 HD
BRANCH   3   6
ATOM      6  C   UNL A   1      31.593  28.224  24.582  1.00  0.00     0.364 C 
BRANCH   6   7
ATOM      7  N   UNL A   1      32.080  26.846  24.223  1.00  0.00    -0.311 N 
ATOM      8  H   UNL A   1      32.880  26.886  23.590  1.00  0.00     0.349 HD
BRANCH   7   9
ATOM      9  C   UNL A   1      32.561  26.178  25.428  1.00  0.00     0.354 C 
BRANCH   9  10
ATOM     10  C   UNL A   1      33.824  25.434  25.444  1.00  0.00    -0.047 C 
ATOM     11  C   UNL A   1      34.734  24.648  25.455  1.00  0.00     0.010 C 
ENDBRANCH   9  10
ENDBRANCH   7   9
BRANCH   7  12
ATOM     12  C   UNL A   1      31.032  26.108  23.449  1.00  0.00     0.220 C 
ATOM     13  C   UNL A   1      29.621  26.067  24.092  1.00  0.00     0.081 C 
BRANCH  12  14
ATOM     14  C   UNL A   1      31.524  24.719  23.010  1.00  0.00     0.087 A 
ATOM     15  C   UNL A   1      31.031  23.577  23.693  1.00  0.00     0.017 A 
ATOM     16  C   UNL A   1      32.592  24.510  22.103  1.00  0.00     0.278 A 
ATOM     17  C   UNL A   1      31.625  22.319  23.564  1.00  0.00     0.001 A 
ATOM     18  C   UNL A   1      33.186  23.234  21.980  1.00  0.00     0.086 A 
ATOM     19  C   UNL A   1      32.719  22.153  22.727  1.00  0.00     0.007 A 
BRANCH  16  20
ATOM     20  N   UNL A   1      33.157  25.577  21.251  1.00  0.00     0.063 N 
ATOM     21  O   UNL A   1      33.880  26.424  21.802  1.00  0.00    -0.258 OA
ATOM     22  O   UNL A   1      32.971  25.530  20.029  1.00  0.00    -0.258 OA
ENDBRANCH  16  20
ENDBRANCH  12  14
ENDBRANCH   7  12
ENDBRANCH   6   7
ENDBRANCH   3   6
ENDBRANCH   1   2
BRANCH   1  23
ATOM     23  C   UNL A   1      31.266  32.439  26.488  1.00  0.00     0.042 C 
BRANCH  23  24
ATOM     24  C   UNL A   1      32.535  32.851  27.210  1.00  0.00     0.118 C 
BRANCH  24  25
ATOM     25  N   UNL A   1      32.473  34.241  27.612  1.00  0.00    -0.352 N 
ATOM     26  C   UNL A   1      33.088  34.867  28.668  1.00  0.00     0.251 C 
ATOM     27  H   UNL A   1      31.911  34.819  27.047  1.00  0.00     0.163 HD
ATOM     28  O   UNL A   1      32.660  35.952  29.051  1.00  0.00    -0.269 OA
BRANCH  26  29
ATOM     29  C   UNL A   1      34.247  34.249  29.359  1.00  0.00     0.039 A 
ATOM     30  C   UNL A   1      34.007  33.398  30.442  1.00  0.00     0.014 A 
ATOM     31  C   UNL A   1      35.565  34.542  28.994  1.00  0.00     0.014 A 
ATOM     32  C   UNL A   1      35.078  32.823  31.132  1.00  0.00     0.010 A 
ATOM     33  C   UNL A   1      36.628  33.888  29.614  1.00  0.00     0.010 A 
ATOM     34  C   UNL A   1      36.399  33.040  30.708  1.00  0.00    -0.014 A 
BRANCH  34  35
ATOM     35  C   UNL A   1      37.547  32.413  31.416  1.00  0.00     0.031 A 
ATOM     36  C   UNL A   1      38.296  31.268  30.787  1.00  0.00     0.074 A 
ATOM     37  C   UNL A   1      37.895  32.851  32.642  1.00  0.00     0.049 A 
ATOM     38  N   UNL A   1      39.299  30.571  31.262  1.00  0.00    -0.248 NA
ATOM     39  C   UNL A   1      37.846  30.831  29.456  1.00  0.00     0.031 C 
ATOM     40  C   UNL A   1      37.224  33.925  33.376  1.00  0.00     0.029 A 
ATOM     41  N   UNL A   1      38.895  32.445  33.491  1.00  0.00    -0.354 N 
ATOM     42  C   UNL A   1      39.588  29.614  30.298  1.00  0.00     0.074 A 
ATOM     43  C   UNL A   1      38.616  29.775  29.239  1.00  0.00     0.031 C 
ATOM     44  C   UNL A   1      37.851  34.115  34.547  1.00  0.00     0.029 A 
ATOM     45  C   UNL A   1      38.934  33.144  34.673  1.00  0.00     0.049 A 
ATOM     46  H   UNL A   1      39.526  31.721  33.272  1.00  0.00     0.167 HD
ATOM     47  C   UNL A   1      40.587  28.701  30.283  1.00  0.00     0.037 A 
ATOM     48  C   UNL A   1      39.743  33.011  35.741  1.00  0.00     0.037 A 
ATOM     49  C   UNL A   1      41.560  28.551  31.335  1.00  0.00     0.049 A 
ATOM     50  C   UNL A   1      40.824  31.963  35.715  1.00  0.00     0.074 A 
ATOM     51  C   UNL A   1      42.641  27.690  31.393  1.00  0.00     0.029 A 
ATOM     52  N   UNL A   1      41.561  29.274  32.519  1.00  0.00    -0.354 N 
ATOM     53  N   UNL A   1      41.131  31.112  34.766  1.00  0.00    -0.248 NA
ATOM     54  C   UNL A   1      41.676  31.863  36.907  1.00  0.00     0.031 C 
ATOM     55  C   UNL A   1      43.254  27.842  32.640  1.00  0.00     0.029 A 
ATOM     56  C   UNL A   1      42.605  28.853  33.328  1.00  0.00     0.049 A 
ATOM     57  H   UNL A   1      40.916  29.981  32.750  1.00  0.00     0.167 HD
ATOM     58  C   UNL A   1      42.229  30.400  35.230  1.00  0.00     0.074 A 
ATOM     59  C   UNL A   1      42.545  30.932  36.539  1.00  0.00     0.031 C 
ATOM     60  C   UNL A   1      42.913  29.396  34.628  1.00  0.00     0.037 A 
BRANCH  47  61
ATOM     61  C   UNL A   1      40.678  27.782  29.096  1.00  0.00     0.064 A 
ATOM     62  C   UNL A   1      39.849  26.655  28.966  1.00  0.00     0.173 A 
ATOM     63  C   UNL A   1      41.577  28.051  28.053  1.00  0.00     0.173 A 
ATOM     64  F   UNL A   1      38.976  26.343  29.936  1.00  0.00    -0.203 F 
ATOM     65  C   UNL A   1      39.943  25.817  27.858  1.00  0.00     0.198 A 
ATOM     66  C   UNL A   1      41.642  27.233  26.928  1.00  0.00     0.198 A 
ATOM     67  F   UNL A   1      42.388  29.119  28.117  1.00  0.00    -0.203 F 
ATOM     68  F   UNL A   1      39.183  24.716  27.787  1.00  0.00    -0.200 F 
ATOM     69  C   UNL A   1      40.833  26.110  26.836  1.00  0.00     0.200 A 
ATOM     70  F   UNL A   1      42.489  27.529  25.933  1.00  0.00    -0.200 F 
ATOM     71  F   UNL A   1      40.915  25.309  25.766  1.00  0.00    -0.200 F 
ENDBRANCH  47  61
BRANCH  48  72
ATOM     72  C   UNL A   1      39.569  33.897  36.924  1.00  0.00     0.064 A 
ATOM     73  C   UNL A   1      40.172  35.162  36.975  1.00  0.00     0.173 A 
ATOM     74  C   UNL A   1      38.808  33.495  38.032  1.00  0.00     0.173 A 
ATOM     75  F   UNL A   1      40.924  35.587  35.949  1.00  0.00    -0.203 F 
ATOM     76  C   UNL A   1      40.046  35.976  38.099  1.00  0.00     0.198 A 
ATOM     77  C   UNL A   1      38.651  34.325  39.139  1.00  0.00     0.198 A 
ATOM     78  F   UNL A   1      38.201  32.299  38.033  1.00  0.00    -0.203 F 
ATOM     79  F   UNL A   1      40.681  37.155  38.144  1.00  0.00    -0.200 F 
ATOM     80  C   UNL A   1      39.281  35.561  39.177  1.00  0.00     0.200 A 
ATOM     81  F   UNL A   1      37.893  33.927  40.170  1.00  0.00    -0.200 F 
ATOM     82  F   UNL A   1      39.156  36.345  40.256  1.00  0.00    -0.200 F 
ENDBRANCH  48  72
BRANCH  60  83
ATOM     83  C   UNL A   1      44.104  28.836  35.355  1.00  0.00     0.064 A 
ATOM     84  C   UNL A   1      45.397  29.345  35.167  1.00  0.00     0.173 A 
ATOM     85  C   UNL A   1      43.939  27.796  36.286  1.00  0.00     0.173 A 
ATOM     86  F   UNL A   1      45.613  30.329  34.281  1.00  0.00    -0.203 F 
ATOM     87  C   UNL A   1      46.485  28.814  35.857  1.00  0.00     0.198 A 
ATOM     88  C   UNL A   1      45.022  27.295  37.002  1.00  0.00     0.198 A 
ATOM     89  F   UNL A   1      42.723  27.277  36.511  1.00  0.00    -0.203 F 
ATOM     90  F   UNL A   1      47.719  29.276  35.615  1.00  0.00    -0.200 F 
ATOM     91  C   UNL A   1      46.295  27.796  36.779  1.00  0.00     0.200 A 
ATOM     92  F   UNL A   1      44.832  26.325  37.908  1.00  0.00    -0.200 F 
ATOM     93  F   UNL A   1      47.341  27.293  37.449  1.00  0.00    -0.200 F 
ENDBRANCH  60  83
ENDBRANCH  34  35
ENDBRANCH  26  29
ENDBRANCH  24  25
ENDBRANCH  23  24
ENDBRANCH   1  23
TORSDOF 16
ENDMDL
MODEL 2
REMARK VINA RESULT:     -11.2      0.826      7.307
REMARK SMILES C#CC[N@H+](CC(=O)NCCCNC(=O)c1ccc(-c2c3nc(c(-c4c(F)c(F)c(F)c(F)c4F)c4ccc([nH]4)c(-c4c(F)c(F)c(F)c(F)c4F)c4nc(c(-c5c(F)c(F)c(F)c(F)c5F)c5ccc2[nH]5)C=C4)C=C3)cc1)[C@H](C)c1ccccc1[N+](=O)[O-]
REMARK SMILES IDX 9 1 8 2 6 3 7 4 5 6 4 7 3 9 2 10 1 11 78 12 79 13 80 14
REMARK SMILES IDX 81 15 85 16 82 17 84 18 83 19 86 20 87 21 88 22 10 23 11 24
REMARK SMILES IDX 12 25 13 26 14 28 15 29 16 30 77 31 17 32 76 33 18 34 19 35
REMARK SMILES IDX 20 36 70 37 21 38 75 39 69 40 71 41 22 42 74 43 68 44 67 45
REMARK SMILES IDX 23 47 55 48 35 49 54 50 36 51 39 52 53 53 72 54 37 55 38 56
REMARK SMILES IDX 52 58 73 59 40 60 24 61 25 62 33 63 26 64 27 65 31 66 34 67
REMARK SMILES IDX 28 68 29 69 32 70 30 71 56 72 57 73 65 74 58 75 59 76 63 77
REMARK SMILES IDX 66 78 60 79 61 80 64 81 62 82 41 83 42 84 50 85 43 86 44 87
REMARK SMILES IDX 48 88 51 89 45 90 46 91 49 92 47 93
REMARK H PARENT 8 5 4 8 12 27 71 46 39 57
REMARK Flexibility Score: inf
ROOT
ATOM      1  C   UNL A   1      31.406  30.704  26.395  1.00  0.00     0.118 C 
ENDROOT
BRANCH   1   2
ATOM      2  N   UNL A   1      32.448  30.392  25.418  1.00  0.00    -0.351 N 
ATOM      3  C   UNL A   1      32.590  29.352  24.528  1.00  0.00     0.275 C 
ATOM      4  O   UNL A   1      33.617  29.328  23.849  1.00  0.00    -0.269 OA
ATOM      5  H   UNL A   1      33.184  31.045  25.394  1.00  0.00     0.163 HD
BRANCH   3   6
ATOM      6  C   UNL A   1      31.487  28.280  24.380  1.00  0.00     0.364 C 
BRANCH   6   7
ATOM      7  N   UNL A   1      31.980  26.869  24.198  1.00  0.00    -0.311 N 
ATOM      8  H   UNL A   1      32.810  26.837  23.606  1.00  0.00     0.349 HD
BRANCH   7   9
ATOM      9  C   UNL A   1      32.395  26.336  25.491  1.00  0.00     0.354 C 
BRANCH   9  10
ATOM     10  C   UNL A   1      33.592  25.502  25.632  1.00  0.00    -0.047 C 
ATOM     11  C   UNL A   1      34.437  24.652  25.737  1.00  0.00     0.010 C 
ENDBRANCH   9  10
ENDBRANCH   7   9
BRANCH   7  12
ATOM     12  C   UNL A   1      30.965  26.055  23.458  1.00  0.00     0.220 C 
ATOM     13  C   UNL A   1      29.574  25.933  24.134  1.00  0.00     0.081 C 
BRANCH  12  14
ATOM     14  C   UNL A   1      31.535  24.694  23.027  1.00  0.00     0.087 A 
ATOM     15  C   UNL A   1      31.111  23.529  23.719  1.00  0.00     0.017 A 
ATOM     16  C   UNL A   1      32.611  24.541  22.117  1.00  0.00     0.278 A 
ATOM     17  C   UNL A   1      31.778  22.307  23.596  1.00  0.00     0.001 A 
ATOM     18  C   UNL A   1      33.277  23.300  22.001  1.00  0.00     0.086 A 
ATOM     19  C   UNL A   1      32.877  22.199  22.757  1.00  0.00     0.007 A 
BRANCH  16  20
ATOM     20  N   UNL A   1      33.110  25.633  21.257  1.00  0.00     0.063 N 
ATOM     21  O   UNL A   1      33.804  26.512  21.795  1.00  0.00    -0.258 OA
ATOM     22  O   UNL A   1      32.903  25.578  20.038  1.00  0.00    -0.258 OA
ENDBRANCH  16  20
ENDBRANCH  12  14
ENDBRANCH   7  12
ENDBRANCH   6   7
ENDBRANCH   3   6
ENDBRANCH   1   2
BRANCH   1  23
ATOM     23  C   UNL A   1      31.399  32.176  26.832  1.00  0.00     0.042 C 
BRANCH  23  24
ATOM     24  C   UNL A   1      32.776  32.788  27.013  1.00  0.00     0.118 C 
BRANCH  24  25
ATOM     25  N   UNL A   1      32.682  34.102  27.615  1.00  0.00    -0.352 N 
ATOM     26  C   UNL A   1      33.280  34.579  28.756  1.00  0.00     0.251 C 
ATOM     27  H   UNL A   1      32.109  34.745  27.138  1.00  0.00     0.163 HD
ATOM     28  O   UNL A   1      32.827  35.587  29.291  1.00  0.00    -0.269 OA
BRANCH  26  29
ATOM     29  C   UNL A   1      34.451  33.890  29.355  1.00  0.00     0.039 A 
ATOM     30  C   UNL A   1      34.225  32.835  30.244  1.00  0.00     0.014 A 
ATOM     31  C   UNL A   1      35.761  34.308  29.102  1.00  0.00     0.014 A 
ATOM     32  C   UNL A   1      35.305  32.185  30.847  1.00  0.00     0.010 A 
ATOM     33  C   UNL A   1      36.839  33.594  29.622  1.00  0.00     0.010 A 
ATOM     34  C   UNL A   1      36.625  32.539  30.521  1.00  0.00    -0.014 A 
BRANCH  34  35
ATOM     35  C   UNL A   1      37.784  31.839  31.137  1.00  0.00     0.031 A 
ATOM     36  C   UNL A   1      38.232  32.189  32.531  1.00  0.00     0.074 A 
ATOM     37  C   UNL A   1      38.456  30.911  30.428  1.00  0.00     0.049 A 
ATOM     38  N   UNL A   1      39.238  31.716  33.223  1.00  0.00    -0.248 NA
ATOM     39  C   UNL A   1      37.461  33.227  33.235  1.00  0.00     0.031 C 
ATOM     40  C   UNL A   1      38.148  30.510  29.055  1.00  0.00     0.029 A 
ATOM     41  N   UNL A   1      39.542  30.139  30.762  1.00  0.00    -0.354 N 
ATOM     42  C   UNL A   1      39.226  32.403  34.431  1.00  0.00     0.074 A 
ATOM     43  C   UNL A   1      38.154  33.370  34.355  1.00  0.00     0.031 C 
ATOM     44  C   UNL A   1      39.000  29.545  28.676  1.00  0.00     0.029 A 
ATOM     45  C   UNL A   1      39.948  29.295  29.757  1.00  0.00     0.049 A 
ATOM     46  H   UNL A   1      39.987  30.187  31.639  1.00  0.00     0.167 HD
ATOM     47  C   UNL A   1      40.018  32.226  35.515  1.00  0.00     0.037 A 
ATOM     48  C   UNL A   1      40.976  28.426  29.708  1.00  0.00     0.037 A 
ATOM     49  C   UNL A   1      41.077  31.252  35.591  1.00  0.00     0.049 A 
ATOM     50  C   UNL A   1      41.865  28.274  30.914  1.00  0.00     0.074 A 
ATOM     51  C   UNL A   1      41.904  30.960  36.660  1.00  0.00     0.029 A 
ATOM     52  N   UNL A   1      41.462  30.420  34.549  1.00  0.00    -0.354 N 
ATOM     53  N   UNL A   1      41.798  28.878  32.075  1.00  0.00    -0.248 NA
ATOM     54  C   UNL A   1      42.969  27.312  30.803  1.00  0.00     0.031 C 
ATOM     55  C   UNL A   1      42.834  30.003  36.244  1.00  0.00     0.029 A 
ATOM     56  C   UNL A   1      42.538  29.639  34.941  1.00  0.00     0.049 A 
ATOM     57  H   UNL A   1      41.034  30.391  33.663  1.00  0.00     0.167 HD
ATOM     58  C   UNL A   1      42.826  28.348  32.843  1.00  0.00     0.074 A 
ATOM     59  C   UNL A   1      43.490  27.359  32.021  1.00  0.00     0.031 C 
ATOM     60  C   UNL A   1      43.186  28.653  34.115  1.00  0.00     0.037 A 
BRANCH  47  61
ATOM     61  C   UNL A   1      39.778  33.109  36.708  1.00  0.00     0.064 A 
ATOM     62  C   UNL A   1      38.825  32.787  37.688  1.00  0.00     0.173 A 
ATOM     63  C   UNL A   1      40.538  34.274  36.897  1.00  0.00     0.173 A 
ATOM     64  F   UNL A   1      38.063  31.691  37.557  1.00  0.00    -0.203 F 
ATOM     65  C   UNL A   1      38.619  33.615  38.790  1.00  0.00     0.198 A 
ATOM     66  C   UNL A   1      40.356  35.079  38.019  1.00  0.00     0.198 A 
ATOM     67  F   UNL A   1      41.470  34.627  35.998  1.00  0.00    -0.203 F 
ATOM     68  F   UNL A   1      37.663  33.317  39.680  1.00  0.00    -0.200 F 
ATOM     69  C   UNL A   1      39.390  34.755  38.959  1.00  0.00     0.200 A 
ATOM     70  F   UNL A   1      41.116  36.169  38.189  1.00  0.00    -0.200 F 
ATOM     71  F   UNL A   1      39.197  35.545  40.024  1.00  0.00    -0.200 F 
ENDBRANCH  47  61
BRANCH  48  72
ATOM     72  C   UNL A   1      41.217  27.625  28.477  1.00  0.00     0.064 A 
ATOM     73  C   UNL A   1      42.123  28.057  27.497  1.00  0.00     0.173 A 
ATOM     74  C   UNL A   1      40.538  26.419  28.246  1.00  0.00     0.173 A 
ATOM     75  F   UNL A   1      42.785  29.212  27.662  1.00  0.00    -0.203 F 
ATOM     76  C   UNL A   1      42.319  27.331  26.325  1.00  0.00     0.198 A 
ATOM     77  C   UNL A   1      40.762  25.674  27.091  1.00  0.00     0.198 A 
ATOM     78  F   UNL A   1      39.667  25.952  29.153  1.00  0.00    -0.203 F 
ATOM     79  F   UNL A   1      43.147  27.797  25.381  1.00  0.00    -0.200 F 
ATOM     80  C   UNL A   1      41.643  26.137  26.125  1.00  0.00     0.200 A 
ATOM     81  F   UNL A   1      40.123  24.510  26.912  1.00  0.00    -0.200 F 
ATOM     82  F   UNL A   1      41.835  25.436  24.999  1.00  0.00    -0.200 F 
ENDBRANCH  48  72
BRANCH  60  83
ATOM     83  C   UNL A   1      44.324  27.875  34.716  1.00  0.00     0.064 A 
ATOM     84  C   UNL A   1      45.655  28.307  34.614  1.00  0.00     0.173 A 
ATOM     85  C   UNL A   1      44.072  26.698  35.439  1.00  0.00     0.173 A 
ATOM     86  F   UNL A   1      45.954  29.418  33.923  1.00  0.00    -0.203 F 
ATOM     87  C   UNL A   1      46.693  27.573  35.184  1.00  0.00     0.198 A 
ATOM     88  C   UNL A   1      45.108  25.989  36.041  1.00  0.00     0.198 A 
ATOM     89  F   UNL A   1      42.818  26.243  35.575  1.00  0.00    -0.203 F 
ATOM     90  F   UNL A   1      47.961  27.974  35.022  1.00  0.00    -0.200 F 
ATOM     91  C   UNL A   1      46.418  26.421  35.904  1.00  0.00     0.200 A 
ATOM     92  F   UNL A   1      44.836  24.887  36.754  1.00  0.00    -0.200 F 
ATOM     93  F   UNL A   1      47.416  25.722  36.460  1.00  0.00    -0.200 F 
ENDBRANCH  60  83
ENDBRANCH  34  35
ENDBRANCH  26  29
ENDBRANCH  24  25
ENDBRANCH  23  24
ENDBRANCH   1  23
TORSDOF 16
ENDMDL
MODEL 3
REMARK VINA RESULT:     -11.1      5.768     11.118
REMARK SMILES C#CC[N@H+](CC(=O)NCCCNC(=O)c1ccc(-c2c3nc(c(-c4c(F)c(F)c(F)c(F)c4F)c4ccc([nH]4)c(-c4c(F)c(F)c(F)c(F)c4F)c4nc(c(-c5c(F)c(F)c(F)c(F)c5F)c5ccc2[nH]5)C=C4)C=C3)cc1)[C@H](C)c1ccccc1[N+](=O)[O-]
REMARK SMILES IDX 9 1 8 2 6 3 7 4 5 6 4 7 3 9 2 10 1 11 78 12 79 13 80 14
REMARK SMILES IDX 81 15 85 16 82 17 84 18 83 19 86 20 87 21 88 22 10 23 11 24
REMARK SMILES IDX 12 25 13 26 14 28 15 29 16 30 77 31 17 32 76 33 18 34 19 35
REMARK SMILES IDX 20 36 70 37 21 38 75 39 69 40 71 41 22 42 74 43 68 44 67 45
REMARK SMILES IDX 23 47 55 48 35 49 54 50 36 51 39 52 53 53 72 54 37 55 38 56
REMARK SMILES IDX 52 58 73 59 40 60 24 61 25 62 33 63 26 64 27 65 31 66 34 67
REMARK SMILES IDX 28 68 29 69 32 70 30 71 56 72 57 73 65 74 58 75 59 76 63 77
REMARK SMILES IDX 66 78 60 79 61 80 64 81 62 82 41 83 42 84 50 85 43 86 44 87
REMARK SMILES IDX 48 88 51 89 45 90 46 91 49 92 47 93
REMARK H PARENT 8 5 4 8 12 27 71 46 39 57
REMARK Flexibility Score: inf
ROOT
ATOM      1  C   UNL A   1      36.668  19.978  24.850  1.00  0.00     0.118 C 
ENDROOT
BRANCH   1   2
ATOM      2  N   UNL A   1      36.675  21.234  25.598  1.00  0.00    -0.351 N 
ATOM      3  C   UNL A   1      35.920  22.379  25.476  1.00  0.00     0.275 C 
ATOM      4  O   UNL A   1      36.187  23.312  26.235  1.00  0.00    -0.269 OA
ATOM      5  H   UNL A   1      37.342  21.267  26.321  1.00  0.00     0.163 HD
BRANCH   3   6
ATOM      6  C   UNL A   1      34.775  22.467  24.444  1.00  0.00     0.364 C 
BRANCH   6   7
ATOM      7  N   UNL A   1      33.676  23.439  24.782  1.00  0.00    -0.311 N 
ATOM      8  H   UNL A   1      33.532  23.504  25.790  1.00  0.00     0.349 HD
BRANCH   7   9
ATOM      9  C   UNL A   1      34.069  24.776  24.350  1.00  0.00     0.354 C 
BRANCH   9  10
ATOM     10  C   UNL A   1      33.937  25.940  25.231  1.00  0.00    -0.047 C 
ATOM     11  C   UNL A   1      33.647  26.799  26.022  1.00  0.00     0.010 C 
ENDBRANCH   9  10
ENDBRANCH   7   9
BRANCH   7  12
ATOM     12  C   UNL A   1      32.365  22.947  24.252  1.00  0.00     0.220 C 
ATOM     13  C   UNL A   1      32.403  22.316  22.835  1.00  0.00     0.081 C 
BRANCH  12  14
ATOM     14  C   UNL A   1      31.260  24.006  24.399  1.00  0.00     0.087 A 
ATOM     15  C   UNL A   1      30.928  24.803  23.272  1.00  0.00     0.017 A 
ATOM     16  C   UNL A   1      30.689  24.384  25.640  1.00  0.00     0.278 A 
ATOM     17  C   UNL A   1      30.159  25.964  23.382  1.00  0.00     0.001 A 
ATOM     18  C   UNL A   1      29.912  25.560  25.739  1.00  0.00     0.086 A 
ATOM     19  C   UNL A   1      29.672  26.357  24.621  1.00  0.00     0.007 A 
BRANCH  16  20
ATOM     20  N   UNL A   1      30.864  23.609  26.885  1.00  0.00     0.063 N 
ATOM     21  O   UNL A   1      31.982  23.642  27.425  1.00  0.00    -0.258 OA
ATOM     22  O   UNL A   1      29.881  23.048  27.385  1.00  0.00    -0.258 OA
ENDBRANCH  16  20
ENDBRANCH  12  14
ENDBRANCH   7  12
ENDBRANCH   6   7
ENDBRANCH   3   6
ENDBRANCH   1   2
BRANCH   1  23
ATOM     23  C   UNL A   1      37.970  19.175  24.992  1.00  0.00     0.042 C 
BRANCH  23  24
ATOM     24  C   UNL A   1      39.070  19.886  25.757  1.00  0.00     0.118 C 
BRANCH  24  25
ATOM     25  N   UNL A   1      40.168  18.985  26.041  1.00  0.00    -0.352 N 
ATOM     26  C   UNL A   1      41.507  19.261  26.168  1.00  0.00     0.251 C 
ATOM     27  H   UNL A   1      39.918  18.040  26.160  1.00  0.00     0.163 HD
ATOM     28  O   UNL A   1      42.318  18.344  26.072  1.00  0.00    -0.269 OA
BRANCH  26  29
ATOM     29  C   UNL A   1      41.987  20.646  26.407  1.00  0.00     0.039 A 
ATOM     30  C   UNL A   1      42.272  21.039  27.718  1.00  0.00     0.014 A 
ATOM     31  C   UNL A   1      42.100  21.576  25.369  1.00  0.00     0.014 A 
ATOM     32  C   UNL A   1      42.697  22.344  27.980  1.00  0.00     0.010 A 
ATOM     33  C   UNL A   1      42.624  22.844  25.617  1.00  0.00     0.010 A 
ATOM     34  C   UNL A   1      42.905  23.252  26.929  1.00  0.00    -0.014 A 
BRANCH  34  35
ATOM     35  C   UNL A   1      43.382  24.637  27.191  1.00  0.00     0.031 A 
ATOM     36  C   UNL A   1      42.442  25.673  27.747  1.00  0.00     0.074 A 
ATOM     37  C   UNL A   1      44.654  24.971  26.897  1.00  0.00     0.049 A 
ATOM     38  N   UNL A   1      42.661  26.937  28.009  1.00  0.00    -0.248 NA
ATOM     39  C   UNL A   1      41.063  25.239  28.023  1.00  0.00     0.031 C 
ATOM     40  C   UNL A   1      45.651  24.071  26.318  1.00  0.00     0.029 A 
ATOM     41  N   UNL A   1      45.324  26.162  27.039  1.00  0.00    -0.354 N 
ATOM     42  C   UNL A   1      41.453  27.447  28.468  1.00  0.00     0.074 A 
ATOM     43  C   UNL A   1      40.486  26.374  28.389  1.00  0.00     0.031 C 
ATOM     44  C   UNL A   1      46.814  24.729  26.186  1.00  0.00     0.029 A 
ATOM     45  C   UNL A   1      46.632  26.110  26.620  1.00  0.00     0.049 A 
ATOM     46  H   UNL A   1      44.908  26.974  27.407  1.00  0.00     0.167 HD
ATOM     47  C   UNL A   1      41.179  28.686  28.938  1.00  0.00     0.037 A 
ATOM     48  C   UNL A   1      47.575  27.071  26.580  1.00  0.00     0.037 A 
ATOM     49  C   UNL A   1      42.148  29.749  29.027  1.00  0.00     0.049 A 
ATOM     50  C   UNL A   1      47.234  28.452  27.075  1.00  0.00     0.074 A 
ATOM     51  C   UNL A   1      41.984  31.025  29.534  1.00  0.00     0.029 A 
ATOM     52  N   UNL A   1      43.461  29.660  28.586  1.00  0.00    -0.354 N 
ATOM     53  N   UNL A   1      46.108  28.901  27.573  1.00  0.00    -0.248 NA
ATOM     54  C   UNL A   1      48.301  29.460  27.007  1.00  0.00     0.031 C 
ATOM     55  C   UNL A   1      43.174  31.730  29.335  1.00  0.00     0.029 A 
ATOM     56  C   UNL A   1      44.107  30.871  28.778  1.00  0.00     0.049 A 
ATOM     57  H   UNL A   1      43.871  28.855  28.194  1.00  0.00     0.167 HD
ATOM     58  C   UNL A   1      46.339  30.228  27.909  1.00  0.00     0.074 A 
ATOM     59  C   UNL A   1      47.719  30.507  27.574  1.00  0.00     0.031 C 
ATOM     60  C   UNL A   1      45.484  31.134  28.446  1.00  0.00     0.037 A 
BRANCH  47  61
ATOM     61  C   UNL A   1      39.771  28.970  29.387  1.00  0.00     0.064 A 
ATOM     62  C   UNL A   1      38.793  29.445  28.499  1.00  0.00     0.173 A 
ATOM     63  C   UNL A   1      39.383  28.726  30.713  1.00  0.00     0.173 A 
ATOM     64  F   UNL A   1      39.108  29.704  27.221  1.00  0.00    -0.203 F 
ATOM     65  C   UNL A   1      37.493  29.698  28.930  1.00  0.00     0.198 A 
ATOM     66  C   UNL A   1      38.073  28.944  31.132  1.00  0.00     0.198 A 
ATOM     67  F   UNL A   1      40.273  28.263  31.605  1.00  0.00    -0.203 F 
ATOM     68  F   UNL A   1      36.593  30.207  28.077  1.00  0.00    -0.200 F 
ATOM     69  C   UNL A   1      37.131  29.439  30.243  1.00  0.00     0.200 A 
ATOM     70  F   UNL A   1      37.722  28.675  32.397  1.00  0.00    -0.200 F 
ATOM     71  F   UNL A   1      35.878  29.674  30.655  1.00  0.00    -0.200 F 
ENDBRANCH  47  61
BRANCH  48  72
ATOM     72  C   UNL A   1      48.934  26.761  26.060  1.00  0.00     0.064 A 
ATOM     73  C   UNL A   1      49.932  26.247  26.903  1.00  0.00     0.173 A 
ATOM     74  C   UNL A   1      49.271  26.983  24.717  1.00  0.00     0.173 A 
ATOM     75  F   UNL A   1      49.666  26.033  28.200  1.00  0.00    -0.203 F 
ATOM     76  C   UNL A   1      51.217  25.996  26.429  1.00  0.00     0.198 A 
ATOM     77  C   UNL A   1      50.546  26.696  24.235  1.00  0.00     0.198 A 
ATOM     78  F   UNL A   1      48.354  27.465  23.864  1.00  0.00    -0.203 F 
ATOM     79  F   UNL A   1      52.165  25.560  27.269  1.00  0.00    -0.200 F 
ATOM     80  C   UNL A   1      51.522  26.214  25.094  1.00  0.00     0.200 A 
ATOM     81  F   UNL A   1      50.829  26.889  22.940  1.00  0.00    -0.200 F 
ATOM     82  F   UNL A   1      52.757  25.968  24.637  1.00  0.00    -0.200 F 
ENDBRANCH  48  72
BRANCH  60  83
ATOM     83  C   UNL A   1      46.028  32.502  28.751  1.00  0.00     0.064 A 
ATOM     84  C   UNL A   1      46.650  32.799  29.973  1.00  0.00     0.173 A 
ATOM     85  C   UNL A   1      45.959  33.521  27.787  1.00  0.00     0.173 A 
ATOM     86  F   UNL A   1      46.733  31.866  30.934  1.00  0.00    -0.203 F 
ATOM     87  C   UNL A   1      47.152  34.073  30.231  1.00  0.00     0.198 A 
ATOM     88  C   UNL A   1      46.497  34.781  28.034  1.00  0.00     0.198 A 
ATOM     89  F   UNL A   1      45.382  33.291  26.599  1.00  0.00    -0.203 F 
ATOM     90  F   UNL A   1      47.688  34.349  31.427  1.00  0.00    -0.200 F 
ATOM     91  C   UNL A   1      47.083  35.059  29.259  1.00  0.00     0.200 A 
ATOM     92  F   UNL A   1      46.447  35.726  27.085  1.00  0.00    -0.200 F 
ATOM     93  F   UNL A   1      47.575  36.281  29.506  1.00  0.00    -0.200 F 
ENDBRANCH  60  83
ENDBRANCH  34  35
ENDBRANCH  26  29
ENDBRANCH  24  25
ENDBRANCH  23  24
ENDBRANCH   1  23
TORSDOF 16
ENDMDL
