MODEL 1
REMARK VINA RESULT:     -11.0      0.000      0.000
REMARK SMILES O=C(NCCCNC(=O)c1ccccc1NC(=O)c1ccc(N2C(=O)[C@H]3CC=CC[C@H]3C2=O)cc1)c1ccc(-c2c3nc(c(-c4c(F)c(F)c(F)c(F)c4F)c4ccc([nH]4)c(-c4c(F)c(F)c(F)c(F)c4F)c4nc(c(-c5c(F)c(F)c(F)c(F)c5F)c5ccc2[nH]5)C=C4)C=C3)cc1
REMARK SMILES IDX 5 1 4 2 3 3 1 4 2 5 36 7 37 8 98 9 38 10 97 11 39 12 40 13
REMARK SMILES IDX 41 14 91 15 42 16 96 17 90 18 92 19 43 20 95 21 89 22 88 23
REMARK SMILES IDX 44 25 76 26 56 27 75 28 57 29 60 30 74 31 93 32 58 33 59 34
REMARK SMILES IDX 73 36 94 37 61 38 45 39 46 40 54 41 47 42 48 43 52 44 55 45
REMARK SMILES IDX 49 46 50 47 53 48 51 49 77 50 78 51 86 52 79 53 80 54 84 55
REMARK SMILES IDX 87 56 81 57 82 58 85 59 83 60 62 61 63 62 71 63 64 64 65 65
REMARK SMILES IDX 69 66 72 67 66 68 67 69 70 70 68 71 6 72 7 73 8 74 9 76
REMARK SMILES IDX 10 77 11 78 15 79 12 80 14 81 13 82 16 83 17 84 18 86 19 87
REMARK SMILES IDX 20 88 35 89 21 90 34 91 22 92 23 93 24 94 32 95 25 96 26 97
REMARK SMILES IDX 31 98 33 99 27 100 30 101 28 102 29 103
REMARK H PARENT 3 6 92 24 60 35 7 75 16 85
REMARK Flexibility Score: inf
ROOT
ATOM      1  C   UNL A   1      33.647  33.631  28.461  1.00  0.00     0.042 C 
ENDROOT
BRANCH   1   2
ATOM      2  C   UNL A   1      34.563  32.560  27.892  1.00  0.00     0.118 C 
BRANCH   2   3
ATOM      3  N   UNL A   1      33.923  31.256  27.771  1.00  0.00    -0.352 N 
ATOM      4  O   UNL A   1      33.754  29.020  27.553  1.00  0.00    -0.269 OA
ATOM      5  C   UNL A   1      34.456  29.991  27.823  1.00  0.00     0.251 C 
ATOM      6  H   UNL A   1      32.950  31.288  27.628  1.00  0.00     0.163 HD
BRANCH   5   7
ATOM      7  C   UNL A   1      35.878  29.791  28.170  1.00  0.00     0.039 A 
ATOM      8  C   UNL A   1      36.887  30.072  27.250  1.00  0.00     0.014 A 
ATOM      9  C   UNL A   1      36.209  29.328  29.447  1.00  0.00     0.014 A 
ATOM     10  C   UNL A   1      38.198  29.715  27.532  1.00  0.00     0.010 A 
ATOM     11  C   UNL A   1      37.547  29.080  29.773  1.00  0.00     0.010 A 
ATOM     12  C   UNL A   1      38.548  29.236  28.804  1.00  0.00    -0.014 A 
BRANCH  12  13
ATOM     13  C   UNL A   1      39.978  28.971  29.103  1.00  0.00     0.031 A 
ATOM     14  C   UNL A   1      40.662  27.727  28.613  1.00  0.00     0.074 A 
ATOM     15  C   UNL A   1      40.670  29.901  29.791  1.00  0.00     0.049 A 
ATOM     16  N   UNL A   1      41.910  27.359  28.765  1.00  0.00    -0.248 NA
ATOM     17  C   UNL A   1      39.843  26.764  27.862  1.00  0.00     0.031 C 
ATOM     18  C   UNL A   1      40.107  31.143  30.326  1.00  0.00     0.029 A 
ATOM     19  N   UNL A   1      41.995  29.963  30.137  1.00  0.00    -0.354 N 
ATOM     20  C   UNL A   1      42.023  26.122  28.144  1.00  0.00     0.074 A 
ATOM     21  C   UNL A   1      40.710  25.786  27.637  1.00  0.00     0.031 C 
ATOM     22  C   UNL A   1      41.087  31.869  30.882  1.00  0.00     0.029 A 
ATOM     23  C   UNL A   1      42.332  31.114  30.806  1.00  0.00     0.049 A 
ATOM     24  H   UNL A   1      42.643  29.252  29.927  1.00  0.00     0.167 HD
ATOM     25  C   UNL A   1      43.125  25.347  28.002  1.00  0.00     0.037 A 
ATOM     26  C   UNL A   1      43.509  31.512  31.321  1.00  0.00     0.037 A 
ATOM     27  C   UNL A   1      44.432  25.695  28.500  1.00  0.00     0.049 A 
ATOM     28  C   UNL A   1      44.705  30.619  31.171  1.00  0.00     0.074 A 
ATOM     29  C   UNL A   1      45.615  24.984  28.393  1.00  0.00     0.029 A 
ATOM     30  N   UNL A   1      44.728  26.856  29.201  1.00  0.00    -0.354 N 
ATOM     31  N   UNL A   1      44.801  29.463  30.561  1.00  0.00    -0.248 NA
ATOM     32  C   UNL A   1      45.955  31.084  31.783  1.00  0.00     0.031 C 
ATOM     33  C   UNL A   1      46.616  25.695  29.065  1.00  0.00     0.029 A 
ATOM     34  C   UNL A   1      46.069  26.872  29.549  1.00  0.00     0.049 A 
ATOM     35  H   UNL A   1      44.079  27.564  29.419  1.00  0.00     0.167 HD
ATOM     36  C   UNL A   1      46.123  29.067  30.704  1.00  0.00     0.074 A 
ATOM     37  C   UNL A   1      46.797  30.120  31.435  1.00  0.00     0.031 C 
ATOM     38  C   UNL A   1      46.722  27.930  30.275  1.00  0.00     0.037 A 
BRANCH  25  39
ATOM     39  C   UNL A   1      42.970  24.036  27.286  1.00  0.00     0.064 A 
ATOM     40  C   UNL A   1      43.267  23.903  25.921  1.00  0.00     0.173 A 
ATOM     41  C   UNL A   1      42.568  22.886  27.984  1.00  0.00     0.173 A 
ATOM     42  F   UNL A   1      43.643  24.972  25.205  1.00  0.00    -0.203 F 
ATOM     43  C   UNL A   1      43.150  22.672  25.279  1.00  0.00     0.198 A 
ATOM     44  C   UNL A   1      42.478  21.652  27.344  1.00  0.00     0.198 A 
ATOM     45  F   UNL A   1      42.279  22.956  29.292  1.00  0.00    -0.203 F 
ATOM     46  F   UNL A   1      43.403  22.577  23.966  1.00  0.00    -0.200 F 
ATOM     47  C   UNL A   1      42.763  21.547  25.991  1.00  0.00     0.200 A 
ATOM     48  F   UNL A   1      42.117  20.564  28.039  1.00  0.00    -0.200 F 
ATOM     49  F   UNL A   1      42.661  20.362  25.374  1.00  0.00    -0.200 F 
ENDBRANCH  25  39
BRANCH  26  50
ATOM     50  C   UNL A   1      43.602  32.813  32.031  1.00  0.00     0.064 A 
ATOM     51  C   UNL A   1      43.614  34.024  31.326  1.00  0.00     0.173 A 
ATOM     52  C   UNL A   1      43.670  32.873  33.431  1.00  0.00     0.173 A 
ATOM     53  F   UNL A   1      43.570  34.018  29.985  1.00  0.00    -0.203 F 
ATOM     54  C   UNL A   1      43.710  35.243  31.993  1.00  0.00     0.198 A 
ATOM     55  C   UNL A   1      43.733  34.093  34.098  1.00  0.00     0.198 A 
ATOM     56  F   UNL A   1      43.655  31.743  34.153  1.00  0.00    -0.203 F 
ATOM     57  F   UNL A   1      43.766  36.384  31.292  1.00  0.00    -0.200 F 
ATOM     58  C   UNL A   1      43.762  35.277  33.379  1.00  0.00     0.200 A 
ATOM     59  F   UNL A   1      43.764  34.121  35.438  1.00  0.00    -0.200 F 
ATOM     60  F   UNL A   1      43.847  36.451  34.019  1.00  0.00    -0.200 F 
ENDBRANCH  26  50
BRANCH  38  61
ATOM     61  C   UNL A   1      48.187  27.786  30.564  1.00  0.00     0.064 A 
ATOM     62  C   UNL A   1      48.645  27.145  31.725  1.00  0.00     0.173 A 
ATOM     63  C   UNL A   1      49.141  28.282  29.664  1.00  0.00     0.173 A 
ATOM     64  F   UNL A   1      47.770  26.671  32.625  1.00  0.00    -0.203 F 
ATOM     65  C   UNL A   1      50.008  27.031  31.986  1.00  0.00     0.198 A 
ATOM     66  C   UNL A   1      50.502  28.140  29.915  1.00  0.00     0.198 A 
ATOM     67  F   UNL A   1      48.752  28.900  28.539  1.00  0.00    -0.203 F 
ATOM     68  F   UNL A   1      50.423  26.461  33.126  1.00  0.00    -0.200 F 
ATOM     69  C   UNL A   1      50.935  27.522  31.079  1.00  0.00     0.200 A 
ATOM     70  F   UNL A   1      51.397  28.606  29.033  1.00  0.00    -0.200 F 
ATOM     71  F   UNL A   1      52.246  27.410  31.333  1.00  0.00    -0.200 F 
ENDBRANCH  38  61
ENDBRANCH  12  13
ENDBRANCH   5   7
ENDBRANCH   2   3
ENDBRANCH   1   2
BRANCH   1  72
ATOM     72  C   UNL A   1      34.043  34.111  29.846  1.00  0.00     0.118 C 
BRANCH  72  73
ATOM     73  N   UNL A   1      34.402  33.010  30.729  1.00  0.00    -0.352 N 
ATOM     74  C   UNL A   1      35.631  32.564  31.135  1.00  0.00     0.253 C 
ATOM     75  H   UNL A   1      33.639  32.504  31.093  1.00  0.00     0.163 HD
ATOM     76  O   UNL A   1      35.725  31.459  31.664  1.00  0.00    -0.269 OA
BRANCH  74  77
ATOM     77  C   UNL A   1      36.844  33.397  30.974  1.00  0.00     0.063 A 
ATOM     78  C   UNL A   1      37.217  33.684  29.651  1.00  0.00     0.016 A 
ATOM     79  C   UNL A   1      37.641  33.814  32.063  1.00  0.00     0.054 A 
ATOM     80  C   UNL A   1      38.383  34.398  29.392  1.00  0.00     0.001 A 
ATOM     81  C   UNL A   1      38.840  34.471  31.770  1.00  0.00     0.027 A 
ATOM     82  C   UNL A   1      39.198  34.779  30.452  1.00  0.00     0.002 A 
BRANCH  79  83
ATOM     83  N   UNL A   1      37.199  33.540  33.380  1.00  0.00    -0.321 N 
ATOM     84  C   UNL A   1      37.557  32.628  34.343  1.00  0.00     0.255 C 
ATOM     85  H   UNL A   1      36.471  34.137  33.671  1.00  0.00     0.170 HD
ATOM     86  O   UNL A   1      37.032  32.673  35.454  1.00  0.00    -0.269 OA
BRANCH  84  87
ATOM     87  C   UNL A   1      38.557  31.586  34.090  1.00  0.00     0.040 A 
ATOM     88  C   UNL A   1      39.859  31.855  34.497  1.00  0.00     0.016 A 
ATOM     89  C   UNL A   1      38.226  30.349  33.535  1.00  0.00     0.016 A 
ATOM     90  C   UNL A   1      40.800  30.830  34.496  1.00  0.00     0.027 A 
ATOM     91  C   UNL A   1      39.184  29.326  33.532  1.00  0.00     0.027 A 
ATOM     92  C   UNL A   1      40.464  29.531  34.080  1.00  0.00     0.052 A 
BRANCH  92  93
ATOM     93  N   UNL A   1      41.355  28.443  34.310  1.00  0.00    -0.250 N 
ATOM     94  C   UNL A   1      42.074  27.826  33.309  1.00  0.00     0.238 C 
ATOM     95  C   UNL A   1      41.671  27.941  35.547  1.00  0.00     0.238 C 
ATOM     96  O   UNL A   1      42.037  28.036  32.102  1.00  0.00    -0.274 OA
ATOM     97  C   UNL A   1      43.025  26.822  33.911  1.00  0.00     0.096 C 
ATOM     98  C   UNL A   1      42.776  26.920  35.414  1.00  0.00     0.096 C 
ATOM     99  O   UNL A   1      41.153  28.204  36.626  1.00  0.00    -0.274 OA
ATOM    100  C   UNL A   1      44.454  27.125  33.443  1.00  0.00     0.041 C 
ATOM    101  C   UNL A   1      43.971  27.347  36.273  1.00  0.00     0.041 C 
ATOM    102  C   UNL A   1      45.119  28.194  34.257  1.00  0.00    -0.030 C 
ATOM    103  C   UNL A   1      44.893  28.298  35.571  1.00  0.00    -0.030 C 
ENDBRANCH  92  93
ENDBRANCH  84  87
ENDBRANCH  79  83
ENDBRANCH  74  77
ENDBRANCH  72  73
ENDBRANCH   1  72
TORSDOF 13
ENDMDL
MODEL 2
REMARK VINA RESULT:     -10.9      3.417      9.999
REMARK SMILES O=C(NCCCNC(=O)c1ccccc1NC(=O)c1ccc(N2C(=O)[C@H]3CC=CC[C@H]3C2=O)cc1)c1ccc(-c2c3nc(c(-c4c(F)c(F)c(F)c(F)c4F)c4ccc([nH]4)c(-c4c(F)c(F)c(F)c(F)c4F)c4nc(c(-c5c(F)c(F)c(F)c(F)c5F)c5ccc2[nH]5)C=C4)C=C3)cc1
REMARK SMILES IDX 5 1 4 2 3 3 1 4 2 5 36 7 37 8 98 9 38 10 97 11 39 12 40 13
REMARK SMILES IDX 41 14 91 15 42 16 96 17 90 18 92 19 43 20 95 21 89 22 88 23
REMARK SMILES IDX 44 25 76 26 56 27 75 28 57 29 60 30 74 31 93 32 58 33 59 34
REMARK SMILES IDX 73 36 94 37 61 38 45 39 46 40 54 41 47 42 48 43 52 44 55 45
REMARK SMILES IDX 49 46 50 47 53 48 51 49 77 50 78 51 86 52 79 53 80 54 84 55
REMARK SMILES IDX 87 56 81 57 82 58 85 59 83 60 62 61 63 62 71 63 64 64 65 65
REMARK SMILES IDX 69 66 72 67 66 68 67 69 70 70 68 71 6 72 7 73 8 74 9 76
REMARK SMILES IDX 10 77 11 78 15 79 12 80 14 81 13 82 16 83 17 84 18 86 19 87
REMARK SMILES IDX 20 88 35 89 21 90 34 91 22 92 23 93 24 94 32 95 25 96 26 97
REMARK SMILES IDX 31 98 33 99 27 100 30 101 28 102 29 103
REMARK H PARENT 3 6 92 24 60 35 7 75 16 85
REMARK Flexibility Score: inf
ROOT
ATOM      1  C   UNL A   1      40.809  20.334  26.277  1.00  0.00     0.042 C 
ENDROOT
BRANCH   1   2
ATOM      2  C   UNL A   1      40.029  21.492  26.876  1.00  0.00     0.118 C 
BRANCH   2   3
ATOM      3  N   UNL A   1      39.047  22.062  25.963  1.00  0.00    -0.352 N 
ATOM      4  O   UNL A   1      37.610  23.575  25.112  1.00  0.00    -0.269 OA
ATOM      5  C   UNL A   1      38.546  23.338  25.872  1.00  0.00     0.251 C 
ATOM      6  H   UNL A   1      38.683  21.428  25.303  1.00  0.00     0.163 HD
BRANCH   5   7
ATOM      7  C   UNL A   1      39.104  24.422  26.706  1.00  0.00     0.039 A 
ATOM      8  C   UNL A   1      38.856  24.472  28.077  1.00  0.00     0.014 A 
ATOM      9  C   UNL A   1      39.904  25.400  26.107  1.00  0.00     0.014 A 
ATOM     10  C   UNL A   1      39.241  25.587  28.808  1.00  0.00     0.010 A 
ATOM     11  C   UNL A   1      40.394  26.464  26.871  1.00  0.00     0.010 A 
ATOM     12  C   UNL A   1      40.034  26.585  28.221  1.00  0.00    -0.014 A 
BRANCH  12  13
ATOM     13  C   UNL A   1      40.519  27.706  29.065  1.00  0.00     0.031 A 
ATOM     14  C   UNL A   1      39.624  28.855  29.430  1.00  0.00     0.074 A 
ATOM     15  C   UNL A   1      41.779  27.649  29.541  1.00  0.00     0.049 A 
ATOM     16  N   UNL A   1      39.886  29.897  30.180  1.00  0.00    -0.248 NA
ATOM     17  C   UNL A   1      38.260  28.843  28.880  1.00  0.00     0.031 C 
ATOM     18  C   UNL A   1      42.743  26.585  29.243  1.00  0.00     0.029 A 
ATOM     19  N   UNL A   1      42.459  28.481  30.391  1.00  0.00    -0.354 N 
ATOM     20  C   UNL A   1      38.731  30.668  30.181  1.00  0.00     0.074 A 
ATOM     21  C   UNL A   1      37.773  29.990  29.333  1.00  0.00     0.031 C 
ATOM     22  C   UNL A   1      43.866  26.800  29.942  1.00  0.00     0.029 A 
ATOM     23  C   UNL A   1      43.730  28.049  30.680  1.00  0.00     0.049 A 
ATOM     24  H   UNL A   1      42.074  29.310  30.759  1.00  0.00     0.167 HD
ATOM     25  C   UNL A   1      38.491  31.828  30.839  1.00  0.00     0.037 A 
ATOM     26  C   UNL A   1      44.690  28.605  31.440  1.00  0.00     0.037 A 
ATOM     27  C   UNL A   1      39.447  32.491  31.690  1.00  0.00     0.049 A 
ATOM     28  C   UNL A   1      44.403  29.905  32.134  1.00  0.00     0.074 A 
ATOM     29  C   UNL A   1      39.294  33.662  32.413  1.00  0.00     0.029 A 
ATOM     30  N   UNL A   1      40.736  32.038  31.934  1.00  0.00    -0.354 N 
ATOM     31  N   UNL A   1      43.299  30.609  32.143  1.00  0.00    -0.248 NA
ATOM     32  C   UNL A   1      45.498  30.487  32.920  1.00  0.00     0.031 C 
ATOM     33  C   UNL A   1      40.504  33.939  33.060  1.00  0.00     0.029 A 
ATOM     34  C   UNL A   1      41.395  32.916  32.780  1.00  0.00     0.049 A 
ATOM     35  H   UNL A   1      41.125  31.214  31.559  1.00  0.00     0.167 HD
ATOM     36  C   UNL A   1      43.559  31.712  32.944  1.00  0.00     0.074 A 
ATOM     37  C   UNL A   1      44.918  31.567  33.425  1.00  0.00     0.031 C 
ATOM     38  C   UNL A   1      42.748  32.754  33.249  1.00  0.00     0.037 A 
BRANCH  25  39
ATOM     39  C   UNL A   1      37.144  32.468  30.660  1.00  0.00     0.064 A 
ATOM     40  C   UNL A   1      36.115  32.291  31.597  1.00  0.00     0.173 A 
ATOM     41  C   UNL A   1      36.895  33.310  29.565  1.00  0.00     0.173 A 
ATOM     42  F   UNL A   1      36.296  31.487  32.655  1.00  0.00    -0.203 F 
ATOM     43  C   UNL A   1      34.881  32.918  31.434  1.00  0.00     0.198 A 
ATOM     44  C   UNL A   1      35.670  33.956  29.419  1.00  0.00     0.198 A 
ATOM     45  F   UNL A   1      37.847  33.520  28.643  1.00  0.00    -0.203 F 
ATOM     46  F   UNL A   1      33.900  32.703  32.322  1.00  0.00    -0.200 F 
ATOM     47  C   UNL A   1      34.662  33.755  30.351  1.00  0.00     0.200 A 
ATOM     48  F   UNL A   1      35.465  34.775  28.378  1.00  0.00    -0.200 F 
ATOM     49  F   UNL A   1      33.479  34.365  30.201  1.00  0.00    -0.200 F 
ENDBRANCH  25  39
BRANCH  26  50
ATOM     50  C   UNL A   1      46.009  27.936  31.571  1.00  0.00     0.064 A 
ATOM     51  C   UNL A   1      46.164  26.790  32.362  1.00  0.00     0.173 A 
ATOM     52  C   UNL A   1      47.140  28.423  30.899  1.00  0.00     0.173 A 
ATOM     53  F   UNL A   1      45.116  26.297  33.039  1.00  0.00    -0.203 F 
ATOM     54  C   UNL A   1      47.404  26.168  32.490  1.00  0.00     0.198 A 
ATOM     55  C   UNL A   1      48.372  27.781  31.002  1.00  0.00     0.198 A 
ATOM     56  F   UNL A   1      47.043  29.513  30.123  1.00  0.00    -0.203 F 
ATOM     57  F   UNL A   1      47.534  25.100  33.289  1.00  0.00    -0.200 F 
ATOM     58  C   UNL A   1      48.505  26.660  31.804  1.00  0.00     0.200 A 
ATOM     59  F   UNL A   1      49.427  28.250  30.322  1.00  0.00    -0.200 F 
ATOM     60  F   UNL A   1      49.695  26.055  31.923  1.00  0.00    -0.200 F 
ENDBRANCH  26  50
BRANCH  38  61
ATOM     61  C   UNL A   1      43.305  33.801  34.166  1.00  0.00     0.064 A 
ATOM     62  C   UNL A   1      43.967  34.934  33.669  1.00  0.00     0.173 A 
ATOM     63  C   UNL A   1      43.163  33.677  35.556  1.00  0.00     0.173 A 
ATOM     64  F   UNL A   1      44.145  35.087  32.348  1.00  0.00    -0.203 F 
ATOM     65  C   UNL A   1      44.492  35.890  34.534  1.00  0.00     0.198 A 
ATOM     66  C   UNL A   1      43.663  34.650  36.415  1.00  0.00     0.198 A 
ATOM     67  F   UNL A   1      42.534  32.613  36.079  1.00  0.00    -0.203 F 
ATOM     68  F   UNL A   1      45.166  36.938  34.040  1.00  0.00    -0.200 F 
ATOM     69  C   UNL A   1      44.334  35.752  35.905  1.00  0.00     0.200 A 
ATOM     70  F   UNL A   1      43.500  34.520  37.740  1.00  0.00    -0.200 F 
ATOM     71  F   UNL A   1      44.838  36.674  36.735  1.00  0.00    -0.200 F 
ENDBRANCH  38  61
ENDBRANCH  12  13
ENDBRANCH   5   7
ENDBRANCH   2   3
ENDBRANCH   1   2
BRANCH   1  72
ATOM     72  C   UNL A   1      42.269  20.648  26.003  1.00  0.00     0.118 C 
BRANCH  72  73
ATOM     73  N   UNL A   1      42.444  21.951  25.376  1.00  0.00    -0.352 N 
ATOM     74  C   UNL A   1      42.857  23.142  25.910  1.00  0.00     0.253 C 
ATOM     75  H   UNL A   1      42.230  21.981  24.415  1.00  0.00     0.163 HD
ATOM     76  O   UNL A   1      42.678  24.179  25.275  1.00  0.00    -0.269 OA
BRANCH  74  77
ATOM     77  C   UNL A   1      43.538  23.203  27.222  1.00  0.00     0.063 A 
ATOM     78  C   UNL A   1      42.781  22.773  28.325  1.00  0.00     0.016 A 
ATOM     79  C   UNL A   1      44.834  23.738  27.392  1.00  0.00     0.054 A 
ATOM     80  C   UNL A   1      43.306  22.860  29.610  1.00  0.00     0.001 A 
ATOM     81  C   UNL A   1      45.309  23.874  28.701  1.00  0.00     0.027 A 
ATOM     82  C   UNL A   1      44.563  23.422  29.797  1.00  0.00     0.002 A 
BRANCH  79  83
ATOM     83  N   UNL A   1      45.576  24.114  26.246  1.00  0.00    -0.321 N 
ATOM     84  C   UNL A   1      45.928  25.318  25.683  1.00  0.00     0.255 C 
ATOM     85  H   UNL A   1      45.915  23.341  25.739  1.00  0.00     0.170 HD
ATOM     86  O   UNL A   1      46.661  25.340  24.696  1.00  0.00    -0.269 OA
BRANCH  84  87
ATOM     87  C   UNL A   1      45.454  26.595  26.225  1.00  0.00     0.040 A 
ATOM     88  C   UNL A   1      46.309  27.263  27.094  1.00  0.00     0.016 A 
ATOM     89  C   UNL A   1      44.239  27.165  25.843  1.00  0.00     0.016 A 
ATOM     90  C   UNL A   1      46.021  28.575  27.460  1.00  0.00     0.027 A 
ATOM     91  C   UNL A   1      43.956  28.485  26.223  1.00  0.00     0.027 A 
ATOM     92  C   UNL A   1      44.879  29.234  26.977  1.00  0.00     0.052 A 
BRANCH  92  93
ATOM     93  N   UNL A   1      44.721  30.638  27.157  1.00  0.00    -0.250 N 
ATOM     94  C   UNL A   1      43.779  31.196  27.992  1.00  0.00     0.238 C 
ATOM     95  C   UNL A   1      45.535  31.593  26.599  1.00  0.00     0.238 C 
ATOM     96  O   UNL A   1      42.908  30.631  28.646  1.00  0.00    -0.274 OA
ATOM     97  C   UNL A   1      43.981  32.688  28.065  1.00  0.00     0.096 C 
ATOM     98  C   UNL A   1      45.178  32.951  27.154  1.00  0.00     0.096 C 
ATOM     99  O   UNL A   1      46.407  31.443  25.751  1.00  0.00    -0.274 OA
ATOM    100  C   UNL A   1      44.143  33.114  29.529  1.00  0.00     0.041 C 
ATOM    101  C   UNL A   1      46.412  33.573  27.817  1.00  0.00     0.041 C 
ATOM    102  C   UNL A   1      45.541  32.933  30.038  1.00  0.00    -0.030 C 
ATOM    103  C   UNL A   1      46.595  33.144  29.241  1.00  0.00    -0.030 C 
ENDBRANCH  92  93
ENDBRANCH  84  87
ENDBRANCH  79  83
ENDBRANCH  74  77
ENDBRANCH  72  73
ENDBRANCH   1  72
TORSDOF 13
ENDMDL
MODEL 3
REMARK VINA RESULT:     -10.8      3.435      9.960
REMARK SMILES O=C(NCCCNC(=O)c1ccccc1NC(=O)c1ccc(N2C(=O)[C@H]3CC=CC[C@H]3C2=O)cc1)c1ccc(-c2c3nc(c(-c4c(F)c(F)c(F)c(F)c4F)c4ccc([nH]4)c(-c4c(F)c(F)c(F)c(F)c4F)c4nc(c(-c5c(F)c(F)c(F)c(F)c5F)c5ccc2[nH]5)C=C4)C=C3)cc1
REMARK SMILES IDX 5 1 4 2 3 3 1 4 2 5 36 7 37 8 98 9 38 10 97 11 39 12 40 13
REMARK SMILES IDX 41 14 91 15 42 16 96 17 90 18 92 19 43 20 95 21 89 22 88 23
REMARK SMILES IDX 44 25 76 26 56 27 75 28 57 29 60 30 74 31 93 32 58 33 59 34
REMARK SMILES IDX 73 36 94 37 61 38 45 39 46 40 54 41 47 42 48 43 52 44 55 45
REMARK SMILES IDX 49 46 50 47 53 48 51 49 77 50 78 51 86 52 79 53 80 54 84 55
REMARK SMILES IDX 87 56 81 57 82 58 85 59 83 60 62 61 63 62 71 63 64 64 65 65
REMARK SMILES IDX 69 66 72 67 66 68 67 69 70 70 68 71 6 72 7 73 8 74 9 76
REMARK SMILES IDX 10 77 11 78 15 79 12 80 14 81 13 82 16 83 17 84 18 86 19 87
REMARK SMILES IDX 20 88 35 89 21 90 34 91 22 92 23 93 24 94 32 95 25 96 26 97
REMARK SMILES IDX 31 98 33 99 27 100 30 101 28 102 29 103
REMARK H PARENT 3 6 92 24 60 35 7 75 16 85
REMARK Flexibility Score: inf
ROOT
ATOM      1  C   UNL A   1      40.809  20.281  26.313  1.00  0.00     0.042 C 
ENDROOT
BRANCH   1   2
ATOM      2  C   UNL A   1      40.031  21.460  26.874  1.00  0.00     0.118 C 
BRANCH   2   3
ATOM      3  N   UNL A   1      39.080  22.027  25.927  1.00  0.00    -0.352 N 
ATOM      4  O   UNL A   1      37.681  23.543  25.020  1.00  0.00    -0.269 OA
ATOM      5  C   UNL A   1      38.592  23.306  25.808  1.00  0.00     0.251 C 
ATOM      6  H   UNL A   1      38.729  21.389  25.264  1.00  0.00     0.163 HD
BRANCH   5   7
ATOM      7  C   UNL A   1      39.136  24.395  26.646  1.00  0.00     0.039 A 
ATOM      8  C   UNL A   1      38.883  24.440  28.016  1.00  0.00     0.014 A 
ATOM      9  C   UNL A   1      39.927  25.382  26.051  1.00  0.00     0.014 A 
ATOM     10  C   UNL A   1      39.253  25.558  28.751  1.00  0.00     0.010 A 
ATOM     11  C   UNL A   1      40.403  26.451  26.819  1.00  0.00     0.010 A 
ATOM     12  C   UNL A   1      40.037  26.566  28.168  1.00  0.00    -0.014 A 
BRANCH  12  13
ATOM     13  C   UNL A   1      40.507  27.690  29.015  1.00  0.00     0.031 A 
ATOM     14  C   UNL A   1      39.601  28.834  29.370  1.00  0.00     0.074 A 
ATOM     15  C   UNL A   1      41.763  27.641  29.504  1.00  0.00     0.049 A 
ATOM     16  N   UNL A   1      39.850  29.879  30.121  1.00  0.00    -0.248 NA
ATOM     17  C   UNL A   1      38.243  28.813  28.807  1.00  0.00     0.031 C 
ATOM     18  C   UNL A   1      42.735  26.583  29.217  1.00  0.00     0.029 A 
ATOM     19  N   UNL A   1      42.429  28.478  30.360  1.00  0.00    -0.354 N 
ATOM     20  C   UNL A   1      38.690  30.643  30.110  1.00  0.00     0.074 A 
ATOM     21  C   UNL A   1      37.745  29.959  29.253  1.00  0.00     0.031 C 
ATOM     22  C   UNL A   1      43.850  26.804  29.927  1.00  0.00     0.029 A 
ATOM     23  C   UNL A   1      43.700  28.054  30.662  1.00  0.00     0.049 A 
ATOM     24  H   UNL A   1      42.035  29.305  30.723  1.00  0.00     0.167 HD
ATOM     25  C   UNL A   1      38.437  31.802  30.764  1.00  0.00     0.037 A 
ATOM     26  C   UNL A   1      44.648  28.616  31.431  1.00  0.00     0.037 A 
ATOM     27  C   UNL A   1      39.380  32.471  31.624  1.00  0.00     0.049 A 
ATOM     28  C   UNL A   1      44.347  29.915  32.121  1.00  0.00     0.074 A 
ATOM     29  C   UNL A   1      39.214  33.642  32.344  1.00  0.00     0.029 A 
ATOM     30  N   UNL A   1      40.670  32.027  31.881  1.00  0.00    -0.354 N 
ATOM     31  N   UNL A   1      43.239  30.613  32.117  1.00  0.00    -0.248 NA
ATOM     32  C   UNL A   1      45.430  30.504  32.917  1.00  0.00     0.031 C 
ATOM     33  C   UNL A   1      40.415  33.927  33.002  1.00  0.00     0.029 A 
ATOM     34  C   UNL A   1      41.315  32.909  32.732  1.00  0.00     0.049 A 
ATOM     35  H   UNL A   1      41.067  31.205  31.512  1.00  0.00     0.167 HD
ATOM     36  C   UNL A   1      43.484  31.718  32.920  1.00  0.00     0.074 A 
ATOM     37  C   UNL A   1      44.839  31.582  33.414  1.00  0.00     0.031 C 
ATOM     38  C   UNL A   1      42.664  32.755  33.215  1.00  0.00     0.037 A 
BRANCH  25  39
ATOM     39  C   UNL A   1      37.088  32.434  30.570  1.00  0.00     0.064 A 
ATOM     40  C   UNL A   1      36.061  32.278  31.513  1.00  0.00     0.173 A 
ATOM     41  C   UNL A   1      36.835  33.246  29.454  1.00  0.00     0.173 A 
ATOM     42  F   UNL A   1      36.246  31.503  32.591  1.00  0.00    -0.203 F 
ATOM     43  C   UNL A   1      34.825  32.898  31.337  1.00  0.00     0.198 A 
ATOM     44  C   UNL A   1      35.608  33.886  29.294  1.00  0.00     0.198 A 
ATOM     45  F   UNL A   1      37.785  33.434  28.526  1.00  0.00    -0.203 F 
ATOM     46  F   UNL A   1      33.847  32.704  32.232  1.00  0.00    -0.200 F 
ATOM     47  C   UNL A   1      34.603  33.706  30.232  1.00  0.00     0.200 A 
ATOM     48  F   UNL A   1      35.400  34.677  28.233  1.00  0.00    -0.200 F 
ATOM     49  F   UNL A   1      33.417  34.309  30.069  1.00  0.00    -0.200 F 
ENDBRANCH  25  39
BRANCH  26  50
ATOM     50  C   UNL A   1      45.970  27.955  31.576  1.00  0.00     0.064 A 
ATOM     51  C   UNL A   1      47.103  28.448  30.915  1.00  0.00     0.173 A 
ATOM     52  C   UNL A   1      46.130  26.821  32.386  1.00  0.00     0.173 A 
ATOM     53  F   UNL A   1      46.997  29.519  30.114  1.00  0.00    -0.203 F 
ATOM     54  C   UNL A   1      48.340  27.822  31.045  1.00  0.00     0.198 A 
ATOM     55  C   UNL A   1      47.374  26.215  32.541  1.00  0.00     0.198 A 
ATOM     56  F   UNL A   1      45.078  26.314  33.046  1.00  0.00    -0.203 F 
ATOM     57  F   UNL A   1      49.398  28.288  30.366  1.00  0.00    -0.200 F 
ATOM     58  C   UNL A   1      48.476  26.711  31.864  1.00  0.00     0.200 A 
ATOM     59  F   UNL A   1      47.503  25.153  33.348  1.00  0.00    -0.200 F 
ATOM     60  F   UNL A   1      49.669  26.114  31.993  1.00  0.00    -0.200 F 
ENDBRANCH  26  50
BRANCH  38  61
ATOM     61  C   UNL A   1      43.206  33.807  34.137  1.00  0.00     0.064 A 
ATOM     62  C   UNL A   1      43.879  34.936  33.646  1.00  0.00     0.173 A 
ATOM     63  C   UNL A   1      43.037  33.691  35.524  1.00  0.00     0.173 A 
ATOM     64  F   UNL A   1      44.081  35.081  32.328  1.00  0.00    -0.203 F 
ATOM     65  C   UNL A   1      44.388  35.896  34.515  1.00  0.00     0.198 A 
ATOM     66  C   UNL A   1      43.523  34.668  36.388  1.00  0.00     0.198 A 
ATOM     67  F   UNL A   1      42.398  32.631  36.042  1.00  0.00    -0.203 F 
ATOM     68  F   UNL A   1      45.074  36.940  34.028  1.00  0.00    -0.200 F 
ATOM     69  C   UNL A   1      44.205  35.766  35.884  1.00  0.00     0.200 A 
ATOM     70  F   UNL A   1      43.336  34.545  37.709  1.00  0.00    -0.200 F 
ATOM     71  F   UNL A   1      44.696  36.692  36.718  1.00  0.00    -0.200 F 
ENDBRANCH  38  61
ENDBRANCH  12  13
ENDBRANCH   5   7
ENDBRANCH   2   3
ENDBRANCH   1   2
BRANCH   1  72
ATOM     72  C   UNL A   1      42.269  20.584  26.023  1.00  0.00     0.118 C 
BRANCH  72  73
ATOM     73  N   UNL A   1      42.445  21.879  25.379  1.00  0.00    -0.352 N 
ATOM     74  C   UNL A   1      42.857  23.077  25.897  1.00  0.00     0.253 C 
ATOM     75  H   UNL A   1      42.233  21.896  24.418  1.00  0.00     0.163 HD
ATOM     76  O   UNL A   1      42.679  24.105  25.248  1.00  0.00    -0.269 OA
BRANCH  74  77
ATOM     77  C   UNL A   1      43.535  23.156  27.210  1.00  0.00     0.063 A 
ATOM     78  C   UNL A   1      42.779  22.733  28.316  1.00  0.00     0.016 A 
ATOM     79  C   UNL A   1      44.828  23.701  27.376  1.00  0.00     0.054 A 
ATOM     80  C   UNL A   1      43.302  22.837  29.601  1.00  0.00     0.001 A 
ATOM     81  C   UNL A   1      45.299  23.855  28.684  1.00  0.00     0.027 A 
ATOM     82  C   UNL A   1      44.555  23.409  29.784  1.00  0.00     0.002 A 
BRANCH  79  83
ATOM     83  N   UNL A   1      45.569  24.071  26.228  1.00  0.00    -0.321 N 
ATOM     84  C   UNL A   1      45.920  25.271  25.657  1.00  0.00     0.255 C 
ATOM     85  H   UNL A   1      45.907  23.295  25.725  1.00  0.00     0.170 HD
ATOM     86  O   UNL A   1      46.653  25.286  24.669  1.00  0.00    -0.269 OA
BRANCH  84  87
ATOM     87  C   UNL A   1      45.447  26.551  26.191  1.00  0.00     0.040 A 
ATOM     88  C   UNL A   1      46.289  27.209  27.080  1.00  0.00     0.016 A 
ATOM     89  C   UNL A   1      44.246  27.134  25.785  1.00  0.00     0.016 A 
ATOM     90  C   UNL A   1      46.007  28.523  27.443  1.00  0.00     0.027 A 
ATOM     91  C   UNL A   1      43.968  28.455  26.161  1.00  0.00     0.027 A 
ATOM     92  C   UNL A   1      44.881  29.194  26.937  1.00  0.00     0.052 A 
BRANCH  92  93
ATOM     93  N   UNL A   1      44.734  30.600  27.116  1.00  0.00    -0.250 N 
ATOM     94  C   UNL A   1      43.777  31.164  27.931  1.00  0.00     0.238 C 
ATOM     95  C   UNL A   1      45.569  31.547  26.580  1.00  0.00     0.238 C 
ATOM     96  O   UNL A   1      42.887  30.607  28.563  1.00  0.00    -0.274 OA
ATOM     97  C   UNL A   1      43.993  32.655  28.012  1.00  0.00     0.096 C 
ATOM     98  C   UNL A   1      45.212  32.908  27.129  1.00  0.00     0.096 C 
ATOM     99  O   UNL A   1      46.458  31.391  25.751  1.00  0.00    -0.274 OA
ATOM    100  C   UNL A   1      44.125  33.076  29.481  1.00  0.00     0.041 C 
ATOM    101  C   UNL A   1      46.437  33.516  27.822  1.00  0.00     0.041 C 
ATOM    102  C   UNL A   1      45.509  32.879  30.021  1.00  0.00    -0.030 C 
ATOM    103  C   UNL A   1      46.583  33.082  29.249  1.00  0.00    -0.030 C 
ENDBRANCH  92  93
ENDBRANCH  84  87
ENDBRANCH  79  83
ENDBRANCH  74  77
ENDBRANCH  72  73
ENDBRANCH   1  72
TORSDOF 13
ENDMDL
