MODEL 1
REMARK VINA RESULT:     -13.8      0.000      0.000
REMARK SMILES O=C(CCc1cn(-c2ccc(Br)cc2)nc1-c1ccccc1)NCCCNC(=O)c1ccc(-c2c3nc(c(-c4c(F)c(F)c(F)c(F)c4F)c4ccc([nH]4)c(-c4c(F)c(F)c(F)c(F)c4F)c4nc(c(-c5c(F)c(F)c(F)c(F)c5F)c5ccc2[nH]5)C=C4)C=C3)cc1
REMARK SMILES IDX 24 1 23 2 1 3 2 4 3 6 4 7 5 8 6 9 16 10 7 11 15 12 17 13
REMARK SMILES IDX 18 14 22 15 19 16 21 17 20 18 8 19 9 20 14 21 10 22 13 23
REMARK SMILES IDX 11 24 12 25 25 26 26 27 27 28 28 29 29 31 30 32 31 33 92 34
REMARK SMILES IDX 32 35 91 36 33 37 34 38 35 39 85 40 36 41 90 42 84 43 86 44
REMARK SMILES IDX 37 45 89 46 83 47 82 48 38 50 70 51 50 52 69 53 51 54 54 55
REMARK SMILES IDX 68 56 87 57 52 58 53 59 67 61 88 62 55 63 39 64 40 65 48 66
REMARK SMILES IDX 41 67 42 68 46 69 49 70 43 71 44 72 47 73 45 74 71 75 72 76
REMARK SMILES IDX 80 77 73 78 74 79 78 80 81 81 75 82 76 83 79 84 77 85 56 86
REMARK SMILES IDX 57 87 65 88 58 89 59 90 63 91 66 92 60 93 61 94 64 95 62 96
REMARK H PARENT 23 5 27 30 86 49 54 60
REMARK Flexibility Score: inf
ROOT
ATOM      1  C   UNL A   1      40.672  20.273  26.431  1.00  0.00     0.117 C 
ENDROOT
BRANCH   1   2
ATOM      2  N   UNL A   1      39.376  20.342  25.757  1.00  0.00    -0.356 N 
ATOM      3  O   UNL A   1      38.860  22.503  26.336  1.00  0.00    -0.275 OA
ATOM      4  C   UNL A   1      38.615  21.491  25.687  1.00  0.00     0.220 C 
ATOM      5  H   UNL A   1      39.028  19.525  25.331  1.00  0.00     0.163 HD
BRANCH   4   6
ATOM      6  C   UNL A   1      37.456  21.438  24.699  1.00  0.00     0.105 C 
BRANCH   6   7
ATOM      7  C   UNL A   1      36.415  20.349  25.005  1.00  0.00     0.049 C 
BRANCH   7   8
ATOM      8  C   UNL A   1      34.998  20.803  24.834  1.00  0.00    -0.001 A 
ATOM      9  C   UNL A   1      34.541  22.098  24.625  1.00  0.00     0.119 A 
ATOM     10  C   UNL A   1      33.810  20.012  24.815  1.00  0.00     0.096 A 
ATOM     11  N   UNL A   1      33.165  22.041  24.628  1.00  0.00    -0.240 N 
ATOM     12  N   UNL A   1      32.732  20.800  24.894  1.00  0.00    -0.168 NA
BRANCH  10  13
ATOM     13  C   UNL A   1      33.608  18.566  24.754  1.00  0.00     0.002 A 
ATOM     14  C   UNL A   1      32.774  17.972  25.714  1.00  0.00     0.010 A 
ATOM     15  C   UNL A   1      34.243  17.744  23.822  1.00  0.00     0.010 A 
ATOM     16  C   UNL A   1      32.603  16.589  25.754  1.00  0.00     0.001 A 
ATOM     17  C   UNL A   1      34.093  16.357  23.875  1.00  0.00     0.001 A 
ATOM     18  C   UNL A   1      33.276  15.781  24.842  1.00  0.00     0.000 A 
ENDBRANCH  10  13
BRANCH  11  19
ATOM     19  C   UNL A   1      32.222  23.087  24.471  1.00  0.00     0.065 A 
ATOM     20  C   UNL A   1      31.383  23.159  23.358  1.00  0.00     0.029 A 
ATOM     21  C   UNL A   1      32.144  24.070  25.471  1.00  0.00     0.029 A 
ATOM     22  C   UNL A   1      30.491  24.236  23.241  1.00  0.00     0.018 A 
ATOM     23  C   UNL A   1      31.327  25.187  25.301  1.00  0.00     0.018 A 
ATOM     24  C   UNL A   1      30.507  25.269  24.182  1.00  0.00     0.018 A 
ATOM     25  Br  UNL A   1      29.465  26.821  23.902  1.00  0.00    -0.051 Br
ENDBRANCH  11  19
ENDBRANCH   7   8
ENDBRANCH   6   7
ENDBRANCH   4   6
ENDBRANCH   1   2
BRANCH   1  26
ATOM     26  C   UNL A   1      41.593  19.152  25.940  1.00  0.00     0.042 C 
BRANCH  26  27
ATOM     27  C   UNL A   1      42.988  19.201  26.536  1.00  0.00     0.118 C 
BRANCH  27  28
ATOM     28  N   UNL A   1      44.097  19.237  25.581  1.00  0.00    -0.352 N 
ATOM     29  C   UNL A   1      44.597  20.338  24.907  1.00  0.00     0.251 C 
ATOM     30  H   UNL A   1      44.539  18.376  25.395  1.00  0.00     0.163 HD
ATOM     31  O   UNL A   1      45.283  20.196  23.890  1.00  0.00    -0.269 OA
BRANCH  29  32
ATOM     32  C   UNL A   1      44.349  21.702  25.428  1.00  0.00     0.039 A 
ATOM     33  C   UNL A   1      43.349  22.534  24.917  1.00  0.00     0.014 A 
ATOM     34  C   UNL A   1      45.223  22.201  26.392  1.00  0.00     0.014 A 
ATOM     35  C   UNL A   1      43.234  23.835  25.415  1.00  0.00     0.010 A 
ATOM     36  C   UNL A   1      45.008  23.400  27.007  1.00  0.00     0.010 A 
ATOM     37  C   UNL A   1      44.072  24.255  26.464  1.00  0.00    -0.014 A 
BRANCH  37  38
ATOM     38  C   UNL A   1      43.858  25.506  27.178  1.00  0.00     0.031 A 
ATOM     39  C   UNL A   1      44.864  26.501  26.771  1.00  0.00     0.074 A 
ATOM     40  C   UNL A   1      42.736  25.833  27.862  1.00  0.00     0.049 A 
ATOM     41  N   UNL A   1      45.937  26.819  27.410  1.00  0.00    -0.248 NA
ATOM     42  C   UNL A   1      44.814  27.023  25.391  1.00  0.00     0.031 C 
ATOM     43  C   UNL A   1      41.513  25.037  27.926  1.00  0.00     0.029 A 
ATOM     44  N   UNL A   1      42.393  26.954  28.571  1.00  0.00    -0.354 N 
ATOM     45  C   UNL A   1      46.471  27.861  26.667  1.00  0.00     0.074 A 
ATOM     46  C   UNL A   1      45.963  27.704  25.333  1.00  0.00     0.031 C 
ATOM     47  C   UNL A   1      40.510  25.745  28.485  1.00  0.00     0.029 A 
ATOM     48  C   UNL A   1      41.041  27.016  28.931  1.00  0.00     0.049 A 
ATOM     49  H   UNL A   1      43.041  27.655  28.807  1.00  0.00     0.167 HD
ATOM     50  C   UNL A   1      46.836  28.996  27.322  1.00  0.00     0.037 A 
ATOM     51  C   UNL A   1      40.390  28.035  29.554  1.00  0.00     0.037 A 
ATOM     52  C   UNL A   1      46.897  28.752  28.746  1.00  0.00     0.049 A 
ATOM     53  C   UNL A   1      41.413  28.853  30.240  1.00  0.00     0.074 A 
ATOM     54  C   UNL A   1      47.731  28.083  29.615  1.00  0.00     0.029 A 
ATOM     55  N   UNL A   1      45.688  28.890  29.378  1.00  0.00    -0.354 N 
ATOM     56  N   UNL A   1      42.093  28.426  31.267  1.00  0.00    -0.248 NA
ATOM     57  C   UNL A   1      41.966  30.017  29.556  1.00  0.00     0.031 C 
ATOM     58  C   UNL A   1      46.964  27.798  30.784  1.00  0.00     0.029 A 
ATOM     59  C   UNL A   1      45.695  28.346  30.633  1.00  0.00     0.049 A 
ATOM     60  H   UNL A   1      44.906  29.331  28.974  1.00  0.00     0.167 HD
ATOM     61  C   UNL A   1      43.349  28.957  31.070  1.00  0.00     0.074 A 
ATOM     62  C   UNL A   1      43.173  30.054  30.126  1.00  0.00     0.031 C 
ATOM     63  C   UNL A   1      44.460  28.231  31.373  1.00  0.00     0.037 A 
BRANCH  50  64
ATOM     64  C   UNL A   1      46.612  30.402  26.807  1.00  0.00     0.064 A 
ATOM     65  C   UNL A   1      47.700  31.296  26.826  1.00  0.00     0.173 A 
ATOM     66  C   UNL A   1      45.348  30.995  26.580  1.00  0.00     0.173 A 
ATOM     67  F   UNL A   1      48.942  30.851  27.067  1.00  0.00    -0.203 F 
ATOM     68  C   UNL A   1      47.528  32.676  26.684  1.00  0.00     0.198 A 
ATOM     69  C   UNL A   1      45.187  32.364  26.385  1.00  0.00     0.198 A 
ATOM     70  F   UNL A   1      44.203  30.308  26.649  1.00  0.00    -0.203 F 
ATOM     71  F   UNL A   1      48.578  33.494  26.821  1.00  0.00    -0.200 F 
ATOM     72  C   UNL A   1      46.271  33.209  26.464  1.00  0.00     0.200 A 
ATOM     73  F   UNL A   1      43.955  32.862  26.204  1.00  0.00    -0.200 F 
ATOM     74  F   UNL A   1      46.095  34.534  26.376  1.00  0.00    -0.200 F 
ENDBRANCH  50  64
BRANCH  51  75
ATOM     75  C   UNL A   1      38.972  28.467  29.472  1.00  0.00     0.064 A 
ATOM     76  C   UNL A   1      38.186  28.631  30.628  1.00  0.00     0.173 A 
ATOM     77  C   UNL A   1      38.454  29.017  28.284  1.00  0.00     0.173 A 
ATOM     78  F   UNL A   1      38.614  28.160  31.808  1.00  0.00    -0.203 F 
ATOM     79  C   UNL A   1      36.981  29.344  30.606  1.00  0.00     0.198 A 
ATOM     80  C   UNL A   1      37.251  29.729  28.264  1.00  0.00     0.198 A 
ATOM     81  F   UNL A   1      39.152  28.955  27.142  1.00  0.00    -0.203 F 
ATOM     82  F   UNL A   1      36.296  29.538  31.741  1.00  0.00    -0.200 F 
ATOM     83  C   UNL A   1      36.524  29.908  29.426  1.00  0.00     0.200 A 
ATOM     84  F   UNL A   1      36.835  30.295  27.121  1.00  0.00    -0.200 F 
ATOM     85  F   UNL A   1      35.412  30.656  29.418  1.00  0.00    -0.200 F 
ENDBRANCH  51  75
BRANCH  63  86
ATOM     86  C   UNL A   1      44.349  27.197  32.448  1.00  0.00     0.064 A 
ATOM     87  C   UNL A   1      44.246  27.463  33.823  1.00  0.00     0.173 A 
ATOM     88  C   UNL A   1      44.287  25.857  32.038  1.00  0.00     0.173 A 
ATOM     89  F   UNL A   1      44.244  28.721  34.285  1.00  0.00    -0.203 F 
ATOM     90  C   UNL A   1      44.113  26.423  34.743  1.00  0.00     0.198 A 
ATOM     91  C   UNL A   1      44.118  24.827  32.954  1.00  0.00     0.198 A 
ATOM     92  F   UNL A   1      44.361  25.552  30.733  1.00  0.00    -0.203 F 
ATOM     93  F   UNL A   1      44.041  26.690  36.056  1.00  0.00    -0.200 F 
ATOM     94  C   UNL A   1      44.039  25.108  34.307  1.00  0.00     0.200 A 
ATOM     95  F   UNL A   1      44.016  23.563  32.520  1.00  0.00    -0.200 F 
ATOM     96  F   UNL A   1      43.881  24.110  35.189  1.00  0.00    -0.200 F 
ENDBRANCH  63  86
ENDBRANCH  37  38
ENDBRANCH  29  32
ENDBRANCH  27  28
ENDBRANCH  26  27
ENDBRANCH   1  26
TORSDOF 14
ENDMDL
MODEL 2
REMARK VINA RESULT:     -13.6      0.224      1.225
REMARK SMILES O=C(CCc1cn(-c2ccc(Br)cc2)nc1-c1ccccc1)NCCCNC(=O)c1ccc(-c2c3nc(c(-c4c(F)c(F)c(F)c(F)c4F)c4ccc([nH]4)c(-c4c(F)c(F)c(F)c(F)c4F)c4nc(c(-c5c(F)c(F)c(F)c(F)c5F)c5ccc2[nH]5)C=C4)C=C3)cc1
REMARK SMILES IDX 24 1 23 2 1 3 2 4 3 6 4 7 5 8 6 9 16 10 7 11 15 12 17 13
REMARK SMILES IDX 18 14 22 15 19 16 21 17 20 18 8 19 9 20 14 21 10 22 13 23
REMARK SMILES IDX 11 24 12 25 25 26 26 27 27 28 28 29 29 31 30 32 31 33 92 34
REMARK SMILES IDX 32 35 91 36 33 37 34 38 35 39 85 40 36 41 90 42 84 43 86 44
REMARK SMILES IDX 37 45 89 46 83 47 82 48 38 50 70 51 50 52 69 53 51 54 54 55
REMARK SMILES IDX 68 56 87 57 52 58 53 59 67 61 88 62 55 63 39 64 40 65 48 66
REMARK SMILES IDX 41 67 42 68 46 69 49 70 43 71 44 72 47 73 45 74 71 75 72 76
REMARK SMILES IDX 80 77 73 78 74 79 78 80 81 81 75 82 76 83 79 84 77 85 56 86
REMARK SMILES IDX 57 87 65 88 58 89 59 90 63 91 66 92 60 93 61 94 64 95 62 96
REMARK H PARENT 23 5 27 30 86 49 54 60
REMARK Flexibility Score: inf
ROOT
ATOM      1  C   UNL A   1      40.548  20.270  26.508  1.00  0.00     0.117 C 
ENDROOT
BRANCH   1   2
ATOM      2  N   UNL A   1      39.248  20.406  25.849  1.00  0.00    -0.356 N 
ATOM      3  O   UNL A   1      38.916  22.629  26.319  1.00  0.00    -0.275 OA
ATOM      4  C   UNL A   1      38.579  21.607  25.728  1.00  0.00     0.220 C 
ATOM      5  H   UNL A   1      38.829  19.599  25.473  1.00  0.00     0.163 HD
BRANCH   4   6
ATOM      6  C   UNL A   1      37.402  21.596  24.761  1.00  0.00     0.105 C 
BRANCH   6   7
ATOM      7  C   UNL A   1      36.405  20.449  24.995  1.00  0.00     0.049 C 
BRANCH   7   8
ATOM      8  C   UNL A   1      34.971  20.857  24.855  1.00  0.00    -0.001 A 
ATOM      9  C   UNL A   1      34.471  22.130  24.609  1.00  0.00     0.119 A 
ATOM     10  C   UNL A   1      33.805  20.036  24.914  1.00  0.00     0.096 A 
ATOM     11  N   UNL A   1      33.098  22.038  24.664  1.00  0.00    -0.240 N 
ATOM     12  N   UNL A   1      32.709  20.798  24.998  1.00  0.00    -0.168 NA
BRANCH  10  13
ATOM     13  C   UNL A   1      33.641  18.584  24.922  1.00  0.00     0.002 A 
ATOM     14  C   UNL A   1      34.377  17.828  23.996  1.00  0.00     0.010 A 
ATOM     15  C   UNL A   1      32.754  17.920  25.770  1.00  0.00     0.010 A 
ATOM     16  C   UNL A   1      34.206  16.448  23.904  1.00  0.00     0.001 A 
ATOM     17  C   UNL A   1      32.563  16.542  25.664  1.00  0.00     0.001 A 
ATOM     18  C   UNL A   1      33.287  15.807  24.730  1.00  0.00     0.000 A 
ENDBRANCH  10  13
BRANCH  11  19
ATOM     19  C   UNL A   1      32.122  23.051  24.497  1.00  0.00     0.065 A 
ATOM     20  C   UNL A   1      31.563  23.334  23.249  1.00  0.00     0.029 A 
ATOM     21  C   UNL A   1      31.720  23.782  25.626  1.00  0.00     0.029 A 
ATOM     22  C   UNL A   1      30.623  24.371  23.139  1.00  0.00     0.018 A 
ATOM     23  C   UNL A   1      30.861  24.872  25.492  1.00  0.00     0.018 A 
ATOM     24  C   UNL A   1      30.321  25.167  24.247  1.00  0.00     0.018 A 
ATOM     25  Br  UNL A   1      29.229  26.697  24.043  1.00  0.00    -0.051 Br
ENDBRANCH  11  19
ENDBRANCH   7   8
ENDBRANCH   6   7
ENDBRANCH   4   6
ENDBRANCH   1   2
BRANCH   1  26
ATOM     26  C   UNL A   1      41.527  19.325  25.806  1.00  0.00     0.042 C 
BRANCH  26  27
ATOM     27  C   UNL A   1      42.896  19.267  26.459  1.00  0.00     0.118 C 
BRANCH  27  28
ATOM     28  N   UNL A   1      44.045  19.282  25.552  1.00  0.00    -0.352 N 
ATOM     29  C   UNL A   1      44.600  20.375  24.910  1.00  0.00     0.251 C 
ATOM     30  H   UNL A   1      44.472  18.412  25.377  1.00  0.00     0.163 HD
ATOM     31  O   UNL A   1      45.325  20.224  23.921  1.00  0.00    -0.269 OA
BRANCH  29  32
ATOM     32  C   UNL A   1      44.364  21.741  25.431  1.00  0.00     0.039 A 
ATOM     33  C   UNL A   1      43.419  22.607  24.875  1.00  0.00     0.014 A 
ATOM     34  C   UNL A   1      45.198  22.204  26.447  1.00  0.00     0.014 A 
ATOM     35  C   UNL A   1      43.315  23.907  25.381  1.00  0.00     0.010 A 
ATOM     36  C   UNL A   1      44.985  23.403  27.063  1.00  0.00     0.010 A 
ATOM     37  C   UNL A   1      44.107  24.291  26.479  1.00  0.00    -0.014 A 
BRANCH  37  38
ATOM     38  C   UNL A   1      43.891  25.541  27.194  1.00  0.00     0.031 A 
ATOM     39  C   UNL A   1      44.895  26.538  26.788  1.00  0.00     0.074 A 
ATOM     40  C   UNL A   1      42.768  25.866  27.879  1.00  0.00     0.049 A 
ATOM     41  N   UNL A   1      45.967  26.857  27.427  1.00  0.00    -0.248 NA
ATOM     42  C   UNL A   1      44.844  27.061  25.408  1.00  0.00     0.031 C 
ATOM     43  C   UNL A   1      41.546  25.068  27.942  1.00  0.00     0.029 A 
ATOM     44  N   UNL A   1      42.423  26.986  28.588  1.00  0.00    -0.354 N 
ATOM     45  C   UNL A   1      46.499  27.901  26.685  1.00  0.00     0.074 A 
ATOM     46  C   UNL A   1      45.992  27.744  25.350  1.00  0.00     0.031 C 
ATOM     47  C   UNL A   1      40.542  25.774  28.501  1.00  0.00     0.029 A 
ATOM     48  C   UNL A   1      41.071  27.046  28.948  1.00  0.00     0.049 A 
ATOM     49  H   UNL A   1      43.071  27.687  28.825  1.00  0.00     0.167 HD
ATOM     50  C   UNL A   1      46.863  29.036  27.341  1.00  0.00     0.037 A 
ATOM     51  C   UNL A   1      40.419  28.062  29.572  1.00  0.00     0.037 A 
ATOM     52  C   UNL A   1      46.924  28.790  28.765  1.00  0.00     0.049 A 
ATOM     53  C   UNL A   1      41.440  28.882  30.259  1.00  0.00     0.074 A 
ATOM     54  C   UNL A   1      47.760  28.122  29.633  1.00  0.00     0.029 A 
ATOM     55  N   UNL A   1      45.715  28.926  29.397  1.00  0.00    -0.354 N 
ATOM     56  N   UNL A   1      42.121  28.454  31.285  1.00  0.00    -0.248 NA
ATOM     57  C   UNL A   1      41.992  30.048  29.576  1.00  0.00     0.031 C 
ATOM     58  C   UNL A   1      46.993  27.835  30.802  1.00  0.00     0.029 A 
ATOM     59  C   UNL A   1      45.723  28.381  30.652  1.00  0.00     0.049 A 
ATOM     60  H   UNL A   1      44.932  29.366  28.994  1.00  0.00     0.167 HD
ATOM     61  C   UNL A   1      43.376  28.988  31.089  1.00  0.00     0.074 A 
ATOM     62  C   UNL A   1      43.198  30.086  30.146  1.00  0.00     0.031 C 
ATOM     63  C   UNL A   1      44.488  28.264  31.392  1.00  0.00     0.037 A 
BRANCH  50  64
ATOM     64  C   UNL A   1      46.637  30.442  26.827  1.00  0.00     0.064 A 
ATOM     65  C   UNL A   1      47.718  31.344  26.867  1.00  0.00     0.173 A 
ATOM     66  C   UNL A   1      45.372  31.026  26.582  1.00  0.00     0.173 A 
ATOM     67  F   UNL A   1      48.959  30.906  27.125  1.00  0.00    -0.203 F 
ATOM     68  C   UNL A   1      47.538  32.723  26.726  1.00  0.00     0.198 A 
ATOM     69  C   UNL A   1      45.204  32.395  26.390  1.00  0.00     0.198 A 
ATOM     70  F   UNL A   1      44.232  30.332  26.631  1.00  0.00    -0.203 F 
ATOM     71  F   UNL A   1      48.580  33.548  26.882  1.00  0.00    -0.200 F 
ATOM     72  C   UNL A   1      46.281  33.248  26.488  1.00  0.00     0.200 A 
ATOM     73  F   UNL A   1      43.971  32.884  26.192  1.00  0.00    -0.200 F 
ATOM     74  F   UNL A   1      46.097  34.571  26.402  1.00  0.00    -0.200 F 
ENDBRANCH  50  64
BRANCH  51  75
ATOM     75  C   UNL A   1      39.000  28.493  29.490  1.00  0.00     0.064 A 
ATOM     76  C   UNL A   1      38.207  28.632  30.645  1.00  0.00     0.173 A 
ATOM     77  C   UNL A   1      38.487  29.064  28.311  1.00  0.00     0.173 A 
ATOM     78  F   UNL A   1      38.630  28.139  31.818  1.00  0.00    -0.203 F 
ATOM     79  C   UNL A   1      37.001  29.342  30.630  1.00  0.00     0.198 A 
ATOM     80  C   UNL A   1      37.282  29.773  28.298  1.00  0.00     0.198 A 
ATOM     81  F   UNL A   1      39.192  29.027  27.172  1.00  0.00    -0.203 F 
ATOM     82  F   UNL A   1      36.308  29.512  31.765  1.00  0.00    -0.200 F 
ATOM     83  C   UNL A   1      36.548  29.928  29.459  1.00  0.00     0.200 A 
ATOM     84  F   UNL A   1      36.871  30.361  27.164  1.00  0.00    -0.200 F 
ATOM     85  F   UNL A   1      35.434  30.674  29.459  1.00  0.00    -0.200 F 
ENDBRANCH  51  75
BRANCH  63  86
ATOM     86  C   UNL A   1      44.379  27.228  32.465  1.00  0.00     0.064 A 
ATOM     87  C   UNL A   1      44.185  25.854  32.251  1.00  0.00     0.173 A 
ATOM     88  C   UNL A   1      44.538  27.664  33.788  1.00  0.00     0.173 A 
ATOM     89  F   UNL A   1      44.077  25.357  31.010  1.00  0.00    -0.203 F 
ATOM     90  C   UNL A   1      44.129  24.965  33.324  1.00  0.00     0.198 A 
ATOM     91  C   UNL A   1      44.518  26.772  34.853  1.00  0.00     0.198 A 
ATOM     92  F   UNL A   1      44.745  28.965  34.045  1.00  0.00    -0.203 F 
ATOM     93  F   UNL A   1      43.918  23.658  33.106  1.00  0.00    -0.200 F 
ATOM     94  C   UNL A   1      44.305  25.423  34.622  1.00  0.00     0.200 A 
ATOM     95  F   UNL A   1      44.721  27.219  36.099  1.00  0.00    -0.200 F 
ATOM     96  F   UNL A   1      44.282  24.565  35.652  1.00  0.00    -0.200 F 
ENDBRANCH  63  86
ENDBRANCH  37  38
ENDBRANCH  29  32
ENDBRANCH  27  28
ENDBRANCH  26  27
ENDBRANCH   1  26
TORSDOF 14
ENDMDL
MODEL 3
REMARK VINA RESULT:     -12.9      2.124      6.410
REMARK SMILES O=C(CCc1cn(-c2ccc(Br)cc2)nc1-c1ccccc1)NCCCNC(=O)c1ccc(-c2c3nc(c(-c4c(F)c(F)c(F)c(F)c4F)c4ccc([nH]4)c(-c4c(F)c(F)c(F)c(F)c4F)c4nc(c(-c5c(F)c(F)c(F)c(F)c5F)c5ccc2[nH]5)C=C4)C=C3)cc1
REMARK SMILES IDX 24 1 23 2 1 3 2 4 3 6 4 7 5 8 6 9 16 10 7 11 15 12 17 13
REMARK SMILES IDX 18 14 22 15 19 16 21 17 20 18 8 19 9 20 14 21 10 22 13 23
REMARK SMILES IDX 11 24 12 25 25 26 26 27 27 28 28 29 29 31 30 32 31 33 92 34
REMARK SMILES IDX 32 35 91 36 33 37 34 38 35 39 85 40 36 41 90 42 84 43 86 44
REMARK SMILES IDX 37 45 89 46 83 47 82 48 38 50 70 51 50 52 69 53 51 54 54 55
REMARK SMILES IDX 68 56 87 57 52 58 53 59 67 61 88 62 55 63 39 64 40 65 48 66
REMARK SMILES IDX 41 67 42 68 46 69 49 70 43 71 44 72 47 73 45 74 71 75 72 76
REMARK SMILES IDX 80 77 73 78 74 79 78 80 81 81 75 82 76 83 79 84 77 85 56 86
REMARK SMILES IDX 57 87 65 88 58 89 59 90 63 91 66 92 60 93 61 94 64 95 62 96
REMARK H PARENT 23 5 27 30 86 49 54 60
REMARK Flexibility Score: inf
ROOT
ATOM      1  C   UNL A   1      39.351  21.449  26.245  1.00  0.00     0.117 C 
ENDROOT
BRANCH   1   2
ATOM      2  N   UNL A   1      38.601  22.420  25.447  1.00  0.00    -0.356 N 
ATOM      3  O   UNL A   1      36.507  21.561  25.840  1.00  0.00    -0.275 OA
ATOM      4  C   UNL A   1      37.222  22.450  25.387  1.00  0.00     0.220 C 
ATOM      5  H   UNL A   1      39.106  23.085  24.926  1.00  0.00     0.163 HD
BRANCH   4   6
ATOM      6  C   UNL A   1      36.632  23.703  24.752  1.00  0.00     0.105 C 
BRANCH   6   7
ATOM      7  C   UNL A   1      35.782  23.434  23.500  1.00  0.00     0.049 C 
BRANCH   7   8
ATOM      8  C   UNL A   1      34.392  23.986  23.583  1.00  0.00    -0.001 A 
ATOM      9  C   UNL A   1      33.990  25.304  23.406  1.00  0.00     0.119 A 
ATOM     10  C   UNL A   1      33.173  23.285  23.831  1.00  0.00     0.096 A 
ATOM     11  N   UNL A   1      32.640  25.350  23.677  1.00  0.00    -0.240 N 
ATOM     12  N   UNL A   1      32.186  24.153  24.079  1.00  0.00    -0.168 NA
BRANCH  10  13
ATOM     13  C   UNL A   1      32.868  21.857  23.878  1.00  0.00     0.002 A 
ATOM     14  C   UNL A   1      33.182  21.150  25.049  1.00  0.00     0.010 A 
ATOM     15  C   UNL A   1      32.327  21.155  22.800  1.00  0.00     0.010 A 
ATOM     16  C   UNL A   1      32.985  19.772  25.126  1.00  0.00     0.001 A 
ATOM     17  C   UNL A   1      32.151  19.772  22.865  1.00  0.00     0.001 A 
ATOM     18  C   UNL A   1      32.482  19.081  24.027  1.00  0.00     0.000 A 
ENDBRANCH  10  13
BRANCH  11  19
ATOM     19  C   UNL A   1      31.757  26.457  23.656  1.00  0.00     0.065 A 
ATOM     20  C   UNL A   1      30.408  26.314  23.326  1.00  0.00     0.029 A 
ATOM     21  C   UNL A   1      32.269  27.725  23.976  1.00  0.00     0.029 A 
ATOM     22  C   UNL A   1      29.587  27.453  23.291  1.00  0.00     0.018 A 
ATOM     23  C   UNL A   1      31.473  28.862  23.844  1.00  0.00     0.018 A 
ATOM     24  C   UNL A   1      30.135  28.722  23.495  1.00  0.00     0.018 A 
ATOM     25  Br  UNL A   1      29.076  30.264  23.227  1.00  0.00    -0.051 Br
ENDBRANCH  11  19
ENDBRANCH   7   8
ENDBRANCH   6   7
ENDBRANCH   4   6
ENDBRANCH   1   2
BRANCH   1  26
ATOM     26  C   UNL A   1      39.668  20.135  25.525  1.00  0.00     0.042 C 
BRANCH  26  27
ATOM     27  C   UNL A   1      40.564  19.203  26.320  1.00  0.00     0.118 C 
BRANCH  27  28
ATOM     28  N   UNL A   1      41.887  18.938  25.751  1.00  0.00    -0.352 N 
ATOM     29  C   UNL A   1      42.901  19.850  25.512  1.00  0.00     0.251 C 
ATOM     30  H   UNL A   1      42.077  18.003  25.509  1.00  0.00     0.163 HD
ATOM     31  O   UNL A   1      43.815  19.582  24.726  1.00  0.00    -0.269 OA
BRANCH  29  32
ATOM     32  C   UNL A   1      42.922  21.142  26.233  1.00  0.00     0.039 A 
ATOM     33  C   UNL A   1      43.285  22.344  25.618  1.00  0.00     0.014 A 
ATOM     34  C   UNL A   1      42.672  21.128  27.605  1.00  0.00     0.014 A 
ATOM     35  C   UNL A   1      43.352  23.505  26.393  1.00  0.00     0.010 A 
ATOM     36  C   UNL A   1      42.562  22.280  28.329  1.00  0.00     0.010 A 
ATOM     37  C   UNL A   1      42.986  23.458  27.751  1.00  0.00    -0.014 A 
BRANCH  37  38
ATOM     38  C   UNL A   1      42.815  24.662  28.554  1.00  0.00     0.031 A 
ATOM     39  C   UNL A   1      41.612  25.392  28.122  1.00  0.00     0.074 A 
ATOM     40  C   UNL A   1      43.454  24.920  29.720  1.00  0.00     0.049 A 
ATOM     41  N   UNL A   1      41.571  26.422  27.349  1.00  0.00    -0.248 NA
ATOM     42  C   UNL A   1      40.293  24.775  28.367  1.00  0.00     0.031 C 
ATOM     43  C   UNL A   1      44.348  24.005  30.424  1.00  0.00     0.029 A 
ATOM     44  N   UNL A   1      43.397  25.989  30.574  1.00  0.00    -0.354 N 
ATOM     45  C   UNL A   1      40.232  26.782  27.345  1.00  0.00     0.074 A 
ATOM     46  C   UNL A   1      39.495  25.593  27.674  1.00  0.00     0.031 C 
ATOM     47  C   UNL A   1      44.627  24.466  31.661  1.00  0.00     0.029 A 
ATOM     48  C   UNL A   1      44.026  25.775  31.807  1.00  0.00     0.049 A 
ATOM     49  H   UNL A   1      42.953  26.835  30.341  1.00  0.00     0.167 HD
ATOM     50  C   UNL A   1      39.917  28.084  27.580  1.00  0.00     0.037 A 
ATOM     51  C   UNL A   1      44.059  26.607  32.881  1.00  0.00     0.037 A 
ATOM     52  C   UNL A   1      41.095  28.912  27.459  1.00  0.00     0.049 A 
ATOM     53  C   UNL A   1      43.763  27.970  32.390  1.00  0.00     0.074 A 
ATOM     54  C   UNL A   1      41.894  29.379  26.437  1.00  0.00     0.029 A 
ATOM     55  N   UNL A   1      41.836  28.983  28.610  1.00  0.00    -0.354 N 
ATOM     56  N   UNL A   1      44.578  28.640  31.623  1.00  0.00    -0.248 NA
ATOM     57  C   UNL A   1      42.388  28.456  32.428  1.00  0.00     0.031 C 
ATOM     58  C   UNL A   1      43.156  29.704  27.019  1.00  0.00     0.029 A 
ATOM     59  C   UNL A   1      43.090  29.486  28.390  1.00  0.00     0.049 A 
ATOM     60  H   UNL A   1      41.503  28.705  29.494  1.00  0.00     0.167 HD
ATOM     61  C   UNL A   1      43.737  29.309  30.760  1.00  0.00     0.074 A 
ATOM     62  C   UNL A   1      42.428  29.308  31.401  1.00  0.00     0.031 C 
ATOM     63  C   UNL A   1      44.071  29.458  29.448  1.00  0.00     0.037 A 
BRANCH  50  64
ATOM     64  C   UNL A   1      38.749  28.553  28.423  1.00  0.00     0.064 A 
ATOM     65  C   UNL A   1      37.928  29.574  27.908  1.00  0.00     0.173 A 
ATOM     66  C   UNL A   1      38.573  28.272  29.798  1.00  0.00     0.173 A 
ATOM     67  F   UNL A   1      38.031  29.948  26.624  1.00  0.00    -0.203 F 
ATOM     68  C   UNL A   1      37.041  30.291  28.718  1.00  0.00     0.198 A 
ATOM     69  C   UNL A   1      37.651  28.953  30.589  1.00  0.00     0.198 A 
ATOM     70  F   UNL A   1      39.352  27.419  30.469  1.00  0.00    -0.203 F 
ATOM     71  F   UNL A   1      36.364  31.326  28.206  1.00  0.00    -0.200 F 
ATOM     72  C   UNL A   1      36.905  29.981  30.058  1.00  0.00     0.200 A 
ATOM     73  F   UNL A   1      37.558  28.656  31.894  1.00  0.00    -0.200 F 
ATOM     74  F   UNL A   1      36.094  30.697  30.847  1.00  0.00    -0.200 F 
ENDBRANCH  50  64
BRANCH  51  75
ATOM     75  C   UNL A   1      44.157  26.307  34.332  1.00  0.00     0.064 A 
ATOM     76  C   UNL A   1      43.031  25.908  35.077  1.00  0.00     0.173 A 
ATOM     77  C   UNL A   1      45.409  26.112  34.945  1.00  0.00     0.173 A 
ATOM     78  F   UNL A   1      41.801  26.035  34.561  1.00  0.00    -0.203 F 
ATOM     79  C   UNL A   1      43.155  25.308  36.336  1.00  0.00     0.198 A 
ATOM     80  C   UNL A   1      45.530  25.512  36.202  1.00  0.00     0.198 A 
ATOM     81  F   UNL A   1      46.542  26.414  34.295  1.00  0.00    -0.203 F 
ATOM     82  F   UNL A   1      42.063  24.879  36.984  1.00  0.00    -0.200 F 
ATOM     83  C   UNL A   1      44.406  25.093  36.889  1.00  0.00     0.200 A 
ATOM     84  F   UNL A   1      46.750  25.283  36.712  1.00  0.00    -0.200 F 
ATOM     85  F   UNL A   1      44.531  24.448  38.057  1.00  0.00    -0.200 F 
ENDBRANCH  51  75
BRANCH  63  86
ATOM     86  C   UNL A   1      45.524  29.482  29.095  1.00  0.00     0.064 A 
ATOM     87  C   UNL A   1      46.281  28.368  28.697  1.00  0.00     0.173 A 
ATOM     88  C   UNL A   1      46.163  30.730  29.110  1.00  0.00     0.173 A 
ATOM     89  F   UNL A   1      45.725  27.151  28.607  1.00  0.00    -0.203 F 
ATOM     90  C   UNL A   1      47.627  28.504  28.357  1.00  0.00     0.198 A 
ATOM     91  C   UNL A   1      47.493  30.868  28.736  1.00  0.00     0.198 A 
ATOM     92  F   UNL A   1      45.478  31.829  29.465  1.00  0.00    -0.203 F 
ATOM     93  F   UNL A   1      48.344  27.427  28.002  1.00  0.00    -0.200 F 
ATOM     94  C   UNL A   1      48.228  29.754  28.366  1.00  0.00     0.200 A 
ATOM     95  F   UNL A   1      48.056  32.084  28.718  1.00  0.00    -0.200 F 
ATOM     96  F   UNL A   1      49.513  29.890  28.010  1.00  0.00    -0.200 F 
ENDBRANCH  63  86
ENDBRANCH  37  38
ENDBRANCH  29  32
ENDBRANCH  27  28
ENDBRANCH  26  27
ENDBRANCH   1  26
TORSDOF 14
ENDMDL
