MODEL 1
REMARK VINA RESULT:     -11.7      0.000      0.000
REMARK SMILES CC(C)(C)[N@H+](CCC(=O)NCCCNC(=O)c1ccc(-c2c3nc(c(-c4c(F)c(F)c(F)c(F)c4F)c4ccc([nH]4)c(-c4c(F)c(F)c(F)c(F)c4F)c4nc(c(-c5c(F)c(F)c(F)c(F)c5F)c5ccc2[nH]5)C=C4)C=C3)cc1)Cc1ccccc1C1CC1
REMARK SMILES IDX 8 1 9 2 10 3 7 5 6 6 5 7 2 9 1 10 3 11 4 12 80 13 81 14
REMARK SMILES IDX 82 15 86 16 83 17 85 18 84 19 87 20 88 21 89 22 11 23 12 24
REMARK SMILES IDX 13 25 14 26 15 27 16 29 17 30 18 31 79 32 19 33 78 34 20 35
REMARK SMILES IDX 21 36 22 37 72 38 23 39 77 40 71 41 73 42 24 43 76 44 70 45
REMARK SMILES IDX 69 46 25 48 57 49 37 50 56 51 38 52 41 53 55 54 74 55 39 56
REMARK SMILES IDX 40 57 54 59 75 60 42 61 26 62 27 63 35 64 28 65 29 66 33 67
REMARK SMILES IDX 36 68 30 69 31 70 34 71 32 72 58 73 59 74 67 75 60 76 61 77
REMARK SMILES IDX 65 78 68 79 62 80 63 81 66 82 64 83 43 84 44 85 52 86 45 87
REMARK SMILES IDX 46 88 50 89 53 90 47 91 48 92 51 93 49 94
REMARK H PARENT 10 4 5 8 14 28 73 47 41 58
REMARK Flexibility Score: inf
ROOT
ATOM      1  C   UNL A   1      32.321  25.388  26.172  1.00  0.00     0.225 C 
ATOM      2  O   UNL A   1      31.872  24.236  26.226  1.00  0.00    -0.275 OA
ATOM      3  N   UNL A   1      31.409  26.372  26.405  1.00  0.00    -0.356 N 
ATOM      4  H   UNL A   1      30.490  26.045  26.273  1.00  0.00     0.163 HD
ENDROOT
BRANCH   1   5
ATOM      5  C   UNL A   1      33.795  25.577  25.853  1.00  0.00     0.161 C 
BRANCH   5   6
ATOM      6  C   UNL A   1      34.051  25.751  24.355  1.00  0.00     0.272 C 
BRANCH   6   7
ATOM      7  N   UNL A   1      33.062  25.162  23.413  1.00  0.00    -0.327 N 
ATOM      8  H   UNL A   1      32.219  24.862  23.903  1.00  0.00     0.348 HD
BRANCH   7   9
ATOM      9  C   UNL A   1      32.533  26.212  22.438  1.00  0.00     0.089 C 
ATOM     10  C   UNL A   1      31.037  26.618  22.651  1.00  0.00     0.078 C 
ATOM     11  C   UNL A   1      32.564  25.601  21.019  1.00  0.00     0.078 C 
ATOM     12  C   UNL A   1      33.306  27.557  22.403  1.00  0.00     0.078 C 
ENDBRANCH   7   9
BRANCH   7  13
ATOM     13  C   UNL A   1      33.623  23.921  22.819  1.00  0.00     0.299 C 
BRANCH  13  14
ATOM     14  C   UNL A   1      33.718  22.627  23.656  1.00  0.00     0.010 A 
ATOM     15  C   UNL A   1      32.522  21.870  23.462  1.00  0.00     0.010 A 
ATOM     16  C   UNL A   1      34.780  22.013  24.418  1.00  0.00    -0.036 A 
ATOM     17  C   UNL A   1      32.325  20.580  23.935  1.00  0.00     0.001 A 
ATOM     18  C   UNL A   1      34.531  20.653  24.813  1.00  0.00     0.004 A 
ATOM     19  C   UNL A   1      33.349  19.956  24.598  1.00  0.00     0.000 A 
BRANCH  16  20
ATOM     20  C   UNL A   1      36.084  22.457  25.147  1.00  0.00     0.020 C 
ATOM     21  C   UNL A   1      37.032  23.296  24.247  1.00  0.00     0.009 C 
ATOM     22  C   UNL A   1      36.851  23.628  25.674  1.00  0.00     0.009 C 
ENDBRANCH  16  20
ENDBRANCH  13  14
ENDBRANCH   7  13
ENDBRANCH   6   7
ENDBRANCH   5   6
ENDBRANCH   1   5
BRANCH   3  23
ATOM     23  C   UNL A   1      31.416  27.790  26.802  1.00  0.00     0.117 C 
BRANCH  23  24
ATOM     24  C   UNL A   1      31.735  28.713  25.631  1.00  0.00     0.042 C 
BRANCH  24  25
ATOM     25  C   UNL A   1      32.824  29.726  25.960  1.00  0.00     0.118 C 
BRANCH  25  26
ATOM     26  N   UNL A   1      32.405  30.991  26.558  1.00  0.00    -0.352 N 
ATOM     27  C   UNL A   1      33.195  31.821  27.344  1.00  0.00     0.251 C 
ATOM     28  H   UNL A   1      31.479  31.282  26.390  1.00  0.00     0.163 HD
ATOM     29  O   UNL A   1      32.758  32.855  27.841  1.00  0.00    -0.269 OA
BRANCH  27  30
ATOM     30  C   UNL A   1      34.586  31.388  27.619  1.00  0.00     0.039 A 
ATOM     31  C   UNL A   1      35.595  32.344  27.755  1.00  0.00     0.014 A 
ATOM     32  C   UNL A   1      34.816  30.061  27.981  1.00  0.00     0.014 A 
ATOM     33  C   UNL A   1      36.790  31.992  28.391  1.00  0.00     0.010 A 
ATOM     34  C   UNL A   1      35.937  29.758  28.740  1.00  0.00     0.010 A 
ATOM     35  C   UNL A   1      36.940  30.717  28.964  1.00  0.00    -0.014 A 
BRANCH  35  36
ATOM     36  C   UNL A   1      38.120  30.349  29.801  1.00  0.00     0.031 A 
ATOM     37  C   UNL A   1      39.143  29.384  29.255  1.00  0.00     0.074 A 
ATOM     38  C   UNL A   1      38.222  30.780  31.076  1.00  0.00     0.049 A 
ATOM     39  N   UNL A   1      40.148  28.805  29.862  1.00  0.00    -0.248 NA
ATOM     40  C   UNL A   1      38.971  28.961  27.856  1.00  0.00     0.031 C 
ATOM     41  C   UNL A   1      37.261  31.644  31.766  1.00  0.00     0.029 A 
ATOM     42  N   UNL A   1      39.185  30.539  32.029  1.00  0.00    -0.354 N 
ATOM     43  C   UNL A   1      40.687  27.922  28.933  1.00  0.00     0.074 A 
ATOM     44  C   UNL A   1      39.849  27.977  27.759  1.00  0.00     0.031 C 
ATOM     45  C   UNL A   1      37.704  31.898  33.009  1.00  0.00     0.029 A 
ATOM     46  C   UNL A   1      38.958  31.183  33.224  1.00  0.00     0.049 A 
ATOM     47  H   UNL A   1      39.964  29.960  31.871  1.00  0.00     0.167 HD
ATOM     48  C   UNL A   1      41.808  27.168  29.028  1.00  0.00     0.037 A 
ATOM     49  C   UNL A   1      39.682  31.195  34.360  1.00  0.00     0.037 A 
ATOM     50  C   UNL A   1      42.689  27.183  30.163  1.00  0.00     0.049 A 
ATOM     51  C   UNL A   1      40.962  30.402  34.421  1.00  0.00     0.074 A 
ATOM     52  C   UNL A   1      43.899  26.532  30.326  1.00  0.00     0.029 A 
ATOM     53  N   UNL A   1      42.460  27.905  31.324  1.00  0.00    -0.354 N 
ATOM     54  N   UNL A   1      41.500  29.631  33.507  1.00  0.00    -0.248 NA
ATOM     55  C   UNL A   1      41.738  30.486  35.665  1.00  0.00     0.031 C 
ATOM     56  C   UNL A   1      44.387  26.836  31.601  1.00  0.00     0.029 A 
ATOM     57  C   UNL A   1      43.504  27.710  32.213  1.00  0.00     0.049 A 
ATOM     58  H   UNL A   1      41.672  28.471  31.492  1.00  0.00     0.167 HD
ATOM     59  C   UNL A   1      42.690  29.165  34.051  1.00  0.00     0.074 A 
ATOM     60  C   UNL A   1      42.803  29.753  35.370  1.00  0.00     0.031 C 
ATOM     61  C   UNL A   1      43.605  28.324  33.511  1.00  0.00     0.037 A 
BRANCH  48  62
ATOM     62  C   UNL A   1      42.158  26.296  27.855  1.00  0.00     0.064 A 
ATOM     63  C   UNL A   1      41.566  25.036  27.672  1.00  0.00     0.173 A 
ATOM     64  C   UNL A   1      43.089  26.726  26.898  1.00  0.00     0.173 A 
ATOM     65  F   UNL A   1      40.679  24.570  28.564  1.00  0.00    -0.203 F 
ATOM     66  C   UNL A   1      41.925  24.221  26.602  1.00  0.00     0.198 A 
ATOM     67  C   UNL A   1      43.419  25.925  25.807  1.00  0.00     0.198 A 
ATOM     68  F   UNL A   1      43.681  27.924  27.019  1.00  0.00    -0.203 F 
ATOM     69  F   UNL A   1      41.398  22.995  26.489  1.00  0.00    -0.200 F 
ATOM     70  C   UNL A   1      42.846  24.669  25.666  1.00  0.00     0.200 A 
ATOM     71  F   UNL A   1      44.298  26.364  24.896  1.00  0.00    -0.200 F 
ATOM     72  F   UNL A   1      43.190  23.885  24.635  1.00  0.00    -0.200 F 
ENDBRANCH  48  62
BRANCH  49  73
ATOM     73  C   UNL A   1      39.249  32.022  35.522  1.00  0.00     0.064 A 
ATOM     74  C   UNL A   1      38.444  31.475  36.531  1.00  0.00     0.173 A 
ATOM     75  C   UNL A   1      39.614  33.371  35.643  1.00  0.00     0.173 A 
ATOM     76  F   UNL A   1      38.051  30.194  36.452  1.00  0.00    -0.203 F 
ATOM     77  C   UNL A   1      37.997  32.249  37.601  1.00  0.00     0.198 A 
ATOM     78  C   UNL A   1      39.191  34.137  36.729  1.00  0.00     0.198 A 
ATOM     79  F   UNL A   1      40.387  33.944  34.710  1.00  0.00    -0.203 F 
ATOM     80  F   UNL A   1      37.186  31.710  38.522  1.00  0.00    -0.200 F 
ATOM     81  C   UNL A   1      38.375  33.578  37.702  1.00  0.00     0.200 A 
ATOM     82  F   UNL A   1      39.568  35.419  36.830  1.00  0.00    -0.200 F 
ATOM     83  F   UNL A   1      37.947  34.322  38.731  1.00  0.00    -0.200 F 
ENDBRANCH  49  73
BRANCH  61  84
ATOM     84  C   UNL A   1      44.831  28.024  34.322  1.00  0.00     0.064 A 
ATOM     85  C   UNL A   1      45.970  28.838  34.261  1.00  0.00     0.173 A 
ATOM     86  C   UNL A   1      44.841  26.941  35.214  1.00  0.00     0.173 A 
ATOM     87  F   UNL A   1      46.014  29.878  33.415  1.00  0.00    -0.203 F 
ATOM     88  C   UNL A   1      47.085  28.565  35.049  1.00  0.00     0.198 A 
ATOM     89  C   UNL A   1      45.946  26.689  36.022  1.00  0.00     0.198 A 
ATOM     90  F   UNL A   1      43.771  26.138  35.314  1.00  0.00    -0.203 F 
ATOM     91  F   UNL A   1      48.180  29.331  34.945  1.00  0.00    -0.200 F 
ATOM     92  C   UNL A   1      47.069  27.498  35.934  1.00  0.00     0.200 A 
ATOM     93  F   UNL A   1      45.922  25.666  36.888  1.00  0.00    -0.200 F 
ATOM     94  F   UNL A   1      48.138  27.244  36.700  1.00  0.00    -0.200 F 
ENDBRANCH  61  84
ENDBRANCH  35  36
ENDBRANCH  27  30
ENDBRANCH  25  26
ENDBRANCH  24  25
ENDBRANCH  23  24
ENDBRANCH   3  23
TORSDOF 16
ENDMDL
MODEL 2
REMARK VINA RESULT:     -11.6      1.259      7.663
REMARK SMILES CC(C)(C)[N@H+](CCC(=O)NCCCNC(=O)c1ccc(-c2c3nc(c(-c4c(F)c(F)c(F)c(F)c4F)c4ccc([nH]4)c(-c4c(F)c(F)c(F)c(F)c4F)c4nc(c(-c5c(F)c(F)c(F)c(F)c5F)c5ccc2[nH]5)C=C4)C=C3)cc1)Cc1ccccc1C1CC1
REMARK SMILES IDX 8 1 9 2 10 3 7 5 6 6 5 7 2 9 1 10 3 11 4 12 80 13 81 14
REMARK SMILES IDX 82 15 86 16 83 17 85 18 84 19 87 20 88 21 89 22 11 23 12 24
REMARK SMILES IDX 13 25 14 26 15 27 16 29 17 30 18 31 79 32 19 33 78 34 20 35
REMARK SMILES IDX 21 36 22 37 72 38 23 39 77 40 71 41 73 42 24 43 76 44 70 45
REMARK SMILES IDX 69 46 25 48 57 49 37 50 56 51 38 52 41 53 55 54 74 55 39 56
REMARK SMILES IDX 40 57 54 59 75 60 42 61 26 62 27 63 35 64 28 65 29 66 33 67
REMARK SMILES IDX 36 68 30 69 31 70 34 71 32 72 58 73 59 74 67 75 60 76 61 77
REMARK SMILES IDX 65 78 68 79 62 80 63 81 66 82 64 83 43 84 44 85 52 86 45 87
REMARK SMILES IDX 46 88 50 89 53 90 47 91 48 92 51 93 49 94
REMARK H PARENT 10 4 5 8 14 28 73 47 41 58
REMARK Flexibility Score: inf
ROOT
ATOM      1  C   UNL A   1      33.555  28.568  23.681  1.00  0.00     0.225 C 
ATOM      2  O   UNL A   1      34.068  28.959  22.625  1.00  0.00    -0.275 OA
ATOM      3  N   UNL A   1      32.725  29.464  24.283  1.00  0.00    -0.356 N 
ATOM      4  H   UNL A   1      32.898  30.379  23.965  1.00  0.00     0.163 HD
ENDROOT
BRANCH   1   5
ATOM      5  C   UNL A   1      33.902  27.176  24.184  1.00  0.00     0.161 C 
BRANCH   5   6
ATOM      6  C   UNL A   1      33.234  26.073  23.359  1.00  0.00     0.272 C 
BRANCH   6   7
ATOM      7  N   UNL A   1      33.060  24.742  24.000  1.00  0.00    -0.327 N 
ATOM      8  H   UNL A   1      33.568  24.689  24.883  1.00  0.00     0.348 HD
BRANCH   7   9
ATOM      9  C   UNL A   1      31.611  24.519  24.426  1.00  0.00     0.089 C 
ATOM     10  C   UNL A   1      30.762  25.822  24.595  1.00  0.00     0.078 C 
ATOM     11  C   UNL A   1      31.623  23.885  25.835  1.00  0.00     0.078 C 
ATOM     12  C   UNL A   1      30.762  23.612  23.496  1.00  0.00     0.078 C 
ENDBRANCH   7   9
BRANCH   7  13
ATOM     13  C   UNL A   1      33.674  23.696  23.142  1.00  0.00     0.299 C 
BRANCH  13  14
ATOM     14  C   UNL A   1      34.597  22.621  23.757  1.00  0.00     0.010 A 
ATOM     15  C   UNL A   1      35.952  23.051  23.616  1.00  0.00     0.010 A 
ATOM     16  C   UNL A   1      34.353  21.427  24.530  1.00  0.00    -0.036 A 
ATOM     17  C   UNL A   1      37.041  22.411  24.192  1.00  0.00     0.001 A 
ATOM     18  C   UNL A   1      35.518  20.862  25.153  1.00  0.00     0.004 A 
ATOM     19  C   UNL A   1      36.820  21.318  24.987  1.00  0.00     0.000 A 
BRANCH  16  20
ATOM     20  C   UNL A   1      33.195  20.405  24.742  1.00  0.00     0.020 C 
ATOM     21  C   UNL A   1      32.322  20.198  23.475  1.00  0.00     0.009 C 
ATOM     22  C   UNL A   1      32.664  19.062  24.353  1.00  0.00     0.009 C 
ENDBRANCH  16  20
ENDBRANCH  13  14
ENDBRANCH   7  13
ENDBRANCH   6   7
ENDBRANCH   5   6
ENDBRANCH   1   5
BRANCH   3  23
ATOM     23  C   UNL A   1      31.640  29.442  25.278  1.00  0.00     0.117 C 
BRANCH  23  24
ATOM     24  C   UNL A   1      31.415  30.809  25.914  1.00  0.00     0.042 C 
BRANCH  24  25
ATOM     25  C   UNL A   1      32.551  31.219  26.843  1.00  0.00     0.118 C 
BRANCH  25  26
ATOM     26  N   UNL A   1      32.544  32.591  27.344  1.00  0.00    -0.352 N 
ATOM     27  C   UNL A   1      33.618  33.246  27.937  1.00  0.00     0.251 C 
ATOM     28  H   UNL A   1      31.705  33.098  27.255  1.00  0.00     0.163 HD
ATOM     29  O   UNL A   1      33.523  34.392  28.366  1.00  0.00    -0.269 OA
BRANCH  27  30
ATOM     30  C   UNL A   1      34.883  32.491  28.094  1.00  0.00     0.039 A 
ATOM     31  C   UNL A   1      36.095  33.180  28.179  1.00  0.00     0.014 A 
ATOM     32  C   UNL A   1      34.820  31.132  28.401  1.00  0.00     0.014 A 
ATOM     33  C   UNL A   1      37.215  32.532  28.712  1.00  0.00     0.010 A 
ATOM     34  C   UNL A   1      35.887  30.544  29.065  1.00  0.00     0.010 A 
ATOM     35  C   UNL A   1      37.100  31.233  29.237  1.00  0.00    -0.014 A 
BRANCH  35  36
ATOM     36  C   UNL A   1      38.214  30.565  29.971  1.00  0.00     0.031 A 
ATOM     37  C   UNL A   1      38.455  30.905  31.421  1.00  0.00     0.074 A 
ATOM     38  C   UNL A   1      39.073  29.748  29.326  1.00  0.00     0.049 A 
ATOM     39  N   UNL A   1      39.454  30.573  32.200  1.00  0.00    -0.248 NA
ATOM     40  C   UNL A   1      37.475  31.797  32.062  1.00  0.00     0.031 C 
ATOM     41  C   UNL A   1      39.017  29.400  27.904  1.00  0.00     0.029 A 
ATOM     42  N   UNL A   1      40.177  29.066  29.783  1.00  0.00    -0.354 N 
ATOM     43  C   UNL A   1      39.240  31.253  33.393  1.00  0.00     0.074 A 
ATOM     44  C   UNL A   1      38.072  32.081  33.207  1.00  0.00     0.031 C 
ATOM     45  C   UNL A   1      40.006  28.537  27.618  1.00  0.00     0.029 A 
ATOM     46  C   UNL A   1      40.796  28.302  28.822  1.00  0.00     0.049 A 
ATOM     47  H   UNL A   1      40.495  29.120  30.713  1.00  0.00     0.167 HD
ATOM     48  C   UNL A   1      39.924  31.161  34.558  1.00  0.00     0.037 A 
ATOM     49  C   UNL A   1      41.876  27.499  28.905  1.00  0.00     0.037 A 
ATOM     50  C   UNL A   1      41.032  30.271  34.768  1.00  0.00     0.049 A 
ATOM     51  C   UNL A   1      42.583  27.361  30.229  1.00  0.00     0.074 A 
ATOM     52  C   UNL A   1      41.737  30.028  35.933  1.00  0.00     0.029 A 
ATOM     53  N   UNL A   1      41.583  29.459  33.788  1.00  0.00    -0.354 N 
ATOM     54  N   UNL A   1      42.324  27.952  31.371  1.00  0.00    -0.248 NA
ATOM     55  C   UNL A   1      43.726  26.438  30.279  1.00  0.00     0.031 C 
ATOM     56  C   UNL A   1      42.736  29.092  35.649  1.00  0.00     0.029 A 
ATOM     57  C   UNL A   1      42.625  28.719  34.320  1.00  0.00     0.049 A 
ATOM     58  H   UNL A   1      41.278  29.416  32.852  1.00  0.00     0.167 HD
ATOM     59  C   UNL A   1      43.247  27.451  32.279  1.00  0.00     0.074 A 
ATOM     60  C   UNL A   1      44.064  26.496  31.560  1.00  0.00     0.031 C 
ATOM     61  C   UNL A   1      43.408  27.757  33.590  1.00  0.00     0.037 A 
BRANCH  48  62
ATOM     62  C   UNL A   1      39.466  32.022  35.701  1.00  0.00     0.064 A 
ATOM     63  C   UNL A   1      39.998  33.304  35.917  1.00  0.00     0.173 A 
ATOM     64  C   UNL A   1      38.478  31.567  36.587  1.00  0.00     0.173 A 
ATOM     65  F   UNL A   1      40.954  33.784  35.107  1.00  0.00    -0.203 F 
ATOM     66  C   UNL A   1      39.591  34.078  37.000  1.00  0.00     0.198 A 
ATOM     67  C   UNL A   1      38.046  32.359  37.649  1.00  0.00     0.198 A 
ATOM     68  F   UNL A   1      37.931  30.353  36.425  1.00  0.00    -0.203 F 
ATOM     69  F   UNL A   1      40.165  35.268  37.224  1.00  0.00    -0.200 F 
ATOM     70  C   UNL A   1      38.611  33.608  37.861  1.00  0.00     0.200 A 
ATOM     71  F   UNL A   1      37.089  31.910  38.472  1.00  0.00    -0.200 F 
ATOM     72  F   UNL A   1      38.219  34.354  38.903  1.00  0.00    -0.200 F 
ENDBRANCH  48  62
BRANCH  49  73
ATOM     73  C   UNL A   1      42.333  26.722  27.719  1.00  0.00     0.064 A 
ATOM     74  C   UNL A   1      41.807  25.450  27.450  1.00  0.00     0.173 A 
ATOM     75  C   UNL A   1      43.308  27.220  26.842  1.00  0.00     0.173 A 
ATOM     76  F   UNL A   1      40.887  24.920  28.270  1.00  0.00    -0.203 F 
ATOM     77  C   UNL A   1      42.257  24.695  26.368  1.00  0.00     0.198 A 
ATOM     78  C   UNL A   1      43.736  26.476  25.743  1.00  0.00     0.198 A 
ATOM     79  F   UNL A   1      43.840  28.433  27.048  1.00  0.00    -0.203 F 
ATOM     80  F   UNL A   1      41.773  23.461  26.168  1.00  0.00    -0.200 F 
ATOM     81  C   UNL A   1      43.217  25.210  25.512  1.00  0.00     0.200 A 
ATOM     82  F   UNL A   1      44.655  26.982  24.910  1.00  0.00    -0.200 F 
ATOM     83  F   UNL A   1      43.649  24.485  24.471  1.00  0.00    -0.200 F 
ENDBRANCH  49  73
BRANCH  61  84
ATOM     84  C   UNL A   1      44.475  27.021  34.344  1.00  0.00     0.064 A 
ATOM     85  C   UNL A   1      44.223  25.783  34.954  1.00  0.00     0.173 A 
ATOM     86  C   UNL A   1      45.779  27.534  34.408  1.00  0.00     0.173 A 
ATOM     87  F   UNL A   1      42.990  25.257  34.931  1.00  0.00    -0.203 F 
ATOM     88  C   UNL A   1      45.236  25.096  35.619  1.00  0.00     0.198 A 
ATOM     89  C   UNL A   1      46.795  26.830  35.048  1.00  0.00     0.198 A 
ATOM     90  F   UNL A   1      46.071  28.711  33.834  1.00  0.00    -0.203 F 
ATOM     91  F   UNL A   1      44.964  23.935  36.230  1.00  0.00    -0.200 F 
ATOM     92  C   UNL A   1      46.521  25.615  35.657  1.00  0.00     0.200 A 
ATOM     93  F   UNL A   1      48.040  27.327  35.070  1.00  0.00    -0.200 F 
ATOM     94  F   UNL A   1      47.496  24.947  36.287  1.00  0.00    -0.200 F 
ENDBRANCH  61  84
ENDBRANCH  35  36
ENDBRANCH  27  30
ENDBRANCH  25  26
ENDBRANCH  24  25
ENDBRANCH  23  24
ENDBRANCH   3  23
TORSDOF 16
ENDMDL
MODEL 3
REMARK VINA RESULT:     -11.5      1.074      7.587
REMARK SMILES CC(C)(C)[N@H+](CCC(=O)NCCCNC(=O)c1ccc(-c2c3nc(c(-c4c(F)c(F)c(F)c(F)c4F)c4ccc([nH]4)c(-c4c(F)c(F)c(F)c(F)c4F)c4nc(c(-c5c(F)c(F)c(F)c(F)c5F)c5ccc2[nH]5)C=C4)C=C3)cc1)Cc1ccccc1C1CC1
REMARK SMILES IDX 8 1 9 2 10 3 7 5 6 6 5 7 2 9 1 10 3 11 4 12 80 13 81 14
REMARK SMILES IDX 82 15 86 16 83 17 85 18 84 19 87 20 88 21 89 22 11 23 12 24
REMARK SMILES IDX 13 25 14 26 15 27 16 29 17 30 18 31 79 32 19 33 78 34 20 35
REMARK SMILES IDX 21 36 22 37 72 38 23 39 77 40 71 41 73 42 24 43 76 44 70 45
REMARK SMILES IDX 69 46 25 48 57 49 37 50 56 51 38 52 41 53 55 54 74 55 39 56
REMARK SMILES IDX 40 57 54 59 75 60 42 61 26 62 27 63 35 64 28 65 29 66 33 67
REMARK SMILES IDX 36 68 30 69 31 70 34 71 32 72 58 73 59 74 67 75 60 76 61 77
REMARK SMILES IDX 65 78 68 79 62 80 63 81 66 82 64 83 43 84 44 85 52 86 45 87
REMARK SMILES IDX 46 88 50 89 53 90 47 91 48 92 51 93 49 94
REMARK H PARENT 10 4 5 8 14 28 73 47 41 58
REMARK Flexibility Score: inf
ROOT
ATOM      1  C   UNL A   1      32.982  26.620  22.392  1.00  0.00     0.225 C 
ATOM      2  O   UNL A   1      34.028  26.086  22.001  1.00  0.00    -0.275 OA
ATOM      3  N   UNL A   1      33.154  27.779  23.087  1.00  0.00    -0.356 N 
ATOM      4  H   UNL A   1      34.071  27.851  23.438  1.00  0.00     0.163 HD
ENDROOT
BRANCH   1   5
ATOM      5  C   UNL A   1      31.659  25.943  22.073  1.00  0.00     0.161 C 
BRANCH   5   6
ATOM      6  C   UNL A   1      31.276  24.890  23.115  1.00  0.00     0.272 C 
BRANCH   6   7
ATOM      7  N   UNL A   1      32.351  24.375  24.005  1.00  0.00    -0.327 N 
ATOM      8  H   UNL A   1      33.233  24.861  23.836  1.00  0.00     0.348 HD
BRANCH   7   9
ATOM      9  C   UNL A   1      32.059  24.698  25.468  1.00  0.00     0.089 C 
ATOM     10  C   UNL A   1      30.793  25.583  25.711  1.00  0.00     0.078 C 
ATOM     11  C   UNL A   1      33.230  25.550  26.009  1.00  0.00     0.078 C 
ATOM     12  C   UNL A   1      31.875  23.478  26.409  1.00  0.00     0.078 C 
ENDBRANCH   7   9
BRANCH   7  13
ATOM     13  C   UNL A   1      32.628  22.953  23.676  1.00  0.00     0.299 C 
BRANCH  13  14
ATOM     14  C   UNL A   1      34.037  22.360  23.892  1.00  0.00     0.010 A 
ATOM     15  C   UNL A   1      35.005  23.373  23.614  1.00  0.00     0.010 A 
ATOM     16  C   UNL A   1      34.517  21.111  24.435  1.00  0.00    -0.036 A 
ATOM     17  C   UNL A   1      36.366  23.244  23.853  1.00  0.00     0.001 A 
ATOM     18  C   UNL A   1      35.924  21.078  24.722  1.00  0.00     0.004 A 
ATOM     19  C   UNL A   1      36.829  22.093  24.434  1.00  0.00     0.000 A 
BRANCH  16  20
ATOM     20  C   UNL A   1      33.988  19.657  24.627  1.00  0.00     0.020 C 
ATOM     21  C   UNL A   1      32.904  19.541  25.733  1.00  0.00     0.009 C 
ATOM     22  C   UNL A   1      32.800  18.760  24.485  1.00  0.00     0.009 C 
ENDBRANCH  16  20
ENDBRANCH  13  14
ENDBRANCH   7  13
ENDBRANCH   6   7
ENDBRANCH   5   6
ENDBRANCH   1   5
BRANCH   3  23
ATOM     23  C   UNL A   1      32.348  28.954  23.458  1.00  0.00     0.117 C 
BRANCH  23  24
ATOM     24  C   UNL A   1      32.034  28.988  24.949  1.00  0.00     0.042 C 
BRANCH  24  25
ATOM     25  C   UNL A   1      33.107  29.704  25.760  1.00  0.00     0.118 C 
BRANCH  25  26
ATOM     26  N   UNL A   1      32.704  30.894  26.504  1.00  0.00    -0.352 N 
ATOM     27  C   UNL A   1      33.500  31.608  27.392  1.00  0.00     0.251 C 
ATOM     28  H   UNL A   1      31.785  31.220  26.364  1.00  0.00     0.163 HD
ATOM     29  O   UNL A   1      33.075  32.581  28.008  1.00  0.00    -0.269 OA
BRANCH  27  30
ATOM     30  C   UNL A   1      34.880  31.118  27.626  1.00  0.00     0.039 A 
ATOM     31  C   UNL A   1      35.899  32.030  27.908  1.00  0.00     0.014 A 
ATOM     32  C   UNL A   1      35.085  29.750  27.804  1.00  0.00     0.014 A 
ATOM     33  C   UNL A   1      37.079  31.574  28.506  1.00  0.00     0.010 A 
ATOM     34  C   UNL A   1      36.188  29.327  28.530  1.00  0.00     0.010 A 
ATOM     35  C   UNL A   1      37.201  30.229  28.900  1.00  0.00    -0.014 A 
BRANCH  35  36
ATOM     36  C   UNL A   1      38.361  29.730  29.695  1.00  0.00     0.031 A 
ATOM     37  C   UNL A   1      38.558  30.223  31.107  1.00  0.00     0.074 A 
ATOM     38  C   UNL A   1      39.292  28.933  29.129  1.00  0.00     0.049 A 
ATOM     39  N   UNL A   1      39.574  30.051  31.915  1.00  0.00    -0.248 NA
ATOM     40  C   UNL A   1      37.499  31.084  31.660  1.00  0.00     0.031 C 
ATOM     41  C   UNL A   1      39.279  28.451  27.746  1.00  0.00     0.029 A 
ATOM     42  N   UNL A   1      40.446  28.394  29.650  1.00  0.00    -0.354 N 
ATOM     43  C   UNL A   1      39.292  30.818  33.039  1.00  0.00     0.074 A 
ATOM     44  C   UNL A   1      38.060  31.523  32.774  1.00  0.00     0.031 C 
ATOM     45  C   UNL A   1      40.341  27.653  27.543  1.00  0.00     0.029 A 
ATOM     46  C   UNL A   1      41.137  27.599  28.765  1.00  0.00     0.049 A 
ATOM     47  H   UNL A   1      40.749  28.561  30.572  1.00  0.00     0.167 HD
ATOM     48  C   UNL A   1      39.970  30.894  34.208  1.00  0.00     0.037 A 
ATOM     49  C   UNL A   1      42.280  26.903  28.925  1.00  0.00     0.037 A 
ATOM     50  C   UNL A   1      41.148  30.125  34.502  1.00  0.00     0.049 A 
ATOM     51  C   UNL A   1      42.984  26.949  30.257  1.00  0.00     0.074 A 
ATOM     52  C   UNL A   1      41.859  30.053  35.686  1.00  0.00     0.029 A 
ATOM     53  N   UNL A   1      41.775  29.276  33.603  1.00  0.00    -0.354 N 
ATOM     54  N   UNL A   1      42.664  27.619  31.338  1.00  0.00    -0.248 NA
ATOM     55  C   UNL A   1      44.201  26.137  30.395  1.00  0.00     0.031 C 
ATOM     56  C   UNL A   1      42.938  29.184  35.492  1.00  0.00     0.029 A 
ATOM     57  C   UNL A   1      42.871  28.680  34.203  1.00  0.00     0.049 A 
ATOM     58  H   UNL A   1      41.484  29.120  32.675  1.00  0.00     0.167 HD
ATOM     59  C   UNL A   1      43.618  27.286  32.291  1.00  0.00     0.074 A 
ATOM     60  C   UNL A   1      44.520  26.341  31.665  1.00  0.00     0.031 C 
ATOM     61  C   UNL A   1      43.740  27.725  33.568  1.00  0.00     0.037 A 
BRANCH  48  62
ATOM     62  C   UNL A   1      39.429  31.815  35.265  1.00  0.00     0.064 A 
ATOM     63  C   UNL A   1      38.548  31.359  36.259  1.00  0.00     0.173 A 
ATOM     64  C   UNL A   1      39.802  33.167  35.294  1.00  0.00     0.173 A 
ATOM     65  F   UNL A   1      38.148  30.078  36.271  1.00  0.00    -0.203 F 
ATOM     66  C   UNL A   1      38.025  32.229  37.211  1.00  0.00     0.198 A 
ATOM     67  C   UNL A   1      39.306  34.028  36.271  1.00  0.00     0.198 A 
ATOM     68  F   UNL A   1      40.646  33.656  34.372  1.00  0.00    -0.203 F 
ATOM     69  F   UNL A   1      37.131  31.784  38.104  1.00  0.00    -0.200 F 
ATOM     70  C   UNL A   1      38.410  33.561  37.221  1.00  0.00     0.200 A 
ATOM     71  F   UNL A   1      39.689  35.312  36.287  1.00  0.00    -0.200 F 
ATOM     72  F   UNL A   1      37.907  34.398  38.138  1.00  0.00    -0.200 F 
ENDBRANCH  48  62
BRANCH  49  73
ATOM     73  C   UNL A   1      42.813  26.061  27.817  1.00  0.00     0.064 A 
ATOM     74  C   UNL A   1      43.707  26.595  26.877  1.00  0.00     0.173 A 
ATOM     75  C   UNL A   1      42.434  24.720  27.662  1.00  0.00     0.173 A 
ATOM     76  F   UNL A   1      44.084  27.880  26.969  1.00  0.00    -0.203 F 
ATOM     77  C   UNL A   1      44.179  25.831  25.812  1.00  0.00     0.198 A 
ATOM     78  C   UNL A   1      42.930  23.947  26.613  1.00  0.00     0.198 A 
ATOM     79  F   UNL A   1      41.587  24.157  28.535  1.00  0.00    -0.203 F 
ATOM     80  F   UNL A   1      44.991  26.385  24.901  1.00  0.00    -0.200 F 
ATOM     81  C   UNL A   1      43.795  24.506  25.683  1.00  0.00     0.200 A 
ATOM     82  F   UNL A   1      42.567  22.663  26.499  1.00  0.00    -0.200 F 
ATOM     83  F   UNL A   1      44.249  23.770  24.660  1.00  0.00    -0.200 F 
ENDBRANCH  49  73
BRANCH  61  84
ATOM     84  C   UNL A   1      44.858  27.156  34.389  1.00  0.00     0.064 A 
ATOM     85  C   UNL A   1      46.105  27.793  34.476  1.00  0.00     0.173 A 
ATOM     86  C   UNL A   1      44.660  25.990  35.144  1.00  0.00     0.173 A 
ATOM     87  F   UNL A   1      46.347  28.903  33.764  1.00  0.00    -0.203 F 
ATOM     88  C   UNL A   1      47.119  27.270  35.274  1.00  0.00     0.198 A 
ATOM     89  C   UNL A   1      45.666  25.488  35.963  1.00  0.00     0.198 A 
ATOM     90  F   UNL A   1      43.482  25.349  35.100  1.00  0.00    -0.203 F 
ATOM     91  F   UNL A   1      48.316  27.872  35.311  1.00  0.00    -0.200 F 
ATOM     92  C   UNL A   1      46.896  26.124  36.023  1.00  0.00     0.200 A 
ATOM     93  F   UNL A   1      45.443  24.389  36.698  1.00  0.00    -0.200 F 
ATOM     94  F   UNL A   1      47.870  25.630  36.799  1.00  0.00    -0.200 F 
ENDBRANCH  61  84
ENDBRANCH  35  36
ENDBRANCH  27  30
ENDBRANCH  25  26
ENDBRANCH  24  25
ENDBRANCH  23  24
ENDBRANCH   3  23
TORSDOF 16
ENDMDL
