MODEL 1
REMARK VINA RESULT:     -11.8      0.000      0.000
REMARK SMILES O=C(C[NH+]1CC[NH+](Cc2cc(Cl)ccc2[N+](=O)[O-])CC1)NCCCNC(=O)c1ccc(-c2c3nc(c(-c4c(F)c(F)c(F)c(F)c4F)c4ccc([nH]4)c(-c4c(F)c(F)c(F)c(F)c4F)c4nc(c(-c5c(F)c(F)c(F)c(F)c5F)c5ccc2[nH]5)C=C4)C=C3)cc1
REMARK SMILES IDX 22 1 21 2 1 3 2 4 3 6 4 7 5 8 20 9 6 11 19 12 7 13 8 15 9 16
REMARK SMILES IDX 10 17 15 18 11 19 14 20 12 21 13 22 16 23 17 24 18 25 23 26
REMARK SMILES IDX 24 27 25 28 26 29 27 31 28 32 29 33 90 34 30 35 89 36 31 37
REMARK SMILES IDX 32 38 33 39 83 40 34 41 88 42 82 43 84 44 35 45 87 46 81 47
REMARK SMILES IDX 80 48 36 50 68 51 48 52 67 53 49 54 52 55 66 56 85 57 50 58
REMARK SMILES IDX 51 59 65 61 86 62 53 63 37 64 38 65 46 66 39 67 40 68 44 69
REMARK SMILES IDX 47 70 41 71 42 72 45 73 43 74 69 75 70 76 78 77 71 78 72 79
REMARK SMILES IDX 76 80 79 81 73 82 74 83 77 84 75 85 54 86 55 87 63 88 56 89
REMARK SMILES IDX 57 90 61 91 64 92 58 93 59 94 62 95 60 96
REMARK H PARENT 21 5 4 10 7 14 25 30 84 49 52 60
REMARK Flexibility Score: inf
ROOT
ATOM      1  C   UNL A   1      34.423  33.759  28.923  1.00  0.00     0.118 C 
ENDROOT
BRANCH   1   2
ATOM      2  N   UNL A   1      34.149  32.365  28.640  1.00  0.00    -0.351 N 
ATOM      3  O   UNL A   1      36.159  31.886  27.631  1.00  0.00    -0.269 OA
ATOM      4  C   UNL A   1      35.066  31.515  28.051  1.00  0.00     0.275 C 
ATOM      5  H   UNL A   1      33.264  32.005  28.879  1.00  0.00     0.163 HD
BRANCH   4   6
ATOM      6  C   UNL A   1      34.607  30.046  27.930  1.00  0.00     0.363 C 
BRANCH   6   7
ATOM      7  N   UNL A   1      33.693  29.890  26.776  1.00  0.00    -0.318 N 
ATOM      8  C   UNL A   1      34.028  28.697  25.986  1.00  0.00     0.325 C 
ATOM      9  C   UNL A   1      32.269  29.905  27.162  1.00  0.00     0.325 C 
ATOM     10  H   UNL A   1      33.834  30.709  26.184  1.00  0.00     0.348 HD
ATOM     11  C   UNL A   1      33.423  27.364  26.485  1.00  0.00     0.324 C 
ATOM     12  C   UNL A   1      31.653  28.560  27.626  1.00  0.00     0.324 C 
ATOM     13  N   UNL A   1      31.995  27.395  26.807  1.00  0.00    -0.322 N 
ATOM     14  H   UNL A   1      31.833  26.588  27.410  1.00  0.00     0.348 HD
BRANCH  13  15
ATOM     15  C   UNL A   1      31.053  27.007  25.745  1.00  0.00     0.306 C 
BRANCH  15  16
ATOM     16  C   UNL A   1      31.387  25.747  24.965  1.00  0.00     0.085 A 
ATOM     17  C   UNL A   1      31.912  25.945  23.667  1.00  0.00     0.037 A 
ATOM     18  C   UNL A   1      31.134  24.415  25.363  1.00  0.00     0.278 A 
ATOM     19  C   UNL A   1      31.979  24.908  22.735  1.00  0.00     0.042 A 
ATOM     20  C   UNL A   1      31.225  23.368  24.415  1.00  0.00     0.088 A 
ATOM     21  Cl  UNL A   1      32.439  25.247  21.113  1.00  0.00    -0.084 Cl
ATOM     22  C   UNL A   1      31.606  23.623  23.096  1.00  0.00     0.027 A 
BRANCH  18  23
ATOM     23  N   UNL A   1      30.806  24.013  26.750  1.00  0.00     0.063 N 
ATOM     24  O   UNL A   1      31.751  23.717  27.496  1.00  0.00    -0.258 OA
ATOM     25  O   UNL A   1      29.627  24.015  27.115  1.00  0.00    -0.258 OA
ENDBRANCH  18  23
ENDBRANCH  15  16
ENDBRANCH  13  15
ENDBRANCH   6   7
ENDBRANCH   4   6
ENDBRANCH   1   2
BRANCH   1  26
ATOM     26  C   UNL A   1      33.193  34.655  28.800  1.00  0.00     0.042 C 
BRANCH  26  27
ATOM     27  C   UNL A   1      33.366  36.058  29.377  1.00  0.00     0.118 C 
BRANCH  27  28
ATOM     28  N   UNL A   1      32.505  36.313  30.530  1.00  0.00    -0.352 N 
ATOM     29  C   UNL A   1      32.580  35.872  31.828  1.00  0.00     0.251 C 
ATOM     30  H   UNL A   1      31.739  36.902  30.344  1.00  0.00     0.163 HD
ATOM     31  O   UNL A   1      31.642  36.095  32.596  1.00  0.00    -0.269 OA
BRANCH  29  32
ATOM     32  C   UNL A   1      33.754  35.119  32.322  1.00  0.00     0.039 A 
ATOM     33  C   UNL A   1      33.569  33.820  32.812  1.00  0.00     0.014 A 
ATOM     34  C   UNL A   1      35.025  35.693  32.353  1.00  0.00     0.014 A 
ATOM     35  C   UNL A   1      34.666  33.074  33.257  1.00  0.00     0.010 A 
ATOM     36  C   UNL A   1      36.128  34.924  32.724  1.00  0.00     0.010 A 
ATOM     37  C   UNL A   1      35.962  33.606  33.178  1.00  0.00    -0.014 A 
BRANCH  37  38
ATOM     38  C   UNL A   1      37.161  32.812  33.561  1.00  0.00     0.031 A 
ATOM     39  C   UNL A   1      37.879  33.105  34.850  1.00  0.00     0.074 A 
ATOM     40  C   UNL A   1      37.657  31.892  32.712  1.00  0.00     0.049 A 
ATOM     41  N   UNL A   1      39.017  32.631  35.294  1.00  0.00    -0.248 NA
ATOM     42  C   UNL A   1      37.246  34.084  35.748  1.00  0.00     0.031 C 
ATOM     43  C   UNL A   1      37.074  31.530  31.419  1.00  0.00     0.029 A 
ATOM     44  N   UNL A   1      38.783  31.107  32.797  1.00  0.00    -0.354 N 
ATOM     45  C   UNL A   1      39.244  33.269  36.507  1.00  0.00     0.074 A 
ATOM     46  C   UNL A   1      38.154  34.198  36.706  1.00  0.00     0.031 C 
ATOM     47  C   UNL A   1      37.837  30.590  30.839  1.00  0.00     0.029 A 
ATOM     48  C   UNL A   1      38.990  30.319  31.692  1.00  0.00     0.049 A 
ATOM     49  H   UNL A   1      39.383  31.110  33.577  1.00  0.00     0.167 HD
ATOM     50  C   UNL A   1      40.261  33.083  37.383  1.00  0.00     0.037 A 
ATOM     51  C   UNL A   1      40.006  29.488  31.388  1.00  0.00     0.037 A 
ATOM     52  C   UNL A   1      41.336  32.143  37.192  1.00  0.00     0.049 A 
ATOM     53  C   UNL A   1      41.140  29.321  32.365  1.00  0.00     0.074 A 
ATOM     54  C   UNL A   1      42.385  31.847  38.045  1.00  0.00     0.029 A 
ATOM     55  N   UNL A   1      41.500  31.348  36.066  1.00  0.00    -0.354 N 
ATOM     56  N   UNL A   1      41.319  29.890  33.533  1.00  0.00    -0.248 NA
ATOM     57  C   UNL A   1      42.213  28.391  31.984  1.00  0.00     0.031 C 
ATOM     58  C   UNL A   1      43.214  30.915  37.411  1.00  0.00     0.029 A 
ATOM     59  C   UNL A   1      42.647  30.580  36.193  1.00  0.00     0.049 A 
ATOM     60  H   UNL A   1      40.892  31.333  35.292  1.00  0.00     0.167 HD
ATOM     61  C   UNL A   1      42.498  29.361  34.040  1.00  0.00     0.074 A 
ATOM     62  C   UNL A   1      42.990  28.418  33.057  1.00  0.00     0.031 C 
ATOM     63  C   UNL A   1      43.117  29.631  35.216  1.00  0.00     0.037 A 
BRANCH  50  64
ATOM     64  C   UNL A   1      40.266  33.921  38.632  1.00  0.00     0.064 A 
ATOM     65  C   UNL A   1      40.975  35.129  38.708  1.00  0.00     0.173 A 
ATOM     66  C   UNL A   1      39.524  33.527  39.756  1.00  0.00     0.173 A 
ATOM     67  F   UNL A   1      41.709  35.548  37.666  1.00  0.00    -0.203 F 
ATOM     68  C   UNL A   1      40.968  35.895  39.872  1.00  0.00     0.198 A 
ATOM     69  C   UNL A   1      39.490  34.312  40.906  1.00  0.00     0.198 A 
ATOM     70  F   UNL A   1      38.820  32.385  39.737  1.00  0.00    -0.203 F 
ATOM     71  F   UNL A   1      41.698  37.017  39.938  1.00  0.00    -0.200 F 
ATOM     72  C   UNL A   1      40.219  35.489  40.967  1.00  0.00     0.200 A 
ATOM     73  F   UNL A   1      38.753  33.928  41.956  1.00  0.00    -0.200 F 
ATOM     74  F   UNL A   1      40.207  36.230  42.083  1.00  0.00    -0.200 F 
ENDBRANCH  50  64
BRANCH  51  75
ATOM     75  C   UNL A   1      39.997  28.737  30.103  1.00  0.00     0.064 A 
ATOM     76  C   UNL A   1      39.408  27.468  30.016  1.00  0.00     0.173 A 
ATOM     77  C   UNL A   1      40.588  29.262  28.944  1.00  0.00     0.173 A 
ATOM     78  F   UNL A   1      38.851  26.913  31.102  1.00  0.00    -0.203 F 
ATOM     79  C   UNL A   1      39.433  26.742  28.827  1.00  0.00     0.198 A 
ATOM     80  C   UNL A   1      40.582  28.549  27.747  1.00  0.00     0.198 A 
ATOM     81  F   UNL A   1      41.163  30.474  28.972  1.00  0.00    -0.203 F 
ATOM     82  F   UNL A   1      38.911  25.508  28.787  1.00  0.00    -0.200 F 
ATOM     83  C   UNL A   1      40.015  27.285  27.691  1.00  0.00     0.200 A 
ATOM     84  F   UNL A   1      41.133  29.084  26.648  1.00  0.00    -0.200 F 
ATOM     85  F   UNL A   1      40.036  26.587  26.548  1.00  0.00    -0.200 F 
ENDBRANCH  51  75
BRANCH  63  86
ATOM     86  C   UNL A   1      44.363  28.855  35.540  1.00  0.00     0.064 A 
ATOM     87  C   UNL A   1      45.640  29.322  35.194  1.00  0.00     0.173 A 
ATOM     88  C   UNL A   1      44.277  27.648  36.252  1.00  0.00     0.173 A 
ATOM     89  F   UNL A   1      45.776  30.463  34.501  1.00  0.00    -0.203 F 
ATOM     90  C   UNL A   1      46.781  28.597  35.525  1.00  0.00     0.198 A 
ATOM     91  C   UNL A   1      45.421  26.943  36.611  1.00  0.00     0.198 A 
ATOM     92  F   UNL A   1      43.081  27.160  36.614  1.00  0.00    -0.203 F 
ATOM     93  F   UNL A   1      47.987  29.037  35.141  1.00  0.00    -0.200 F 
ATOM     94  C   UNL A   1      46.672  27.413  36.241  1.00  0.00     0.200 A 
ATOM     95  F   UNL A   1      45.314  25.810  37.319  1.00  0.00    -0.200 F 
ATOM     96  F   UNL A   1      47.773  26.724  36.570  1.00  0.00    -0.200 F 
ENDBRANCH  63  86
ENDBRANCH  37  38
ENDBRANCH  29  32
ENDBRANCH  27  28
ENDBRANCH  26  27
ENDBRANCH   1  26
TORSDOF 14
ENDMDL
MODEL 2
REMARK VINA RESULT:     -11.7      1.849      7.694
REMARK SMILES O=C(C[NH+]1CC[NH+](Cc2cc(Cl)ccc2[N+](=O)[O-])CC1)NCCCNC(=O)c1ccc(-c2c3nc(c(-c4c(F)c(F)c(F)c(F)c4F)c4ccc([nH]4)c(-c4c(F)c(F)c(F)c(F)c4F)c4nc(c(-c5c(F)c(F)c(F)c(F)c5F)c5ccc2[nH]5)C=C4)C=C3)cc1
REMARK SMILES IDX 22 1 21 2 1 3 2 4 3 6 4 7 5 8 20 9 6 11 19 12 7 13 8 15 9 16
REMARK SMILES IDX 10 17 15 18 11 19 14 20 12 21 13 22 16 23 17 24 18 25 23 26
REMARK SMILES IDX 24 27 25 28 26 29 27 31 28 32 29 33 90 34 30 35 89 36 31 37
REMARK SMILES IDX 32 38 33 39 83 40 34 41 88 42 82 43 84 44 35 45 87 46 81 47
REMARK SMILES IDX 80 48 36 50 68 51 48 52 67 53 49 54 52 55 66 56 85 57 50 58
REMARK SMILES IDX 51 59 65 61 86 62 53 63 37 64 38 65 46 66 39 67 40 68 44 69
REMARK SMILES IDX 47 70 41 71 42 72 45 73 43 74 69 75 70 76 78 77 71 78 72 79
REMARK SMILES IDX 76 80 79 81 73 82 74 83 77 84 75 85 54 86 55 87 63 88 56 89
REMARK SMILES IDX 57 90 61 91 64 92 58 93 59 94 62 95 60 96
REMARK H PARENT 21 5 4 10 7 14 25 30 84 49 52 60
REMARK Flexibility Score: inf
ROOT
ATOM      1  C   UNL A   1      31.261  30.820  26.505  1.00  0.00     0.118 C 
ENDROOT
BRANCH   1   2
ATOM      2  N   UNL A   1      31.508  30.168  25.236  1.00  0.00    -0.351 N 
ATOM      3  O   UNL A   1      33.695  29.588  25.644  1.00  0.00    -0.269 OA
ATOM      4  C   UNL A   1      32.705  29.555  24.918  1.00  0.00     0.275 C 
ATOM      5  H   UNL A   1      30.787  30.161  24.566  1.00  0.00     0.163 HD
BRANCH   4   6
ATOM      6  C   UNL A   1      32.725  28.834  23.553  1.00  0.00     0.363 C 
BRANCH   6   7
ATOM      7  N   UNL A   1      33.254  27.460  23.710  1.00  0.00    -0.318 N 
ATOM      8  C   UNL A   1      32.529  26.724  24.756  1.00  0.00     0.325 C 
ATOM      9  C   UNL A   1      33.289  26.707  22.441  1.00  0.00     0.325 C 
ATOM     10  H   UNL A   1      34.224  27.557  24.009  1.00  0.00     0.348 HD
ATOM     11  C   UNL A   1      31.218  26.034  24.312  1.00  0.00     0.324 C 
ATOM     12  C   UNL A   1      31.985  25.985  22.016  1.00  0.00     0.324 C 
ATOM     13  N   UNL A   1      31.297  25.249  23.079  1.00  0.00    -0.322 N 
ATOM     14  H   UNL A   1      30.335  25.150  22.756  1.00  0.00     0.348 HD
BRANCH  13  15
ATOM     15  C   UNL A   1      31.584  23.811  23.210  1.00  0.00     0.306 C 
BRANCH  15  16
ATOM     16  C   UNL A   1      32.737  23.428  24.122  1.00  0.00     0.085 A 
ATOM     17  C   UNL A   1      34.021  23.429  23.528  1.00  0.00     0.037 A 
ATOM     18  C   UNL A   1      32.645  22.977  25.458  1.00  0.00     0.278 A 
ATOM     19  C   UNL A   1      35.115  22.817  24.142  1.00  0.00     0.042 A 
ATOM     20  C   UNL A   1      33.766  22.377  26.077  1.00  0.00     0.088 A 
ATOM     21  Cl  UNL A   1      36.602  22.674  23.289  1.00  0.00    -0.084 Cl
ATOM     22  C   UNL A   1      34.983  22.261  25.404  1.00  0.00     0.027 A 
BRANCH  18  23
ATOM     23  N   UNL A   1      31.434  23.122  26.299  1.00  0.00     0.063 N 
ATOM     24  O   UNL A   1      30.487  22.355  26.069  1.00  0.00    -0.258 OA
ATOM     25  O   UNL A   1      31.422  23.966  27.199  1.00  0.00    -0.258 OA
ENDBRANCH  18  23
ENDBRANCH  15  16
ENDBRANCH  13  15
ENDBRANCH   6   7
ENDBRANCH   4   6
ENDBRANCH   1   2
BRANCH   1  26
ATOM     26  C   UNL A   1      31.406  32.340  26.444  1.00  0.00     0.042 C 
BRANCH  26  27
ATOM     27  C   UNL A   1      32.596  32.898  27.221  1.00  0.00     0.118 C 
BRANCH  27  28
ATOM     28  N   UNL A   1      32.395  34.275  27.665  1.00  0.00    -0.352 N 
ATOM     29  C   UNL A   1      33.022  35.009  28.642  1.00  0.00     0.251 C 
ATOM     30  H   UNL A   1      31.688  34.759  27.182  1.00  0.00     0.163 HD
ATOM     31  O   UNL A   1      32.572  36.115  28.947  1.00  0.00    -0.269 OA
BRANCH  29  32
ATOM     32  C   UNL A   1      34.216  34.496  29.348  1.00  0.00     0.039 A 
ATOM     33  C   UNL A   1      34.056  33.902  30.606  1.00  0.00     0.014 A 
ATOM     34  C   UNL A   1      35.495  34.635  28.809  1.00  0.00     0.014 A 
ATOM     35  C   UNL A   1      35.164  33.380  31.283  1.00  0.00     0.010 A 
ATOM     36  C   UNL A   1      36.588  34.049  29.447  1.00  0.00     0.010 A 
ATOM     37  C   UNL A   1      36.435  33.413  30.690  1.00  0.00    -0.014 A 
BRANCH  37  38
ATOM     38  C   UNL A   1      37.621  32.792  31.340  1.00  0.00     0.031 A 
ATOM     39  C   UNL A   1      38.331  31.645  30.675  1.00  0.00     0.074 A 
ATOM     40  C   UNL A   1      38.005  33.196  32.566  1.00  0.00     0.049 A 
ATOM     41  N   UNL A   1      39.286  30.876  31.137  1.00  0.00    -0.248 NA
ATOM     42  C   UNL A   1      37.889  31.297  29.315  1.00  0.00     0.031 C 
ATOM     43  C   UNL A   1      37.386  34.278  33.333  1.00  0.00     0.029 A 
ATOM     44  N   UNL A   1      38.995  32.727  33.396  1.00  0.00    -0.354 N 
ATOM     45  C   UNL A   1      39.540  29.945  30.139  1.00  0.00     0.074 A 
ATOM     46  C   UNL A   1      38.608  30.213  29.066  1.00  0.00     0.031 C 
ATOM     47  C   UNL A   1      38.015  34.398  34.513  1.00  0.00     0.029 A 
ATOM     48  C   UNL A   1      39.047  33.370  34.610  1.00  0.00     0.049 A 
ATOM     49  H   UNL A   1      39.609  32.000  33.145  1.00  0.00     0.167 HD
ATOM     50  C   UNL A   1      40.478  28.968  30.112  1.00  0.00     0.037 A 
ATOM     51  C   UNL A   1      39.822  33.142  35.688  1.00  0.00     0.037 A 
ATOM     52  C   UNL A   1      41.418  28.716  31.175  1.00  0.00     0.049 A 
ATOM     53  C   UNL A   1      40.837  32.029  35.645  1.00  0.00     0.074 A 
ATOM     54  C   UNL A   1      42.439  27.782  31.220  1.00  0.00     0.029 A 
ATOM     55  N   UNL A   1      41.451  29.402  32.381  1.00  0.00    -0.354 N 
ATOM     56  N   UNL A   1      41.104  31.188  34.675  1.00  0.00    -0.248 NA
ATOM     57  C   UNL A   1      41.662  31.838  36.846  1.00  0.00     0.031 C 
ATOM     58  C   UNL A   1      43.051  27.863  32.475  1.00  0.00     0.029 A 
ATOM     59  C   UNL A   1      42.458  28.893  33.186  1.00  0.00     0.049 A 
ATOM     60  H   UNL A   1      40.847  30.139  32.628  1.00  0.00     0.167 HD
ATOM     61  C   UNL A   1      42.150  30.397  35.132  1.00  0.00     0.074 A 
ATOM     62  C   UNL A   1      42.474  30.863  36.464  1.00  0.00     0.031 C 
ATOM     63  C   UNL A   1      42.784  29.377  34.504  1.00  0.00     0.037 A 
BRANCH  50  64
ATOM     64  C   UNL A   1      40.532  28.087  28.895  1.00  0.00     0.064 A 
ATOM     65  C   UNL A   1      39.801  26.892  28.814  1.00  0.00     0.173 A 
ATOM     66  C   UNL A   1      41.299  28.461  27.780  1.00  0.00     0.173 A 
ATOM     67  F   UNL A   1      39.060  26.483  29.855  1.00  0.00    -0.203 F 
ATOM     68  C   UNL A   1      39.860  26.089  27.678  1.00  0.00     0.198 A 
ATOM     69  C   UNL A   1      41.327  27.673  26.631  1.00  0.00     0.198 A 
ATOM     70  F   UNL A   1      42.011  29.597  27.798  1.00  0.00    -0.203 F 
ATOM     71  F   UNL A   1      39.197  24.925  27.647  1.00  0.00    -0.200 F 
ATOM     72  C   UNL A   1      40.617  26.484  26.585  1.00  0.00     0.200 A 
ATOM     73  F   UNL A   1      42.046  28.065  25.570  1.00  0.00    -0.200 F 
ATOM     74  F   UNL A   1      40.667  25.714  25.490  1.00  0.00    -0.200 F 
ENDBRANCH  50  64
BRANCH  51  75
ATOM     75  C   UNL A   1      39.679  33.991  36.901  1.00  0.00     0.064 A 
ATOM     76  C   UNL A   1      38.877  33.581  37.975  1.00  0.00     0.173 A 
ATOM     77  C   UNL A   1      40.326  35.232  37.007  1.00  0.00     0.173 A 
ATOM     78  F   UNL A   1      38.219  32.414  37.912  1.00  0.00    -0.203 F 
ATOM     79  C   UNL A   1      38.706  34.390  39.097  1.00  0.00     0.198 A 
ATOM     80  C   UNL A   1      40.180  36.024  38.144  1.00  0.00     0.198 A 
ATOM     81  F   UNL A   1      41.108  35.670  36.009  1.00  0.00    -0.203 F 
ATOM     82  F   UNL A   1      37.889  33.998  40.084  1.00  0.00    -0.200 F 
ATOM     83  C   UNL A   1      39.362  35.609  39.183  1.00  0.00     0.200 A 
ATOM     84  F   UNL A   1      40.828  37.195  38.229  1.00  0.00    -0.200 F 
ATOM     85  F   UNL A   1      39.198  36.385  40.263  1.00  0.00    -0.200 F 
ENDBRANCH  51  75
BRANCH  63  86
ATOM     86  C   UNL A   1      43.937  28.730  35.219  1.00  0.00     0.064 A 
ATOM     87  C   UNL A   1      45.255  29.184  35.065  1.00  0.00     0.173 A 
ATOM     88  C   UNL A   1      43.708  27.671  36.113  1.00  0.00     0.173 A 
ATOM     89  F   UNL A   1      45.530  30.183  34.213  1.00  0.00    -0.203 F 
ATOM     90  C   UNL A   1      46.304  28.583  35.756  1.00  0.00     0.198 A 
ATOM     91  C   UNL A   1      44.753  27.096  36.828  1.00  0.00     0.198 A 
ATOM     92  F   UNL A   1      42.465  27.204  36.303  1.00  0.00    -0.203 F 
ATOM     93  F   UNL A   1      47.562  29.000  35.555  1.00  0.00    -0.200 F 
ATOM     94  C   UNL A   1      46.052  27.547  36.644  1.00  0.00     0.200 A 
ATOM     95  F   UNL A   1      44.505  26.108  37.698  1.00  0.00    -0.200 F 
ATOM     96  F   UNL A   1      47.062  26.980  37.319  1.00  0.00    -0.200 F 
ENDBRANCH  63  86
ENDBRANCH  37  38
ENDBRANCH  29  32
ENDBRANCH  27  28
ENDBRANCH  26  27
ENDBRANCH   1  26
TORSDOF 14
ENDMDL
MODEL 3
REMARK VINA RESULT:     -11.6      2.288      7.872
REMARK SMILES O=C(C[NH+]1CC[NH+](Cc2cc(Cl)ccc2[N+](=O)[O-])CC1)NCCCNC(=O)c1ccc(-c2c3nc(c(-c4c(F)c(F)c(F)c(F)c4F)c4ccc([nH]4)c(-c4c(F)c(F)c(F)c(F)c4F)c4nc(c(-c5c(F)c(F)c(F)c(F)c5F)c5ccc2[nH]5)C=C4)C=C3)cc1
REMARK SMILES IDX 22 1 21 2 1 3 2 4 3 6 4 7 5 8 20 9 6 11 19 12 7 13 8 15 9 16
REMARK SMILES IDX 10 17 15 18 11 19 14 20 12 21 13 22 16 23 17 24 18 25 23 26
REMARK SMILES IDX 24 27 25 28 26 29 27 31 28 32 29 33 90 34 30 35 89 36 31 37
REMARK SMILES IDX 32 38 33 39 83 40 34 41 88 42 82 43 84 44 35 45 87 46 81 47
REMARK SMILES IDX 80 48 36 50 68 51 48 52 67 53 49 54 52 55 66 56 85 57 50 58
REMARK SMILES IDX 51 59 65 61 86 62 53 63 37 64 38 65 46 66 39 67 40 68 44 69
REMARK SMILES IDX 47 70 41 71 42 72 45 73 43 74 69 75 70 76 78 77 71 78 72 79
REMARK SMILES IDX 76 80 79 81 73 82 74 83 77 84 75 85 54 86 55 87 63 88 56 89
REMARK SMILES IDX 57 90 61 91 64 92 58 93 59 94 62 95 60 96
REMARK H PARENT 21 5 4 10 7 14 25 30 84 49 52 60
REMARK Flexibility Score: inf
ROOT
ATOM      1  C   UNL A   1      31.375  30.778  26.551  1.00  0.00     0.118 C 
ENDROOT
BRANCH   1   2
ATOM      2  N   UNL A   1      31.650  30.167  25.267  1.00  0.00    -0.351 N 
ATOM      3  O   UNL A   1      33.760  29.404  25.769  1.00  0.00    -0.269 OA
ATOM      4  C   UNL A   1      32.816  29.480  24.987  1.00  0.00     0.275 C 
ATOM      5  H   UNL A   1      30.972  30.246  24.557  1.00  0.00     0.163 HD
BRANCH   4   6
ATOM      6  C   UNL A   1      32.865  28.822  23.591  1.00  0.00     0.363 C 
BRANCH   6   7
ATOM      7  N   UNL A   1      32.097  27.557  23.595  1.00  0.00    -0.318 N 
ATOM      8  C   UNL A   1      32.481  26.694  22.468  1.00  0.00     0.325 C 
ATOM      9  C   UNL A   1      32.175  26.838  24.882  1.00  0.00     0.325 C 
ATOM     10  H   UNL A   1      31.117  27.814  23.475  1.00  0.00     0.348 HD
ATOM     11  C   UNL A   1      33.719  25.796  22.696  1.00  0.00     0.324 C 
ATOM     12  C   UNL A   1      33.398  25.909  25.094  1.00  0.00     0.324 C 
ATOM     13  N   UNL A   1      33.743  25.052  23.957  1.00  0.00    -0.322 N 
ATOM     14  H   UNL A   1      34.719  24.794  24.104  1.00  0.00     0.348 HD
BRANCH  13  15
ATOM     15  C   UNL A   1      33.202  23.683  23.945  1.00  0.00     0.306 C 
BRANCH  15  16
ATOM     16  C   UNL A   1      34.094  22.594  24.516  1.00  0.00     0.085 A 
ATOM     17  C   UNL A   1      35.346  23.021  25.017  1.00  0.00     0.037 A 
ATOM     18  C   UNL A   1      33.844  21.204  24.504  1.00  0.00     0.278 A 
ATOM     19  C   UNL A   1      36.376  22.118  25.287  1.00  0.00     0.042 A 
ATOM     20  C   UNL A   1      34.889  20.298  24.800  1.00  0.00     0.088 A 
ATOM     21  Cl  UNL A   1      37.938  22.705  25.703  1.00  0.00    -0.084 Cl
ATOM     22  C   UNL A   1      36.161  20.756  25.149  1.00  0.00     0.027 A 
BRANCH  18  23
ATOM     23  N   UNL A   1      32.517  20.604  24.232  1.00  0.00     0.063 N 
ATOM     24  O   UNL A   1      31.800  20.342  25.209  1.00  0.00    -0.258 OA
ATOM     25  O   UNL A   1      32.168  20.417  23.063  1.00  0.00    -0.258 OA
ENDBRANCH  18  23
ENDBRANCH  15  16
ENDBRANCH  13  15
ENDBRANCH   6   7
ENDBRANCH   4   6
ENDBRANCH   1   2
BRANCH   1  26
ATOM     26  C   UNL A   1      31.417  32.304  26.517  1.00  0.00     0.042 C 
BRANCH  26  27
ATOM     27  C   UNL A   1      32.648  32.923  27.174  1.00  0.00     0.118 C 
BRANCH  27  28
ATOM     28  N   UNL A   1      32.413  34.277  27.670  1.00  0.00    -0.352 N 
ATOM     29  C   UNL A   1      33.016  34.986  28.680  1.00  0.00     0.251 C 
ATOM     30  H   UNL A   1      31.700  34.765  27.199  1.00  0.00     0.163 HD
ATOM     31  O   UNL A   1      32.539  36.069  29.024  1.00  0.00    -0.269 OA
BRANCH  29  32
ATOM     32  C   UNL A   1      34.215  34.472  29.377  1.00  0.00     0.039 A 
ATOM     33  C   UNL A   1      34.062  33.859  30.627  1.00  0.00     0.014 A 
ATOM     34  C   UNL A   1      35.492  34.626  28.837  1.00  0.00     0.014 A 
ATOM     35  C   UNL A   1      35.174  33.336  31.295  1.00  0.00     0.010 A 
ATOM     36  C   UNL A   1      36.590  34.038  29.465  1.00  0.00     0.010 A 
ATOM     37  C   UNL A   1      36.444  33.385  30.699  1.00  0.00    -0.014 A 
BRANCH  37  38
ATOM     38  C   UNL A   1      37.635  32.763  31.339  1.00  0.00     0.031 A 
ATOM     39  C   UNL A   1      38.291  31.566  30.707  1.00  0.00     0.074 A 
ATOM     40  C   UNL A   1      38.072  33.215  32.530  1.00  0.00     0.049 A 
ATOM     41  N   UNL A   1      39.241  30.795  31.174  1.00  0.00    -0.248 NA
ATOM     42  C   UNL A   1      37.792  31.165  29.381  1.00  0.00     0.031 C 
ATOM     43  C   UNL A   1      37.509  34.350  33.263  1.00  0.00     0.029 A 
ATOM     44  N   UNL A   1      39.078  32.759  33.348  1.00  0.00    -0.354 N 
ATOM     45  C   UNL A   1      39.436  29.810  30.214  1.00  0.00     0.074 A 
ATOM     46  C   UNL A   1      38.474  30.051  29.161  1.00  0.00     0.031 C 
ATOM     47  C   UNL A   1      38.182  34.508  34.414  1.00  0.00     0.029 A 
ATOM     48  C   UNL A   1      39.189  33.457  34.526  1.00  0.00     0.049 A 
ATOM     49  H   UNL A   1      39.664  32.004  33.112  1.00  0.00     0.167 HD
ATOM     50  C   UNL A   1      40.346  28.806  30.204  1.00  0.00     0.037 A 
ATOM     51  C   UNL A   1      39.996  33.261  35.587  1.00  0.00     0.037 A 
ATOM     52  C   UNL A   1      41.316  28.580  31.245  1.00  0.00     0.049 A 
ATOM     53  C   UNL A   1      40.979  32.119  35.564  1.00  0.00     0.074 A 
ATOM     54  C   UNL A   1      42.313  27.620  31.302  1.00  0.00     0.029 A 
ATOM     55  N   UNL A   1      41.409  29.322  32.414  1.00  0.00    -0.354 N 
ATOM     56  N   UNL A   1      41.190  31.225  34.629  1.00  0.00    -0.248 NA
ATOM     57  C   UNL A   1      41.840  31.963  36.745  1.00  0.00     0.031 C 
ATOM     58  C   UNL A   1      42.971  27.745  32.530  1.00  0.00     0.029 A 
ATOM     59  C   UNL A   1      42.430  28.824  33.209  1.00  0.00     0.049 A 
ATOM     60  H   UNL A   1      40.834  30.086  32.645  1.00  0.00     0.167 HD
ATOM     61  C   UNL A   1      42.230  30.428  35.089  1.00  0.00     0.074 A 
ATOM     62  C   UNL A   1      42.613  30.948  36.384  1.00  0.00     0.031 C 
ATOM     63  C   UNL A   1      42.815  29.361  34.490  1.00  0.00     0.037 A 
BRANCH  50  64
ATOM     64  C   UNL A   1      40.335  27.867  29.030  1.00  0.00     0.064 A 
ATOM     65  C   UNL A   1      41.095  28.115  27.877  1.00  0.00     0.173 A 
ATOM     66  C   UNL A   1      39.580  26.684  29.073  1.00  0.00     0.173 A 
ATOM     67  F   UNL A   1      41.827  29.235  27.780  1.00  0.00    -0.203 F 
ATOM     68  C   UNL A   1      41.075  27.233  26.800  1.00  0.00     0.198 A 
ATOM     69  C   UNL A   1      39.590  25.786  28.008  1.00  0.00     0.198 A 
ATOM     70  F   UNL A   1      38.840  26.392  30.153  1.00  0.00    -0.203 F 
ATOM     71  F   UNL A   1      41.766  27.520  25.688  1.00  0.00    -0.200 F 
ATOM     72  C   UNL A   1      40.329  26.066  26.869  1.00  0.00     0.200 A 
ATOM     73  F   UNL A   1      38.881  24.652  28.084  1.00  0.00    -0.200 F 
ATOM     74  F   UNL A   1      40.316  25.215  25.835  1.00  0.00    -0.200 F 
ENDBRANCH  50  64
BRANCH  51  75
ATOM     75  C   UNL A   1      39.918  34.170  36.762  1.00  0.00     0.064 A 
ATOM     76  C   UNL A   1      40.711  35.324  36.831  1.00  0.00     0.173 A 
ATOM     77  C   UNL A   1      39.067  33.899  37.843  1.00  0.00     0.173 A 
ATOM     78  F   UNL A   1      41.558  35.616  35.833  1.00  0.00    -0.203 F 
ATOM     79  C   UNL A   1      40.673  36.158  37.947  1.00  0.00     0.198 A 
ATOM     80  C   UNL A   1      39.007  34.751  38.944  1.00  0.00     0.198 A 
ATOM     81  F   UNL A   1      38.286  32.809  37.827  1.00  0.00    -0.203 F 
ATOM     82  F   UNL A   1      41.483  37.226  38.010  1.00  0.00    -0.200 F 
ATOM     83  C   UNL A   1      39.817  35.875  39.000  1.00  0.00     0.200 A 
ATOM     84  F   UNL A   1      38.167  34.481  39.953  1.00  0.00    -0.200 F 
ATOM     85  F   UNL A   1      39.781  36.678  40.072  1.00  0.00    -0.200 F 
ENDBRANCH  51  75
BRANCH  63  86
ATOM     86  C   UNL A   1      43.975  28.718  35.197  1.00  0.00     0.064 A 
ATOM     87  C   UNL A   1      43.795  27.698  36.143  1.00  0.00     0.173 A 
ATOM     88  C   UNL A   1      45.290  29.097  34.883  1.00  0.00     0.173 A 
ATOM     89  F   UNL A   1      42.558  27.309  36.489  1.00  0.00    -0.203 F 
ATOM     90  C   UNL A   1      44.886  27.101  36.768  1.00  0.00     0.198 A 
ATOM     91  C   UNL A   1      46.379  28.474  35.483  1.00  0.00     0.198 A 
ATOM     92  F   UNL A   1      45.518  30.061  33.979  1.00  0.00    -0.203 F 
ATOM     93  F   UNL A   1      44.689  26.164  37.706  1.00  0.00    -0.200 F 
ATOM     94  C   UNL A   1      46.177  27.482  36.431  1.00  0.00     0.200 A 
ATOM     95  F   UNL A   1      47.625  28.831  35.143  1.00  0.00    -0.200 F 
ATOM     96  F   UNL A   1      47.227  26.896  37.024  1.00  0.00    -0.200 F 
ENDBRANCH  63  86
ENDBRANCH  37  38
ENDBRANCH  29  32
ENDBRANCH  27  28
ENDBRANCH  26  27
ENDBRANCH   1  26
TORSDOF 14
ENDMDL
