MODEL 1
REMARK VINA RESULT:     -11.9      0.000      0.000
REMARK SMILES Cc1cccc(Cl)c1Nc1ccccc1CC(=O)NCCCNC(=O)c1ccc(-c2c3nc(c(-c4c(F)c(F)c(F)c(F)c4F)c4ccc([nH]4)c(-c4c(F)c(F)c(F)c(F)c4F)c4nc(c(-c5c(F)c(F)c(F)c(F)c5F)c5ccc2[nH]5)C=C4)C=C3)cc1
REMARK SMILES IDX 20 1 19 2 17 3 18 4 16 6 15 7 10 8 11 9 12 10 14 11 13 12
REMARK SMILES IDX 9 13 8 15 1 16 2 17 3 18 4 19 6 20 5 21 7 22 21 23 22 24
REMARK SMILES IDX 23 25 24 26 25 28 26 29 27 30 88 31 28 32 87 33 29 34 30 35
REMARK SMILES IDX 31 36 81 37 32 38 86 39 80 40 82 41 33 42 85 43 79 44 78 45
REMARK SMILES IDX 34 47 66 48 46 49 65 50 47 51 50 52 64 53 83 54 48 55 49 56
REMARK SMILES IDX 63 58 84 59 51 60 35 61 36 62 44 63 37 64 38 65 42 66 45 67
REMARK SMILES IDX 39 68 40 69 43 70 41 71 67 72 68 73 76 74 69 75 70 76 74 77
REMARK SMILES IDX 77 78 71 79 72 80 75 81 73 82 52 83 53 84 61 85 54 86 55 87
REMARK SMILES IDX 59 88 62 89 56 90 57 91 60 92 58 93
REMARK H PARENT 19 5 9 14 23 27 82 46 50 57
REMARK Flexibility Score: inf
ROOT
ATOM      1  C   UNL A   1      36.666  20.344  25.045  1.00  0.00     0.117 C 
ENDROOT
BRANCH   1   2
ATOM      2  N   UNL A   1      36.790  21.563  24.270  1.00  0.00    -0.356 N 
ATOM      3  C   UNL A   1      36.501  22.842  24.653  1.00  0.00     0.224 C 
ATOM      4  O   UNL A   1      36.582  23.736  23.808  1.00  0.00    -0.275 OA
ATOM      5  H   UNL A   1      37.125  21.455  23.350  1.00  0.00     0.163 HD
BRANCH   3   6
ATOM      6  C   UNL A   1      36.127  23.134  26.097  1.00  0.00     0.137 C 
BRANCH   6   7
ATOM      7  C   UNL A   1      34.636  23.268  26.332  1.00  0.00    -0.015 A 
ATOM      8  C   UNL A   1      33.909  24.448  26.068  1.00  0.00     0.042 A 
ATOM      9  C   UNL A   1      32.544  24.488  26.412  1.00  0.00     0.026 A 
ATOM     10  C   UNL A   1      31.898  23.386  26.973  1.00  0.00     0.002 A 
ATOM     11  C   UNL A   1      33.960  22.153  26.874  1.00  0.00     0.006 A 
ATOM     12  C   UNL A   1      32.606  22.212  27.193  1.00  0.00     0.000 A 
BRANCH   8  13
ATOM     13  N   UNL A   1      34.434  25.589  25.426  1.00  0.00    -0.354 N 
ATOM     14  H   UNL A   1      35.372  25.777  25.658  1.00  0.00     0.167 HD
BRANCH  13  15
ATOM     15  C   UNL A   1      33.875  26.514  24.510  1.00  0.00     0.060 A 
ATOM     16  C   UNL A   1      34.037  28.296  26.343  1.00  0.00     0.046 C 
ATOM     17  C   UNL A   1      33.706  27.859  24.939  1.00  0.00    -0.026 A 
ATOM     18  C   UNL A   1      33.252  28.836  24.034  1.00  0.00     0.005 A 
ATOM     19  C   UNL A   1      32.950  28.504  22.718  1.00  0.00     0.002 A 
ATOM     20  C   UNL A   1      33.526  26.197  23.177  1.00  0.00     0.064 A 
ATOM     21  C   UNL A   1      33.078  27.188  22.293  1.00  0.00     0.023 A 
ATOM     22  Cl  UNL A   1      33.509  24.578  22.558  1.00  0.00    -0.082 Cl
ENDBRANCH  13  15
ENDBRANCH   8  13
ENDBRANCH   6   7
ENDBRANCH   3   6
ENDBRANCH   1   2
BRANCH   1  23
ATOM     23  C   UNL A   1      37.923  19.483  24.964  1.00  0.00     0.042 C 
BRANCH  23  24
ATOM     24  C   UNL A   1      39.107  20.052  25.737  1.00  0.00     0.118 C 
BRANCH  24  25
ATOM     25  N   UNL A   1      40.209  19.108  25.841  1.00  0.00    -0.352 N 
ATOM     26  C   UNL A   1      41.540  19.327  26.086  1.00  0.00     0.251 C 
ATOM     27  H   UNL A   1      39.960  18.163  25.714  1.00  0.00     0.163 HD
ATOM     28  O   UNL A   1      42.342  18.404  25.943  1.00  0.00    -0.269 OA
BRANCH  26  29
ATOM     29  C   UNL A   1      42.025  20.658  26.507  1.00  0.00     0.039 A 
ATOM     30  C   UNL A   1      42.363  21.591  25.522  1.00  0.00     0.014 A 
ATOM     31  C   UNL A   1      42.197  20.977  27.856  1.00  0.00     0.014 A 
ATOM     32  C   UNL A   1      42.829  22.855  25.889  1.00  0.00     0.010 A 
ATOM     33  C   UNL A   1      42.592  22.261  28.224  1.00  0.00     0.010 A 
ATOM     34  C   UNL A   1      42.924  23.209  27.244  1.00  0.00    -0.014 A 
BRANCH  34  35
ATOM     35  C   UNL A   1      43.389  24.557  27.657  1.00  0.00     0.031 A 
ATOM     36  C   UNL A   1      42.389  25.625  28.004  1.00  0.00     0.074 A 
ATOM     37  C   UNL A   1      44.707  24.837  27.663  1.00  0.00     0.049 A 
ATOM     38  N   UNL A   1      42.589  26.883  28.305  1.00  0.00    -0.248 NA
ATOM     39  C   UNL A   1      40.970  25.233  27.983  1.00  0.00     0.031 C 
ATOM     40  C   UNL A   1      45.772  23.898  27.309  1.00  0.00     0.029 A 
ATOM     41  N   UNL A   1      45.375  25.997  27.965  1.00  0.00    -0.354 N 
ATOM     42  C   UNL A   1      41.327  27.435  28.488  1.00  0.00     0.074 A 
ATOM     43  C   UNL A   1      40.364  26.389  28.219  1.00  0.00     0.031 C 
ATOM     44  C   UNL A   1      46.960  24.513  27.430  1.00  0.00     0.029 A 
ATOM     45  C   UNL A   1      46.738  25.898  27.833  1.00  0.00     0.049 A 
ATOM     46  H   UNL A   1      44.919  26.823  28.250  1.00  0.00     0.167 HD
ATOM     47  C   UNL A   1      41.002  28.693  28.866  1.00  0.00     0.037 A 
ATOM     48  C   UNL A   1      47.699  26.826  28.006  1.00  0.00     0.037 A 
ATOM     49  C   UNL A   1      41.964  29.721  29.168  1.00  0.00     0.049 A 
ATOM     50  C   UNL A   1      47.309  28.217  28.430  1.00  0.00     0.074 A 
ATOM     51  C   UNL A   1      41.737  31.009  29.619  1.00  0.00     0.029 A 
ATOM     52  N   UNL A   1      43.338  29.575  29.049  1.00  0.00    -0.354 N 
ATOM     53  N   UNL A   1      46.116  28.708  28.663  1.00  0.00    -0.248 NA
ATOM     54  C   UNL A   1      48.400  29.181  28.622  1.00  0.00     0.031 C 
ATOM     55  C   UNL A   1      42.971  31.657  29.732  1.00  0.00     0.029 A 
ATOM     56  C   UNL A   1      43.970  30.756  29.402  1.00  0.00     0.049 A 
ATOM     57  H   UNL A   1      43.796  28.753  28.757  1.00  0.00     0.167 HD
ATOM     58  C   UNL A   1      46.315  30.022  29.061  1.00  0.00     0.074 A 
ATOM     59  C   UNL A   1      47.744  30.249  29.052  1.00  0.00     0.031 C 
ATOM     60  C   UNL A   1      45.397  30.958  29.405  1.00  0.00     0.037 A 
BRANCH  47  61
ATOM     61  C   UNL A   1      39.545  29.033  28.984  1.00  0.00     0.064 A 
ATOM     62  C   UNL A   1      38.785  29.413  27.866  1.00  0.00     0.173 A 
ATOM     63  C   UNL A   1      38.886  28.928  30.218  1.00  0.00     0.173 A 
ATOM     64  F   UNL A   1      39.369  29.539  26.665  1.00  0.00    -0.203 F 
ATOM     65  C   UNL A   1      37.428  29.697  27.985  1.00  0.00     0.198 A 
ATOM     66  C   UNL A   1      37.522  29.184  30.328  1.00  0.00     0.198 A 
ATOM     67  F   UNL A   1      39.563  28.563  31.317  1.00  0.00    -0.203 F 
ATOM     68  F   UNL A   1      36.733  30.100  26.912  1.00  0.00    -0.200 F 
ATOM     69  C   UNL A   1      36.796  29.575  29.214  1.00  0.00     0.200 A 
ATOM     70  F   UNL A   1      36.909  29.052  31.513  1.00  0.00    -0.200 F 
ATOM     71  F   UNL A   1      35.486  29.838  29.324  1.00  0.00    -0.200 F 
ENDBRANCH  47  61
BRANCH  48  72
ATOM     72  C   UNL A   1      49.128  26.469  27.801  1.00  0.00     0.064 A 
ATOM     73  C   UNL A   1      49.978  26.247  28.894  1.00  0.00     0.173 A 
ATOM     74  C   UNL A   1      49.678  26.366  26.515  1.00  0.00     0.173 A 
ATOM     75  F   UNL A   1      49.502  26.354  30.143  1.00  0.00    -0.203 F 
ATOM     76  C   UNL A   1      51.328  25.962  28.709  1.00  0.00     0.198 A 
ATOM     77  C   UNL A   1      51.023  26.051  26.332  1.00  0.00     0.198 A 
ATOM     78  F   UNL A   1      48.907  26.563  25.435  1.00  0.00    -0.203 F 
ATOM     79  F   UNL A   1      52.129  25.807  29.773  1.00  0.00    -0.200 F 
ATOM     80  C   UNL A   1      51.849  25.859  27.429  1.00  0.00     0.200 A 
ATOM     81  F   UNL A   1      51.520  25.938  25.092  1.00  0.00    -0.200 F 
ATOM     82  F   UNL A   1      53.149  25.587  27.251  1.00  0.00    -0.200 F 
ENDBRANCH  48  72
BRANCH  60  83
ATOM     83  C   UNL A   1      45.909  32.297  29.847  1.00  0.00     0.064 A 
ATOM     84  C   UNL A   1      46.241  32.555  31.185  1.00  0.00     0.173 A 
ATOM     85  C   UNL A   1      46.109  33.322  28.910  1.00  0.00     0.173 A 
ATOM     86  F   UNL A   1      46.053  31.613  32.121  1.00  0.00    -0.203 F 
ATOM     87  C   UNL A   1      46.729  33.800  31.573  1.00  0.00     0.198 A 
ATOM     88  C   UNL A   1      46.627  34.555  29.295  1.00  0.00     0.198 A 
ATOM     89  F   UNL A   1      45.814  33.123  27.617  1.00  0.00    -0.203 F 
ATOM     90  F   UNL A   1      46.993  34.041  32.864  1.00  0.00    -0.200 F 
ATOM     91  C   UNL A   1      46.929  34.796  30.628  1.00  0.00     0.200 A 
ATOM     92  F   UNL A   1      46.833  35.510  28.379  1.00  0.00    -0.200 F 
ATOM     93  F   UNL A   1      47.407  35.991  31.002  1.00  0.00    -0.200 F 
ENDBRANCH  60  83
ENDBRANCH  34  35
ENDBRANCH  26  29
ENDBRANCH  24  25
ENDBRANCH  23  24
ENDBRANCH   1  23
TORSDOF 13
ENDMDL
MODEL 2
REMARK VINA RESULT:     -11.8      0.189      1.613
REMARK SMILES Cc1cccc(Cl)c1Nc1ccccc1CC(=O)NCCCNC(=O)c1ccc(-c2c3nc(c(-c4c(F)c(F)c(F)c(F)c4F)c4ccc([nH]4)c(-c4c(F)c(F)c(F)c(F)c4F)c4nc(c(-c5c(F)c(F)c(F)c(F)c5F)c5ccc2[nH]5)C=C4)C=C3)cc1
REMARK SMILES IDX 20 1 19 2 17 3 18 4 16 6 15 7 10 8 11 9 12 10 14 11 13 12
REMARK SMILES IDX 9 13 8 15 1 16 2 17 3 18 4 19 6 20 5 21 7 22 21 23 22 24
REMARK SMILES IDX 23 25 24 26 25 28 26 29 27 30 88 31 28 32 87 33 29 34 30 35
REMARK SMILES IDX 31 36 81 37 32 38 86 39 80 40 82 41 33 42 85 43 79 44 78 45
REMARK SMILES IDX 34 47 66 48 46 49 65 50 47 51 50 52 64 53 83 54 48 55 49 56
REMARK SMILES IDX 63 58 84 59 51 60 35 61 36 62 44 63 37 64 38 65 42 66 45 67
REMARK SMILES IDX 39 68 40 69 43 70 41 71 67 72 68 73 76 74 69 75 70 76 74 77
REMARK SMILES IDX 77 78 71 79 72 80 75 81 73 82 52 83 53 84 61 85 54 86 55 87
REMARK SMILES IDX 59 88 62 89 56 90 57 91 60 92 58 93
REMARK H PARENT 19 5 9 14 23 27 82 46 50 57
REMARK Flexibility Score: inf
ROOT
ATOM      1  C   UNL A   1      36.623  20.399  25.022  1.00  0.00     0.117 C 
ENDROOT
BRANCH   1   2
ATOM      2  N   UNL A   1      36.704  21.632  24.264  1.00  0.00    -0.356 N 
ATOM      3  C   UNL A   1      36.361  22.894  24.661  1.00  0.00     0.224 C 
ATOM      4  O   UNL A   1      36.413  23.802  23.830  1.00  0.00    -0.275 OA
ATOM      5  H   UNL A   1      37.051  21.550  23.346  1.00  0.00     0.163 HD
BRANCH   3   6
ATOM      6  C   UNL A   1      35.965  23.151  26.106  1.00  0.00     0.137 C 
BRANCH   6   7
ATOM      7  C   UNL A   1      34.475  23.334  26.312  1.00  0.00    -0.015 A 
ATOM      8  C   UNL A   1      33.793  24.538  26.033  1.00  0.00     0.042 A 
ATOM      9  C   UNL A   1      32.423  24.624  26.350  1.00  0.00     0.026 A 
ATOM     10  C   UNL A   1      31.731  23.544  26.900  1.00  0.00     0.002 A 
ATOM     11  C   UNL A   1      33.752  22.243  26.842  1.00  0.00     0.006 A 
ATOM     12  C   UNL A   1      32.394  22.349  27.134  1.00  0.00     0.000 A 
BRANCH   8  13
ATOM     13  N   UNL A   1      34.368  25.660  25.400  1.00  0.00    -0.354 N 
ATOM     14  H   UNL A   1      35.312  25.808  25.639  1.00  0.00     0.167 HD
BRANCH  13  15
ATOM     15  C   UNL A   1      33.853  26.612  24.487  1.00  0.00     0.060 A 
ATOM     16  C   UNL A   1      34.041  28.368  26.342  1.00  0.00     0.046 C 
ATOM     17  C   UNL A   1      33.719  27.957  24.928  1.00  0.00    -0.026 A 
ATOM     18  C   UNL A   1      33.310  28.957  24.027  1.00  0.00     0.005 A 
ATOM     19  C   UNL A   1      33.018  28.649  22.703  1.00  0.00     0.002 A 
ATOM     20  C   UNL A   1      33.515  26.321  23.144  1.00  0.00     0.064 A 
ATOM     21  C   UNL A   1      33.112  27.335  22.265  1.00  0.00     0.023 A 
ATOM     22  Cl  UNL A   1      33.459  24.710  22.506  1.00  0.00    -0.082 Cl
ENDBRANCH  13  15
ENDBRANCH   8  13
ENDBRANCH   6   7
ENDBRANCH   3   6
ENDBRANCH   1   2
BRANCH   1  23
ATOM     23  C   UNL A   1      37.902  19.573  24.913  1.00  0.00     0.042 C 
BRANCH  23  24
ATOM     24  C   UNL A   1      39.035  20.078  25.798  1.00  0.00     0.118 C 
BRANCH  24  25
ATOM     25  N   UNL A   1      40.150  19.145  25.859  1.00  0.00    -0.352 N 
ATOM     26  C   UNL A   1      41.483  19.376  26.082  1.00  0.00     0.251 C 
ATOM     27  H   UNL A   1      39.910  18.201  25.718  1.00  0.00     0.163 HD
ATOM     28  O   UNL A   1      42.292  18.466  25.904  1.00  0.00    -0.269 OA
BRANCH  26  29
ATOM     29  C   UNL A   1      41.961  20.704  26.522  1.00  0.00     0.039 A 
ATOM     30  C   UNL A   1      42.317  21.644  25.550  1.00  0.00     0.014 A 
ATOM     31  C   UNL A   1      42.109  21.012  27.876  1.00  0.00     0.014 A 
ATOM     32  C   UNL A   1      42.776  22.904  25.935  1.00  0.00     0.010 A 
ATOM     33  C   UNL A   1      42.497  22.293  28.261  1.00  0.00     0.010 A 
ATOM     34  C   UNL A   1      42.847  23.249  27.294  1.00  0.00    -0.014 A 
BRANCH  34  35
ATOM     35  C   UNL A   1      43.306  24.593  27.725  1.00  0.00     0.031 A 
ATOM     36  C   UNL A   1      42.299  25.654  28.079  1.00  0.00     0.074 A 
ATOM     37  C   UNL A   1      44.622  24.878  27.740  1.00  0.00     0.049 A 
ATOM     38  N   UNL A   1      42.494  26.909  28.397  1.00  0.00    -0.248 NA
ATOM     39  C   UNL A   1      40.882  25.257  28.047  1.00  0.00     0.031 C 
ATOM     40  C   UNL A   1      45.692  23.947  27.379  1.00  0.00     0.029 A 
ATOM     41  N   UNL A   1      45.284  26.037  28.059  1.00  0.00    -0.354 N 
ATOM     42  C   UNL A   1      41.229  27.453  28.580  1.00  0.00     0.074 A 
ATOM     43  C   UNL A   1      40.271  26.407  28.294  1.00  0.00     0.031 C 
ATOM     44  C   UNL A   1      46.877  24.566  27.513  1.00  0.00     0.029 A 
ATOM     45  C   UNL A   1      46.648  25.945  27.931  1.00  0.00     0.049 A 
ATOM     46  H   UNL A   1      44.824  26.858  28.351  1.00  0.00     0.167 HD
ATOM     47  C   UNL A   1      40.897  28.706  28.972  1.00  0.00     0.037 A 
ATOM     48  C   UNL A   1      47.605  26.874  28.119  1.00  0.00     0.037 A 
ATOM     49  C   UNL A   1      41.853  29.734  29.290  1.00  0.00     0.049 A 
ATOM     50  C   UNL A   1      47.207  28.258  28.558  1.00  0.00     0.074 A 
ATOM     51  C   UNL A   1      41.620  31.016  29.755  1.00  0.00     0.029 A 
ATOM     52  N   UNL A   1      43.229  29.594  29.175  1.00  0.00    -0.354 N 
ATOM     53  N   UNL A   1      46.012  28.742  28.791  1.00  0.00    -0.248 NA
ATOM     54  C   UNL A   1      48.294  29.225  28.766  1.00  0.00     0.031 C 
ATOM     55  C   UNL A   1      42.851  31.667  29.882  1.00  0.00     0.029 A 
ATOM     56  C   UNL A   1      43.855  30.773  29.545  1.00  0.00     0.049 A 
ATOM     57  H   UNL A   1      43.691  28.778  28.876  1.00  0.00     0.167 HD
ATOM     58  C   UNL A   1      46.204  30.052  29.206  1.00  0.00     0.074 A 
ATOM     59  C   UNL A   1      47.632  30.285  29.206  1.00  0.00     0.031 C 
ATOM     60  C   UNL A   1      45.281  30.981  29.557  1.00  0.00     0.037 A 
BRANCH  47  61
ATOM     61  C   UNL A   1      39.438  29.039  29.087  1.00  0.00     0.064 A 
ATOM     62  C   UNL A   1      38.767  28.993  30.319  1.00  0.00     0.173 A 
ATOM     63  C   UNL A   1      38.714  29.462  27.962  1.00  0.00     0.173 A 
ATOM     64  F   UNL A   1      39.412  28.585  31.423  1.00  0.00    -0.203 F 
ATOM     65  C   UNL A   1      37.421  29.333  30.415  1.00  0.00     0.198 A 
ATOM     66  C   UNL A   1      37.375  29.829  28.068  1.00  0.00     0.198 A 
ATOM     67  F   UNL A   1      39.308  29.531  26.762  1.00  0.00    -0.203 F 
ATOM     68  F   UNL A   1      36.791  29.239  31.594  1.00  0.00    -0.200 F 
ATOM     69  C   UNL A   1      36.728  29.759  29.291  1.00  0.00     0.200 A 
ATOM     70  F   UNL A   1      36.710  30.254  26.984  1.00  0.00    -0.200 F 
ATOM     71  F   UNL A   1      35.435  30.097  29.389  1.00  0.00    -0.200 F 
ENDBRANCH  47  61
BRANCH  48  72
ATOM     72  C   UNL A   1      49.036  26.525  27.917  1.00  0.00     0.064 A 
ATOM     73  C   UNL A   1      49.875  26.266  29.010  1.00  0.00     0.173 A 
ATOM     74  C   UNL A   1      49.599  26.466  26.634  1.00  0.00     0.173 A 
ATOM     75  F   UNL A   1      49.387  26.330  30.257  1.00  0.00    -0.203 F 
ATOM     76  C   UNL A   1      51.228  25.988  28.829  1.00  0.00     0.198 A 
ATOM     77  C   UNL A   1      50.946  26.158  26.453  1.00  0.00     0.198 A 
ATOM     78  F   UNL A   1      48.839  26.701  25.554  1.00  0.00    -0.203 F 
ATOM     79  F   UNL A   1      52.018  25.797  29.895  1.00  0.00    -0.200 F 
ATOM     80  C   UNL A   1      51.762  25.930  27.551  1.00  0.00     0.200 A 
ATOM     81  F   UNL A   1      51.456  26.089  25.215  1.00  0.00    -0.200 F 
ATOM     82  F   UNL A   1      53.063  25.664  27.377  1.00  0.00    -0.200 F 
ENDBRANCH  48  72
BRANCH  60  83
ATOM     83  C   UNL A   1      45.786  32.317  30.017  1.00  0.00     0.064 A 
ATOM     84  C   UNL A   1      45.944  33.392  29.131  1.00  0.00     0.173 A 
ATOM     85  C   UNL A   1      46.078  32.533  31.373  1.00  0.00     0.173 A 
ATOM     86  F   UNL A   1      45.693  33.230  27.823  1.00  0.00    -0.203 F 
ATOM     87  C   UNL A   1      46.400  34.628  29.581  1.00  0.00     0.198 A 
ATOM     88  C   UNL A   1      46.503  33.779  31.825  1.00  0.00     0.198 A 
ATOM     89  F   UNL A   1      45.936  31.539  32.262  1.00  0.00    -0.203 F 
ATOM     90  F   UNL A   1      46.589  35.627  28.709  1.00  0.00    -0.200 F 
ATOM     91  C   UNL A   1      46.672  34.823  30.927  1.00  0.00     0.200 A 
ATOM     92  F   UNL A   1      46.751  33.968  33.127  1.00  0.00    -0.200 F 
ATOM     93  F   UNL A   1      47.103  36.015  31.359  1.00  0.00    -0.200 F 
ENDBRANCH  60  83
ENDBRANCH  34  35
ENDBRANCH  26  29
ENDBRANCH  24  25
ENDBRANCH  23  24
ENDBRANCH   1  23
TORSDOF 13
ENDMDL
MODEL 3
REMARK VINA RESULT:     -11.8      2.975      8.641
REMARK SMILES Cc1cccc(Cl)c1Nc1ccccc1CC(=O)NCCCNC(=O)c1ccc(-c2c3nc(c(-c4c(F)c(F)c(F)c(F)c4F)c4ccc([nH]4)c(-c4c(F)c(F)c(F)c(F)c4F)c4nc(c(-c5c(F)c(F)c(F)c(F)c5F)c5ccc2[nH]5)C=C4)C=C3)cc1
REMARK SMILES IDX 20 1 19 2 17 3 18 4 16 6 15 7 10 8 11 9 12 10 14 11 13 12
REMARK SMILES IDX 9 13 8 15 1 16 2 17 3 18 4 19 6 20 5 21 7 22 21 23 22 24
REMARK SMILES IDX 23 25 24 26 25 28 26 29 27 30 88 31 28 32 87 33 29 34 30 35
REMARK SMILES IDX 31 36 81 37 32 38 86 39 80 40 82 41 33 42 85 43 79 44 78 45
REMARK SMILES IDX 34 47 66 48 46 49 65 50 47 51 50 52 64 53 83 54 48 55 49 56
REMARK SMILES IDX 63 58 84 59 51 60 35 61 36 62 44 63 37 64 38 65 42 66 45 67
REMARK SMILES IDX 39 68 40 69 43 70 41 71 67 72 68 73 76 74 69 75 70 76 74 77
REMARK SMILES IDX 77 78 71 79 72 80 75 81 73 82 52 83 53 84 61 85 54 86 55 87
REMARK SMILES IDX 59 88 62 89 56 90 57 91 60 92 58 93
REMARK H PARENT 19 5 9 14 23 27 82 46 50 57
REMARK Flexibility Score: inf
ROOT
ATOM      1  C   UNL A   1      34.669  23.714  24.145  1.00  0.00     0.117 C 
ENDROOT
BRANCH   1   2
ATOM      2  N   UNL A   1      34.319  25.000  23.577  1.00  0.00    -0.356 N 
ATOM      3  C   UNL A   1      33.971  26.148  24.231  1.00  0.00     0.224 C 
ATOM      4  O   UNL A   1      33.610  27.117  23.560  1.00  0.00    -0.275 OA
ATOM      5  H   UNL A   1      34.332  25.054  22.594  1.00  0.00     0.163 HD
BRANCH   3   6
ATOM      6  C   UNL A   1      34.070  26.215  25.747  1.00  0.00     0.137 C 
BRANCH   6   7
ATOM      7  C   UNL A   1      33.444  27.455  26.350  1.00  0.00    -0.015 A 
ATOM      8  C   UNL A   1      32.067  27.572  26.637  1.00  0.00     0.042 A 
ATOM      9  C   UNL A   1      31.580  28.806  27.110  1.00  0.00     0.026 A 
ATOM     10  C   UNL A   1      32.429  29.892  27.327  1.00  0.00     0.002 A 
ATOM     11  C   UNL A   1      34.292  28.556  26.603  1.00  0.00     0.006 A 
ATOM     12  C   UNL A   1      33.789  29.762  27.084  1.00  0.00     0.000 A 
BRANCH   8  13
ATOM     13  N   UNL A   1      31.134  26.518  26.540  1.00  0.00    -0.354 N 
ATOM     14  H   UNL A   1      30.505  26.475  27.296  1.00  0.00     0.167 HD
BRANCH  13  15
ATOM     15  C   UNL A   1      30.926  25.511  25.566  1.00  0.00     0.060 A 
ATOM     16  C   UNL A   1      29.965  27.317  24.025  1.00  0.00     0.046 C 
ATOM     17  C   UNL A   1      30.382  25.897  24.310  1.00  0.00    -0.026 A 
ATOM     18  C   UNL A   1      30.254  24.952  23.276  1.00  0.00     0.005 A 
ATOM     19  C   UNL A   1      30.640  23.630  23.466  1.00  0.00     0.002 A 
ATOM     20  C   UNL A   1      31.277  24.152  25.743  1.00  0.00     0.064 A 
ATOM     21  C   UNL A   1      31.142  23.229  24.698  1.00  0.00     0.023 A 
ATOM     22  Cl  UNL A   1      31.786  23.493  27.263  1.00  0.00    -0.082 Cl
ENDBRANCH  13  15
ENDBRANCH   8  13
ENDBRANCH   6   7
ENDBRANCH   3   6
ENDBRANCH   1   2
BRANCH   1  23
ATOM     23  C   UNL A   1      36.179  23.545  24.294  1.00  0.00     0.042 C 
BRANCH  23  24
ATOM     24  C   UNL A   1      36.652  23.514  25.743  1.00  0.00     0.118 C 
BRANCH  24  25
ATOM     25  N   UNL A   1      37.722  22.551  25.957  1.00  0.00    -0.352 N 
ATOM     26  C   UNL A   1      39.007  22.742  26.394  1.00  0.00     0.251 C 
ATOM     27  H   UNL A   1      37.485  21.616  25.757  1.00  0.00     0.163 HD
ATOM     28  O   UNL A   1      39.813  21.814  26.324  1.00  0.00    -0.269 OA
BRANCH  26  29
ATOM     29  C   UNL A   1      39.439  24.047  26.935  1.00  0.00     0.039 A 
ATOM     30  C   UNL A   1      40.066  24.955  26.076  1.00  0.00     0.014 A 
ATOM     31  C   UNL A   1      39.280  24.364  28.287  1.00  0.00     0.014 A 
ATOM     32  C   UNL A   1      40.489  26.194  26.560  1.00  0.00     0.010 A 
ATOM     33  C   UNL A   1      39.636  25.627  28.753  1.00  0.00     0.010 A 
ATOM     34  C   UNL A   1      40.256  26.551  27.897  1.00  0.00    -0.014 A 
BRANCH  34  35
ATOM     35  C   UNL A   1      40.672  27.874  28.426  1.00  0.00     0.031 A 
ATOM     36  C   UNL A   1      42.114  28.125  28.774  1.00  0.00     0.074 A 
ATOM     37  C   UNL A   1      39.747  28.827  28.647  1.00  0.00     0.049 A 
ATOM     38  N   UNL A   1      42.663  29.179  29.324  1.00  0.00    -0.248 NA
ATOM     39  C   UNL A   1      43.062  27.034  28.492  1.00  0.00     0.031 C 
ATOM     40  C   UNL A   1      38.313  28.690  28.387  1.00  0.00     0.029 A 
ATOM     41  N   UNL A   1      39.872  30.096  29.154  1.00  0.00    -0.354 N 
ATOM     42  C   UNL A   1      44.010  28.870  29.471  1.00  0.00     0.074 A 
ATOM     43  C   UNL A   1      44.189  27.516  28.997  1.00  0.00     0.031 C 
ATOM     44  C   UNL A   1      37.694  29.834  28.720  1.00  0.00     0.029 A 
ATOM     45  C   UNL A   1      38.680  30.770  29.252  1.00  0.00     0.049 A 
ATOM     46  H   UNL A   1      40.735  30.486  29.423  1.00  0.00     0.167 HD
ATOM     47  C   UNL A   1      45.009  29.654  29.940  1.00  0.00     0.037 A 
ATOM     48  C   UNL A   1      38.412  32.001  29.729  1.00  0.00     0.037 A 
ATOM     49  C   UNL A   1      44.833  31.014  30.377  1.00  0.00     0.049 A 
ATOM     50  C   UNL A   1      39.543  32.852  30.241  1.00  0.00     0.074 A 
ATOM     51  C   UNL A   1      45.792  31.912  30.812  1.00  0.00     0.029 A 
ATOM     52  N   UNL A   1      43.613  31.673  30.436  1.00  0.00    -0.354 N 
ATOM     53  N   UNL A   1      40.822  32.573  30.313  1.00  0.00    -0.248 NA
ATOM     54  C   UNL A   1      39.194  34.193  30.730  1.00  0.00     0.031 C 
ATOM     55  C   UNL A   1      45.148  33.100  31.172  1.00  0.00     0.029 A 
ATOM     56  C   UNL A   1      43.794  32.960  30.914  1.00  0.00     0.049 A 
ATOM     57  H   UNL A   1      42.747  31.283  30.175  1.00  0.00     0.167 HD
ATOM     58  C   UNL A   1      41.432  33.711  30.822  1.00  0.00     0.074 A 
ATOM     59  C   UNL A   1      40.386  34.690  31.027  1.00  0.00     0.031 C 
ATOM     60  C   UNL A   1      42.742  33.928  31.094  1.00  0.00     0.037 A 
BRANCH  47  61
ATOM     61  C   UNL A   1      46.389  29.067  30.000  1.00  0.00     0.064 A 
ATOM     62  C   UNL A   1      46.856  28.401  31.144  1.00  0.00     0.173 A 
ATOM     63  C   UNL A   1      47.236  29.122  28.882  1.00  0.00     0.173 A 
ATOM     64  F   UNL A   1      46.090  28.329  32.243  1.00  0.00    -0.203 F 
ATOM     65  C   UNL A   1      48.128  27.835  31.175  1.00  0.00     0.198 A 
ATOM     66  C   UNL A   1      48.495  28.529  28.907  1.00  0.00     0.198 A 
ATOM     67  F   UNL A   1      46.836  29.740  27.761  1.00  0.00    -0.203 F 
ATOM     68  F   UNL A   1      48.569  27.243  32.293  1.00  0.00    -0.200 F 
ATOM     69  C   UNL A   1      48.943  27.893  30.054  1.00  0.00     0.200 A 
ATOM     70  F   UNL A   1      49.277  28.573  27.818  1.00  0.00    -0.200 F 
ATOM     71  F   UNL A   1      50.162  27.337  30.082  1.00  0.00    -0.200 F 
ENDBRANCH  47  61
BRANCH  48  72
ATOM     72  C   UNL A   1      37.017  32.516  29.726  1.00  0.00     0.064 A 
ATOM     73  C   UNL A   1      36.518  33.237  28.631  1.00  0.00     0.173 A 
ATOM     74  C   UNL A   1      36.163  32.321  30.821  1.00  0.00     0.173 A 
ATOM     75  F   UNL A   1      37.304  33.467  27.569  1.00  0.00    -0.203 F 
ATOM     76  C   UNL A   1      35.230  33.766  28.644  1.00  0.00     0.198 A 
ATOM     77  C   UNL A   1      34.864  32.825  30.819  1.00  0.00     0.198 A 
ATOM     78  F   UNL A   1      36.589  31.634  31.891  1.00  0.00    -0.203 F 
ATOM     79  F   UNL A   1      34.798  34.496  27.606  1.00  0.00    -0.200 F 
ATOM     80  C   UNL A   1      34.402  33.555  29.735  1.00  0.00     0.200 A 
ATOM     81  F   UNL A   1      34.062  32.607  31.871  1.00  0.00    -0.200 F 
ATOM     82  F   UNL A   1      33.163  34.065  29.748  1.00  0.00    -0.200 F 
ENDBRANCH  48  72
BRANCH  60  83
ATOM     83  C   UNL A   1      43.127  35.289  31.596  1.00  0.00     0.064 A 
ATOM     84  C   UNL A   1      43.057  35.620  32.957  1.00  0.00     0.173 A 
ATOM     85  C   UNL A   1      43.610  36.260  30.705  1.00  0.00     0.173 A 
ATOM     86  F   UNL A   1      42.587  34.732  33.845  1.00  0.00    -0.203 F 
ATOM     87  C   UNL A   1      43.433  36.884  33.404  1.00  0.00     0.198 A 
ATOM     88  C   UNL A   1      44.014  37.512  31.160  1.00  0.00     0.198 A 
ATOM     89  F   UNL A   1      43.702  35.990  29.395  1.00  0.00    -0.203 F 
ATOM     90  F   UNL A   1      43.313  37.196  34.702  1.00  0.00    -0.200 F 
ATOM     91  C   UNL A   1      43.918  37.825  32.508  1.00  0.00     0.200 A 
ATOM     92  F   UNL A   1      44.496  38.413  30.295  1.00  0.00    -0.200 F 
ATOM     93  F   UNL A   1      44.287  39.038  32.942  1.00  0.00    -0.200 F 
ENDBRANCH  60  83
ENDBRANCH  34  35
ENDBRANCH  26  29
ENDBRANCH  24  25
ENDBRANCH  23  24
ENDBRANCH   1  23
TORSDOF 13
ENDMDL
