MODEL 1
REMARK VINA RESULT:     -12.1      0.000      0.000
REMARK SMILES O=C(NCCCNC(=O)c1ccc(C[NH2+]Cc2cc(F)ccc2F)nc1)c1ccc(-c2c3nc(c(-c4c(F)c(F)c(F)c(F)c4F)c4ccc([nH]4)c(-c4c(F)c(F)c(F)c(F)c4F)c4nc(c(-c5c(F)c(F)c(F)c(F)c5F)c5ccc2[nH]5)C=C4)C=C3)cc1
REMARK SMILES IDX 6 1 5 2 4 3 3 4 1 5 2 6 27 8 28 9 89 10 29 11 88 12 30 13
REMARK SMILES IDX 31 14 32 15 82 16 33 17 87 18 81 19 83 20 34 21 86 22 80 23
REMARK SMILES IDX 79 24 35 26 67 27 47 28 66 29 48 30 51 31 65 32 84 33 49 34
REMARK SMILES IDX 50 35 64 37 85 38 52 39 36 40 37 41 45 42 38 43 39 44 43 45
REMARK SMILES IDX 46 46 40 47 41 48 44 49 42 50 68 51 69 52 77 53 70 54 71 55
REMARK SMILES IDX 75 56 78 57 72 58 73 59 76 60 74 61 53 62 54 63 62 64 55 65
REMARK SMILES IDX 56 66 60 67 63 68 57 69 58 70 61 71 59 72 7 73 8 74 9 76
REMARK SMILES IDX 10 77 11 78 26 79 12 80 25 81 13 82 14 83 15 84 16 87 17 88
REMARK SMILES IDX 18 89 23 90 19 91 22 92 24 93 20 94 21 95
REMARK H PARENT 3 7 83 25 51 36 7 75 15 85 15 86
REMARK Flexibility Score: inf
ROOT
ATOM      1  C   UNL A   1      31.532  30.827  26.001  1.00  0.00     0.118 C 
ENDROOT
BRANCH   1   2
ATOM      2  C   UNL A   1      31.344  32.242  26.533  1.00  0.00     0.042 C 
BRANCH   2   3
ATOM      3  C   UNL A   1      32.583  32.838  27.185  1.00  0.00     0.118 C 
BRANCH   3   4
ATOM      4  N   UNL A   1      32.380  34.201  27.662  1.00  0.00    -0.352 N 
ATOM      5  O   UNL A   1      32.579  35.995  29.007  1.00  0.00    -0.269 OA
ATOM      6  C   UNL A   1      33.015  34.901  28.660  1.00  0.00     0.251 C 
ATOM      7  H   UNL A   1      31.674  34.701  27.194  1.00  0.00     0.163 HD
BRANCH   6   8
ATOM      8  C   UNL A   1      34.200  34.335  29.340  1.00  0.00     0.039 A 
ATOM      9  C   UNL A   1      35.488  34.581  28.865  1.00  0.00     0.014 A 
ATOM     10  C   UNL A   1      34.020  33.553  30.485  1.00  0.00     0.014 A 
ATOM     11  C   UNL A   1      36.570  33.904  29.416  1.00  0.00     0.010 A 
ATOM     12  C   UNL A   1      35.123  32.955  31.103  1.00  0.00     0.010 A 
ATOM     13  C   UNL A   1      36.403  33.089  30.546  1.00  0.00    -0.014 A 
BRANCH  13  14
ATOM     14  C   UNL A   1      37.590  32.421  31.142  1.00  0.00     0.031 A 
ATOM     15  C   UNL A   1      38.067  32.776  32.524  1.00  0.00     0.074 A 
ATOM     16  C   UNL A   1      38.212  31.452  30.441  1.00  0.00     0.049 A 
ATOM     17  N   UNL A   1      39.075  32.280  33.200  1.00  0.00    -0.248 NA
ATOM     18  C   UNL A   1      37.327  33.824  33.244  1.00  0.00     0.031 C 
ATOM     19  C   UNL A   1      37.843  31.026  29.088  1.00  0.00     0.029 A 
ATOM     20  N   UNL A   1      39.265  30.637  30.768  1.00  0.00    -0.354 N 
ATOM     21  C   UNL A   1      39.099  32.965  34.407  1.00  0.00     0.074 A 
ATOM     22  C   UNL A   1      38.023  33.931  34.368  1.00  0.00     0.031 C 
ATOM     23  C   UNL A   1      38.620  29.996  28.724  1.00  0.00     0.029 A 
ATOM     24  C   UNL A   1      39.586  29.733  29.784  1.00  0.00     0.049 A 
ATOM     25  H   UNL A   1      39.744  30.693  31.626  1.00  0.00     0.167 HD
ATOM     26  C   UNL A   1      39.937  32.790  35.457  1.00  0.00     0.037 A 
ATOM     27  C   UNL A   1      40.562  28.808  29.730  1.00  0.00     0.037 A 
ATOM     28  C   UNL A   1      40.983  31.801  35.505  1.00  0.00     0.049 A 
ATOM     29  C   UNL A   1      41.494  28.660  30.899  1.00  0.00     0.074 A 
ATOM     30  C   UNL A   1      41.849  31.518  36.548  1.00  0.00     0.029 A 
ATOM     31  N   UNL A   1      41.304  30.935  34.472  1.00  0.00    -0.354 N 
ATOM     32  N   UNL A   1      41.482  29.292  32.047  1.00  0.00    -0.248 NA
ATOM     33  C   UNL A   1      42.579  27.678  30.764  1.00  0.00     0.031 C 
ATOM     34  C   UNL A   1      42.723  30.512  36.128  1.00  0.00     0.029 A 
ATOM     35  C   UNL A   1      42.374  30.136  34.841  1.00  0.00     0.049 A 
ATOM     36  H   UNL A   1      40.839  30.894  33.604  1.00  0.00     0.167 HD
ATOM     37  C   UNL A   1      42.549  28.782  32.772  1.00  0.00     0.074 A 
ATOM     38  C   UNL A   1      43.171  27.767  31.947  1.00  0.00     0.031 C 
ATOM     39  C   UNL A   1      42.979  29.131  34.008  1.00  0.00     0.037 A 
BRANCH  26  40
ATOM     40  C   UNL A   1      39.771  33.676  36.656  1.00  0.00     0.064 A 
ATOM     41  C   UNL A   1      38.913  33.300  37.701  1.00  0.00     0.173 A 
ATOM     42  C   UNL A   1      40.365  34.944  36.718  1.00  0.00     0.173 A 
ATOM     43  F   UNL A   1      38.312  32.101  37.685  1.00  0.00    -0.203 F 
ATOM     44  C   UNL A   1      38.640  34.171  38.753  1.00  0.00     0.198 A 
ATOM     45  C   UNL A   1      40.109  35.803  37.784  1.00  0.00     0.198 A 
ATOM     46  F   UNL A   1      41.199  35.347  35.748  1.00  0.00    -0.203 F 
ATOM     47  F   UNL A   1      37.786  33.806  39.720  1.00  0.00    -0.200 F 
ATOM     48  C   UNL A   1      39.237  35.421  38.794  1.00  0.00     0.200 A 
ATOM     49  F   UNL A   1      40.700  37.005  37.831  1.00  0.00    -0.200 F 
ATOM     50  F   UNL A   1      38.972  36.260  39.804  1.00  0.00    -0.200 F 
ENDBRANCH  26  40
BRANCH  27  51
ATOM     51  C   UNL A   1      40.712  27.963  28.516  1.00  0.00     0.064 A 
ATOM     52  C   UNL A   1      41.486  28.388  27.425  1.00  0.00     0.173 A 
ATOM     53  C   UNL A   1      40.074  26.720  28.418  1.00  0.00     0.173 A 
ATOM     54  F   UNL A   1      42.115  29.572  27.469  1.00  0.00    -0.203 F 
ATOM     55  C   UNL A   1      41.599  27.611  26.276  1.00  0.00     0.198 A 
ATOM     56  C   UNL A   1      40.213  25.928  27.279  1.00  0.00     0.198 A 
ATOM     57  F   UNL A   1      39.339  26.262  29.442  1.00  0.00    -0.203 F 
ATOM     58  F   UNL A   1      42.314  28.058  25.235  1.00  0.00    -0.200 F 
ATOM     59  C   UNL A   1      40.968  26.378  26.207  1.00  0.00     0.200 A 
ATOM     60  F   UNL A   1      39.626  24.725  27.226  1.00  0.00    -0.200 F 
ATOM     61  F   UNL A   1      41.094  25.621  25.108  1.00  0.00    -0.200 F 
ENDBRANCH  27  51
BRANCH  39  62
ATOM     62  C   UNL A   1      44.178  28.413  34.552  1.00  0.00     0.064 A 
ATOM     63  C   UNL A   1      45.470  28.918  34.340  1.00  0.00     0.173 A 
ATOM     64  C   UNL A   1      44.050  27.185  35.216  1.00  0.00     0.173 A 
ATOM     65  F   UNL A   1      45.643  30.085  33.703  1.00  0.00    -0.203 F 
ATOM     66  C   UNL A   1      46.592  28.209  34.757  1.00  0.00     0.198 A 
ATOM     67  C   UNL A   1      45.173  26.491  35.657  1.00  0.00     0.198 A 
ATOM     68  F   UNL A   1      42.835  26.671  35.454  1.00  0.00    -0.203 F 
ATOM     69  F   UNL A   1      47.818  28.692  34.513  1.00  0.00    -0.200 F 
ATOM     70  C   UNL A   1      46.443  26.998  35.418  1.00  0.00     0.200 A 
ATOM     71  F   UNL A   1      45.028  25.334  36.316  1.00  0.00    -0.200 F 
ATOM     72  F   UNL A   1      47.524  26.320  35.827  1.00  0.00    -0.200 F 
ENDBRANCH  39  62
ENDBRANCH  13  14
ENDBRANCH   6   8
ENDBRANCH   3   4
ENDBRANCH   2   3
ENDBRANCH   1   2
BRANCH   1  73
ATOM     73  N   UNL A   1      32.830  30.274  26.355  1.00  0.00    -0.352 N 
ATOM     74  C   UNL A   1      33.273  28.976  26.339  1.00  0.00     0.252 C 
ATOM     75  H   UNL A   1      33.496  30.936  26.653  1.00  0.00     0.163 HD
ATOM     76  O   UNL A   1      34.320  28.683  26.909  1.00  0.00    -0.269 OA
BRANCH  74  77
ATOM     77  C   UNL A   1      32.499  27.931  25.656  1.00  0.00     0.058 A 
ATOM     78  C   UNL A   1      31.432  27.272  26.262  1.00  0.00     0.017 A 
ATOM     79  C   UNL A   1      32.808  27.616  24.343  1.00  0.00     0.125 A 
ATOM     80  C   UNL A   1      30.772  26.265  25.563  1.00  0.00     0.030 A 
ATOM     81  N   UNL A   1      32.187  26.636  23.643  1.00  0.00    -0.255 NA
ATOM     82  C   UNL A   1      31.186  25.963  24.263  1.00  0.00     0.094 A 
BRANCH  82  83
ATOM     83  C   UNL A   1      30.526  24.825  23.508  1.00  0.00     0.318 C 
BRANCH  83  84
ATOM     84  N   UNL A   1      31.483  23.858  22.977  1.00  0.00    -0.337 N 
ATOM     85  H   UNL A   1      32.238  24.368  22.518  1.00  0.00     0.346 HD
ATOM     86  H   UNL A   1      30.976  23.256  22.328  1.00  0.00     0.346 HD
BRANCH  84  87
ATOM     87  C   UNL A   1      32.064  22.995  24.003  1.00  0.00     0.300 C 
BRANCH  87  88
ATOM     88  C   UNL A   1      33.544  23.215  24.206  1.00  0.00     0.045 A 
ATOM     89  C   UNL A   1      34.494  22.803  23.259  1.00  0.00     0.051 A 
ATOM     90  C   UNL A   1      34.012  23.830  25.375  1.00  0.00     0.132 A 
ATOM     91  C   UNL A   1      35.850  23.041  23.470  1.00  0.00     0.123 A 
ATOM     92  C   UNL A   1      35.373  24.054  25.592  1.00  0.00     0.043 A 
ATOM     93  F   UNL A   1      33.148  24.215  26.325  1.00  0.00    -0.206 F 
ATOM     94  F   UNL A   1      36.733  22.662  22.538  1.00  0.00    -0.207 F 
ATOM     95  C   UNL A   1      36.299  23.665  24.627  1.00  0.00     0.042 A 
ENDBRANCH  87  88
ENDBRANCH  84  87
ENDBRANCH  83  84
ENDBRANCH  82  83
ENDBRANCH  74  77
ENDBRANCH   1  73
TORSDOF 14
ENDMDL
MODEL 2
REMARK VINA RESULT:     -12.0      1.565      2.938
REMARK SMILES O=C(NCCCNC(=O)c1ccc(C[NH2+]Cc2cc(F)ccc2F)nc1)c1ccc(-c2c3nc(c(-c4c(F)c(F)c(F)c(F)c4F)c4ccc([nH]4)c(-c4c(F)c(F)c(F)c(F)c4F)c4nc(c(-c5c(F)c(F)c(F)c(F)c5F)c5ccc2[nH]5)C=C4)C=C3)cc1
REMARK SMILES IDX 6 1 5 2 4 3 3 4 1 5 2 6 27 8 28 9 89 10 29 11 88 12 30 13
REMARK SMILES IDX 31 14 32 15 82 16 33 17 87 18 81 19 83 20 34 21 86 22 80 23
REMARK SMILES IDX 79 24 35 26 67 27 47 28 66 29 48 30 51 31 65 32 84 33 49 34
REMARK SMILES IDX 50 35 64 37 85 38 52 39 36 40 37 41 45 42 38 43 39 44 43 45
REMARK SMILES IDX 46 46 40 47 41 48 44 49 42 50 68 51 69 52 77 53 70 54 71 55
REMARK SMILES IDX 75 56 78 57 72 58 73 59 76 60 74 61 53 62 54 63 62 64 55 65
REMARK SMILES IDX 56 66 60 67 63 68 57 69 58 70 61 71 59 72 7 73 8 74 9 76
REMARK SMILES IDX 10 77 11 78 26 79 12 80 25 81 13 82 14 83 15 84 16 87 17 88
REMARK SMILES IDX 18 89 23 90 19 91 22 92 24 93 20 94 21 95
REMARK H PARENT 3 7 83 25 51 36 7 75 15 85 15 86
REMARK Flexibility Score: inf
ROOT
ATOM      1  C   UNL A   1      30.985  30.974  25.211  1.00  0.00     0.118 C 
ENDROOT
BRANCH   1   2
ATOM      2  C   UNL A   1      30.888  31.978  26.353  1.00  0.00     0.042 C 
BRANCH   2   3
ATOM      3  C   UNL A   1      32.230  32.466  26.876  1.00  0.00     0.118 C 
BRANCH   3   4
ATOM      4  N   UNL A   1      32.183  33.828  27.395  1.00  0.00    -0.352 N 
ATOM      5  O   UNL A   1      32.645  35.565  28.749  1.00  0.00    -0.269 OA
ATOM      6  C   UNL A   1      32.959  34.450  28.344  1.00  0.00     0.251 C 
ATOM      7  H   UNL A   1      31.480  34.394  27.002  1.00  0.00     0.163 HD
BRANCH   6   8
ATOM      8  C   UNL A   1      34.149  33.774  28.903  1.00  0.00     0.039 A 
ATOM      9  C   UNL A   1      34.053  32.512  29.488  1.00  0.00     0.014 A 
ATOM     10  C   UNL A   1      35.393  34.411  28.827  1.00  0.00     0.014 A 
ATOM     11  C   UNL A   1      35.147  31.972  30.154  1.00  0.00     0.010 A 
ATOM     12  C   UNL A   1      36.518  33.817  29.408  1.00  0.00     0.010 A 
ATOM     13  C   UNL A   1      36.395  32.613  30.117  1.00  0.00    -0.014 A 
BRANCH  13  14
ATOM     14  C   UNL A   1      37.557  31.982  30.796  1.00  0.00     0.031 A 
ATOM     15  C   UNL A   1      37.907  32.331  32.217  1.00  0.00     0.074 A 
ATOM     16  C   UNL A   1      38.272  31.052  30.132  1.00  0.00     0.049 A 
ATOM     17  N   UNL A   1      38.878  31.864  32.963  1.00  0.00    -0.248 NA
ATOM     18  C   UNL A   1      37.070  33.336  32.890  1.00  0.00     0.031 C 
ATOM     19  C   UNL A   1      38.029  30.636  28.749  1.00  0.00     0.029 A 
ATOM     20  N   UNL A   1      39.328  30.273  30.531  1.00  0.00    -0.354 N 
ATOM     21  C   UNL A   1      38.778  32.527  34.179  1.00  0.00     0.074 A 
ATOM     22  C   UNL A   1      37.670  33.450  34.068  1.00  0.00     0.031 C 
ATOM     23  C   UNL A   1      38.874  29.645  28.432  1.00  0.00     0.029 A 
ATOM     24  C   UNL A   1      39.764  29.402  29.562  1.00  0.00     0.049 A 
ATOM     25  H   UNL A   1      39.735  30.333  31.425  1.00  0.00     0.167 HD
ATOM     26  C   UNL A   1      39.537  32.366  35.289  1.00  0.00     0.037 A 
ATOM     27  C   UNL A   1      40.778  28.517  29.572  1.00  0.00     0.037 A 
ATOM     28  C   UNL A   1      40.616  31.420  35.406  1.00  0.00     0.049 A 
ATOM     29  C   UNL A   1      41.619  28.385  30.810  1.00  0.00     0.074 A 
ATOM     30  C   UNL A   1      41.407  31.152  36.511  1.00  0.00     0.029 A 
ATOM     31  N   UNL A   1      41.053  30.586  34.389  1.00  0.00    -0.354 N 
ATOM     32  N   UNL A   1      41.490  28.995  31.963  1.00  0.00    -0.248 NA
ATOM     33  C   UNL A   1      42.751  27.450  30.747  1.00  0.00     0.031 C 
ATOM     34  C   UNL A   1      42.353  30.190  36.147  1.00  0.00     0.029 A 
ATOM     35  C   UNL A   1      42.123  29.824  34.831  1.00  0.00     0.049 A 
ATOM     36  H   UNL A   1      40.661  30.542  33.487  1.00  0.00     0.167 HD
ATOM     37  C   UNL A   1      42.517  28.515  32.763  1.00  0.00     0.074 A 
ATOM     38  C   UNL A   1      43.244  27.541  31.975  1.00  0.00     0.031 C 
ATOM     39  C   UNL A   1      42.833  28.859  34.034  1.00  0.00     0.037 A 
BRANCH  26  40
ATOM     40  C   UNL A   1      39.240  33.224  36.485  1.00  0.00     0.064 A 
ATOM     41  C   UNL A   1      39.847  34.483  36.621  1.00  0.00     0.173 A 
ATOM     42  C   UNL A   1      38.454  32.755  37.546  1.00  0.00     0.173 A 
ATOM     43  F   UNL A   1      40.617  34.973  35.638  1.00  0.00    -0.203 F 
ATOM     44  C   UNL A   1      39.692  35.230  37.786  1.00  0.00     0.198 A 
ATOM     45  C   UNL A   1      38.281  33.516  38.699  1.00  0.00     0.198 A 
ATOM     46  F   UNL A   1      37.846  31.562  37.460  1.00  0.00    -0.203 F 
ATOM     47  F   UNL A   1      40.313  36.412  37.911  1.00  0.00    -0.200 F 
ATOM     48  C   UNL A   1      38.911  34.746  38.824  1.00  0.00     0.200 A 
ATOM     49  F   UNL A   1      37.512  33.056  39.695  1.00  0.00    -0.200 F 
ATOM     50  F   UNL A   1      38.765  35.464  39.946  1.00  0.00    -0.200 F 
ENDBRANCH  26  40
BRANCH  27  51
ATOM     51  C   UNL A   1      41.058  27.701  28.362  1.00  0.00     0.064 A 
ATOM     52  C   UNL A   1      40.476  26.436  28.187  1.00  0.00     0.173 A 
ATOM     53  C   UNL A   1      41.925  28.164  27.363  1.00  0.00     0.173 A 
ATOM     54  F   UNL A   1      39.642  25.946  29.116  1.00  0.00    -0.203 F 
ATOM     55  C   UNL A   1      40.765  25.658  27.069  1.00  0.00     0.198 A 
ATOM     56  C   UNL A   1      42.189  27.397  26.229  1.00  0.00     0.198 A 
ATOM     57  F   UNL A   1      42.490  29.374  27.476  1.00  0.00    -0.203 F 
ATOM     58  F   UNL A   1      40.224  24.438  26.945  1.00  0.00    -0.200 F 
ATOM     59  C   UNL A   1      41.616  26.143  26.088  1.00  0.00     0.200 A 
ATOM     60  F   UNL A   1      42.989  27.880  25.269  1.00  0.00    -0.200 F 
ATOM     61  F   UNL A   1      41.878  25.403  25.001  1.00  0.00    -0.200 F 
ENDBRANCH  27  51
BRANCH  39  62
ATOM     62  C   UNL A   1      44.013  28.180  34.661  1.00  0.00     0.064 A 
ATOM     63  C   UNL A   1      43.855  26.976  35.364  1.00  0.00     0.173 A 
ATOM     64  C   UNL A   1      45.289  28.763  34.630  1.00  0.00     0.173 A 
ATOM     65  F   UNL A   1      42.653  26.384  35.428  1.00  0.00    -0.203 F 
ATOM     66  C   UNL A   1      44.927  26.390  36.030  1.00  0.00     0.198 A 
ATOM     67  C   UNL A   1      46.365  28.160  35.274  1.00  0.00     0.198 A 
ATOM     68  F   UNL A   1      45.492  29.906  33.958  1.00  0.00    -0.203 F 
ATOM     69  F   UNL A   1      44.746  25.259  36.725  1.00  0.00    -0.200 F 
ATOM     70  C   UNL A   1      46.182  26.981  35.982  1.00  0.00     0.200 A 
ATOM     71  F   UNL A   1      47.581  28.718  35.207  1.00  0.00    -0.200 F 
ATOM     72  F   UNL A   1      47.216  26.411  36.616  1.00  0.00    -0.200 F 
ENDBRANCH  39  62
ENDBRANCH  13  14
ENDBRANCH   6   8
ENDBRANCH   3   4
ENDBRANCH   2   3
ENDBRANCH   1   2
BRANCH   1  73
ATOM     73  N   UNL A   1      29.897  31.120  24.255  1.00  0.00    -0.352 N 
ATOM     74  C   UNL A   1      29.514  30.305  23.221  1.00  0.00     0.252 C 
ATOM     75  H   UNL A   1      29.351  31.931  24.370  1.00  0.00     0.163 HD
ATOM     76  O   UNL A   1      28.728  30.723  22.376  1.00  0.00    -0.269 OA
BRANCH  74  77
ATOM     77  C   UNL A   1      30.045  28.940  23.108  1.00  0.00     0.058 A 
ATOM     78  C   UNL A   1      29.317  27.819  23.501  1.00  0.00     0.017 A 
ATOM     79  C   UNL A   1      31.296  28.749  22.547  1.00  0.00     0.125 A 
ATOM     80  C   UNL A   1      29.903  26.560  23.399  1.00  0.00     0.030 A 
ATOM     81  N   UNL A   1      31.893  27.537  22.444  1.00  0.00    -0.255 NA
ATOM     82  C   UNL A   1      31.196  26.458  22.882  1.00  0.00     0.094 A 
BRANCH  82  83
ATOM     83  C   UNL A   1      31.880  25.106  22.824  1.00  0.00     0.318 C 
BRANCH  83  84
ATOM     84  N   UNL A   1      33.093  25.041  23.636  1.00  0.00    -0.337 N 
ATOM     85  H   UNL A   1      33.621  25.903  23.498  1.00  0.00     0.346 HD
ATOM     86  H   UNL A   1      33.615  24.218  23.334  1.00  0.00     0.346 HD
BRANCH  84  87
ATOM     87  C   UNL A   1      32.827  24.883  25.064  1.00  0.00     0.300 C 
BRANCH  87  88
ATOM     88  C   UNL A   1      32.839  26.187  25.825  1.00  0.00     0.045 A 
ATOM     89  C   UNL A   1      33.982  26.998  25.893  1.00  0.00     0.051 A 
ATOM     90  C   UNL A   1      31.694  26.616  26.509  1.00  0.00     0.132 A 
ATOM     91  C   UNL A   1      33.951  28.205  26.587  1.00  0.00     0.123 A 
ATOM     92  C   UNL A   1      31.670  27.819  27.218  1.00  0.00     0.043 A 
ATOM     93  F   UNL A   1      30.585  25.863  26.502  1.00  0.00    -0.206 F 
ATOM     94  F   UNL A   1      35.048  28.973  26.613  1.00  0.00    -0.207 F 
ATOM     95  C   UNL A   1      32.805  28.625  27.248  1.00  0.00     0.042 A 
ENDBRANCH  87  88
ENDBRANCH  84  87
ENDBRANCH  83  84
ENDBRANCH  82  83
ENDBRANCH  74  77
ENDBRANCH   1  73
TORSDOF 14
ENDMDL
MODEL 3
REMARK VINA RESULT:     -11.9      5.245      9.674
REMARK SMILES O=C(NCCCNC(=O)c1ccc(C[NH2+]Cc2cc(F)ccc2F)nc1)c1ccc(-c2c3nc(c(-c4c(F)c(F)c(F)c(F)c4F)c4ccc([nH]4)c(-c4c(F)c(F)c(F)c(F)c4F)c4nc(c(-c5c(F)c(F)c(F)c(F)c5F)c5ccc2[nH]5)C=C4)C=C3)cc1
REMARK SMILES IDX 6 1 5 2 4 3 3 4 1 5 2 6 27 8 28 9 89 10 29 11 88 12 30 13
REMARK SMILES IDX 31 14 32 15 82 16 33 17 87 18 81 19 83 20 34 21 86 22 80 23
REMARK SMILES IDX 79 24 35 26 67 27 47 28 66 29 48 30 51 31 65 32 84 33 49 34
REMARK SMILES IDX 50 35 64 37 85 38 52 39 36 40 37 41 45 42 38 43 39 44 43 45
REMARK SMILES IDX 46 46 40 47 41 48 44 49 42 50 68 51 69 52 77 53 70 54 71 55
REMARK SMILES IDX 75 56 78 57 72 58 73 59 76 60 74 61 53 62 54 63 62 64 55 65
REMARK SMILES IDX 56 66 60 67 63 68 57 69 58 70 61 71 59 72 7 73 8 74 9 76
REMARK SMILES IDX 10 77 11 78 26 79 12 80 25 81 13 82 14 83 15 84 16 87 17 88
REMARK SMILES IDX 18 89 23 90 19 91 22 92 24 93 20 94 21 95
REMARK H PARENT 3 7 83 25 51 36 7 75 15 85 15 86
REMARK Flexibility Score: inf
ROOT
ATOM      1  C   UNL A   1      37.439  21.021  24.657  1.00  0.00     0.118 C 
ENDROOT
BRANCH   1   2
ATOM      2  C   UNL A   1      38.251  19.766  24.950  1.00  0.00     0.042 C 
BRANCH   2   3
ATOM      3  C   UNL A   1      39.251  19.915  26.087  1.00  0.00     0.118 C 
BRANCH   3   4
ATOM      4  N   UNL A   1      40.384  19.004  25.978  1.00  0.00    -0.352 N 
ATOM      5  O   UNL A   1      42.528  18.351  25.776  1.00  0.00    -0.269 OA
ATOM      6  C   UNL A   1      41.735  19.245  26.054  1.00  0.00     0.251 C 
ATOM      7  H   UNL A   1      40.142  18.063  25.824  1.00  0.00     0.163 HD
BRANCH   6   8
ATOM      8  C   UNL A   1      42.240  20.581  26.440  1.00  0.00     0.039 A 
ATOM      9  C   UNL A   1      42.273  20.980  27.776  1.00  0.00     0.014 A 
ATOM     10  C   UNL A   1      42.705  21.447  25.444  1.00  0.00     0.014 A 
ATOM     11  C   UNL A   1      42.591  22.294  28.098  1.00  0.00     0.010 A 
ATOM     12  C   UNL A   1      43.124  22.738  25.782  1.00  0.00     0.010 A 
ATOM     13  C   UNL A   1      43.028  23.188  27.108  1.00  0.00    -0.014 A 
BRANCH  13  14
ATOM     14  C   UNL A   1      43.410  24.571  27.494  1.00  0.00     0.031 A 
ATOM     15  C   UNL A   1      42.368  25.582  27.889  1.00  0.00     0.074 A 
ATOM     16  C   UNL A   1      44.717  24.899  27.531  1.00  0.00     0.049 A 
ATOM     17  N   UNL A   1      42.529  26.826  28.268  1.00  0.00    -0.248 NA
ATOM     18  C   UNL A   1      40.961  25.150  27.851  1.00  0.00     0.031 C 
ATOM     19  C   UNL A   1      45.817  24.004  27.164  1.00  0.00     0.029 A 
ATOM     20  N   UNL A   1      45.345  26.057  27.912  1.00  0.00    -0.354 N 
ATOM     21  C   UNL A   1      41.254  27.326  28.493  1.00  0.00     0.074 A 
ATOM     22  C   UNL A   1      40.322  26.263  28.186  1.00  0.00     0.031 C 
ATOM     23  C   UNL A   1      46.983  24.626  27.387  1.00  0.00     0.029 A 
ATOM     24  C   UNL A   1      46.716  25.985  27.845  1.00  0.00     0.049 A 
ATOM     25  H   UNL A   1      44.862  26.862  28.205  1.00  0.00     0.167 HD
ATOM     26  C   UNL A   1      40.898  28.557  28.931  1.00  0.00     0.037 A 
ATOM     27  C   UNL A   1      47.655  26.913  28.105  1.00  0.00     0.037 A 
ATOM     28  C   UNL A   1      41.832  29.600  29.271  1.00  0.00     0.049 A 
ATOM     29  C   UNL A   1      47.226  28.279  28.560  1.00  0.00     0.074 A 
ATOM     30  C   UNL A   1      41.564  30.863  29.771  1.00  0.00     0.029 A 
ATOM     31  N   UNL A   1      43.209  29.501  29.149  1.00  0.00    -0.354 N 
ATOM     32  N   UNL A   1      46.017  28.725  28.802  1.00  0.00    -0.248 NA
ATOM     33  C   UNL A   1      48.287  29.273  28.771  1.00  0.00     0.031 C 
ATOM     34  C   UNL A   1      42.776  31.545  29.907  1.00  0.00     0.029 A 
ATOM     35  C   UNL A   1      43.803  30.692  29.536  1.00  0.00     0.049 A 
ATOM     36  H   UNL A   1      43.693  28.704  28.834  1.00  0.00     0.167 HD
ATOM     37  C   UNL A   1      46.172  30.045  29.198  1.00  0.00     0.074 A 
ATOM     38  C   UNL A   1      47.593  30.321  29.192  1.00  0.00     0.031 C 
ATOM     39  C   UNL A   1      45.219  30.949  29.526  1.00  0.00     0.037 A 
BRANCH  26  40
ATOM     40  C   UNL A   1      39.437  28.866  29.080  1.00  0.00     0.064 A 
ATOM     41  C   UNL A   1      38.716  29.413  28.006  1.00  0.00     0.173 A 
ATOM     42  C   UNL A   1      38.781  28.731  30.311  1.00  0.00     0.173 A 
ATOM     43  F   UNL A   1      39.301  29.572  26.810  1.00  0.00    -0.203 F 
ATOM     44  C   UNL A   1      37.399  29.834  28.169  1.00  0.00     0.198 A 
ATOM     45  C   UNL A   1      37.455  29.130  30.463  1.00  0.00     0.198 A 
ATOM     46  F   UNL A   1      39.424  28.206  31.364  1.00  0.00    -0.203 F 
ATOM     47  F   UNL A   1      36.743  30.391  27.141  1.00  0.00    -0.200 F 
ATOM     48  C   UNL A   1      36.769  29.693  29.396  1.00  0.00     0.200 A 
ATOM     49  F   UNL A   1      36.843  28.978  31.645  1.00  0.00    -0.200 F 
ATOM     50  F   UNL A   1      35.503  30.101  29.552  1.00  0.00    -0.200 F 
ENDBRANCH  26  40
BRANCH  27  51
ATOM     51  C   UNL A   1      49.093  26.580  27.924  1.00  0.00     0.064 A 
ATOM     52  C   UNL A   1      49.912  26.276  29.022  1.00  0.00     0.173 A 
ATOM     53  C   UNL A   1      49.678  26.573  26.652  1.00  0.00     0.173 A 
ATOM     54  F   UNL A   1      49.401  26.272  30.262  1.00  0.00    -0.203 F 
ATOM     55  C   UNL A   1      51.266  25.997  28.855  1.00  0.00     0.198 A 
ATOM     56  C   UNL A   1      51.026  26.262  26.483  1.00  0.00     0.198 A 
ATOM     57  F   UNL A   1      48.931  26.838  25.570  1.00  0.00    -0.203 F 
ATOM     58  F   UNL A   1      52.033  25.746  29.925  1.00  0.00    -0.200 F 
ATOM     59  C   UNL A   1      51.820  25.983  27.585  1.00  0.00     0.200 A 
ATOM     60  F   UNL A   1      51.552  26.222  25.251  1.00  0.00    -0.200 F 
ATOM     61  F   UNL A   1      53.119  25.694  27.422  1.00  0.00    -0.200 F 
ENDBRANCH  27  51
BRANCH  39  62
ATOM     62  C   UNL A   1      45.674  32.325  29.913  1.00  0.00     0.064 A 
ATOM     63  C   UNL A   1      45.958  32.634  31.251  1.00  0.00     0.173 A 
ATOM     64  C   UNL A   1      45.754  33.357  28.966  1.00  0.00     0.173 A 
ATOM     65  F   UNL A   1      45.887  31.682  32.194  1.00  0.00    -0.203 F 
ATOM     66  C   UNL A   1      46.287  33.931  31.631  1.00  0.00     0.198 A 
ATOM     67  C   UNL A   1      46.111  34.647  29.345  1.00  0.00     0.198 A 
ATOM     68  F   UNL A   1      45.506  33.105  27.672  1.00  0.00    -0.203 F 
ATOM     69  F   UNL A   1      46.520  34.212  32.921  1.00  0.00    -0.200 F 
ATOM     70  C   UNL A   1      46.367  34.936  30.678  1.00  0.00     0.200 A 
ATOM     71  F   UNL A   1      46.211  35.611  28.420  1.00  0.00    -0.200 F 
ATOM     72  F   UNL A   1      46.692  36.183  31.043  1.00  0.00    -0.200 F 
ENDBRANCH  39  62
ENDBRANCH  13  14
ENDBRANCH   6   8
ENDBRANCH   3   4
ENDBRANCH   2   3
ENDBRANCH   1   2
BRANCH   1  73
ATOM     73  N   UNL A   1      37.946  22.183  25.370  1.00  0.00    -0.352 N 
ATOM     74  C   UNL A   1      37.312  23.343  25.735  1.00  0.00     0.252 C 
ATOM     75  H   UNL A   1      38.894  22.129  25.631  1.00  0.00     0.163 HD
ATOM     76  O   UNL A   1      37.973  24.307  26.111  1.00  0.00    -0.269 OA
BRANCH  74  77
ATOM     77  C   UNL A   1      35.847  23.447  25.670  1.00  0.00     0.058 A 
ATOM     78  C   UNL A   1      35.187  24.092  24.627  1.00  0.00     0.017 A 
ATOM     79  C   UNL A   1      35.087  22.841  26.657  1.00  0.00     0.125 A 
ATOM     80  C   UNL A   1      33.799  24.181  24.655  1.00  0.00     0.030 A 
ATOM     81  N   UNL A   1      33.735  22.921  26.713  1.00  0.00    -0.255 NA
ATOM     82  C   UNL A   1      33.107  23.599  25.721  1.00  0.00     0.094 A 
BRANCH  82  83
ATOM     83  C   UNL A   1      31.600  23.743  25.808  1.00  0.00     0.318 C 
BRANCH  83  84
ATOM     84  N   UNL A   1      31.177  24.836  26.680  1.00  0.00    -0.337 N 
ATOM     85  H   UNL A   1      31.998  25.201  27.162  1.00  0.00     0.346 HD
ATOM     86  H   UNL A   1      30.488  24.456  27.329  1.00  0.00     0.346 HD
BRANCH  84  87
ATOM     87  C   UNL A   1      30.534  25.934  25.962  1.00  0.00     0.300 C 
BRANCH  87  88
ATOM     88  C   UNL A   1      31.399  27.168  25.850  1.00  0.00     0.045 A 
ATOM     89  C   UNL A   1      32.454  27.419  26.740  1.00  0.00     0.051 A 
ATOM     90  C   UNL A   1      31.151  28.115  24.847  1.00  0.00     0.132 A 
ATOM     91  C   UNL A   1      33.245  28.556  26.594  1.00  0.00     0.123 A 
ATOM     92  C   UNL A   1      31.936  29.262  24.713  1.00  0.00     0.043 A 
ATOM     93  F   UNL A   1      30.136  27.937  23.991  1.00  0.00    -0.206 F 
ATOM     94  F   UNL A   1      34.263  28.758  27.441  1.00  0.00    -0.207 F 
ATOM     95  C   UNL A   1      32.997  29.479  25.587  1.00  0.00     0.042 A 
ENDBRANCH  87  88
ENDBRANCH  84  87
ENDBRANCH  83  84
ENDBRANCH  82  83
ENDBRANCH  74  77
ENDBRANCH   1  73
TORSDOF 14
ENDMDL
