MODEL 1
REMARK VINA RESULT:     -12.5      0.000      0.000
REMARK SMILES CC(C)C[C@@H]([NH2+][C@H]1CCOC2(CCOCC2)C1)C(=O)NCCCNC(=O)c1ccc(-c2c3nc(c(-c4c(F)c(F)c(F)c(F)c4F)c4ccc([nH]4)c(-c4c(F)c(F)c(F)c(F)c4F)c4nc(c(-c5c(F)c(F)c(F)c(F)c5F)c5ccc2[nH]5)C=C4)C=C3)cc1
REMARK SMILES IDX 22 1 21 2 20 3 18 4 19 5 5 7 4 8 2 9 1 10 3 11 6 12 7 15
REMARK SMILES IDX 8 16 17 17 9 18 11 19 10 20 12 21 16 22 13 23 15 24 14 25
REMARK SMILES IDX 23 26 24 27 25 28 26 30 27 31 28 32 89 33 29 34 88 35 30 36
REMARK SMILES IDX 31 37 32 38 82 39 33 40 87 41 81 42 83 43 34 44 86 45 80 46
REMARK SMILES IDX 79 47 35 49 67 50 47 51 66 52 48 53 51 54 65 55 84 56 49 57
REMARK SMILES IDX 50 58 64 60 85 61 52 62 36 63 37 64 45 65 38 66 39 67 43 68
REMARK SMILES IDX 46 69 40 70 41 71 44 72 42 73 68 74 69 75 77 76 70 77 71 78
REMARK SMILES IDX 75 79 78 80 72 81 73 82 76 83 74 84 53 85 54 86 62 87 55 88
REMARK SMILES IDX 56 89 60 90 63 91 57 92 58 93 61 94 59 95
REMARK H PARENT 20 6 6 13 6 14 24 29 83 48 51 59
REMARK Flexibility Score: inf
ROOT
ATOM      1  C   UNL A   1      32.067  28.425  26.455  1.00  0.00     0.042 C 
ENDROOT
BRANCH   1   2
ATOM      2  C   UNL A   1      32.520  26.977  26.296  1.00  0.00     0.118 C 
BRANCH   2   3
ATOM      3  N   UNL A   1      31.469  26.060  26.694  1.00  0.00    -0.351 N 
ATOM      4  C   UNL A   1      30.491  25.472  25.953  1.00  0.00     0.278 C 
ATOM      5  O   UNL A   1      29.627  24.837  26.568  1.00  0.00    -0.268 OA
ATOM      6  H   UNL A   1      31.462  25.826  27.650  1.00  0.00     0.163 HD
BRANCH   4   7
ATOM      7  C   UNL A   1      30.445  25.576  24.412  1.00  0.00     0.273 C 
BRANCH   7   8
ATOM      8  C   UNL A   1      30.369  24.173  23.771  1.00  0.00     0.078 C 
BRANCH   8   9
ATOM      9  C   UNL A   1      31.705  23.569  23.290  1.00  0.00    -0.011 C 
ATOM     10  C   UNL A   1      32.789  24.622  23.071  1.00  0.00     0.007 C 
ATOM     11  C   UNL A   1      32.191  22.520  24.295  1.00  0.00     0.007 C 
ENDBRANCH   8   9
ENDBRANCH   7   8
BRANCH   7  12
ATOM     12  N   UNL A   1      29.361  26.469  23.939  1.00  0.00    -0.333 N 
ATOM     13  H   UNL A   1      28.651  26.507  24.670  1.00  0.00     0.347 HD
ATOM     14  H   UNL A   1      29.041  26.063  23.060  1.00  0.00     0.347 HD
BRANCH  12  15
ATOM     15  C   UNL A   1      29.747  27.857  23.613  1.00  0.00     0.188 C 
ATOM     16  C   UNL A   1      31.049  28.022  22.822  1.00  0.00     0.093 C 
ATOM     17  C   UNL A   1      28.590  28.477  22.804  1.00  0.00     0.100 C 
ATOM     18  C   UNL A   1      31.258  29.475  22.439  1.00  0.00     0.167 C 
ATOM     19  C   UNL A   1      28.883  29.911  22.322  1.00  0.00     0.078 C 
ATOM     20  O   UNL A   1      30.164  29.959  21.673  1.00  0.00    -0.374 OA
ATOM     21  C   UNL A   1      28.791  30.939  23.467  1.00  0.00     0.064 C 
ATOM     22  C   UNL A   1      27.854  30.305  21.243  1.00  0.00     0.064 C 
ATOM     23  C   UNL A   1      28.935  32.357  22.926  1.00  0.00     0.163 C 
ATOM     24  C   UNL A   1      28.042  31.758  20.822  1.00  0.00     0.163 C 
ATOM     25  O   UNL A   1      27.927  32.623  21.952  1.00  0.00    -0.381 OA
ENDBRANCH  12  15
ENDBRANCH   7  12
ENDBRANCH   4   7
ENDBRANCH   2   3
ENDBRANCH   1   2
BRANCH   1  26
ATOM     26  C   UNL A   1      33.096  29.444  25.981  1.00  0.00     0.118 C 
BRANCH  26  27
ATOM     27  N   UNL A   1      32.733  30.812  26.326  1.00  0.00    -0.352 N 
ATOM     28  C   UNL A   1      33.346  31.676  27.201  1.00  0.00     0.251 C 
ATOM     29  H   UNL A   1      31.937  31.166  25.868  1.00  0.00     0.163 HD
ATOM     30  O   UNL A   1      32.807  32.735  27.507  1.00  0.00    -0.269 OA
BRANCH  28  31
ATOM     31  C   UNL A   1      34.648  31.311  27.792  1.00  0.00     0.039 A 
ATOM     32  C   UNL A   1      35.649  32.281  27.885  1.00  0.00     0.014 A 
ATOM     33  C   UNL A   1      34.869  30.019  28.276  1.00  0.00     0.014 A 
ATOM     34  C   UNL A   1      36.847  31.977  28.535  1.00  0.00     0.010 A 
ATOM     35  C   UNL A   1      36.029  29.741  28.989  1.00  0.00     0.010 A 
ATOM     36  C   UNL A   1      37.028  30.717  29.129  1.00  0.00    -0.014 A 
BRANCH  36  37
ATOM     37  C   UNL A   1      38.249  30.383  29.905  1.00  0.00     0.031 A 
ATOM     38  C   UNL A   1      39.248  29.413  29.339  1.00  0.00     0.074 A 
ATOM     39  C   UNL A   1      38.405  30.868  31.151  1.00  0.00     0.049 A 
ATOM     40  N   UNL A   1      40.288  28.864  29.913  1.00  0.00    -0.248 NA
ATOM     41  C   UNL A   1      39.027  28.979  27.951  1.00  0.00     0.031 C 
ATOM     42  C   UNL A   1      37.488  31.790  31.823  1.00  0.00     0.029 A 
ATOM     43  N   UNL A   1      39.382  30.632  32.088  1.00  0.00    -0.354 N 
ATOM     44  C   UNL A   1      40.827  28.003  28.968  1.00  0.00     0.074 A 
ATOM     45  C   UNL A   1      39.976  28.067  27.800  1.00  0.00     0.031 C 
ATOM     46  C   UNL A   1      37.949  32.048  33.057  1.00  0.00     0.029 A 
ATOM     47  C   UNL A   1      39.165  31.274  33.284  1.00  0.00     0.049 A 
ATOM     48  H   UNL A   1      40.163  30.056  31.918  1.00  0.00     0.167 HD
ATOM     49  C   UNL A   1      41.943  27.241  29.061  1.00  0.00     0.037 A 
ATOM     50  C   UNL A   1      39.859  31.224  34.437  1.00  0.00     0.037 A 
ATOM     51  C   UNL A   1      42.801  27.205  30.215  1.00  0.00     0.049 A 
ATOM     52  C   UNL A   1      41.088  30.360  34.519  1.00  0.00     0.074 A 
ATOM     53  C   UNL A   1      43.985  26.508  30.388  1.00  0.00     0.029 A 
ATOM     54  N   UNL A   1      42.567  27.898  31.394  1.00  0.00    -0.354 N 
ATOM     55  N   UNL A   1      41.619  29.589  33.601  1.00  0.00    -0.248 NA
ATOM     56  C   UNL A   1      41.818  30.361  35.795  1.00  0.00     0.031 C 
ATOM     57  C   UNL A   1      44.443  26.743  31.689  1.00  0.00     0.029 A 
ATOM     58  C   UNL A   1      43.575  27.630  32.307  1.00  0.00     0.049 A 
ATOM     59  H   UNL A   1      41.799  28.490  31.558  1.00  0.00     0.167 HD
ATOM     60  C   UNL A   1      42.762  29.047  34.173  1.00  0.00     0.074 A 
ATOM     61  C   UNL A   1      42.850  29.577  35.517  1.00  0.00     0.031 C 
ATOM     62  C   UNL A   1      43.660  28.189  33.631  1.00  0.00     0.037 A 
BRANCH  49  63
ATOM     63  C   UNL A   1      42.300  26.383  27.882  1.00  0.00     0.064 A 
ATOM     64  C   UNL A   1      41.702  25.131  27.675  1.00  0.00     0.173 A 
ATOM     65  C   UNL A   1      43.223  26.835  26.926  1.00  0.00     0.173 A 
ATOM     66  F   UNL A   1      40.822  24.647  28.564  1.00  0.00    -0.203 F 
ATOM     67  C   UNL A   1      42.039  24.349  26.572  1.00  0.00     0.198 A 
ATOM     68  C   UNL A   1      43.532  26.064  25.808  1.00  0.00     0.198 A 
ATOM     69  F   UNL A   1      43.819  28.027  27.072  1.00  0.00    -0.203 F 
ATOM     70  F   UNL A   1      41.493  23.134  26.423  1.00  0.00    -0.200 F 
ATOM     71  C   UNL A   1      42.947  24.820  25.637  1.00  0.00     0.200 A 
ATOM     72  F   UNL A   1      44.399  26.527  24.897  1.00  0.00    -0.200 F 
ATOM     73  F   UNL A   1      43.263  24.070  24.571  1.00  0.00    -0.200 F 
ENDBRANCH  49  63
BRANCH  50  74
ATOM     74  C   UNL A   1      39.415  32.030  35.605  1.00  0.00     0.064 A 
ATOM     75  C   UNL A   1      39.918  33.321  35.819  1.00  0.00     0.173 A 
ATOM     76  C   UNL A   1      38.486  31.531  36.530  1.00  0.00     0.173 A 
ATOM     77  F   UNL A   1      40.823  33.835  34.973  1.00  0.00    -0.203 F 
ATOM     78  C   UNL A   1      39.525  34.074  36.924  1.00  0.00     0.198 A 
ATOM     79  C   UNL A   1      38.072  32.296  37.618  1.00  0.00     0.198 A 
ATOM     80  F   UNL A   1      37.969  30.304  36.368  1.00  0.00    -0.203 F 
ATOM     81  F   UNL A   1      40.057  35.288  37.128  1.00  0.00    -0.200 F 
ATOM     82  C   UNL A   1      38.598  33.563  37.819  1.00  0.00     0.200 A 
ATOM     83  F   UNL A   1      37.164  31.805  38.473  1.00  0.00    -0.200 F 
ATOM     84  F   UNL A   1      38.217  34.289  38.878  1.00  0.00    -0.200 F 
ENDBRANCH  50  74
BRANCH  62  85
ATOM     85  C   UNL A   1      44.853  27.815  34.461  1.00  0.00     0.064 A 
ATOM     86  C   UNL A   1      44.867  26.663  35.259  1.00  0.00     0.173 A 
ATOM     87  C   UNL A   1      46.024  28.586  34.396  1.00  0.00     0.173 A 
ATOM     88  F   UNL A   1      43.768  25.901  35.366  1.00  0.00    -0.203 F 
ATOM     89  C   UNL A   1      46.006  26.305  35.975  1.00  0.00     0.198 A 
ATOM     90  C   UNL A   1      47.170  28.209  35.090  1.00  0.00     0.198 A 
ATOM     91  F   UNL A   1      46.063  29.694  33.640  1.00  0.00    -0.203 F 
ATOM     92  F   UNL A   1      45.988  25.219  36.761  1.00  0.00    -0.200 F 
ATOM     93  C   UNL A   1      47.159  27.072  35.882  1.00  0.00     0.200 A 
ATOM     94  F   UNL A   1      48.286  28.944  34.986  1.00  0.00    -0.200 F 
ATOM     95  F   UNL A   1      48.260  26.715  36.559  1.00  0.00    -0.200 F 
ENDBRANCH  62  85
ENDBRANCH  36  37
ENDBRANCH  28  31
ENDBRANCH  26  27
ENDBRANCH   1  26
TORSDOF 14
ENDMDL
MODEL 2
REMARK VINA RESULT:     -12.4      1.861      2.839
REMARK SMILES CC(C)C[C@@H]([NH2+][C@H]1CCOC2(CCOCC2)C1)C(=O)NCCCNC(=O)c1ccc(-c2c3nc(c(-c4c(F)c(F)c(F)c(F)c4F)c4ccc([nH]4)c(-c4c(F)c(F)c(F)c(F)c4F)c4nc(c(-c5c(F)c(F)c(F)c(F)c5F)c5ccc2[nH]5)C=C4)C=C3)cc1
REMARK SMILES IDX 22 1 21 2 20 3 18 4 19 5 5 7 4 8 2 9 1 10 3 11 6 12 7 15
REMARK SMILES IDX 8 16 17 17 9 18 11 19 10 20 12 21 16 22 13 23 15 24 14 25
REMARK SMILES IDX 23 26 24 27 25 28 26 30 27 31 28 32 89 33 29 34 88 35 30 36
REMARK SMILES IDX 31 37 32 38 82 39 33 40 87 41 81 42 83 43 34 44 86 45 80 46
REMARK SMILES IDX 79 47 35 49 67 50 47 51 66 52 48 53 51 54 65 55 84 56 49 57
REMARK SMILES IDX 50 58 64 60 85 61 52 62 36 63 37 64 45 65 38 66 39 67 43 68
REMARK SMILES IDX 46 69 40 70 41 71 44 72 42 73 68 74 69 75 77 76 70 77 71 78
REMARK SMILES IDX 75 79 78 80 72 81 73 82 76 83 74 84 53 85 54 86 62 87 55 88
REMARK SMILES IDX 56 89 60 90 63 91 57 92 58 93 61 94 59 95
REMARK H PARENT 20 6 6 13 6 14 24 29 83 48 51 59
REMARK Flexibility Score: inf
ROOT
ATOM      1  C   UNL A   1      31.675  31.650  26.738  1.00  0.00     0.042 C 
ENDROOT
BRANCH   1   2
ATOM      2  C   UNL A   1      32.088  30.433  25.916  1.00  0.00     0.118 C 
BRANCH   2   3
ATOM      3  N   UNL A   1      31.733  29.203  26.599  1.00  0.00    -0.351 N 
ATOM      4  C   UNL A   1      31.408  27.982  26.095  1.00  0.00     0.278 C 
ATOM      5  O   UNL A   1      31.005  27.133  26.898  1.00  0.00    -0.268 OA
ATOM      6  H   UNL A   1      31.725  29.261  27.582  1.00  0.00     0.163 HD
BRANCH   4   7
ATOM      7  C   UNL A   1      31.537  27.646  24.592  1.00  0.00     0.273 C 
BRANCH   7   8
ATOM      8  C   UNL A   1      32.830  26.848  24.319  1.00  0.00     0.078 C 
BRANCH   8   9
ATOM      9  C   UNL A   1      33.642  27.269  23.075  1.00  0.00    -0.011 C 
ATOM     10  C   UNL A   1      33.277  26.467  21.828  1.00  0.00     0.007 C 
ATOM     11  C   UNL A   1      33.447  28.765  22.810  1.00  0.00     0.007 C 
ENDBRANCH   8   9
ENDBRANCH   7   8
BRANCH   7  12
ATOM     12  N   UNL A   1      30.333  26.964  24.063  1.00  0.00    -0.333 N 
ATOM     13  H   UNL A   1      29.847  26.538  24.851  1.00  0.00     0.347 HD
ATOM     14  H   UNL A   1      30.682  26.300  23.371  1.00  0.00     0.347 HD
BRANCH  12  15
ATOM     15  C   UNL A   1      29.362  27.809  23.338  1.00  0.00     0.188 C 
ATOM     16  C   UNL A   1      27.891  27.613  23.718  1.00  0.00     0.093 C 
ATOM     17  C   UNL A   1      29.751  29.279  23.594  1.00  0.00     0.100 C 
ATOM     18  C   UNL A   1      27.017  28.628  23.003  1.00  0.00     0.167 C 
ATOM     19  C   UNL A   1      28.775  30.288  22.959  1.00  0.00     0.078 C 
ATOM     20  O   UNL A   1      27.423  29.953  23.315  1.00  0.00    -0.374 OA
ATOM     21  C   UNL A   1      28.950  30.383  21.431  1.00  0.00     0.064 C 
ATOM     22  C   UNL A   1      29.029  31.686  23.557  1.00  0.00     0.064 C 
ATOM     23  C   UNL A   1      28.078  31.496  20.860  1.00  0.00     0.163 C 
ATOM     24  C   UNL A   1      28.158  32.733  22.872  1.00  0.00     0.163 C 
ATOM     25  O   UNL A   1      28.405  32.746  21.466  1.00  0.00    -0.381 OA
ENDBRANCH  12  15
ENDBRANCH   7  12
ENDBRANCH   4   7
ENDBRANCH   2   3
ENDBRANCH   1   2
BRANCH   1  26
ATOM     26  C   UNL A   1      32.852  32.448  27.285  1.00  0.00     0.118 C 
BRANCH  26  27
ATOM     27  N   UNL A   1      32.505  33.832  27.578  1.00  0.00    -0.352 N 
ATOM     28  C   UNL A   1      33.034  34.675  28.524  1.00  0.00     0.251 C 
ATOM     29  H   UNL A   1      31.793  34.216  27.018  1.00  0.00     0.163 HD
ATOM     30  O   UNL A   1      32.506  35.758  28.755  1.00  0.00    -0.269 OA
BRANCH  28  31
ATOM     31  C   UNL A   1      34.231  34.260  29.282  1.00  0.00     0.039 A 
ATOM     32  C   UNL A   1      34.069  33.586  30.495  1.00  0.00     0.014 A 
ATOM     33  C   UNL A   1      35.510  34.516  28.782  1.00  0.00     0.014 A 
ATOM     34  C   UNL A   1      35.190  33.098  31.169  1.00  0.00     0.010 A 
ATOM     35  C   UNL A   1      36.618  33.964  29.414  1.00  0.00     0.010 A 
ATOM     36  C   UNL A   1      36.470  33.247  30.611  1.00  0.00    -0.014 A 
BRANCH  36  37
ATOM     37  C   UNL A   1      37.678  32.667  31.251  1.00  0.00     0.031 A 
ATOM     38  C   UNL A   1      38.406  31.539  30.578  1.00  0.00     0.074 A 
ATOM     39  C   UNL A   1      38.052  33.082  32.476  1.00  0.00     0.049 A 
ATOM     40  N   UNL A   1      39.375  30.787  31.036  1.00  0.00    -0.248 NA
ATOM     41  C   UNL A   1      37.964  31.190  29.219  1.00  0.00     0.031 C 
ATOM     42  C   UNL A   1      37.404  34.146  33.246  1.00  0.00     0.029 A 
ATOM     43  N   UNL A   1      39.056  32.640  33.302  1.00  0.00    -0.354 N 
ATOM     44  C   UNL A   1      39.638  29.863  30.035  1.00  0.00     0.074 A 
ATOM     45  C   UNL A   1      38.699  30.117  28.964  1.00  0.00     0.031 C 
ATOM     46  C   UNL A   1      38.032  34.280  34.425  1.00  0.00     0.029 A 
ATOM     47  C   UNL A   1      39.092  33.282  34.518  1.00  0.00     0.049 A 
ATOM     48  H   UNL A   1      39.690  31.931  33.048  1.00  0.00     0.167 HD
ATOM     49  C   UNL A   1      40.590  28.900  30.005  1.00  0.00     0.037 A 
ATOM     50  C   UNL A   1      39.879  33.072  35.590  1.00  0.00     0.037 A 
ATOM     51  C   UNL A   1      41.539  28.671  31.061  1.00  0.00     0.049 A 
ATOM     52  C   UNL A   1      40.920  31.987  35.537  1.00  0.00     0.074 A 
ATOM     53  C   UNL A   1      42.578  27.757  31.104  1.00  0.00     0.029 A 
ATOM     54  N   UNL A   1      41.566  29.366  32.261  1.00  0.00    -0.354 N 
ATOM     55  N   UNL A   1      41.195  31.152  34.565  1.00  0.00    -0.248 NA
ATOM     56  C   UNL A   1      41.765  31.817  36.729  1.00  0.00     0.031 C 
ATOM     57  C   UNL A   1      43.205  27.867  32.350  1.00  0.00     0.029 A 
ATOM     58  C   UNL A   1      42.592  28.888  33.061  1.00  0.00     0.049 A 
ATOM     59  H   UNL A   1      40.948  30.090  32.509  1.00  0.00     0.167 HD
ATOM     60  C   UNL A   1      42.265  30.387  35.010  1.00  0.00     0.074 A 
ATOM     61  C   UNL A   1      42.591  30.857  36.339  1.00  0.00     0.031 C 
ATOM     62  C   UNL A   1      42.920  29.387  34.371  1.00  0.00     0.037 A 
BRANCH  49  63
ATOM     63  C   UNL A   1      40.651  28.019  28.791  1.00  0.00     0.064 A 
ATOM     64  C   UNL A   1      39.921  26.823  28.710  1.00  0.00     0.173 A 
ATOM     65  C   UNL A   1      41.419  28.393  27.677  1.00  0.00     0.173 A 
ATOM     66  F   UNL A   1      39.179  26.413  29.750  1.00  0.00    -0.203 F 
ATOM     67  C   UNL A   1      39.982  26.020  27.574  1.00  0.00     0.198 A 
ATOM     68  C   UNL A   1      41.452  27.604  26.531  1.00  0.00     0.198 A 
ATOM     69  F   UNL A   1      42.130  29.530  27.698  1.00  0.00    -0.203 F 
ATOM     70  F   UNL A   1      39.316  24.857  27.542  1.00  0.00    -0.200 F 
ATOM     71  C   UNL A   1      40.741  26.415  26.483  1.00  0.00     0.200 A 
ATOM     72  F   UNL A   1      42.174  27.994  25.471  1.00  0.00    -0.200 F 
ATOM     73  F   UNL A   1      40.792  25.645  25.387  1.00  0.00    -0.200 F 
ENDBRANCH  49  63
BRANCH  50  74
ATOM     74  C   UNL A   1      39.722  33.918  36.803  1.00  0.00     0.064 A 
ATOM     75  C   UNL A   1      38.927  33.494  37.876  1.00  0.00     0.173 A 
ATOM     76  C   UNL A   1      40.357  35.164  36.915  1.00  0.00     0.173 A 
ATOM     77  F   UNL A   1      38.283  32.319  37.808  1.00  0.00    -0.203 F 
ATOM     78  C   UNL A   1      38.755  34.291  39.006  1.00  0.00     0.198 A 
ATOM     79  C   UNL A   1      40.209  35.947  38.057  1.00  0.00     0.198 A 
ATOM     80  F   UNL A   1      41.135  35.614  35.919  1.00  0.00    -0.203 F 
ATOM     81  F   UNL A   1      37.953  33.880  39.998  1.00  0.00    -0.200 F 
ATOM     82  C   UNL A   1      39.402  35.514  39.098  1.00  0.00     0.200 A 
ATOM     83  F   UNL A   1      40.847  37.122  38.149  1.00  0.00    -0.200 F 
ATOM     84  F   UNL A   1      39.241  36.278  40.187  1.00  0.00    -0.200 F 
ENDBRANCH  50  74
BRANCH  62  85
ATOM     85  C   UNL A   1      44.098  28.772  35.067  1.00  0.00     0.064 A 
ATOM     86  C   UNL A   1      43.967  27.639  35.882  1.00  0.00     0.173 A 
ATOM     87  C   UNL A   1      45.388  29.285  34.855  1.00  0.00     0.173 A 
ATOM     88  F   UNL A   1      42.754  27.120  36.128  1.00  0.00    -0.203 F 
ATOM     89  C   UNL A   1      45.082  27.050  36.471  1.00  0.00     0.198 A 
ATOM     90  C   UNL A   1      46.503  28.676  35.422  1.00  0.00     0.198 A 
ATOM     91  F   UNL A   1      45.565  30.364  34.078  1.00  0.00    -0.203 F 
ATOM     92  F   UNL A   1      44.931  25.988  37.275  1.00  0.00    -0.200 F 
ATOM     93  C   UNL A   1      46.350  27.563  36.233  1.00  0.00     0.200 A 
ATOM     94  F   UNL A   1      47.727  29.166  35.179  1.00  0.00    -0.200 F 
ATOM     95  F   UNL A   1      47.424  26.984  36.788  1.00  0.00    -0.200 F 
ENDBRANCH  62  85
ENDBRANCH  36  37
ENDBRANCH  28  31
ENDBRANCH  26  27
ENDBRANCH   1  26
TORSDOF 14
ENDMDL
MODEL 3
REMARK VINA RESULT:     -12.4      2.146      4.290
REMARK SMILES CC(C)C[C@@H]([NH2+][C@H]1CCOC2(CCOCC2)C1)C(=O)NCCCNC(=O)c1ccc(-c2c3nc(c(-c4c(F)c(F)c(F)c(F)c4F)c4ccc([nH]4)c(-c4c(F)c(F)c(F)c(F)c4F)c4nc(c(-c5c(F)c(F)c(F)c(F)c5F)c5ccc2[nH]5)C=C4)C=C3)cc1
REMARK SMILES IDX 22 1 21 2 20 3 18 4 19 5 5 7 4 8 2 9 1 10 3 11 6 12 7 15
REMARK SMILES IDX 8 16 17 17 9 18 11 19 10 20 12 21 16 22 13 23 15 24 14 25
REMARK SMILES IDX 23 26 24 27 25 28 26 30 27 31 28 32 89 33 29 34 88 35 30 36
REMARK SMILES IDX 31 37 32 38 82 39 33 40 87 41 81 42 83 43 34 44 86 45 80 46
REMARK SMILES IDX 79 47 35 49 67 50 47 51 66 52 48 53 51 54 65 55 84 56 49 57
REMARK SMILES IDX 50 58 64 60 85 61 52 62 36 63 37 64 45 65 38 66 39 67 43 68
REMARK SMILES IDX 46 69 40 70 41 71 44 72 42 73 68 74 69 75 77 76 70 77 71 78
REMARK SMILES IDX 75 79 78 80 72 81 73 82 76 83 74 84 53 85 54 86 62 87 55 88
REMARK SMILES IDX 56 89 60 90 63 91 57 92 58 93 61 94 59 95
REMARK H PARENT 20 6 6 13 6 14 24 29 83 48 51 59
REMARK Flexibility Score: inf
ROOT
ATOM      1  C   UNL A   1      31.479  31.834  26.657  1.00  0.00     0.042 C 
ENDROOT
BRANCH   1   2
ATOM      2  C   UNL A   1      31.863  30.509  26.005  1.00  0.00     0.118 C 
BRANCH   2   3
ATOM      3  N   UNL A   1      31.165  30.329  24.746  1.00  0.00    -0.351 N 
ATOM      4  C   UNL A   1      31.114  29.252  23.916  1.00  0.00     0.278 C 
ATOM      5  O   UNL A   1      30.556  29.411  22.825  1.00  0.00    -0.268 OA
ATOM      6  H   UNL A   1      30.646  31.110  24.444  1.00  0.00     0.163 HD
BRANCH   4   7
ATOM      7  C   UNL A   1      31.715  27.882  24.302  1.00  0.00     0.273 C 
BRANCH   7   8
ATOM      8  C   UNL A   1      30.598  26.858  24.596  1.00  0.00     0.078 C 
BRANCH   8   9
ATOM      9  C   UNL A   1      30.532  26.312  26.038  1.00  0.00    -0.011 C 
ATOM     10  C   UNL A   1      30.496  24.787  26.095  1.00  0.00     0.007 C 
ATOM     11  C   UNL A   1      31.724  26.837  26.845  1.00  0.00     0.007 C 
ENDBRANCH   8   9
ENDBRANCH   7   8
BRANCH   7  12
ATOM     12  N   UNL A   1      32.681  27.387  23.294  1.00  0.00    -0.333 N 
ATOM     13  H   UNL A   1      33.605  27.729  23.556  1.00  0.00     0.347 HD
ATOM     14  H   UNL A   1      32.338  27.735  22.398  1.00  0.00     0.347 HD
BRANCH  12  15
ATOM     15  C   UNL A   1      32.773  25.921  23.134  1.00  0.00     0.188 C 
ATOM     16  C   UNL A   1      32.876  25.411  21.693  1.00  0.00     0.093 C 
ATOM     17  C   UNL A   1      34.012  25.450  23.920  1.00  0.00     0.100 C 
ATOM     18  C   UNL A   1      33.098  23.910  21.675  1.00  0.00     0.167 C 
ATOM     19  C   UNL A   1      34.284  23.939  23.782  1.00  0.00     0.078 C 
ATOM     20  O   UNL A   1      34.273  23.563  22.395  1.00  0.00    -0.374 OA
ATOM     21  C   UNL A   1      33.293  23.093  24.604  1.00  0.00     0.064 C 
ATOM     22  C   UNL A   1      35.708  23.631  24.286  1.00  0.00     0.064 C 
ATOM     23  C   UNL A   1      33.686  21.620  24.566  1.00  0.00     0.163 C 
ATOM     24  C   UNL A   1      35.974  22.130  24.270  1.00  0.00     0.163 C 
ATOM     25  O   UNL A   1      35.010  21.444  25.068  1.00  0.00    -0.381 OA
ENDBRANCH  12  15
ENDBRANCH   7  12
ENDBRANCH   4   7
ENDBRANCH   2   3
ENDBRANCH   1   2
BRANCH   1  26
ATOM     26  C   UNL A   1      32.655  32.573  27.281  1.00  0.00     0.118 C 
BRANCH  26  27
ATOM     27  N   UNL A   1      32.364  33.978  27.538  1.00  0.00    -0.352 N 
ATOM     28  C   UNL A   1      32.930  34.825  28.458  1.00  0.00     0.251 C 
ATOM     29  H   UNL A   1      31.663  34.374  26.972  1.00  0.00     0.163 HD
ATOM     30  O   UNL A   1      32.446  35.934  28.663  1.00  0.00    -0.269 OA
BRANCH  28  31
ATOM     31  C   UNL A   1      34.115  34.385  29.221  1.00  0.00     0.039 A 
ATOM     32  C   UNL A   1      33.933  33.675  30.411  1.00  0.00     0.014 A 
ATOM     33  C   UNL A   1      35.402  34.653  28.748  1.00  0.00     0.014 A 
ATOM     34  C   UNL A   1      35.043  33.165  31.087  1.00  0.00     0.010 A 
ATOM     35  C   UNL A   1      36.500  34.080  29.380  1.00  0.00     0.010 A 
ATOM     36  C   UNL A   1      36.332  33.327  30.553  1.00  0.00    -0.014 A 
BRANCH  36  37
ATOM     37  C   UNL A   1      37.529  32.726  31.193  1.00  0.00     0.031 A 
ATOM     38  C   UNL A   1      38.243  31.591  30.516  1.00  0.00     0.074 A 
ATOM     39  C   UNL A   1      37.905  33.128  32.422  1.00  0.00     0.049 A 
ATOM     40  N   UNL A   1      39.199  30.822  30.972  1.00  0.00    -0.248 NA
ATOM     41  C   UNL A   1      37.800  31.256  29.154  1.00  0.00     0.031 C 
ATOM     42  C   UNL A   1      37.271  34.197  33.196  1.00  0.00     0.029 A 
ATOM     43  N   UNL A   1      38.900  32.667  33.249  1.00  0.00    -0.354 N 
ATOM     44  C   UNL A   1      39.451  29.899  29.967  1.00  0.00     0.074 A 
ATOM     45  C   UNL A   1      38.519  30.174  28.894  1.00  0.00     0.031 C 
ATOM     46  C   UNL A   1      37.896  34.315  34.377  1.00  0.00     0.029 A 
ATOM     47  C   UNL A   1      38.942  33.300  34.468  1.00  0.00     0.049 A 
ATOM     48  H   UNL A   1      39.524  31.949  32.992  1.00  0.00     0.167 HD
ATOM     49  C   UNL A   1      40.389  28.923  29.934  1.00  0.00     0.037 A 
ATOM     50  C   UNL A   1      39.722  33.073  35.542  1.00  0.00     0.037 A 
ATOM     51  C   UNL A   1      41.331  28.674  30.992  1.00  0.00     0.049 A 
ATOM     52  C   UNL A   1      40.747  31.973  35.485  1.00  0.00     0.074 A 
ATOM     53  C   UNL A   1      42.356  27.744  31.033  1.00  0.00     0.029 A 
ATOM     54  N   UNL A   1      41.364  29.362  32.196  1.00  0.00    -0.354 N 
ATOM     55  N   UNL A   1      41.013  31.139  34.509  1.00  0.00    -0.248 NA
ATOM     56  C   UNL A   1      41.585  31.783  36.679  1.00  0.00     0.031 C 
ATOM     57  C   UNL A   1      42.980  27.838  32.281  1.00  0.00     0.029 A 
ATOM     58  C   UNL A   1      42.381  28.864  32.996  1.00  0.00     0.049 A 
ATOM     59  H   UNL A   1      40.756  30.093  32.447  1.00  0.00     0.167 HD
ATOM     60  C   UNL A   1      42.070  30.356  34.953  1.00  0.00     0.074 A 
ATOM     61  C   UNL A   1      42.398  30.813  36.286  1.00  0.00     0.031 C 
ATOM     62  C   UNL A   1      42.711  29.350  34.310  1.00  0.00     0.037 A 
BRANCH  49  63
ATOM     63  C   UNL A   1      40.440  28.048  28.715  1.00  0.00     0.064 A 
ATOM     64  C   UNL A   1      41.189  28.405  27.583  1.00  0.00     0.173 A 
ATOM     65  C   UNL A   1      39.763  26.819  28.692  1.00  0.00     0.173 A 
ATOM     66  F   UNL A   1      41.846  29.574  27.549  1.00  0.00    -0.203 F 
ATOM     67  C   UNL A   1      41.232  27.579  26.462  1.00  0.00     0.198 A 
ATOM     68  C   UNL A   1      39.836  25.981  27.581  1.00  0.00     0.198 A 
ATOM     69  F   UNL A   1      39.038  26.426  29.749  1.00  0.00    -0.203 F 
ATOM     70  F   UNL A   1      41.913  27.966  25.374  1.00  0.00    -0.200 F 
ATOM     71  C   UNL A   1      40.562  26.366  26.466  1.00  0.00     0.200 A 
ATOM     72  F   UNL A   1      39.199  24.802  27.592  1.00  0.00    -0.200 F 
ATOM     73  F   UNL A   1      40.613  25.568  25.389  1.00  0.00    -0.200 F 
ENDBRANCH  49  63
BRANCH  50  74
ATOM     74  C   UNL A   1      39.573  33.914  36.758  1.00  0.00     0.064 A 
ATOM     75  C   UNL A   1      40.231  35.147  36.862  1.00  0.00     0.173 A 
ATOM     76  C   UNL A   1      38.778  33.507  37.839  1.00  0.00     0.173 A 
ATOM     77  F   UNL A   1      41.019  35.572  35.863  1.00  0.00    -0.203 F 
ATOM     78  C   UNL A   1      40.116  35.931  38.009  1.00  0.00     0.198 A 
ATOM     79  C   UNL A   1      38.640  34.305  38.973  1.00  0.00     0.198 A 
ATOM     80  F   UNL A   1      38.121  32.338  37.789  1.00  0.00    -0.203 F 
ATOM     81  F   UNL A   1      40.793  37.085  38.099  1.00  0.00    -0.200 F 
ATOM     82  C   UNL A   1      39.316  35.512  39.060  1.00  0.00     0.200 A 
ATOM     83  F   UNL A   1      37.854  33.903  39.981  1.00  0.00    -0.200 F 
ATOM     84  F   UNL A   1      39.202  36.268  40.160  1.00  0.00    -0.200 F 
ENDBRANCH  50  74
BRANCH  62  85
ATOM     85  C   UNL A   1      43.878  28.713  35.007  1.00  0.00     0.064 A 
ATOM     86  C   UNL A   1      43.725  27.585  35.825  1.00  0.00     0.173 A 
ATOM     87  C   UNL A   1      45.177  29.200  34.791  1.00  0.00     0.173 A 
ATOM     88  F   UNL A   1      42.502  27.091  36.074  1.00  0.00    -0.203 F 
ATOM     89  C   UNL A   1      44.830  26.976  36.414  1.00  0.00     0.198 A 
ATOM     90  C   UNL A   1      46.281  28.571  35.359  1.00  0.00     0.198 A 
ATOM     91  F   UNL A   1      45.376  30.272  34.011  1.00  0.00    -0.203 F 
ATOM     92  F   UNL A   1      44.659  25.920  37.221  1.00  0.00    -0.200 F 
ATOM     93  C   UNL A   1      46.107  27.462  36.173  1.00  0.00     0.200 A 
ATOM     94  F   UNL A   1      47.514  29.034  35.112  1.00  0.00    -0.200 F 
ATOM     95  F   UNL A   1      47.170  26.864  36.728  1.00  0.00    -0.200 F 
ENDBRANCH  62  85
ENDBRANCH  36  37
ENDBRANCH  28  31
ENDBRANCH  26  27
ENDBRANCH   1  26
TORSDOF 14
ENDMDL
