MODEL 1
REMARK VINA RESULT:     -11.4      0.000      0.000
REMARK SMILES CC[NH2+][C@]1(C(=O)NCCCNC(=O)c2ccc(-c3c4nc(c(-c5c(F)c(F)c(F)c(F)c5F)c5ccc([nH]5)c(-c5c(F)c(F)c(F)c(F)c5F)c5nc(c(-c6c(F)c(F)c(F)c(F)c6F)c6ccc3[nH]6)C=C5)C=C4)cc2)CCC[C@@H](n2cccn2)C1
REMARK SMILES IDX 9 1 8 2 7 3 5 4 6 5 4 7 77 8 86 9 78 10 80 11 79 12 3 13
REMARK SMILES IDX 2 16 1 17 81 18 82 19 85 20 83 21 84 22 10 23 11 24 12 25
REMARK SMILES IDX 13 27 14 28 15 29 76 30 16 31 75 32 17 33 18 34 19 35 69 36
REMARK SMILES IDX 20 37 74 38 68 39 70 40 21 41 73 42 67 43 66 44 22 46 54 47
REMARK SMILES IDX 34 48 53 49 35 50 38 51 52 52 71 53 36 54 37 55 51 57 72 58
REMARK SMILES IDX 39 59 23 60 24 61 32 62 25 63 26 64 30 65 33 66 27 67 28 68
REMARK SMILES IDX 31 69 29 70 55 71 56 72 64 73 57 74 58 75 62 76 65 77 59 78
REMARK SMILES IDX 60 79 63 80 61 81 40 82 41 83 49 84 42 85 43 86 47 87 50 88
REMARK SMILES IDX 44 89 45 90 48 91 46 92
REMARK H PARENT 7 6 3 14 3 15 11 26 70 45 38 56
REMARK Flexibility Score: inf
ROOT
ATOM      1  C   UNL A   1      37.933  19.472  24.986  1.00  0.00     0.042 C 
ENDROOT
BRANCH   1   2
ATOM      2  C   UNL A   1      36.881  20.506  24.611  1.00  0.00     0.118 C 
BRANCH   2   3
ATOM      3  N   UNL A   1      35.964  20.732  25.702  1.00  0.00    -0.351 N 
ATOM      4  C   UNL A   1      35.221  21.827  26.026  1.00  0.00     0.281 C 
ATOM      5  O   UNL A   1      34.553  21.735  27.059  1.00  0.00    -0.268 OA
ATOM      6  H   UNL A   1      35.858  19.969  26.315  1.00  0.00     0.163 HD
BRANCH   4   7
ATOM      7  C   UNL A   1      35.205  23.114  25.118  1.00  0.00     0.177 C 
ATOM      8  C   UNL A   1      34.458  22.764  23.807  1.00  0.00     0.079 C 
ATOM      9  C   UNL A   1      34.361  24.167  25.879  1.00  0.00     0.106 C 
ATOM     10  C   UNL A   1      34.050  23.965  22.956  1.00  0.00     0.009 C 
ATOM     11  C   UNL A   1      34.085  25.431  25.056  1.00  0.00     0.114 C 
ATOM     12  C   UNL A   1      33.344  25.051  23.760  1.00  0.00     0.028 C 
BRANCH   7  13
ATOM     13  N   UNL A   1      36.584  23.674  25.051  1.00  0.00    -0.334 N 
ATOM     14  H   UNL A   1      37.167  22.971  24.595  1.00  0.00     0.347 HD
ATOM     15  H   UNL A   1      36.460  24.560  24.562  1.00  0.00     0.347 HD
BRANCH  13  16
ATOM     16  C   UNL A   1      37.265  24.055  26.281  1.00  0.00     0.257 C 
ATOM     17  C   UNL A   1      38.676  23.477  26.321  1.00  0.00     0.071 C 
ENDBRANCH  13  16
ENDBRANCH   7  13
BRANCH  11  18
ATOM     18  N   UNL A   1      33.364  26.421  25.863  1.00  0.00    -0.269 N 
ATOM     19  C   UNL A   1      32.050  26.355  26.250  1.00  0.00     0.109 A 
ATOM     20  N   UNL A   1      33.985  27.524  26.332  1.00  0.00    -0.181 NA
ATOM     21  C   UNL A   1      31.798  27.502  26.963  1.00  0.00     0.042 A 
ATOM     22  C   UNL A   1      33.026  28.179  26.990  1.00  0.00     0.135 A 
ENDBRANCH  11  18
ENDBRANCH   4   7
ENDBRANCH   2   3
ENDBRANCH   1   2
BRANCH   1  23
ATOM     23  C   UNL A   1      39.090  20.107  25.742  1.00  0.00     0.118 C 
BRANCH  23  24
ATOM     24  N   UNL A   1      40.164  19.142  25.960  1.00  0.00    -0.352 N 
ATOM     25  C   UNL A   1      41.517  19.335  26.079  1.00  0.00     0.251 C 
ATOM     26  H   UNL A   1      39.871  18.205  26.034  1.00  0.00     0.163 HD
ATOM     27  O   UNL A   1      42.283  18.389  25.930  1.00  0.00    -0.269 OA
BRANCH  25  28
ATOM     28  C   UNL A   1      42.049  20.678  26.388  1.00  0.00     0.039 A 
ATOM     29  C   UNL A   1      42.314  21.569  25.345  1.00  0.00     0.014 A 
ATOM     30  C   UNL A   1      42.329  21.040  27.706  1.00  0.00     0.014 A 
ATOM     31  C   UNL A   1      42.807  22.843  25.635  1.00  0.00     0.010 A 
ATOM     32  C   UNL A   1      42.706  22.341  28.001  1.00  0.00     0.010 A 
ATOM     33  C   UNL A   1      42.976  23.248  26.968  1.00  0.00    -0.014 A 
BRANCH  33  34
ATOM     34  C   UNL A   1      43.475  24.600  27.320  1.00  0.00     0.031 A 
ATOM     35  C   UNL A   1      42.527  25.611  27.907  1.00  0.00     0.074 A 
ATOM     36  C   UNL A   1      44.745  24.939  27.030  1.00  0.00     0.049 A 
ATOM     37  N   UNL A   1      42.719  26.882  28.158  1.00  0.00    -0.248 NA
ATOM     38  C   UNL A   1      41.163  25.144  28.210  1.00  0.00     0.031 C 
ATOM     39  C   UNL A   1      45.737  24.062  26.405  1.00  0.00     0.029 A 
ATOM     40  N   UNL A   1      45.415  26.123  27.207  1.00  0.00    -0.354 N 
ATOM     41  C   UNL A   1      41.497  27.364  28.610  1.00  0.00     0.074 A 
ATOM     42  C   UNL A   1      40.554  26.271  28.542  1.00  0.00     0.031 C 
ATOM     43  C   UNL A   1      46.896  24.726  26.279  1.00  0.00     0.029 A 
ATOM     44  C   UNL A   1      46.717  26.088  26.770  1.00  0.00     0.049 A 
ATOM     45  H   UNL A   1      45.002  26.922  27.609  1.00  0.00     0.167 HD
ATOM     46  C   UNL A   1      41.197  28.603  29.068  1.00  0.00     0.037 A 
ATOM     47  C   UNL A   1      47.657  27.053  26.765  1.00  0.00     0.037 A 
ATOM     48  C   UNL A   1      42.157  29.666  29.187  1.00  0.00     0.049 A 
ATOM     49  C   UNL A   1      47.305  28.410  27.312  1.00  0.00     0.074 A 
ATOM     50  C   UNL A   1      41.984  30.932  29.713  1.00  0.00     0.029 A 
ATOM     51  N   UNL A   1      43.482  29.577  28.780  1.00  0.00    -0.354 N 
ATOM     52  N   UNL A   1      46.166  28.837  27.800  1.00  0.00    -0.248 NA
ATOM     53  C   UNL A   1      48.373  29.419  27.313  1.00  0.00     0.031 C 
ATOM     54  C   UNL A   1      43.192  31.624  29.590  1.00  0.00     0.029 A 
ATOM     55  C   UNL A   1      44.132  30.773  29.030  1.00  0.00     0.049 A 
ATOM     56  H   UNL A   1      43.897  28.782  28.374  1.00  0.00     0.167 HD
ATOM     57  C   UNL A   1      46.386  30.148  28.196  1.00  0.00     0.074 A 
ATOM     58  C   UNL A   1      47.774  30.444  27.904  1.00  0.00     0.031 C 
ATOM     59  C   UNL A   1      45.519  31.033  28.747  1.00  0.00     0.037 A 
BRANCH  46  60
ATOM     60  C   UNL A   1      39.780  28.868  29.491  1.00  0.00     0.064 A 
ATOM     61  C   UNL A   1      38.823  29.363  28.593  1.00  0.00     0.173 A 
ATOM     62  C   UNL A   1      39.365  28.589  30.801  1.00  0.00     0.173 A 
ATOM     63  F   UNL A   1      39.171  29.661  27.331  1.00  0.00    -0.203 F 
ATOM     64  C   UNL A   1      37.511  29.595  28.996  1.00  0.00     0.198 A 
ATOM     65  C   UNL A   1      38.044  28.791  31.194  1.00  0.00     0.198 A 
ATOM     66  F   UNL A   1      40.238  28.111  31.702  1.00  0.00    -0.203 F 
ATOM     67  F   UNL A   1      36.628  30.117  28.134  1.00  0.00    -0.200 F 
ATOM     68  C   UNL A   1      37.121  29.301  30.294  1.00  0.00     0.200 A 
ATOM     69  F   UNL A   1      37.665  28.495  32.445  1.00  0.00    -0.200 F 
ATOM     70  F   UNL A   1      35.855  29.516  30.680  1.00  0.00    -0.200 F 
ENDBRANCH  46  60
BRANCH  47  71
ATOM     71  C   UNL A   1      49.023  26.764  26.257  1.00  0.00     0.064 A 
ATOM     72  C   UNL A   1      49.360  27.024  24.921  1.00  0.00     0.173 A 
ATOM     73  C   UNL A   1      50.014  26.218  27.084  1.00  0.00     0.173 A 
ATOM     74  F   UNL A   1      48.441  27.532  24.086  1.00  0.00    -0.203 F 
ATOM     75  C   UNL A   1      50.626  26.722  24.425  1.00  0.00     0.198 A 
ATOM     76  C   UNL A   1      51.290  25.943  26.595  1.00  0.00     0.198 A 
ATOM     77  F   UNL A   1      49.748  25.960  28.373  1.00  0.00    -0.203 F 
ATOM     78  F   UNL A   1      50.905  26.933  23.131  1.00  0.00    -0.200 F 
ATOM     79  C   UNL A   1      51.592  26.186  25.263  1.00  0.00     0.200 A 
ATOM     80  F   UNL A   1      52.226  25.441  27.412  1.00  0.00    -0.200 F 
ATOM     81  F   UNL A   1      52.810  25.896  24.786  1.00  0.00    -0.200 F 
ENDBRANCH  47  71
BRANCH  59  82
ATOM     82  C   UNL A   1      46.058  32.385  29.111  1.00  0.00     0.064 A 
ATOM     83  C   UNL A   1      46.006  33.463  28.216  1.00  0.00     0.173 A 
ATOM     84  C   UNL A   1      46.593  32.612  30.388  1.00  0.00     0.173 A 
ATOM     85  F   UNL A   1      45.517  33.289  26.978  1.00  0.00    -0.203 F 
ATOM     86  C   UNL A   1      46.493  34.715  28.579  1.00  0.00     0.198 A 
ATOM     87  C   UNL A   1      47.050  33.873  30.758  1.00  0.00     0.198 A 
ATOM     88  F   UNL A   1      46.657  31.614  31.282  1.00  0.00    -0.203 F 
ATOM     89  F   UNL A   1      46.476  35.719  27.691  1.00  0.00    -0.200 F 
ATOM     90  C   UNL A   1      47.007  34.921  29.850  1.00  0.00     0.200 A 
ATOM     91  F   UNL A   1      47.532  34.074  31.991  1.00  0.00    -0.200 F 
ATOM     92  F   UNL A   1      47.466  36.131  30.199  1.00  0.00    -0.200 F 
ENDBRANCH  59  82
ENDBRANCH  33  34
ENDBRANCH  25  28
ENDBRANCH  23  24
ENDBRANCH   1  23
TORSDOF 13
ENDMDL
MODEL 2
REMARK VINA RESULT:     -11.3      5.587     11.097
REMARK SMILES CC[NH2+][C@]1(C(=O)NCCCNC(=O)c2ccc(-c3c4nc(c(-c5c(F)c(F)c(F)c(F)c5F)c5ccc([nH]5)c(-c5c(F)c(F)c(F)c(F)c5F)c5nc(c(-c6c(F)c(F)c(F)c(F)c6F)c6ccc3[nH]6)C=C5)C=C4)cc2)CCC[C@@H](n2cccn2)C1
REMARK SMILES IDX 9 1 8 2 7 3 5 4 6 5 4 7 77 8 86 9 78 10 80 11 79 12 3 13
REMARK SMILES IDX 2 16 1 17 81 18 82 19 85 20 83 21 84 22 10 23 11 24 12 25
REMARK SMILES IDX 13 27 14 28 15 29 76 30 16 31 75 32 17 33 18 34 19 35 69 36
REMARK SMILES IDX 20 37 74 38 68 39 70 40 21 41 73 42 67 43 66 44 22 46 54 47
REMARK SMILES IDX 34 48 53 49 35 50 38 51 52 52 71 53 36 54 37 55 51 57 72 58
REMARK SMILES IDX 39 59 23 60 24 61 32 62 25 63 26 64 30 65 33 66 27 67 28 68
REMARK SMILES IDX 31 69 29 70 55 71 56 72 64 73 57 74 58 75 62 76 65 77 59 78
REMARK SMILES IDX 60 79 63 80 61 81 40 82 41 83 49 84 42 85 43 86 47 87 50 88
REMARK SMILES IDX 44 89 45 90 48 91 46 92
REMARK H PARENT 7 6 3 14 3 15 11 26 70 45 38 56
REMARK Flexibility Score: inf
ROOT
ATOM      1  C   UNL A   1      31.325  32.289  26.518  1.00  0.00     0.042 C 
ENDROOT
BRANCH   1   2
ATOM      2  C   UNL A   1      31.325  30.783  26.298  1.00  0.00     0.118 C 
BRANCH   2   3
ATOM      3  N   UNL A   1      32.043  30.436  25.095  1.00  0.00    -0.351 N 
ATOM      4  C   UNL A   1      32.700  29.293  24.751  1.00  0.00     0.281 C 
ATOM      5  O   UNL A   1      33.263  29.309  23.653  1.00  0.00    -0.268 OA
ATOM      6  H   UNL A   1      32.060  31.141  24.408  1.00  0.00     0.163 HD
BRANCH   4   7
ATOM      7  C   UNL A   1      32.713  28.030  25.692  1.00  0.00     0.177 C 
ATOM      8  C   UNL A   1      31.284  27.435  25.712  1.00  0.00     0.079 C 
ATOM      9  C   UNL A   1      33.649  26.999  25.015  1.00  0.00     0.106 C 
ATOM     10  C   UNL A   1      31.179  26.027  26.294  1.00  0.00     0.009 C 
ATOM     11  C   UNL A   1      33.639  25.628  25.705  1.00  0.00     0.114 C 
ATOM     12  C   UNL A   1      32.206  25.064  25.710  1.00  0.00     0.028 C 
BRANCH   7  13
ATOM     13  N   UNL A   1      33.376  28.394  26.977  1.00  0.00    -0.334 N 
ATOM     14  H   UNL A   1      32.830  29.153  27.387  1.00  0.00     0.347 HD
ATOM     15  H   UNL A   1      33.403  27.513  27.490  1.00  0.00     0.347 HD
BRANCH  13  16
ATOM     16  C   UNL A   1      34.766  28.828  26.970  1.00  0.00     0.257 C 
ATOM     17  C   UNL A   1      34.900  30.227  27.564  1.00  0.00     0.071 C 
ENDBRANCH  13  16
ENDBRANCH   7  13
BRANCH  11  18
ATOM     18  N   UNL A   1      34.611  24.729  25.073  1.00  0.00    -0.269 N 
ATOM     19  C   UNL A   1      34.508  24.166  23.827  1.00  0.00     0.109 A 
ATOM     20  N   UNL A   1      35.757  24.390  25.700  1.00  0.00    -0.181 NA
ATOM     21  C   UNL A   1      35.623  23.381  23.664  1.00  0.00     0.042 A 
ATOM     22  C   UNL A   1      36.361  23.564  24.843  1.00  0.00     0.135 A 
ENDBRANCH  11  18
ENDBRANCH   4   7
ENDBRANCH   2   3
ENDBRANCH   1   2
BRANCH   1  23
ATOM     23  C   UNL A   1      32.626  32.758  27.149  1.00  0.00     0.118 C 
BRANCH  23  24
ATOM     24  N   UNL A   1      32.518  34.142  27.602  1.00  0.00    -0.352 N 
ATOM     25  C   UNL A   1      33.101  34.772  28.673  1.00  0.00     0.251 C 
ATOM     26  H   UNL A   1      31.936  34.715  27.052  1.00  0.00     0.163 HD
ATOM     27  O   UNL A   1      32.641  35.833  29.080  1.00  0.00    -0.269 OA
BRANCH  25  28
ATOM     28  C   UNL A   1      34.279  34.173  29.333  1.00  0.00     0.039 A 
ATOM     29  C   UNL A   1      35.555  34.417  28.816  1.00  0.00     0.014 A 
ATOM     30  C   UNL A   1      34.120  33.334  30.436  1.00  0.00     0.014 A 
ATOM     31  C   UNL A   1      36.671  33.861  29.444  1.00  0.00     0.010 A 
ATOM     32  C   UNL A   1      35.233  32.879  31.126  1.00  0.00     0.010 A 
ATOM     33  C   UNL A   1      36.519  33.115  30.623  1.00  0.00    -0.014 A 
BRANCH  33  34
ATOM     34  C   UNL A   1      37.680  32.526  31.334  1.00  0.00     0.031 A 
ATOM     35  C   UNL A   1      38.439  31.390  30.701  1.00  0.00     0.074 A 
ATOM     36  C   UNL A   1      37.988  32.948  32.574  1.00  0.00     0.049 A 
ATOM     37  N   UNL A   1      39.391  30.645  31.203  1.00  0.00    -0.248 NA
ATOM     38  C   UNL A   1      38.045  31.009  29.334  1.00  0.00     0.031 C 
ATOM     39  C   UNL A   1      37.286  34.000  33.313  1.00  0.00     0.029 A 
ATOM     40  N   UNL A   1      38.965  32.532  33.442  1.00  0.00    -0.354 N 
ATOM     41  C   UNL A   1      39.677  29.694  30.232  1.00  0.00     0.074 A 
ATOM     42  C   UNL A   1      38.761  29.914  29.136  1.00  0.00     0.031 C 
ATOM     43  C   UNL A   1      37.871  34.166  34.508  1.00  0.00     0.029 A 
ATOM     44  C   UNL A   1      38.961  33.205  34.640  1.00  0.00     0.049 A 
ATOM     45  H   UNL A   1      39.609  31.818  33.227  1.00  0.00     0.167 HD
ATOM     46  C   UNL A   1      40.639  28.741  30.242  1.00  0.00     0.037 A 
ATOM     47  C   UNL A   1      39.748  33.056  35.722  1.00  0.00     0.037 A 
ATOM     48  C   UNL A   1      41.584  28.570  31.312  1.00  0.00     0.049 A 
ATOM     49  C   UNL A   1      40.831  32.011  35.692  1.00  0.00     0.074 A 
ATOM     50  C   UNL A   1      42.649  27.693  31.392  1.00  0.00     0.029 A 
ATOM     51  N   UNL A   1      41.579  29.306  32.490  1.00  0.00    -0.354 N 
ATOM     52  N   UNL A   1      41.137  31.162  34.741  1.00  0.00    -0.248 NA
ATOM     53  C   UNL A   1      41.683  31.908  36.885  1.00  0.00     0.031 C 
ATOM     54  C   UNL A   1      43.266  27.869  32.634  1.00  0.00     0.029 A 
ATOM     55  C   UNL A   1      42.615  28.891  33.308  1.00  0.00     0.049 A 
ATOM     56  H   UNL A   1      40.934  30.017  32.710  1.00  0.00     0.167 HD
ATOM     57  C   UNL A   1      42.233  30.449  35.205  1.00  0.00     0.074 A 
ATOM     58  C   UNL A   1      42.549  30.974  36.516  1.00  0.00     0.031 C 
ATOM     59  C   UNL A   1      42.917  29.444  34.602  1.00  0.00     0.037 A 
BRANCH  46  60
ATOM     60  C   UNL A   1      40.729  27.825  29.056  1.00  0.00     0.064 A 
ATOM     61  C   UNL A   1      41.652  28.044  28.023  1.00  0.00     0.173 A 
ATOM     62  C   UNL A   1      39.907  26.691  28.969  1.00  0.00     0.173 A 
ATOM     63  F   UNL A   1      42.452  29.122  28.049  1.00  0.00    -0.203 F 
ATOM     64  C   UNL A   1      41.731  27.180  26.934  1.00  0.00     0.198 A 
ATOM     65  C   UNL A   1      40.010  25.810  27.895  1.00  0.00     0.198 A 
ATOM     66  F   UNL A   1      39.008  26.431  29.931  1.00  0.00    -0.203 F 
ATOM     67  F   UNL A   1      42.585  27.439  25.935  1.00  0.00    -0.200 F 
ATOM     68  C   UNL A   1      40.916  26.060  26.875  1.00  0.00     0.200 A 
ATOM     69  F   UNL A   1      39.230  24.722  27.845  1.00  0.00    -0.200 F 
ATOM     70  F   UNL A   1      40.999  25.223  25.831  1.00  0.00    -0.200 F 
ENDBRANCH  46  60
BRANCH  47  71
ATOM     71  C   UNL A   1      39.565  33.933  36.907  1.00  0.00     0.064 A 
ATOM     72  C   UNL A   1      40.152  35.206  36.954  1.00  0.00     0.173 A 
ATOM     73  C   UNL A   1      38.813  33.522  38.016  1.00  0.00     0.173 A 
ATOM     74  F   UNL A   1      40.894  35.638  35.924  1.00  0.00    -0.203 F 
ATOM     75  C   UNL A   1      40.018  36.021  38.075  1.00  0.00     0.198 A 
ATOM     76  C   UNL A   1      38.654  34.350  39.126  1.00  0.00     0.198 A 
ATOM     77  F   UNL A   1      38.222  32.318  38.019  1.00  0.00    -0.203 F 
ATOM     78  F   UNL A   1      40.633  37.211  38.114  1.00  0.00    -0.200 F 
ATOM     79  C   UNL A   1      39.265  35.595  39.160  1.00  0.00     0.200 A 
ATOM     80  F   UNL A   1      37.912  33.942  40.165  1.00  0.00    -0.200 F 
ATOM     81  F   UNL A   1      39.136  36.379  40.238  1.00  0.00    -0.200 F 
ENDBRANCH  47  71
BRANCH  59  82
ATOM     82  C   UNL A   1      44.098  28.882  35.337  1.00  0.00     0.064 A 
ATOM     83  C   UNL A   1      43.964  27.816  36.238  1.00  0.00     0.173 A 
ATOM     84  C   UNL A   1      45.384  29.390  35.100  1.00  0.00     0.173 A 
ATOM     85  F   UNL A   1      42.752  27.309  36.507  1.00  0.00    -0.203 F 
ATOM     86  C   UNL A   1      45.075  27.295  36.895  1.00  0.00     0.198 A 
ATOM     87  C   UNL A   1      46.496  28.845  35.735  1.00  0.00     0.198 A 
ATOM     88  F   UNL A   1      45.565  30.404  34.241  1.00  0.00    -0.203 F 
ATOM     89  F   UNL A   1      44.918  26.308  37.788  1.00  0.00    -0.200 F 
ATOM     90  C   UNL A   1      46.339  27.804  36.639  1.00  0.00     0.200 A 
ATOM     91  F   UNL A   1      47.718  29.328  35.475  1.00  0.00    -0.200 F 
ATOM     92  F   UNL A   1      47.407  27.293  37.266  1.00  0.00    -0.200 F 
ENDBRANCH  59  82
ENDBRANCH  33  34
ENDBRANCH  25  28
ENDBRANCH  23  24
ENDBRANCH   1  23
TORSDOF 13
ENDMDL
MODEL 3
REMARK VINA RESULT:     -11.2      5.589     11.166
REMARK SMILES CC[NH2+][C@]1(C(=O)NCCCNC(=O)c2ccc(-c3c4nc(c(-c5c(F)c(F)c(F)c(F)c5F)c5ccc([nH]5)c(-c5c(F)c(F)c(F)c(F)c5F)c5nc(c(-c6c(F)c(F)c(F)c(F)c6F)c6ccc3[nH]6)C=C5)C=C4)cc2)CCC[C@@H](n2cccn2)C1
REMARK SMILES IDX 9 1 8 2 7 3 5 4 6 5 4 7 77 8 86 9 78 10 80 11 79 12 3 13
REMARK SMILES IDX 2 16 1 17 81 18 82 19 85 20 83 21 84 22 10 23 11 24 12 25
REMARK SMILES IDX 13 27 14 28 15 29 76 30 16 31 75 32 17 33 18 34 19 35 69 36
REMARK SMILES IDX 20 37 74 38 68 39 70 40 21 41 73 42 67 43 66 44 22 46 54 47
REMARK SMILES IDX 34 48 53 49 35 50 38 51 52 52 71 53 36 54 37 55 51 57 72 58
REMARK SMILES IDX 39 59 23 60 24 61 32 62 25 63 26 64 30 65 33 66 27 67 28 68
REMARK SMILES IDX 31 69 29 70 55 71 56 72 64 73 57 74 58 75 62 76 65 77 59 78
REMARK SMILES IDX 60 79 63 80 61 81 40 82 41 83 49 84 42 85 43 86 47 87 50 88
REMARK SMILES IDX 44 89 45 90 48 91 46 92
REMARK H PARENT 7 6 3 14 3 15 11 26 70 45 38 56
REMARK Flexibility Score: inf
ROOT
ATOM      1  C   UNL A   1      31.319  32.387  26.538  1.00  0.00     0.042 C 
ENDROOT
BRANCH   1   2
ATOM      2  C   UNL A   1      31.425  30.933  26.103  1.00  0.00     0.118 C 
BRANCH   2   3
ATOM      3  N   UNL A   1      32.622  30.321  26.627  1.00  0.00    -0.351 N 
ATOM      4  C   UNL A   1      33.268  29.177  26.265  1.00  0.00     0.281 C 
ATOM      5  O   UNL A   1      34.260  28.886  26.938  1.00  0.00    -0.268 OA
ATOM      6  H   UNL A   1      33.043  30.811  27.370  1.00  0.00     0.163 HD
BRANCH   4   7
ATOM      7  C   UNL A   1      32.783  28.304  25.047  1.00  0.00     0.177 C 
ATOM      8  C   UNL A   1      33.100  29.081  23.746  1.00  0.00     0.079 C 
ATOM      9  C   UNL A   1      33.656  27.025  25.060  1.00  0.00     0.106 C 
ATOM     10  C   UNL A   1      33.012  28.257  22.463  1.00  0.00     0.009 C 
ATOM     11  C   UNL A   1      33.445  26.134  23.829  1.00  0.00     0.114 C 
ATOM     12  C   UNL A   1      33.766  26.935  22.553  1.00  0.00     0.028 C 
BRANCH   7  13
ATOM     13  N   UNL A   1      31.389  27.845  25.308  1.00  0.00    -0.334 N 
ATOM     14  H   UNL A   1      30.831  28.680  25.487  1.00  0.00     0.347 HD
ATOM     15  H   UNL A   1      31.157  27.301  24.477  1.00  0.00     0.347 HD
BRANCH  13  16
ATOM     16  C   UNL A   1      31.131  26.920  26.403  1.00  0.00     0.257 C 
ATOM     17  C   UNL A   1      30.244  25.768  25.943  1.00  0.00     0.071 C 
ENDBRANCH  13  16
ENDBRANCH   7  13
BRANCH  11  18
ATOM     18  N   UNL A   1      34.229  24.900  23.947  1.00  0.00    -0.269 N 
ATOM     19  C   UNL A   1      34.711  24.350  25.107  1.00  0.00     0.109 A 
ATOM     20  N   UNL A   1      34.529  24.158  22.861  1.00  0.00    -0.181 NA
ATOM     21  C   UNL A   1      35.403  23.221  24.742  1.00  0.00     0.042 A 
ATOM     22  C   UNL A   1      35.250  23.147  23.349  1.00  0.00     0.135 A 
ENDBRANCH  11  18
ENDBRANCH   4   7
ENDBRANCH   2   3
ENDBRANCH   1   2
BRANCH   1  23
ATOM     23  C   UNL A   1      32.571  32.839  27.272  1.00  0.00     0.118 C 
BRANCH  23  24
ATOM     24  N   UNL A   1      32.484  34.251  27.636  1.00  0.00    -0.352 N 
ATOM     25  C   UNL A   1      33.058  34.934  28.677  1.00  0.00     0.251 C 
ATOM     26  H   UNL A   1      31.926  34.799  27.038  1.00  0.00     0.163 HD
ATOM     27  O   UNL A   1      32.613  36.028  29.008  1.00  0.00    -0.269 OA
BRANCH  25  28
ATOM     28  C   UNL A   1      34.211  34.355  29.398  1.00  0.00     0.039 A 
ATOM     29  C   UNL A   1      33.991  33.600  30.553  1.00  0.00     0.014 A 
ATOM     30  C   UNL A   1      35.512  34.594  28.955  1.00  0.00     0.014 A 
ATOM     31  C   UNL A   1      35.078  33.043  31.230  1.00  0.00     0.010 A 
ATOM     32  C   UNL A   1      36.579  33.946  29.559  1.00  0.00     0.010 A 
ATOM     33  C   UNL A   1      36.377  33.185  30.718  1.00  0.00    -0.014 A 
BRANCH  33  34
ATOM     34  C   UNL A   1      37.556  32.590  31.393  1.00  0.00     0.031 A 
ATOM     35  C   UNL A   1      38.302  31.465  30.726  1.00  0.00     0.074 A 
ATOM     36  C   UNL A   1      37.893  32.997  32.631  1.00  0.00     0.049 A 
ATOM     37  N   UNL A   1      39.268  30.716  31.196  1.00  0.00    -0.248 NA
ATOM     38  C   UNL A   1      37.875  31.101  29.364  1.00  0.00     0.031 C 
ATOM     39  C   UNL A   1      37.206  34.036  33.400  1.00  0.00     0.029 A 
ATOM     40  N   UNL A   1      38.892  32.571  33.469  1.00  0.00    -0.354 N 
ATOM     41  C   UNL A   1      39.532  29.779  30.205  1.00  0.00     0.074 A 
ATOM     42  C   UNL A   1      38.590  30.011  29.135  1.00  0.00     0.031 C 
ATOM     43  C   UNL A   1      37.820  34.188  34.583  1.00  0.00     0.029 A 
ATOM     44  C   UNL A   1      38.915  33.229  34.675  1.00  0.00     0.049 A 
ATOM     45  H   UNL A   1      39.532  31.862  33.229  1.00  0.00     0.167 HD
ATOM     46  C   UNL A   1      40.497  28.829  30.179  1.00  0.00     0.037 A 
ATOM     47  C   UNL A   1      39.729  33.067  35.736  1.00  0.00     0.037 A 
ATOM     48  C   UNL A   1      41.468  28.646  31.223  1.00  0.00     0.049 A 
ATOM     49  C   UNL A   1      40.813  32.026  35.666  1.00  0.00     0.074 A 
ATOM     50  C   UNL A   1      42.536  27.771  31.266  1.00  0.00     0.029 A 
ATOM     51  N   UNL A   1      41.490  29.366  32.411  1.00  0.00    -0.354 N 
ATOM     52  N   UNL A   1      41.098  31.191  34.697  1.00  0.00    -0.248 NA
ATOM     53  C   UNL A   1      41.694  31.910  36.836  1.00  0.00     0.031 C 
ATOM     54  C   UNL A   1      43.184  27.932  32.494  1.00  0.00     0.029 A 
ATOM     55  C   UNL A   1      42.546  28.943  33.198  1.00  0.00     0.049 A 
ATOM     56  H   UNL A   1      40.849  30.072  32.655  1.00  0.00     0.167 HD
ATOM     57  C   UNL A   1      42.207  30.474  35.124  1.00  0.00     0.074 A 
ATOM     58  C   UNL A   1      42.553  30.983  36.434  1.00  0.00     0.031 C 
ATOM     59  C   UNL A   1      42.878  29.480  34.492  1.00  0.00     0.037 A 
BRANCH  46  60
ATOM     60  C   UNL A   1      40.560  27.928  28.979  1.00  0.00     0.064 A 
ATOM     61  C   UNL A   1      39.792  26.757  28.894  1.00  0.00     0.173 A 
ATOM     62  C   UNL A   1      41.370  28.259  27.882  1.00  0.00     0.173 A 
ATOM     63  F   UNL A   1      39.011  26.386  29.921  1.00  0.00    -0.203 F 
ATOM     64  C   UNL A   1      39.853  25.937  27.771  1.00  0.00     0.198 A 
ATOM     65  C   UNL A   1      41.405  27.455  26.746  1.00  0.00     0.198 A 
ATOM     66  F   UNL A   1      42.124  29.370  27.908  1.00  0.00    -0.203 F 
ATOM     67  F   UNL A   1      39.150  24.797  27.735  1.00  0.00    -0.200 F 
ATOM     68  C   UNL A   1      40.654  26.291  26.694  1.00  0.00     0.200 A 
ATOM     69  F   UNL A   1      42.169  27.804  25.702  1.00  0.00    -0.200 F 
ATOM     70  F   UNL A   1      40.705  25.506  25.609  1.00  0.00    -0.200 F 
ENDBRANCH  46  60
BRANCH  47  71
ATOM     71  C   UNL A   1      39.572  33.928  36.937  1.00  0.00     0.064 A 
ATOM     72  C   UNL A   1      38.804  33.500  38.030  1.00  0.00     0.173 A 
ATOM     73  C   UNL A   1      40.173  35.192  37.019  1.00  0.00     0.173 A 
ATOM     74  F   UNL A   1      38.195  32.306  37.992  1.00  0.00    -0.203 F 
ATOM     75  C   UNL A   1      38.619  34.315  39.144  1.00  0.00     0.198 A 
ATOM     76  C   UNL A   1      40.012  35.994  38.147  1.00  0.00     0.198 A 
ATOM     77  F   UNL A   1      40.927  35.644  36.006  1.00  0.00    -0.203 F 
ATOM     78  F   UNL A   1      37.837  33.902  40.151  1.00  0.00    -0.200 F 
ATOM     79  C   UNL A   1      39.228  35.560  39.204  1.00  0.00     0.200 A 
ATOM     80  F   UNL A   1      40.616  37.189  38.209  1.00  0.00    -0.200 F 
ATOM     81  F   UNL A   1      39.050  36.343  40.277  1.00  0.00    -0.200 F 
ENDBRANCH  47  71
BRANCH  59  82
ATOM     82  C   UNL A   1      44.078  28.912  35.190  1.00  0.00     0.064 A 
ATOM     83  C   UNL A   1      45.361  29.444  34.998  1.00  0.00     0.173 A 
ATOM     84  C   UNL A   1      43.932  27.850  36.095  1.00  0.00     0.173 A 
ATOM     85  F   UNL A   1      45.552  30.449  34.131  1.00  0.00    -0.203 F 
ATOM     86  C   UNL A   1      46.460  28.915  35.670  1.00  0.00     0.198 A 
ATOM     87  C   UNL A   1      45.028  27.346  36.789  1.00  0.00     0.198 A 
ATOM     88  F   UNL A   1      42.723  27.312  36.318  1.00  0.00    -0.203 F 
ATOM     89  F   UNL A   1      47.684  29.408  35.436  1.00  0.00    -0.200 F 
ATOM     90  C   UNL A   1      46.292  27.873  36.569  1.00  0.00     0.200 A 
ATOM     91  F   UNL A   1      44.861  26.349  37.668  1.00  0.00    -0.200 F 
ATOM     92  F   UNL A   1      47.350  27.373  37.222  1.00  0.00    -0.200 F 
ENDBRANCH  59  82
ENDBRANCH  33  34
ENDBRANCH  25  28
ENDBRANCH  23  24
ENDBRANCH   1  23
TORSDOF 13
ENDMDL
