MODEL 1
REMARK VINA RESULT:     -12.1      0.000      0.000
REMARK SMILES Cn1c(C[N@@H+]2CCOC[C@H]2CC(=O)NCCCNC(=O)c2ccc(-c3c4nc(c(-c5c(F)c(F)c(F)c(F)c5F)c5ccc([nH]5)c(-c5c(F)c(F)c(F)c(F)c5F)c5nc(c(-c6c(F)c(F)c(F)c(F)c6F)c6ccc3[nH]6)C=C5)C=C4)cc2)nc2ccccc21
REMARK SMILES IDX 15 1 14 2 12 3 13 4 11 6 10 7 5 8 6 9 7 11 9 12 8 13 4 14
REMARK SMILES IDX 3 15 1 16 2 17 90 18 84 19 85 20 89 21 86 22 88 23 87 24
REMARK SMILES IDX 16 25 17 26 18 27 19 28 20 30 21 31 22 32 83 33 23 34 82 35
REMARK SMILES IDX 24 36 25 37 26 38 76 39 27 40 81 41 75 42 77 43 28 44 80 45
REMARK SMILES IDX 74 46 73 47 29 49 61 50 41 51 60 52 42 53 45 54 59 55 78 56
REMARK SMILES IDX 43 57 44 58 58 60 79 61 46 62 30 63 31 64 39 65 32 66 33 67
REMARK SMILES IDX 37 68 40 69 34 70 35 71 38 72 36 73 62 74 63 75 71 76 64 77
REMARK SMILES IDX 65 78 69 79 72 80 66 81 67 82 70 83 68 84 47 85 48 86 56 87
REMARK SMILES IDX 49 88 50 89 54 90 57 91 51 92 52 93 55 94 53 95
REMARK H PARENT 14 5 5 10 18 29 77 48 45 59
REMARK Flexibility Score: inf
ROOT
ATOM      1  C   UNL A   1      31.312  30.751  25.627  1.00  0.00     0.117 C 
ENDROOT
BRANCH   1   2
ATOM      2  N   UNL A   1      32.551  30.040  25.885  1.00  0.00    -0.356 N 
ATOM      3  C   UNL A   1      33.142  29.067  25.135  1.00  0.00     0.226 C 
ATOM      4  O   UNL A   1      34.081  28.437  25.626  1.00  0.00    -0.275 OA
ATOM      5  H   UNL A   1      33.025  30.293  26.710  1.00  0.00     0.163 HD
BRANCH   3   6
ATOM      6  C   UNL A   1      32.677  28.792  23.723  1.00  0.00     0.167 C 
BRANCH   6   7
ATOM      7  C   UNL A   1      32.366  27.300  23.457  1.00  0.00     0.220 C 
ATOM      8  N   UNL A   1      31.696  26.689  24.625  1.00  0.00    -0.322 N 
ATOM      9  C   UNL A   1      30.271  27.071  24.727  1.00  0.00     0.291 C 
ATOM     10  H   UNL A   1      32.161  27.111  25.429  1.00  0.00     0.348 HD
ATOM     11  C   UNL A   1      29.493  27.194  23.401  1.00  0.00     0.221 C 
ATOM     12  C   UNL A   1      31.496  27.213  22.183  1.00  0.00     0.225 C 
ATOM     13  O   UNL A   1      30.245  27.877  22.389  1.00  0.00    -0.369 OA
BRANCH   8  14
ATOM     14  C   UNL A   1      31.957  25.250  24.840  1.00  0.00     0.339 C 
BRANCH  14  15
ATOM     15  C   UNL A   1      33.377  24.812  24.664  1.00  0.00     0.165 A 
ATOM     16  C   UNL A   1      33.206  23.718  22.383  1.00  0.00     0.152 C 
ATOM     17  N   UNL A   1      33.866  24.054  23.622  1.00  0.00    -0.326 N 
ATOM     18  C   UNL A   1      35.099  23.569  24.002  1.00  0.00     0.068 A 
ATOM     19  N   UNL A   1      34.339  25.057  25.537  1.00  0.00    -0.227 NA
ATOM     20  C   UNL A   1      35.370  24.229  25.194  1.00  0.00     0.089 A 
ATOM     21  C   UNL A   1      35.969  22.621  23.454  1.00  0.00     0.028 A 
ATOM     22  C   UNL A   1      36.546  23.945  25.901  1.00  0.00     0.030 A 
ATOM     23  C   UNL A   1      37.123  22.322  24.189  1.00  0.00     0.002 A 
ATOM     24  C   UNL A   1      37.408  22.970  25.394  1.00  0.00     0.002 A 
ENDBRANCH  14  15
ENDBRANCH   8  14
ENDBRANCH   6   7
ENDBRANCH   3   6
ENDBRANCH   1   2
BRANCH   1  25
ATOM     25  C   UNL A   1      31.204  31.994  26.505  1.00  0.00     0.042 C 
BRANCH  25  26
ATOM     26  C   UNL A   1      32.548  32.549  26.947  1.00  0.00     0.118 C 
BRANCH  26  27
ATOM     27  N   UNL A   1      32.420  33.852  27.578  1.00  0.00    -0.352 N 
ATOM     28  C   UNL A   1      33.131  34.410  28.607  1.00  0.00     0.251 C 
ATOM     29  H   UNL A   1      31.710  34.423  27.207  1.00  0.00     0.163 HD
ATOM     30  O   UNL A   1      32.729  35.468  29.098  1.00  0.00    -0.269 OA
BRANCH  28  31
ATOM     31  C   UNL A   1      34.354  33.773  29.153  1.00  0.00     0.039 A 
ATOM     32  C   UNL A   1      34.198  32.683  30.018  1.00  0.00     0.014 A 
ATOM     33  C   UNL A   1      35.637  34.262  28.890  1.00  0.00     0.014 A 
ATOM     34  C   UNL A   1      35.316  32.078  30.594  1.00  0.00     0.010 A 
ATOM     35  C   UNL A   1      36.758  33.605  29.398  1.00  0.00     0.010 A 
ATOM     36  C   UNL A   1      36.609  32.523  30.276  1.00  0.00    -0.014 A 
BRANCH  36  37
ATOM     37  C   UNL A   1      37.800  31.883  30.892  1.00  0.00     0.031 A 
ATOM     38  C   UNL A   1      38.229  32.257  32.286  1.00  0.00     0.074 A 
ATOM     39  C   UNL A   1      38.506  30.977  30.190  1.00  0.00     0.049 A 
ATOM     40  N   UNL A   1      39.226  31.794  32.997  1.00  0.00    -0.248 NA
ATOM     41  C   UNL A   1      37.452  33.309  32.960  1.00  0.00     0.031 C 
ATOM     42  C   UNL A   1      38.227  30.574  28.811  1.00  0.00     0.029 A 
ATOM     43  N   UNL A   1      39.599  30.226  30.541  1.00  0.00    -0.354 N 
ATOM     44  C   UNL A   1      39.203  32.505  34.191  1.00  0.00     0.074 A 
ATOM     45  C   UNL A   1      38.130  33.469  34.087  1.00  0.00     0.031 C 
ATOM     46  C   UNL A   1      39.102  29.625  28.445  1.00  0.00     0.029 A 
ATOM     47  C   UNL A   1      40.015  29.368  29.554  1.00  0.00     0.049 A 
ATOM     48  H   UNL A   1      40.042  30.295  31.418  1.00  0.00     0.167 HD
ATOM     49  C   UNL A   1      39.988  32.350  35.284  1.00  0.00     0.037 A 
ATOM     50  C   UNL A   1      41.015  28.466  29.549  1.00  0.00     0.037 A 
ATOM     51  C   UNL A   1      41.032  31.366  35.398  1.00  0.00     0.049 A 
ATOM     52  C   UNL A   1      41.845  28.285  30.791  1.00  0.00     0.074 A 
ATOM     53  C   UNL A   1      41.843  31.087  36.484  1.00  0.00     0.029 A 
ATOM     54  N   UNL A   1      41.406  30.495  34.387  1.00  0.00    -0.354 N 
ATOM     55  N   UNL A   1      41.766  28.913  31.937  1.00  0.00    -0.248 NA
ATOM     56  C   UNL A   1      42.893  27.256  30.740  1.00  0.00     0.031 C 
ATOM     57  C   UNL A   1      42.732  30.071  36.118  1.00  0.00     0.029 A 
ATOM     58  C   UNL A   1      42.445  29.686  34.818  1.00  0.00     0.049 A 
ATOM     59  H   UNL A   1      40.994  30.456  33.494  1.00  0.00     0.167 HD
ATOM     60  C   UNL A   1      42.735  28.343  32.752  1.00  0.00     0.074 A 
ATOM     61  C   UNL A   1      43.375  27.304  31.973  1.00  0.00     0.031 C 
ATOM     62  C   UNL A   1      43.068  28.656  34.029  1.00  0.00     0.037 A 
BRANCH  49  63
ATOM     63  C   UNL A   1      39.739  33.262  36.451  1.00  0.00     0.064 A 
ATOM     64  C   UNL A   1      40.405  34.491  36.580  1.00  0.00     0.173 A 
ATOM     65  C   UNL A   1      38.802  32.918  37.437  1.00  0.00     0.173 A 
ATOM     66  F   UNL A   1      41.319  34.861  35.671  1.00  0.00    -0.203 F 
ATOM     67  C   UNL A   1      40.163  35.327  37.666  1.00  0.00     0.198 A 
ATOM     68  C   UNL A   1      38.542  33.772  38.508  1.00  0.00     0.198 A 
ATOM     69  F   UNL A   1      38.135  31.758  37.362  1.00  0.00    -0.203 F 
ATOM     70  F   UNL A   1      40.847  36.473  37.792  1.00  0.00    -0.200 F 
ATOM     71  C   UNL A   1      39.227  34.971  38.625  1.00  0.00     0.200 A 
ATOM     72  F   UNL A   1      37.629  33.430  39.428  1.00  0.00    -0.200 F 
ATOM     73  F   UNL A   1      38.993  35.781  39.668  1.00  0.00    -0.200 F 
ENDBRANCH  49  63
BRANCH  50  74
ATOM     74  C   UNL A   1      41.253  27.632  28.343  1.00  0.00     0.064 A 
ATOM     75  C   UNL A   1      40.541  26.440  28.143  1.00  0.00     0.173 A 
ATOM     76  C   UNL A   1      42.188  28.006  27.369  1.00  0.00     0.173 A 
ATOM     77  F   UNL A   1      39.650  26.031  29.058  1.00  0.00    -0.203 F 
ATOM     78  C   UNL A   1      40.770  25.645  27.022  1.00  0.00     0.198 A 
ATOM     79  C   UNL A   1      42.398  27.223  26.236  1.00  0.00     0.198 A 
ATOM     80  F   UNL A   1      42.890  29.140  27.513  1.00  0.00    -0.203 F 
ATOM     81  F   UNL A   1      40.108  24.490  26.877  1.00  0.00    -0.200 F 
ATOM     82  C   UNL A   1      41.695  26.040  26.066  1.00  0.00     0.200 A 
ATOM     83  F   UNL A   1      43.283  27.614  25.309  1.00  0.00    -0.200 F 
ATOM     84  F   UNL A   1      41.912  25.276  24.988  1.00  0.00    -0.200 F 
ENDBRANCH  50  74
BRANCH  62  85
ATOM     85  C   UNL A   1      44.158  27.844  34.666  1.00  0.00     0.064 A 
ATOM     86  C   UNL A   1      45.500  28.247  34.612  1.00  0.00     0.173 A 
ATOM     87  C   UNL A   1      43.853  26.662  35.356  1.00  0.00     0.173 A 
ATOM     88  F   UNL A   1      45.844  29.364  33.951  1.00  0.00    -0.203 F 
ATOM     89  C   UNL A   1      46.502  27.478  35.197  1.00  0.00     0.198 A 
ATOM     90  C   UNL A   1      44.853  25.910  35.964  1.00  0.00     0.198 A 
ATOM     91  F   UNL A   1      42.583  26.238  35.443  1.00  0.00    -0.203 F 
ATOM     92  F   UNL A   1      47.783  27.854  35.087  1.00  0.00    -0.200 F 
ATOM     93  C   UNL A   1      46.177  26.313  35.876  1.00  0.00     0.200 A 
ATOM     94  F   UNL A   1      44.537  24.790  36.631  1.00  0.00    -0.200 F 
ATOM     95  F   UNL A   1      47.142  25.573  36.439  1.00  0.00    -0.200 F 
ENDBRANCH  62  85
ENDBRANCH  36  37
ENDBRANCH  28  31
ENDBRANCH  26  27
ENDBRANCH  25  26
ENDBRANCH   1  25
TORSDOF 13
ENDMDL
MODEL 2
REMARK VINA RESULT:     -11.9      4.150      9.103
REMARK SMILES Cn1c(C[N@@H+]2CCOC[C@H]2CC(=O)NCCCNC(=O)c2ccc(-c3c4nc(c(-c5c(F)c(F)c(F)c(F)c5F)c5ccc([nH]5)c(-c5c(F)c(F)c(F)c(F)c5F)c5nc(c(-c6c(F)c(F)c(F)c(F)c6F)c6ccc3[nH]6)C=C5)C=C4)cc2)nc2ccccc21
REMARK SMILES IDX 15 1 14 2 12 3 13 4 11 6 10 7 5 8 6 9 7 11 9 12 8 13 4 14
REMARK SMILES IDX 3 15 1 16 2 17 90 18 84 19 85 20 89 21 86 22 88 23 87 24
REMARK SMILES IDX 16 25 17 26 18 27 19 28 20 30 21 31 22 32 83 33 23 34 82 35
REMARK SMILES IDX 24 36 25 37 26 38 76 39 27 40 81 41 75 42 77 43 28 44 80 45
REMARK SMILES IDX 74 46 73 47 29 49 61 50 41 51 60 52 42 53 45 54 59 55 78 56
REMARK SMILES IDX 43 57 44 58 58 60 79 61 46 62 30 63 31 64 39 65 32 66 33 67
REMARK SMILES IDX 37 68 40 69 34 70 35 71 38 72 36 73 62 74 63 75 71 76 64 77
REMARK SMILES IDX 65 78 69 79 72 80 66 81 67 82 70 83 68 84 47 85 48 86 56 87
REMARK SMILES IDX 49 88 50 89 54 90 57 91 51 92 52 93 55 94 53 95
REMARK H PARENT 14 5 5 10 18 29 77 48 45 59
REMARK Flexibility Score: inf
ROOT
ATOM      1  C   UNL A   1      35.063  21.380  26.121  1.00  0.00     0.117 C 
ENDROOT
BRANCH   1   2
ATOM      2  N   UNL A   1      33.664  20.999  26.188  1.00  0.00    -0.356 N 
ATOM      3  C   UNL A   1      32.692  21.173  25.247  1.00  0.00     0.226 C 
ATOM      4  O   UNL A   1      31.519  20.973  25.571  1.00  0.00    -0.275 OA
ATOM      5  H   UNL A   1      33.380  20.558  27.021  1.00  0.00     0.163 HD
BRANCH   3   6
ATOM      6  C   UNL A   1      33.050  21.570  23.833  1.00  0.00     0.167 C 
BRANCH   6   7
ATOM      7  C   UNL A   1      32.190  22.732  23.283  1.00  0.00     0.220 C 
ATOM      8  N   UNL A   1      32.018  23.785  24.308  1.00  0.00    -0.322 N 
ATOM      9  C   UNL A   1      33.227  24.623  24.470  1.00  0.00     0.291 C 
ATOM     10  H   UNL A   1      31.911  23.269  25.181  1.00  0.00     0.348 HD
ATOM     11  C   UNL A   1      34.015  24.952  23.187  1.00  0.00     0.221 C 
ATOM     12  C   UNL A   1      32.877  23.275  22.010  1.00  0.00     0.225 C 
ATOM     13  O   UNL A   1      34.164  23.813  22.330  1.00  0.00    -0.369 OA
BRANCH   8  14
ATOM     14  C   UNL A   1      30.754  24.548  24.245  1.00  0.00     0.339 C 
BRANCH  14  15
ATOM     15  C   UNL A   1      30.787  25.916  24.853  1.00  0.00     0.165 A 
ATOM     16  C   UNL A   1      30.605  27.321  22.751  1.00  0.00     0.152 C 
ATOM     17  N   UNL A   1      30.824  27.107  24.162  1.00  0.00    -0.326 N 
ATOM     18  C   UNL A   1      31.207  28.092  25.047  1.00  0.00     0.068 A 
ATOM     19  N   UNL A   1      30.846  26.144  26.153  1.00  0.00    -0.227 NA
ATOM     20  C   UNL A   1      31.196  27.458  26.283  1.00  0.00     0.089 A 
ATOM     21  C   UNL A   1      31.585  29.430  24.892  1.00  0.00     0.028 A 
ATOM     22  C   UNL A   1      31.583  28.159  27.433  1.00  0.00     0.030 A 
ATOM     23  C   UNL A   1      32.002  30.106  26.045  1.00  0.00     0.002 A 
ATOM     24  C   UNL A   1      32.005  29.484  27.295  1.00  0.00     0.002 A 
ENDBRANCH  14  15
ENDBRANCH   8  14
ENDBRANCH   6   7
ENDBRANCH   3   6
ENDBRANCH   1   2
BRANCH   1  25
ATOM     25  C   UNL A   1      35.252  22.835  26.540  1.00  0.00     0.042 C 
BRANCH  25  26
ATOM     26  C   UNL A   1      36.471  23.496  25.919  1.00  0.00     0.118 C 
BRANCH  26  27
ATOM     27  N   UNL A   1      37.641  22.634  25.961  1.00  0.00    -0.352 N 
ATOM     28  C   UNL A   1      38.931  22.911  26.324  1.00  0.00     0.251 C 
ATOM     29  H   UNL A   1      37.479  21.704  25.684  1.00  0.00     0.163 HD
ATOM     30  O   UNL A   1      39.801  22.063  26.111  1.00  0.00    -0.269 OA
BRANCH  28  31
ATOM     31  C   UNL A   1      39.312  24.201  26.948  1.00  0.00     0.039 A 
ATOM     32  C   UNL A   1      39.998  25.136  26.163  1.00  0.00     0.014 A 
ATOM     33  C   UNL A   1      39.071  24.484  28.297  1.00  0.00     0.014 A 
ATOM     34  C   UNL A   1      40.419  26.345  26.717  1.00  0.00     0.010 A 
ATOM     35  C   UNL A   1      39.416  25.727  28.827  1.00  0.00     0.010 A 
ATOM     36  C   UNL A   1      40.116  26.660  28.052  1.00  0.00    -0.014 A 
BRANCH  36  37
ATOM     37  C   UNL A   1      40.567  27.946  28.645  1.00  0.00     0.031 A 
ATOM     38  C   UNL A   1      42.020  28.165  28.971  1.00  0.00     0.074 A 
ATOM     39  C   UNL A   1      39.664  28.910  28.904  1.00  0.00     0.049 A 
ATOM     40  N   UNL A   1      42.604  29.224  29.472  1.00  0.00    -0.248 NA
ATOM     41  C   UNL A   1      42.933  27.038  28.728  1.00  0.00     0.031 C 
ATOM     42  C   UNL A   1      38.221  28.797  28.688  1.00  0.00     0.029 A 
ATOM     43  N   UNL A   1      39.827  30.179  29.401  1.00  0.00    -0.354 N 
ATOM     44  C   UNL A   1      43.944  28.885  29.616  1.00  0.00     0.074 A 
ATOM     45  C   UNL A   1      44.077  27.506  29.203  1.00  0.00     0.031 C 
ATOM     46  C   UNL A   1      37.635  29.959  29.016  1.00  0.00     0.029 A 
ATOM     47  C   UNL A   1      38.656  30.891  29.485  1.00  0.00     0.049 A 
ATOM     48  H   UNL A   1      40.701  30.545  29.671  1.00  0.00     0.167 HD
ATOM     49  C   UNL A   1      44.975  29.662  30.029  1.00  0.00     0.037 A 
ATOM     50  C   UNL A   1      38.433  32.157  29.884  1.00  0.00     0.037 A 
ATOM     51  C   UNL A   1      44.846  31.045  30.406  1.00  0.00     0.049 A 
ATOM     52  C   UNL A   1      39.601  33.010  30.298  1.00  0.00     0.074 A 
ATOM     53  C   UNL A   1      45.837  31.935  30.780  1.00  0.00     0.029 A 
ATOM     54  N   UNL A   1      43.647  31.739  30.451  1.00  0.00    -0.354 N 
ATOM     55  N   UNL A   1      40.872  32.700  30.361  1.00  0.00    -0.248 NA
ATOM     56  C   UNL A   1      39.302  34.397  30.683  1.00  0.00     0.031 C 
ATOM     57  C   UNL A   1      45.233  33.160  31.086  1.00  0.00     0.029 A 
ATOM     58  C   UNL A   1      43.871  33.044  30.860  1.00  0.00     0.049 A 
ATOM     59  H   UNL A   1      42.766  31.361  30.225  1.00  0.00     0.167 HD
ATOM     60  C   UNL A   1      41.527  33.855  30.768  1.00  0.00     0.074 A 
ATOM     61  C   UNL A   1      40.514  34.878  30.918  1.00  0.00     0.031 C 
ATOM     62  C   UNL A   1      42.849  34.049  31.001  1.00  0.00     0.037 A 
BRANCH  49  63
ATOM     63  C   UNL A   1      46.338  29.033  30.085  1.00  0.00     0.064 A 
ATOM     64  C   UNL A   1      46.806  28.393  31.244  1.00  0.00     0.173 A 
ATOM     65  C   UNL A   1      47.174  29.043  28.959  1.00  0.00     0.173 A 
ATOM     66  F   UNL A   1      46.049  28.367  32.352  1.00  0.00    -0.203 F 
ATOM     67  C   UNL A   1      48.070  27.813  31.282  1.00  0.00     0.198 A 
ATOM     68  C   UNL A   1      48.428  28.435  28.992  1.00  0.00     0.198 A 
ATOM     69  F   UNL A   1      46.776  29.637  27.825  1.00  0.00    -0.203 F 
ATOM     70  F   UNL A   1      48.514  27.251  32.415  1.00  0.00    -0.200 F 
ATOM     71  C   UNL A   1      48.878  27.828  30.154  1.00  0.00     0.200 A 
ATOM     72  F   UNL A   1      49.203  28.442  27.898  1.00  0.00    -0.200 F 
ATOM     73  F   UNL A   1      50.094  27.265  30.192  1.00  0.00    -0.200 F 
ENDBRANCH  49  63
BRANCH  50  74
ATOM     74  C   UNL A   1      37.054  32.708  29.863  1.00  0.00     0.064 A 
ATOM     75  C   UNL A   1      36.210  32.572  30.975  1.00  0.00     0.173 A 
ATOM     76  C   UNL A   1      36.553  33.379  28.740  1.00  0.00     0.173 A 
ATOM     77  F   UNL A   1      36.639  31.919  32.065  1.00  0.00    -0.203 F 
ATOM     78  C   UNL A   1      34.910  33.073  30.956  1.00  0.00     0.198 A 
ATOM     79  C   UNL A   1      35.262  33.902  28.731  1.00  0.00     0.198 A 
ATOM     80  F   UNL A   1      37.324  33.538  27.654  1.00  0.00    -0.203 F 
ATOM     81  F   UNL A   1      34.110  32.892  32.015  1.00  0.00    -0.200 F 
ATOM     82  C   UNL A   1      34.438  33.742  29.836  1.00  0.00     0.200 A 
ATOM     83  F   UNL A   1      34.814  34.559  27.652  1.00  0.00    -0.200 F 
ATOM     84  F   UNL A   1      33.190  34.226  29.820  1.00  0.00    -0.200 F 
ENDBRANCH  50  74
BRANCH  62  85
ATOM     85  C   UNL A   1      43.271  35.427  31.419  1.00  0.00     0.064 A 
ATOM     86  C   UNL A   1      43.289  35.812  32.767  1.00  0.00     0.173 A 
ATOM     87  C   UNL A   1      43.682  36.365  30.460  1.00  0.00     0.173 A 
ATOM     88  F   UNL A   1      42.891  34.955  33.719  1.00  0.00    -0.203 F 
ATOM     89  C   UNL A   1      43.671  37.099  33.138  1.00  0.00     0.198 A 
ATOM     90  C   UNL A   1      44.091  37.641  30.838  1.00  0.00     0.198 A 
ATOM     91  F   UNL A   1      43.691  36.043  29.158  1.00  0.00    -0.203 F 
ATOM     92  F   UNL A   1      43.628  37.462  34.427  1.00  0.00    -0.200 F 
ATOM     93  C   UNL A   1      44.076  38.009  32.174  1.00  0.00     0.200 A 
ATOM     94  F   UNL A   1      44.493  38.517  29.906  1.00  0.00    -0.200 F 
ATOM     95  F   UNL A   1      44.444  39.247  32.533  1.00  0.00    -0.200 F 
ENDBRANCH  62  85
ENDBRANCH  36  37
ENDBRANCH  28  31
ENDBRANCH  26  27
ENDBRANCH  25  26
ENDBRANCH   1  25
TORSDOF 13
ENDMDL
MODEL 3
REMARK VINA RESULT:     -11.9      1.324      2.415
REMARK SMILES Cn1c(C[N@@H+]2CCOC[C@H]2CC(=O)NCCCNC(=O)c2ccc(-c3c4nc(c(-c5c(F)c(F)c(F)c(F)c5F)c5ccc([nH]5)c(-c5c(F)c(F)c(F)c(F)c5F)c5nc(c(-c6c(F)c(F)c(F)c(F)c6F)c6ccc3[nH]6)C=C5)C=C4)cc2)nc2ccccc21
REMARK SMILES IDX 15 1 14 2 12 3 13 4 11 6 10 7 5 8 6 9 7 11 9 12 8 13 4 14
REMARK SMILES IDX 3 15 1 16 2 17 90 18 84 19 85 20 89 21 86 22 88 23 87 24
REMARK SMILES IDX 16 25 17 26 18 27 19 28 20 30 21 31 22 32 83 33 23 34 82 35
REMARK SMILES IDX 24 36 25 37 26 38 76 39 27 40 81 41 75 42 77 43 28 44 80 45
REMARK SMILES IDX 74 46 73 47 29 49 61 50 41 51 60 52 42 53 45 54 59 55 78 56
REMARK SMILES IDX 43 57 44 58 58 60 79 61 46 62 30 63 31 64 39 65 32 66 33 67
REMARK SMILES IDX 37 68 40 69 34 70 35 71 38 72 36 73 62 74 63 75 71 76 64 77
REMARK SMILES IDX 65 78 69 79 72 80 66 81 67 82 70 83 68 84 47 85 48 86 56 87
REMARK SMILES IDX 49 88 50 89 54 90 57 91 51 92 52 93 55 94 53 95
REMARK H PARENT 14 5 5 10 18 29 77 48 45 59
REMARK Flexibility Score: inf
ROOT
ATOM      1  C   UNL A   1      32.551  29.488  24.662  1.00  0.00     0.117 C 
ENDROOT
BRANCH   1   2
ATOM      2  N   UNL A   1      31.757  29.249  23.471  1.00  0.00    -0.356 N 
ATOM      3  C   UNL A   1      30.838  28.266  23.248  1.00  0.00     0.226 C 
ATOM      4  O   UNL A   1      30.422  28.102  22.099  1.00  0.00    -0.275 OA
ATOM      5  H   UNL A   1      31.900  29.878  22.728  1.00  0.00     0.163 HD
BRANCH   3   6
ATOM      6  C   UNL A   1      30.320  27.421  24.390  1.00  0.00     0.167 C 
BRANCH   6   7
ATOM      7  C   UNL A   1      30.532  25.903  24.178  1.00  0.00     0.220 C 
ATOM      8  N   UNL A   1      31.890  25.633  23.659  1.00  0.00    -0.322 N 
ATOM      9  C   UNL A   1      32.929  25.733  24.707  1.00  0.00     0.291 C 
ATOM     10  H   UNL A   1      32.067  26.399  23.009  1.00  0.00     0.348 HD
ATOM     11  C   UNL A   1      32.549  25.214  26.107  1.00  0.00     0.221 C 
ATOM     12  C   UNL A   1      30.278  25.192  25.526  1.00  0.00     0.225 C 
ATOM     13  O   UNL A   1      31.233  25.622  26.502  1.00  0.00    -0.369 OA
BRANCH   8  14
ATOM     14  C   UNL A   1      32.024  24.450  22.782  1.00  0.00     0.339 C 
BRANCH  14  15
ATOM     15  C   UNL A   1      33.181  23.548  23.076  1.00  0.00     0.165 A 
ATOM     16  C   UNL A   1      32.010  21.799  24.489  1.00  0.00     0.152 C 
ATOM     17  N   UNL A   1      33.160  22.452  23.912  1.00  0.00    -0.326 N 
ATOM     18  C   UNL A   1      34.467  22.119  24.196  1.00  0.00     0.068 A 
ATOM     19  N   UNL A   1      34.401  23.735  22.604  1.00  0.00    -0.227 NA
ATOM     20  C   UNL A   1      35.215  22.929  23.350  1.00  0.00     0.089 A 
ATOM     21  C   UNL A   1      35.058  21.237  25.106  1.00  0.00     0.028 A 
ATOM     22  C   UNL A   1      36.614  22.889  23.397  1.00  0.00     0.030 A 
ATOM     23  C   UNL A   1      36.457  21.234  25.167  1.00  0.00     0.002 A 
ATOM     24  C   UNL A   1      37.225  22.047  24.330  1.00  0.00     0.002 A 
ENDBRANCH  14  15
ENDBRANCH   8  14
ENDBRANCH   6   7
ENDBRANCH   3   6
ENDBRANCH   1   2
BRANCH   1  25
ATOM     25  C   UNL A   1      31.755  30.273  25.700  1.00  0.00     0.042 C 
BRANCH  25  26
ATOM     26  C   UNL A   1      32.586  30.740  26.883  1.00  0.00     0.118 C 
BRANCH  26  27
ATOM     27  N   UNL A   1      32.662  32.189  26.960  1.00  0.00    -0.352 N 
ATOM     28  C   UNL A   1      33.553  32.995  27.616  1.00  0.00     0.251 C 
ATOM     29  H   UNL A   1      31.962  32.667  26.460  1.00  0.00     0.163 HD
ATOM     30  O   UNL A   1      33.318  34.204  27.686  1.00  0.00    -0.269 OA
BRANCH  28  31
ATOM     31  C   UNL A   1      34.778  32.455  28.255  1.00  0.00     0.039 A 
ATOM     32  C   UNL A   1      34.695  31.209  28.889  1.00  0.00     0.014 A 
ATOM     33  C   UNL A   1      35.978  33.170  28.303  1.00  0.00     0.014 A 
ATOM     34  C   UNL A   1      35.808  30.679  29.544  1.00  0.00     0.010 A 
ATOM     35  C   UNL A   1      37.113  32.603  28.883  1.00  0.00     0.010 A 
ATOM     36  C   UNL A   1      37.033  31.364  29.532  1.00  0.00    -0.014 A 
BRANCH  36  37
ATOM     37  C   UNL A   1      38.218  30.804  30.233  1.00  0.00     0.031 A 
ATOM     38  C   UNL A   1      38.496  31.167  31.667  1.00  0.00     0.074 A 
ATOM     39  C   UNL A   1      39.051  29.979  29.573  1.00  0.00     0.049 A 
ATOM     40  N   UNL A   1      39.465  30.764  32.450  1.00  0.00    -0.248 NA
ATOM     41  C   UNL A   1      37.582  32.132  32.297  1.00  0.00     0.031 C 
ATOM     42  C   UNL A   1      38.923  29.597  28.166  1.00  0.00     0.029 A 
ATOM     43  N   UNL A   1      40.170  29.307  29.998  1.00  0.00    -0.354 N 
ATOM     44  C   UNL A   1      39.285  31.435  33.653  1.00  0.00     0.074 A 
ATOM     45  C   UNL A   1      38.148  32.312  33.481  1.00  0.00     0.031 C 
ATOM     46  C   UNL A   1      39.901  28.732  27.854  1.00  0.00     0.029 A 
ATOM     47  C   UNL A   1      40.737  28.515  29.030  1.00  0.00     0.049 A 
ATOM     48  H   UNL A   1      40.531  29.385  30.911  1.00  0.00     0.167 HD
ATOM     49  C   UNL A   1      39.986  31.310  34.806  1.00  0.00     0.037 A 
ATOM     50  C   UNL A   1      41.804  27.697  29.089  1.00  0.00     0.037 A 
ATOM     51  C   UNL A   1      41.094  30.410  34.986  1.00  0.00     0.049 A 
ATOM     52  C   UNL A   1      42.539  27.545  30.393  1.00  0.00     0.074 A 
ATOM     53  C   UNL A   1      41.832  30.164  36.130  1.00  0.00     0.029 A 
ATOM     54  N   UNL A   1      41.622  29.602  33.990  1.00  0.00    -0.354 N 
ATOM     55  N   UNL A   1      42.314  28.130  31.543  1.00  0.00    -0.248 NA
ATOM     56  C   UNL A   1      43.670  26.606  30.408  1.00  0.00     0.031 C 
ATOM     57  C   UNL A   1      42.829  29.233  35.818  1.00  0.00     0.029 A 
ATOM     58  C   UNL A   1      42.684  28.867  34.489  1.00  0.00     0.049 A 
ATOM     59  H   UNL A   1      41.290  29.558  33.064  1.00  0.00     0.167 HD
ATOM     60  C   UNL A   1      43.255  27.615  32.424  1.00  0.00     0.074 A 
ATOM     61  C   UNL A   1      44.041  26.655  31.679  1.00  0.00     0.031 C 
ATOM     62  C   UNL A   1      43.454  27.914  33.732  1.00  0.00     0.037 A 
BRANCH  49  63
ATOM     63  C   UNL A   1      39.566  32.162  35.969  1.00  0.00     0.064 A 
ATOM     64  C   UNL A   1      38.564  31.747  36.861  1.00  0.00     0.173 A 
ATOM     65  C   UNL A   1      40.191  33.394  36.213  1.00  0.00     0.173 A 
ATOM     66  F   UNL A   1      37.926  30.584  36.665  1.00  0.00    -0.203 F 
ATOM     67  C   UNL A   1      38.185  32.547  37.935  1.00  0.00     0.198 A 
ATOM     68  C   UNL A   1      39.829  34.178  37.306  1.00  0.00     0.198 A 
ATOM     69  F   UNL A   1      41.157  33.837  35.395  1.00  0.00    -0.203 F 
ATOM     70  F   UNL A   1      37.192  32.152  38.745  1.00  0.00    -0.200 F 
ATOM     71  C   UNL A   1      38.822  33.758  38.162  1.00  0.00     0.200 A 
ATOM     72  F   UNL A   1      40.453  35.343  37.529  1.00  0.00    -0.200 F 
ATOM     73  F   UNL A   1      38.458  34.524  39.200  1.00  0.00    -0.200 F 
ENDBRANCH  49  63
BRANCH  50  74
ATOM     74  C   UNL A   1      42.209  26.922  27.889  1.00  0.00     0.064 A 
ATOM     75  C   UNL A   1      41.732  25.620  27.681  1.00  0.00     0.173 A 
ATOM     76  C   UNL A   1      43.075  27.462  26.928  1.00  0.00     0.173 A 
ATOM     77  F   UNL A   1      40.917  25.053  28.583  1.00  0.00    -0.203 F 
ATOM     78  C   UNL A   1      42.120  24.881  26.565  1.00  0.00     0.198 A 
ATOM     79  C   UNL A   1      43.442  26.733  25.800  1.00  0.00     0.198 A 
ATOM     80  F   UNL A   1      43.554  28.706  27.081  1.00  0.00    -0.203 F 
ATOM     81  F   UNL A   1      41.684  23.624  26.412  1.00  0.00    -0.200 F 
ATOM     82  C   UNL A   1      42.971  25.440  25.622  1.00  0.00     0.200 A 
ATOM     83  F   UNL A   1      44.254  27.280  24.886  1.00  0.00    -0.200 F 
ATOM     84  F   UNL A   1      43.341  24.731  24.549  1.00  0.00    -0.200 F 
ENDBRANCH  50  74
BRANCH  62  85
ATOM     85  C   UNL A   1      44.550  27.173  34.441  1.00  0.00     0.064 A 
ATOM     86  C   UNL A   1      44.323  25.927  35.042  1.00  0.00     0.173 A 
ATOM     87  C   UNL A   1      45.845  27.708  34.501  1.00  0.00     0.173 A 
ATOM     88  F   UNL A   1      43.097  25.381  35.024  1.00  0.00    -0.203 F 
ATOM     89  C   UNL A   1      45.347  25.258  35.708  1.00  0.00     0.198 A 
ATOM     90  C   UNL A   1      46.873  27.023  35.143  1.00  0.00     0.198 A 
ATOM     91  F   UNL A   1      46.115  28.894  33.935  1.00  0.00    -0.203 F 
ATOM     92  F   UNL A   1      45.095  24.094  36.322  1.00  0.00    -0.200 F 
ATOM     93  C   UNL A   1      46.621  25.804  35.753  1.00  0.00     0.200 A 
ATOM     94  F   UNL A   1      48.107  27.546  35.176  1.00  0.00    -0.200 F 
ATOM     95  F   UNL A   1      47.605  25.159  36.394  1.00  0.00    -0.200 F 
ENDBRANCH  62  85
ENDBRANCH  36  37
ENDBRANCH  28  31
ENDBRANCH  26  27
ENDBRANCH  25  26
ENDBRANCH   1  25
TORSDOF 13
ENDMDL
