MODEL 1
REMARK VINA RESULT:     -12.1      0.000      0.000
REMARK SMILES [NH3+]C1CC[NH+](CC(=O)N2CCO[C@H](CC(=O)NCCCNC(=O)c3ccc(-c4c5nc(c(-c6c(F)c(F)c(F)c(F)c6F)c6ccc([nH]6)c(-c6c(F)c(F)c(F)c(F)c6F)c6nc(c(-c7c(F)c(F)c(F)c(F)c7F)c7ccc4[nH]7)C=C6)C=C5)cc3)C2)CC1
REMARK SMILES IDX 15 1 16 2 17 3 14 5 13 6 9 7 10 8 87 9 11 10 12 11 7 12 8 13
REMARK SMILES IDX 6 14 5 15 2 16 3 17 89 18 4 19 88 20 1 22 18 26 19 27 20 28
REMARK SMILES IDX 21 29 22 30 23 32 24 33 25 34 86 35 26 36 85 37 27 38 28 39
REMARK SMILES IDX 29 40 79 41 30 42 84 43 78 44 80 45 31 46 83 47 77 48 76 49
REMARK SMILES IDX 32 51 64 52 44 53 63 54 45 55 48 56 62 57 81 58 46 59 47 60
REMARK SMILES IDX 61 62 82 63 49 64 33 65 34 66 42 67 35 68 36 69 40 70 43 71
REMARK SMILES IDX 37 72 38 73 41 74 39 75 65 76 66 77 74 78 67 79 68 80 72 81
REMARK SMILES IDX 75 82 69 83 70 84 73 85 71 86 50 87 51 88 59 89 52 90 53 91
REMARK SMILES IDX 57 92 60 93 54 94 55 95 58 96 56 97
REMARK H PARENT 17 4 5 21 1 23 1 24 1 25 21 31 80 50 48 61
REMARK Flexibility Score: inf
ROOT
ATOM      1  C   UNL A   1      33.066  29.213  24.416  1.00  0.00     0.222 C 
ATOM      2  O   UNL A   1      33.503  29.301  23.271  1.00  0.00    -0.275 OA
ATOM      3  N   UNL A   1      32.161  30.126  24.860  1.00  0.00    -0.356 N 
ATOM      4  H   UNL A   1      31.751  30.703  24.175  1.00  0.00     0.163 HD
ENDROOT
BRANCH   1   5
ATOM      5  C   UNL A   1      33.503  28.106  25.338  1.00  0.00     0.133 C 
BRANCH   5   6
ATOM      6  C   UNL A   1      32.742  26.796  25.093  1.00  0.00     0.147 C 
ATOM      7  N   UNL A   1      32.776  24.964  23.353  1.00  0.00    -0.333 N 
ATOM      8  C   UNL A   1      31.357  25.213  23.101  1.00  0.00     0.148 C 
ATOM      9  C   UNL A   1      33.472  26.071  23.969  1.00  0.00     0.152 C 
ATOM     10  C   UNL A   1      30.690  25.904  24.296  1.00  0.00     0.182 C 
ATOM     11  O   UNL A   1      31.396  27.102  24.669  1.00  0.00    -0.374 OA
BRANCH   7  12
ATOM     12  C   UNL A   1      33.464  24.061  22.537  1.00  0.00     0.277 C 
ATOM     13  O   UNL A   1      33.270  24.029  21.318  1.00  0.00    -0.268 OA
BRANCH  12  14
ATOM     14  C   UNL A   1      34.378  23.024  23.221  1.00  0.00     0.363 C 
BRANCH  14  15
ATOM     15  N   UNL A   1      33.807  22.240  24.318  1.00  0.00    -0.327 N 
ATOM     16  C   UNL A   1      33.561  19.330  24.788  1.00  0.00     0.192 C 
ATOM     17  C   UNL A   1      32.662  20.084  23.799  1.00  0.00     0.126 C 
ATOM     18  C   UNL A   1      34.866  20.089  25.005  1.00  0.00     0.126 C 
ATOM     19  C   UNL A   1      32.530  21.576  24.108  1.00  0.00     0.268 C 
ATOM     20  C   UNL A   1      34.664  21.578  25.284  1.00  0.00     0.268 C 
ATOM     21  H   UNL A   1      33.577  23.091  24.832  1.00  0.00     0.348 HD
BRANCH  16  22
ATOM     22  N   UNL A   1      32.908  19.085  26.075  1.00  0.00    -0.355 N 
ATOM     23  H   UNL A   1      33.541  19.345  26.832  1.00  0.00     0.344 HD
ATOM     24  H   UNL A   1      32.672  18.096  26.154  1.00  0.00     0.344 HD
ATOM     25  H   UNL A   1      32.057  19.644  26.136  1.00  0.00     0.344 HD
ENDBRANCH  16  22
ENDBRANCH  14  15
ENDBRANCH  12  14
ENDBRANCH   7  12
ENDBRANCH   5   6
ENDBRANCH   1   5
BRANCH   3  26
ATOM     26  C   UNL A   1      31.731  30.346  26.228  1.00  0.00     0.117 C 
BRANCH  26  27
ATOM     27  C   UNL A   1      31.560  31.834  26.502  1.00  0.00     0.042 C 
BRANCH  27  28
ATOM     28  C   UNL A   1      32.708  32.413  27.308  1.00  0.00     0.118 C 
BRANCH  28  29
ATOM     29  N   UNL A   1      32.534  33.839  27.517  1.00  0.00    -0.352 N 
ATOM     30  C   UNL A   1      33.029  34.635  28.517  1.00  0.00     0.251 C 
ATOM     31  H   UNL A   1      31.981  34.299  26.846  1.00  0.00     0.163 HD
ATOM     32  O   UNL A   1      32.527  35.737  28.716  1.00  0.00    -0.269 OA
BRANCH  30  33
ATOM     33  C   UNL A   1      34.168  34.185  29.350  1.00  0.00     0.039 A 
ATOM     34  C   UNL A   1      35.468  34.479  28.929  1.00  0.00     0.014 A 
ATOM     35  C   UNL A   1      33.970  33.397  30.489  1.00  0.00     0.014 A 
ATOM     36  C   UNL A   1      36.562  33.988  29.645  1.00  0.00     0.010 A 
ATOM     37  C   UNL A   1      35.056  32.994  31.259  1.00  0.00     0.010 A 
ATOM     38  C   UNL A   1      36.363  33.240  30.817  1.00  0.00    -0.014 A 
BRANCH  38  39
ATOM     39  C   UNL A   1      37.497  32.601  31.529  1.00  0.00     0.031 A 
ATOM     40  C   UNL A   1      38.231  31.463  30.867  1.00  0.00     0.074 A 
ATOM     41  C   UNL A   1      37.839  33.004  32.766  1.00  0.00     0.049 A 
ATOM     42  N   UNL A   1      39.170  30.688  31.346  1.00  0.00    -0.248 NA
ATOM     43  C   UNL A   1      37.829  31.128  29.489  1.00  0.00     0.031 C 
ATOM     44  C   UNL A   1      37.184  34.068  33.525  1.00  0.00     0.029 A 
ATOM     45  N   UNL A   1      38.825  32.552  33.607  1.00  0.00    -0.354 N 
ATOM     46  C   UNL A   1      39.443  29.763  30.345  1.00  0.00     0.074 A 
ATOM     47  C   UNL A   1      38.537  30.036  29.253  1.00  0.00     0.031 C 
ATOM     48  C   UNL A   1      37.795  34.200  34.713  1.00  0.00     0.029 A 
ATOM     49  C   UNL A   1      38.865  33.211  34.811  1.00  0.00     0.049 A 
ATOM     50  H   UNL A   1      39.445  31.825  33.370  1.00  0.00     0.167 HD
ATOM     51  C   UNL A   1      40.384  28.790  30.326  1.00  0.00     0.037 A 
ATOM     52  C   UNL A   1      39.674  33.031  35.872  1.00  0.00     0.037 A 
ATOM     53  C   UNL A   1      41.322  28.557  31.391  1.00  0.00     0.049 A 
ATOM     54  C   UNL A   1      40.747  31.977  35.803  1.00  0.00     0.074 A 
ATOM     55  C   UNL A   1      42.333  27.616  31.463  1.00  0.00     0.029 A 
ATOM     56  N   UNL A   1      41.374  29.295  32.564  1.00  0.00    -0.354 N 
ATOM     57  N   UNL A   1      41.010  31.125  34.843  1.00  0.00    -0.248 NA
ATOM     58  C   UNL A   1      41.645  31.869  36.962  1.00  0.00     0.031 C 
ATOM     59  C   UNL A   1      42.990  27.776  32.688  1.00  0.00     0.029 A 
ATOM     60  C   UNL A   1      42.408  28.838  33.361  1.00  0.00     0.049 A 
ATOM     61  H   UNL A   1      40.765  30.034  32.795  1.00  0.00     0.167 HD
ATOM     62  C   UNL A   1      42.119  30.405  35.264  1.00  0.00     0.074 A 
ATOM     63  C   UNL A   1      42.488  30.927  36.563  1.00  0.00     0.031 C 
ATOM     64  C   UNL A   1      42.772  29.397  34.636  1.00  0.00     0.037 A 
BRANCH  51  65
ATOM     65  C   UNL A   1      40.462  27.922  29.105  1.00  0.00     0.064 A 
ATOM     66  C   UNL A   1      41.285  28.260  28.019  1.00  0.00     0.173 A 
ATOM     67  C   UNL A   1      39.736  26.725  29.031  1.00  0.00     0.173 A 
ATOM     68  F   UNL A   1      41.987  29.404  28.034  1.00  0.00    -0.203 F 
ATOM     69  C   UNL A   1      41.358  27.443  26.895  1.00  0.00     0.198 A 
ATOM     70  C   UNL A   1      39.834  25.896  27.916  1.00  0.00     0.198 A 
ATOM     71  F   UNL A   1      38.936  26.355  30.042  1.00  0.00    -0.203 F 
ATOM     72  F   UNL A   1      42.115  27.808  25.852  1.00  0.00    -0.200 F 
ATOM     73  C   UNL A   1      40.639  26.258  26.847  1.00  0.00     0.200 A 
ATOM     74  F   UNL A   1      39.146  24.747  27.875  1.00  0.00    -0.200 F 
ATOM     75  F   UNL A   1      40.718  25.469  25.768  1.00  0.00    -0.200 F 
ENDBRANCH  51  65
BRANCH  52  76
ATOM     76  C   UNL A   1      39.526  33.888  37.076  1.00  0.00     0.064 A 
ATOM     77  C   UNL A   1      38.798  33.445  38.189  1.00  0.00     0.173 A 
ATOM     78  C   UNL A   1      40.092  35.169  37.134  1.00  0.00     0.173 A 
ATOM     79  F   UNL A   1      38.222  32.233  38.173  1.00  0.00    -0.203 F 
ATOM     80  C   UNL A   1      38.619  34.261  39.304  1.00  0.00     0.198 A 
ATOM     81  C   UNL A   1      39.935  35.975  38.260  1.00  0.00     0.198 A 
ATOM     82  F   UNL A   1      40.805  35.636  36.098  1.00  0.00    -0.203 F 
ATOM     83  F   UNL A   1      37.877  33.831  40.333  1.00  0.00    -0.200 F 
ATOM     84  C   UNL A   1      39.190  35.524  39.339  1.00  0.00     0.200 A 
ATOM     85  F   UNL A   1      40.499  37.189  38.296  1.00  0.00    -0.200 F 
ATOM     86  F   UNL A   1      39.016  36.310  40.411  1.00  0.00    -0.200 F 
ENDBRANCH  52  76
BRANCH  64  87
ATOM     87  C   UNL A   1      43.982  28.835  35.317  1.00  0.00     0.064 A 
ATOM     88  C   UNL A   1      43.884  27.777  36.232  1.00  0.00     0.173 A 
ATOM     89  C   UNL A   1      45.258  29.333  35.015  1.00  0.00     0.173 A 
ATOM     90  F   UNL A   1      42.683  27.278  36.561  1.00  0.00    -0.203 F 
ATOM     91  C   UNL A   1      45.022  27.253  36.838  1.00  0.00     0.198 A 
ATOM     92  C   UNL A   1      46.395  28.789  35.605  1.00  0.00     0.198 A 
ATOM     93  F   UNL A   1      45.401  30.339  34.140  1.00  0.00    -0.203 F 
ATOM     94  F   UNL A   1      44.903  26.268  37.741  1.00  0.00    -0.200 F 
ATOM     95  C   UNL A   1      46.275  27.754  36.521  1.00  0.00     0.200 A 
ATOM     96  F   UNL A   1      47.606  29.267  35.289  1.00  0.00    -0.200 F 
ATOM     97  F   UNL A   1      47.369  27.244  37.103  1.00  0.00    -0.200 F 
ENDBRANCH  64  87
ENDBRANCH  38  39
ENDBRANCH  30  33
ENDBRANCH  28  29
ENDBRANCH  27  28
ENDBRANCH  26  27
ENDBRANCH   3  26
TORSDOF 15
ENDMDL
MODEL 2
REMARK VINA RESULT:     -12.0      5.582     11.341
REMARK SMILES [NH3+]C1CC[NH+](CC(=O)N2CCO[C@H](CC(=O)NCCCNC(=O)c3ccc(-c4c5nc(c(-c6c(F)c(F)c(F)c(F)c6F)c6ccc([nH]6)c(-c6c(F)c(F)c(F)c(F)c6F)c6nc(c(-c7c(F)c(F)c(F)c(F)c7F)c7ccc4[nH]7)C=C6)C=C5)cc3)C2)CC1
REMARK SMILES IDX 15 1 16 2 17 3 14 5 13 6 9 7 10 8 87 9 11 10 12 11 7 12 8 13
REMARK SMILES IDX 6 14 5 15 2 16 3 17 89 18 4 19 88 20 1 22 18 26 19 27 20 28
REMARK SMILES IDX 21 29 22 30 23 32 24 33 25 34 86 35 26 36 85 37 27 38 28 39
REMARK SMILES IDX 29 40 79 41 30 42 84 43 78 44 80 45 31 46 83 47 77 48 76 49
REMARK SMILES IDX 32 51 64 52 44 53 63 54 45 55 48 56 62 57 81 58 46 59 47 60
REMARK SMILES IDX 61 62 82 63 49 64 33 65 34 66 42 67 35 68 36 69 40 70 43 71
REMARK SMILES IDX 37 72 38 73 41 74 39 75 65 76 66 77 74 78 67 79 68 80 72 81
REMARK SMILES IDX 75 82 69 83 70 84 73 85 71 86 50 87 51 88 59 89 52 90 53 91
REMARK SMILES IDX 57 92 60 93 54 94 55 95 58 96 56 97
REMARK H PARENT 17 4 5 21 1 23 1 24 1 25 21 31 80 50 48 61
REMARK Flexibility Score: inf
ROOT
ATOM      1  C   UNL A   1      36.918  23.159  25.649  1.00  0.00     0.222 C 
ATOM      2  O   UNL A   1      37.334  23.962  26.482  1.00  0.00    -0.275 OA
ATOM      3  N   UNL A   1      37.140  21.830  25.832  1.00  0.00    -0.356 N 
ATOM      4  H   UNL A   1      37.455  21.558  26.725  1.00  0.00     0.163 HD
ENDROOT
BRANCH   1   5
ATOM      5  C   UNL A   1      36.157  23.615  24.434  1.00  0.00     0.133 C 
BRANCH   5   6
ATOM      6  C   UNL A   1      34.640  23.657  24.666  1.00  0.00     0.147 C 
ATOM      7  N   UNL A   1      33.027  25.134  25.931  1.00  0.00    -0.333 N 
ATOM      8  C   UNL A   1      32.571  23.959  26.670  1.00  0.00     0.148 C 
ATOM      9  C   UNL A   1      34.338  24.990  25.338  1.00  0.00     0.152 C 
ATOM     10  C   UNL A   1      32.873  22.665  25.906  1.00  0.00     0.182 C 
ATOM     11  O   UNL A   1      34.267  22.580  25.552  1.00  0.00    -0.374 OA
BRANCH   7  12
ATOM     12  C   UNL A   1      32.551  26.397  26.298  1.00  0.00     0.277 C 
ATOM     13  O   UNL A   1      31.381  26.557  26.654  1.00  0.00    -0.268 OA
BRANCH  12  14
ATOM     14  C   UNL A   1      33.499  27.602  26.126  1.00  0.00     0.363 C 
BRANCH  14  15
ATOM     15  N   UNL A   1      33.282  28.471  24.968  1.00  0.00    -0.327 N 
ATOM     16  C   UNL A   1      31.127  28.621  22.947  1.00  0.00     0.192 C 
ATOM     17  C   UNL A   1      32.201  27.525  22.927  1.00  0.00     0.126 C 
ATOM     18  C   UNL A   1      30.974  29.189  24.354  1.00  0.00     0.126 C 
ATOM     19  C   UNL A   1      33.496  27.924  23.637  1.00  0.00     0.268 C 
ATOM     20  C   UNL A   1      32.305  29.543  25.015  1.00  0.00     0.268 C 
ATOM     21  H   UNL A   1      34.134  28.992  25.175  1.00  0.00     0.348 HD
BRANCH  16  22
ATOM     22  N   UNL A   1      31.404  29.703  22.001  1.00  0.00    -0.355 N 
ATOM     23  H   UNL A   1      32.252  30.195  22.286  1.00  0.00     0.344 HD
ATOM     24  H   UNL A   1      30.620  30.356  21.992  1.00  0.00     0.344 HD
ATOM     25  H   UNL A   1      31.534  29.314  21.067  1.00  0.00     0.344 HD
ENDBRANCH  16  22
ENDBRANCH  14  15
ENDBRANCH  12  14
ENDBRANCH   7  12
ENDBRANCH   5   6
ENDBRANCH   1   5
BRANCH   3  26
ATOM     26  C   UNL A   1      36.965  20.766  24.861  1.00  0.00     0.117 C 
BRANCH  26  27
ATOM     27  C   UNL A   1      38.069  19.727  25.001  1.00  0.00     0.042 C 
BRANCH  27  28
ATOM     28  C   UNL A   1      39.276  20.259  25.751  1.00  0.00     0.118 C 
BRANCH  28  29
ATOM     29  N   UNL A   1      40.238  19.203  26.010  1.00  0.00    -0.352 N 
ATOM     30  C   UNL A   1      41.601  19.284  26.134  1.00  0.00     0.251 C 
ATOM     31  H   UNL A   1      39.858  18.301  26.108  1.00  0.00     0.163 HD
ATOM     32  O   UNL A   1      42.278  18.265  26.032  1.00  0.00    -0.269 OA
BRANCH  30  33
ATOM     33  C   UNL A   1      42.262  20.582  26.401  1.00  0.00     0.039 A 
ATOM     34  C   UNL A   1      42.313  21.054  27.715  1.00  0.00     0.014 A 
ATOM     35  C   UNL A   1      42.746  21.379  25.359  1.00  0.00     0.014 A 
ATOM     36  C   UNL A   1      42.847  22.317  27.983  1.00  0.00     0.010 A 
ATOM     37  C   UNL A   1      43.370  22.591  25.636  1.00  0.00     0.010 A 
ATOM     38  C   UNL A   1      43.380  23.095  26.943  1.00  0.00    -0.014 A 
BRANCH  38  39
ATOM     39  C   UNL A   1      43.840  24.487  27.175  1.00  0.00     0.031 A 
ATOM     40  C   UNL A   1      42.862  25.503  27.705  1.00  0.00     0.074 A 
ATOM     41  C   UNL A   1      45.102  24.846  26.879  1.00  0.00     0.049 A 
ATOM     42  N   UNL A   1      43.012  26.793  27.875  1.00  0.00    -0.248 NA
ATOM     43  C   UNL A   1      41.519  25.009  28.059  1.00  0.00     0.031 C 
ATOM     44  C   UNL A   1      46.130  23.964  26.328  1.00  0.00     0.029 A 
ATOM     45  N   UNL A   1      45.730  26.061  26.992  1.00  0.00    -0.354 N 
ATOM     46  C   UNL A   1      41.781  27.260  28.321  1.00  0.00     0.074 A 
ATOM     47  C   UNL A   1      40.880  26.131  28.347  1.00  0.00     0.031 C 
ATOM     48  C   UNL A   1      47.267  24.661  26.168  1.00  0.00     0.029 A 
ATOM     49  C   UNL A   1      47.038  26.044  26.576  1.00  0.00     0.049 A 
ATOM     50  H   UNL A   1      45.286  26.868  27.340  1.00  0.00     0.167 HD
ATOM     51  C   UNL A   1      41.440  28.513  28.703  1.00  0.00     0.037 A 
ATOM     52  C   UNL A   1      47.946  27.038  26.527  1.00  0.00     0.037 A 
ATOM     53  C   UNL A   1      42.353  29.622  28.731  1.00  0.00     0.049 A 
ATOM     54  C   UNL A   1      47.555  28.410  27.008  1.00  0.00     0.074 A 
ATOM     55  C   UNL A   1      42.119  30.927  29.125  1.00  0.00     0.029 A 
ATOM     56  N   UNL A   1      43.690  29.545  28.368  1.00  0.00    -0.354 N 
ATOM     57  N   UNL A   1      46.396  28.833  27.450  1.00  0.00    -0.248 NA
ATOM     58  C   UNL A   1      48.604  29.440  26.996  1.00  0.00     0.031 C 
ATOM     59  C   UNL A   1      43.312  31.644  28.988  1.00  0.00     0.029 A 
ATOM     60  C   UNL A   1      44.296  30.776  28.540  1.00  0.00     0.049 A 
ATOM     61  H   UNL A   1      44.140  28.734  28.036  1.00  0.00     0.167 HD
ATOM     62  C   UNL A   1      46.583  30.163  27.798  1.00  0.00     0.074 A 
ATOM     63  C   UNL A   1      47.971  30.476  27.528  1.00  0.00     0.031 C 
ATOM     64  C   UNL A   1      45.686  31.051  28.293  1.00  0.00     0.037 A 
BRANCH  51  65
ATOM     65  C   UNL A   1      40.025  28.743  29.146  1.00  0.00     0.064 A 
ATOM     66  C   UNL A   1      39.025  29.119  28.235  1.00  0.00     0.173 A 
ATOM     67  C   UNL A   1      39.655  28.554  30.485  1.00  0.00     0.173 A 
ATOM     68  F   UNL A   1      39.332  29.328  26.946  1.00  0.00    -0.203 F 
ATOM     69  C   UNL A   1      37.714  29.319  28.654  1.00  0.00     0.198 A 
ATOM     70  C   UNL A   1      38.335  28.728  30.895  1.00  0.00     0.198 A 
ATOM     71  F   UNL A   1      40.571  28.193  31.396  1.00  0.00    -0.203 F 
ATOM     72  F   UNL A   1      36.786  29.722  27.775  1.00  0.00    -0.200 F 
ATOM     73  C   UNL A   1      37.368  29.117  29.982  1.00  0.00     0.200 A 
ATOM     74  F   UNL A   1      38.001  28.523  32.177  1.00  0.00    -0.200 F 
ATOM     75  F   UNL A   1      36.102  29.302  30.381  1.00  0.00    -0.200 F 
ENDBRANCH  51  65
BRANCH  52  76
ATOM     76  C   UNL A   1      49.322  26.767  26.037  1.00  0.00     0.064 A 
ATOM     77  C   UNL A   1      49.666  26.993  24.697  1.00  0.00     0.173 A 
ATOM     78  C   UNL A   1      50.313  26.262  26.889  1.00  0.00     0.173 A 
ATOM     79  F   UNL A   1      48.745  27.458  23.839  1.00  0.00    -0.203 F 
ATOM     80  C   UNL A   1      50.942  26.700  24.222  1.00  0.00     0.198 A 
ATOM     81  C   UNL A   1      51.598  25.995  26.419  1.00  0.00     0.198 A 
ATOM     82  F   UNL A   1      50.037  26.036  28.182  1.00  0.00    -0.203 F 
ATOM     83  F   UNL A   1      51.229  26.879  22.925  1.00  0.00    -0.200 F 
ATOM     84  C   UNL A   1      51.908  26.203  25.084  1.00  0.00     0.200 A 
ATOM     85  F   UNL A   1      52.532  25.527  27.258  1.00  0.00    -0.200 F 
ATOM     86  F   UNL A   1      53.135  25.920  24.626  1.00  0.00    -0.200 F 
ENDBRANCH  52  76
BRANCH  64  87
ATOM     87  C   UNL A   1      46.190  32.422  28.626  1.00  0.00     0.064 A 
ATOM     88  C   UNL A   1      46.205  33.450  27.674  1.00  0.00     0.173 A 
ATOM     89  C   UNL A   1      46.622  32.717  29.927  1.00  0.00     0.173 A 
ATOM     90  F   UNL A   1      45.813  33.209  26.413  1.00  0.00    -0.203 F 
ATOM     91  C   UNL A   1      46.656  34.723  28.008  1.00  0.00     0.198 A 
ATOM     92  C   UNL A   1      47.050  33.998  30.264  1.00  0.00     0.198 A 
ATOM     93  F   UNL A   1      46.619  31.767  30.873  1.00  0.00    -0.203 F 
ATOM     94  F   UNL A   1      46.699  35.683  27.072  1.00  0.00    -0.200 F 
ATOM     95  C   UNL A   1      47.072  34.999  29.303  1.00  0.00     0.200 A 
ATOM     96  F   UNL A   1      47.441  34.266  31.517  1.00  0.00    -0.200 F 
ATOM     97  F   UNL A   1      47.502  36.226  29.622  1.00  0.00    -0.200 F 
ENDBRANCH  64  87
ENDBRANCH  38  39
ENDBRANCH  30  33
ENDBRANCH  28  29
ENDBRANCH  27  28
ENDBRANCH  26  27
ENDBRANCH   3  26
TORSDOF 15
ENDMDL
MODEL 3
REMARK VINA RESULT:     -12.0      0.790      7.354
REMARK SMILES [NH3+]C1CC[NH+](CC(=O)N2CCO[C@H](CC(=O)NCCCNC(=O)c3ccc(-c4c5nc(c(-c6c(F)c(F)c(F)c(F)c6F)c6ccc([nH]6)c(-c6c(F)c(F)c(F)c(F)c6F)c6nc(c(-c7c(F)c(F)c(F)c(F)c7F)c7ccc4[nH]7)C=C6)C=C5)cc3)C2)CC1
REMARK SMILES IDX 15 1 16 2 17 3 14 5 13 6 9 7 10 8 87 9 11 10 12 11 7 12 8 13
REMARK SMILES IDX 6 14 5 15 2 16 3 17 89 18 4 19 88 20 1 22 18 26 19 27 20 28
REMARK SMILES IDX 21 29 22 30 23 32 24 33 25 34 86 35 26 36 85 37 27 38 28 39
REMARK SMILES IDX 29 40 79 41 30 42 84 43 78 44 80 45 31 46 83 47 77 48 76 49
REMARK SMILES IDX 32 51 64 52 44 53 63 54 45 55 48 56 62 57 81 58 46 59 47 60
REMARK SMILES IDX 61 62 82 63 49 64 33 65 34 66 42 67 35 68 36 69 40 70 43 71
REMARK SMILES IDX 37 72 38 73 41 74 39 75 65 76 66 77 74 78 67 79 68 80 72 81
REMARK SMILES IDX 75 82 69 83 70 84 73 85 71 86 50 87 51 88 59 89 52 90 53 91
REMARK SMILES IDX 57 92 60 93 54 94 55 95 58 96 56 97
REMARK H PARENT 17 4 5 21 1 23 1 24 1 25 21 31 80 50 48 61
REMARK Flexibility Score: inf
ROOT
ATOM      1  C   UNL A   1      32.879  29.255  24.451  1.00  0.00     0.222 C 
ATOM      2  O   UNL A   1      33.278  29.328  23.290  1.00  0.00    -0.275 OA
ATOM      3  N   UNL A   1      31.880  30.076  24.869  1.00  0.00    -0.356 N 
ATOM      4  H   UNL A   1      31.387  30.559  24.165  1.00  0.00     0.163 HD
ENDROOT
BRANCH   1   5
ATOM      5  C   UNL A   1      33.468  28.265  25.419  1.00  0.00     0.133 C 
BRANCH   5   6
ATOM      6  C   UNL A   1      32.853  26.866  25.283  1.00  0.00     0.147 C 
ATOM      7  N   UNL A   1      32.798  25.061  23.515  1.00  0.00    -0.333 N 
ATOM      8  C   UNL A   1      31.337  25.118  23.540  1.00  0.00     0.148 C 
ATOM      9  C   UNL A   1      33.447  26.250  24.021  1.00  0.00     0.152 C 
ATOM     10  C   UNL A   1      30.823  25.708  24.858  1.00  0.00     0.182 C 
ATOM     11  O   UNL A   1      31.423  26.989  25.127  1.00  0.00    -0.374 OA
BRANCH   7  12
ATOM     12  C   UNL A   1      33.432  24.261  22.559  1.00  0.00     0.277 C 
ATOM     13  O   UNL A   1      33.277  24.469  21.352  1.00  0.00    -0.268 OA
BRANCH  12  14
ATOM     14  C   UNL A   1      34.230  23.039  23.057  1.00  0.00     0.363 C 
BRANCH  14  15
ATOM     15  N   UNL A   1      33.686  22.296  24.195  1.00  0.00    -0.327 N 
ATOM     16  C   UNL A   1      33.550  19.409  24.826  1.00  0.00     0.192 C 
ATOM     17  C   UNL A   1      32.626  20.072  23.796  1.00  0.00     0.126 C 
ATOM     18  C   UNL A   1      34.825  20.228  25.002  1.00  0.00     0.126 C 
ATOM     19  C   UNL A   1      32.436  21.573  24.021  1.00  0.00     0.268 C 
ATOM     20  C   UNL A   1      34.565  21.722  25.197  1.00  0.00     0.268 C 
ATOM     21  H   UNL A   1      33.422  23.164  24.660  1.00  0.00     0.348 HD
BRANCH  16  22
ATOM     22  N   UNL A   1      32.903  19.212  26.124  1.00  0.00    -0.355 N 
ATOM     23  H   UNL A   1      32.106  19.844  26.206  1.00  0.00     0.344 HD
ATOM     24  H   UNL A   1      33.570  19.408  26.870  1.00  0.00     0.344 HD
ATOM     25  H   UNL A   1      32.581  18.247  26.201  1.00  0.00     0.344 HD
ENDBRANCH  16  22
ENDBRANCH  14  15
ENDBRANCH  12  14
ENDBRANCH   7  12
ENDBRANCH   5   6
ENDBRANCH   1   5
BRANCH   3  26
ATOM     26  C   UNL A   1      31.456  30.323  26.234  1.00  0.00     0.117 C 
BRANCH  26  27
ATOM     27  C   UNL A   1      31.358  31.818  26.502  1.00  0.00     0.042 C 
BRANCH  27  28
ATOM     28  C   UNL A   1      32.689  32.426  26.903  1.00  0.00     0.118 C 
BRANCH  28  29
ATOM     29  N   UNL A   1      32.532  33.811  27.307  1.00  0.00    -0.352 N 
ATOM     30  C   UNL A   1      33.055  34.462  28.394  1.00  0.00     0.251 C 
ATOM     31  H   UNL A   1      31.968  34.362  26.717  1.00  0.00     0.163 HD
ATOM     32  O   UNL A   1      32.567  35.530  28.751  1.00  0.00    -0.269 OA
BRANCH  30  33
ATOM     33  C   UNL A   1      34.207  33.897  29.133  1.00  0.00     0.039 A 
ATOM     34  C   UNL A   1      35.499  34.279  28.761  1.00  0.00     0.014 A 
ATOM     35  C   UNL A   1      34.031  32.925  30.124  1.00  0.00     0.014 A 
ATOM     36  C   UNL A   1      36.606  33.692  29.378  1.00  0.00     0.010 A 
ATOM     37  C   UNL A   1      35.129  32.416  30.809  1.00  0.00     0.010 A 
ATOM     38  C   UNL A   1      36.428  32.755  30.408  1.00  0.00    -0.014 A 
BRANCH  38  39
ATOM     39  C   UNL A   1      37.577  32.024  30.996  1.00  0.00     0.031 A 
ATOM     40  C   UNL A   1      38.035  32.376  32.389  1.00  0.00     0.074 A 
ATOM     41  C   UNL A   1      38.228  31.087  30.283  1.00  0.00     0.049 A 
ATOM     42  N   UNL A   1      39.079  31.951  33.054  1.00  0.00    -0.248 NA
ATOM     43  C   UNL A   1      37.228  33.369  33.119  1.00  0.00     0.031 C 
ATOM     44  C   UNL A   1      37.902  30.684  28.915  1.00  0.00     0.029 A 
ATOM     45  N   UNL A   1      39.310  30.311  30.612  1.00  0.00    -0.354 N 
ATOM     46  C   UNL A   1      39.068  32.646  34.257  1.00  0.00     0.074 A 
ATOM     47  C   UNL A   1      37.948  33.558  34.214  1.00  0.00     0.031 C 
ATOM     48  C   UNL A   1      38.756  29.722  28.527  1.00  0.00     0.029 A 
ATOM     49  C   UNL A   1      39.705  29.463  29.606  1.00  0.00     0.049 A 
ATOM     50  H   UNL A   1      39.761  30.356  31.486  1.00  0.00     0.167 HD
ATOM     51  C   UNL A   1      39.900  32.516  35.317  1.00  0.00     0.037 A 
ATOM     52  C   UNL A   1      40.721  28.581  29.565  1.00  0.00     0.037 A 
ATOM     53  C   UNL A   1      40.980  31.568  35.381  1.00  0.00     0.049 A 
ATOM     54  C   UNL A   1      41.599  28.418  30.777  1.00  0.00     0.074 A 
ATOM     55  C   UNL A   1      41.867  31.335  36.415  1.00  0.00     0.029 A 
ATOM     56  N   UNL A   1      41.300  30.678  34.367  1.00  0.00    -0.354 N 
ATOM     57  N   UNL A   1      41.564  29.064  31.917  1.00  0.00    -0.248 NA
ATOM     58  C   UNL A   1      42.650  27.394  30.701  1.00  0.00     0.031 C 
ATOM     59  C   UNL A   1      42.735  30.310  36.023  1.00  0.00     0.029 A 
ATOM     60  C   UNL A   1      42.365  29.885  34.756  1.00  0.00     0.049 A 
ATOM     61  H   UNL A   1      40.839  30.619  33.499  1.00  0.00     0.167 HD
ATOM     62  C   UNL A   1      42.561  28.504  32.703  1.00  0.00     0.074 A 
ATOM     63  C   UNL A   1      43.178  27.458  31.915  1.00  0.00     0.031 C 
ATOM     64  C   UNL A   1      42.938  28.829  33.964  1.00  0.00     0.037 A 
BRANCH  51  65
ATOM     65  C   UNL A   1      39.660  33.402  36.503  1.00  0.00     0.064 A 
ATOM     66  C   UNL A   1      40.267  34.663  36.608  1.00  0.00     0.173 A 
ATOM     67  C   UNL A   1      38.788  33.006  37.527  1.00  0.00     0.173 A 
ATOM     68  F   UNL A   1      41.122  35.082  35.663  1.00  0.00    -0.203 F 
ATOM     69  C   UNL A   1      40.028  35.483  37.707  1.00  0.00     0.198 A 
ATOM     70  C   UNL A   1      38.530  33.841  38.612  1.00  0.00     0.198 A 
ATOM     71  F   UNL A   1      38.180  31.811  37.474  1.00  0.00    -0.203 F 
ATOM     72  F   UNL A   1      40.654  36.664  37.809  1.00  0.00    -0.200 F 
ATOM     73  C   UNL A   1      39.155  35.075  38.704  1.00  0.00     0.200 A 
ATOM     74  F   UNL A   1      37.678  33.449  39.569  1.00  0.00    -0.200 F 
ATOM     75  F   UNL A   1      38.920  35.869  39.757  1.00  0.00    -0.200 F 
ENDBRANCH  51  65
BRANCH  52  76
ATOM     76  C   UNL A   1      40.944  27.758  28.348  1.00  0.00     0.064 A 
ATOM     77  C   UNL A   1      40.323  26.510  28.200  1.00  0.00     0.173 A 
ATOM     78  C   UNL A   1      41.792  28.192  27.320  1.00  0.00     0.173 A 
ATOM     79  F   UNL A   1      39.517  26.044  29.167  1.00  0.00    -0.203 F 
ATOM     80  C   UNL A   1      40.563  25.715  27.081  1.00  0.00     0.198 A 
ATOM     81  C   UNL A   1      42.010  27.408  26.189  1.00  0.00     0.198 A 
ATOM     82  F   UNL A   1      42.403  29.383  27.410  1.00  0.00    -0.203 F 
ATOM     83  F   UNL A   1      39.995  24.505  26.989  1.00  0.00    -0.200 F 
ATOM     84  C   UNL A   1      41.404  26.166  26.076  1.00  0.00     0.200 A 
ATOM     85  F   UNL A   1      42.813  27.852  25.213  1.00  0.00    -0.200 F 
ATOM     86  F   UNL A   1      41.636  25.400  25.001  1.00  0.00    -0.200 F 
ENDBRANCH  52  76
BRANCH  64  87
ATOM     87  C   UNL A   1      44.027  28.010  34.587  1.00  0.00     0.064 A 
ATOM     88  C   UNL A   1      45.370  28.409  34.529  1.00  0.00     0.173 A 
ATOM     89  C   UNL A   1      43.714  26.837  35.287  1.00  0.00     0.173 A 
ATOM     90  F   UNL A   1      45.716  29.518  33.858  1.00  0.00    -0.203 F 
ATOM     91  C   UNL A   1      46.364  27.646  35.132  1.00  0.00     0.198 A 
ATOM     92  C   UNL A   1      44.709  26.090  35.911  1.00  0.00     0.198 A 
ATOM     93  F   UNL A   1      42.442  26.421  35.376  1.00  0.00    -0.203 F 
ATOM     94  F   UNL A   1      47.648  28.023  35.031  1.00  0.00    -0.200 F 
ATOM     95  C   UNL A   1      46.034  26.492  35.828  1.00  0.00     0.200 A 
ATOM     96  F   UNL A   1      44.387  24.982  36.591  1.00  0.00    -0.200 F 
ATOM     97  F   UNL A   1      46.994  25.763  36.411  1.00  0.00    -0.200 F 
ENDBRANCH  64  87
ENDBRANCH  38  39
ENDBRANCH  30  33
ENDBRANCH  28  29
ENDBRANCH  27  28
ENDBRANCH  26  27
ENDBRANCH   3  26
TORSDOF 15
ENDMDL
