MODEL 1
REMARK VINA RESULT:     -10.5      0.000      0.000
REMARK SMILES C=CCN(CC(=O)NCCCNC(=O)c1ccc(-c2c3nc(c(-c4c(F)c(F)c(F)c(F)c4F)c4ccc([nH]4)c(-c4c(F)c(F)c(F)c(F)c4F)c4nc(c(-c5c(F)c(F)c(F)c(F)c5F)c5ccc2[nH]5)C=C4)C=C3)cc1)C(=O)c1ccc(C[NH3+])cc1
REMARK SMILES IDX 6 1 7 2 8 3 5 5 4 6 3 7 2 8 1 9 78 10 79 11 80 12 81 13
REMARK SMILES IDX 87 14 82 15 86 16 83 17 84 18 85 19 9 23 10 24 11 25 12 26
REMARK SMILES IDX 13 27 14 29 15 30 16 31 77 32 17 33 76 34 18 35 19 36 20 37
REMARK SMILES IDX 70 38 21 39 75 40 69 41 71 42 22 43 74 44 68 45 67 46 23 48
REMARK SMILES IDX 55 49 35 50 54 51 36 52 39 53 53 54 72 55 37 56 38 57 52 59
REMARK SMILES IDX 73 60 40 61 24 62 25 63 33 64 26 65 27 66 31 67 34 68 28 69
REMARK SMILES IDX 29 70 32 71 30 72 56 73 57 74 65 75 58 76 59 77 63 78 66 79
REMARK SMILES IDX 60 80 61 81 64 82 62 83 41 84 42 85 50 86 43 87 44 88 48 89
REMARK SMILES IDX 51 90 45 91 46 92 49 93 47 94
REMARK H PARENT 8 4 85 20 85 21 85 22 12 28 71 47 39 58
REMARK Flexibility Score: inf
ROOT
ATOM      1  C   UNL A   1      32.001  23.572  26.154  1.00  0.00     0.239 C 
ATOM      2  O   UNL A   1      31.467  23.790  27.248  1.00  0.00    -0.273 OA
ATOM      3  N   UNL A   1      33.270  23.076  26.195  1.00  0.00    -0.354 N 
ATOM      4  H   UNL A   1      33.731  23.203  27.057  1.00  0.00     0.163 HD
ENDROOT
BRANCH   1   5
ATOM      5  C   UNL A   1      31.191  23.732  24.853  1.00  0.00     0.220 C 
BRANCH   5   6
ATOM      6  N   UNL A   1      31.070  25.082  24.288  1.00  0.00    -0.326 N 
BRANCH   6   7
ATOM      7  C   UNL A   1      31.694  25.342  22.995  1.00  0.00     0.147 C 
BRANCH   7   8
ATOM      8  C   UNL A   1      33.187  25.372  23.121  1.00  0.00    -0.014 C 
ATOM      9  C   UNL A   1      33.833  26.187  23.967  1.00  0.00     0.006 C 
ENDBRANCH   7   8
ENDBRANCH   6   7
BRANCH   6  10
ATOM     10  C   UNL A   1      30.286  26.100  24.847  1.00  0.00     0.254 C 
ATOM     11  O   UNL A   1      29.057  26.075  24.858  1.00  0.00    -0.269 OA
BRANCH  10  12
ATOM     12  C   UNL A   1      30.933  27.275  25.469  1.00  0.00     0.040 A 
ATOM     13  C   UNL A   1      31.064  28.449  24.722  1.00  0.00     0.014 A 
ATOM     14  C   UNL A   1      31.512  27.187  26.736  1.00  0.00     0.014 A 
ATOM     15  C   UNL A   1      31.730  29.552  25.267  1.00  0.00     0.010 A 
ATOM     16  C   UNL A   1      32.155  28.297  27.289  1.00  0.00     0.010 A 
ATOM     17  C   UNL A   1      32.265  29.492  26.563  1.00  0.00     0.006 A 
BRANCH  17  18
ATOM     18  C   UNL A   1      33.001  30.673  27.144  1.00  0.00     0.295 C 
BRANCH  18  19
ATOM     19  N   UNL A   1      34.035  30.241  28.074  1.00  0.00    -0.354 N 
ATOM     20  H   UNL A   1      34.949  30.527  27.722  1.00  0.00     0.344 HD
ATOM     21  H   UNL A   1      34.008  29.224  28.164  1.00  0.00     0.344 HD
ATOM     22  H   UNL A   1      33.873  30.667  28.986  1.00  0.00     0.344 HD
ENDBRANCH  18  19
ENDBRANCH  17  18
ENDBRANCH  10  12
ENDBRANCH   6  10
ENDBRANCH   5   6
ENDBRANCH   1   5
BRANCH   3  23
ATOM     23  C   UNL A   1      34.056  22.394  25.187  1.00  0.00     0.117 C 
BRANCH  23  24
ATOM     24  C   UNL A   1      35.385  23.068  24.862  1.00  0.00     0.042 C 
BRANCH  24  25
ATOM     25  C   UNL A   1      36.308  23.304  26.055  1.00  0.00     0.118 C 
BRANCH  25  26
ATOM     26  N   UNL A   1      37.485  22.450  26.043  1.00  0.00    -0.352 N 
ATOM     27  C   UNL A   1      38.807  22.714  26.285  1.00  0.00     0.251 C 
ATOM     28  H   UNL A   1      37.298  21.509  25.821  1.00  0.00     0.163 HD
ATOM     29  O   UNL A   1      39.635  21.830  26.043  1.00  0.00    -0.269 OA
BRANCH  27  30
ATOM     30  C   UNL A   1      39.280  24.016  26.812  1.00  0.00     0.039 A 
ATOM     31  C   UNL A   1      38.983  24.336  28.143  1.00  0.00     0.014 A 
ATOM     32  C   UNL A   1      39.930  24.961  26.013  1.00  0.00     0.014 A 
ATOM     33  C   UNL A   1      39.375  25.564  28.680  1.00  0.00     0.010 A 
ATOM     34  C   UNL A   1      40.383  26.160  26.567  1.00  0.00     0.010 A 
ATOM     35  C   UNL A   1      40.105  26.479  27.906  1.00  0.00    -0.014 A 
BRANCH  35  36
ATOM     36  C   UNL A   1      40.579  27.762  28.489  1.00  0.00     0.031 A 
ATOM     37  C   UNL A   1      42.030  27.960  28.836  1.00  0.00     0.074 A 
ATOM     38  C   UNL A   1      39.692  28.743  28.744  1.00  0.00     0.049 A 
ATOM     39  N   UNL A   1      42.619  29.001  29.373  1.00  0.00    -0.248 NA
ATOM     40  C   UNL A   1      42.936  26.833  28.566  1.00  0.00     0.031 C 
ATOM     41  C   UNL A   1      38.251  28.661  28.500  1.00  0.00     0.029 A 
ATOM     42  N   UNL A   1      39.868  29.999  29.271  1.00  0.00    -0.354 N 
ATOM     43  C   UNL A   1      43.954  28.649  29.516  1.00  0.00     0.074 A 
ATOM     44  C   UNL A   1      44.082  27.284  29.053  1.00  0.00     0.031 C 
ATOM     45  C   UNL A   1      37.679  29.822  28.854  1.00  0.00     0.029 A 
ATOM     46  C   UNL A   1      38.704  30.719  29.378  1.00  0.00     0.049 A 
ATOM     47  H   UNL A   1      40.745  30.349  29.546  1.00  0.00     0.167 HD
ATOM     48  C   UNL A   1      44.984  29.403  29.974  1.00  0.00     0.037 A 
ATOM     49  C   UNL A   1      38.486  31.963  29.845  1.00  0.00     0.037 A 
ATOM     50  C   UNL A   1      44.863  30.770  30.411  1.00  0.00     0.049 A 
ATOM     51  C   UNL A   1      39.648  32.783  30.332  1.00  0.00     0.074 A 
ATOM     52  C   UNL A   1      45.859  31.633  30.835  1.00  0.00     0.029 A 
ATOM     53  N   UNL A   1      43.670  31.474  30.480  1.00  0.00    -0.354 N 
ATOM     54  N   UNL A   1      40.917  32.464  30.397  1.00  0.00    -0.248 NA
ATOM     55  C   UNL A   1      39.348  34.143  30.802  1.00  0.00     0.031 C 
ATOM     56  C   UNL A   1      45.264  32.847  31.197  1.00  0.00     0.029 A 
ATOM     57  C   UNL A   1      43.903  32.755  30.954  1.00  0.00     0.049 A 
ATOM     58  H   UNL A   1      42.788  31.117  30.228  1.00  0.00     0.167 HD
ATOM     59  C   UNL A   1      41.570  33.587  30.884  1.00  0.00     0.074 A 
ATOM     60  C   UNL A   1      40.558  34.603  31.087  1.00  0.00     0.031 C 
ATOM     61  C   UNL A   1      42.890  33.760  31.141  1.00  0.00     0.037 A 
BRANCH  48  62
ATOM     62  C   UNL A   1      46.343  28.765  30.022  1.00  0.00     0.064 A 
ATOM     63  C   UNL A   1      47.273  28.943  28.988  1.00  0.00     0.173 A 
ATOM     64  C   UNL A   1      46.736  28.005  31.134  1.00  0.00     0.173 A 
ATOM     65  F   UNL A   1      46.945  29.652  27.898  1.00  0.00    -0.203 F 
ATOM     66  C   UNL A   1      48.538  28.360  29.052  1.00  0.00     0.198 A 
ATOM     67  C   UNL A   1      48.010  27.448  31.208  1.00  0.00     0.198 A 
ATOM     68  F   UNL A   1      45.888  27.812  32.156  1.00  0.00    -0.203 F 
ATOM     69  F   UNL A   1      49.393  28.505  28.032  1.00  0.00    -0.200 F 
ATOM     70  C   UNL A   1      48.906  27.619  30.164  1.00  0.00     0.200 A 
ATOM     71  F   UNL A   1      48.371  26.744  32.290  1.00  0.00    -0.200 F 
ATOM     72  F   UNL A   1      50.125  27.066  30.228  1.00  0.00    -0.200 F 
ENDBRANCH  48  62
BRANCH  49  73
ATOM     73  C   UNL A   1      37.111  32.524  29.838  1.00  0.00     0.064 A 
ATOM     74  C   UNL A   1      36.261  32.351  30.939  1.00  0.00     0.173 A 
ATOM     75  C   UNL A   1      36.621  33.243  28.740  1.00  0.00     0.173 A 
ATOM     76  F   UNL A   1      36.678  31.653  32.004  1.00  0.00    -0.203 F 
ATOM     77  C   UNL A   1      34.964  32.861  30.933  1.00  0.00     0.198 A 
ATOM     78  C   UNL A   1      35.334  33.775  28.745  1.00  0.00     0.198 A 
ATOM     79  F   UNL A   1      37.398  33.439  27.665  1.00  0.00    -0.203 F 
ATOM     80  F   UNL A   1      34.157  32.646  31.981  1.00  0.00    -0.200 F 
ATOM     81  C   UNL A   1      34.504  33.579  29.839  1.00  0.00     0.200 A 
ATOM     82  F   UNL A   1      34.896  34.479  27.692  1.00  0.00    -0.200 F 
ATOM     83  F   UNL A   1      33.259  34.073  29.836  1.00  0.00    -0.200 F 
ENDBRANCH  49  73
BRANCH  61  84
ATOM     84  C   UNL A   1      43.322  35.110  31.633  1.00  0.00     0.064 A 
ATOM     85  C   UNL A   1      43.663  36.144  30.749  1.00  0.00     0.173 A 
ATOM     86  C   UNL A   1      43.365  35.382  33.010  1.00  0.00     0.173 A 
ATOM     87  F   UNL A   1      43.653  35.929  29.424  1.00  0.00    -0.203 F 
ATOM     88  C   UNL A   1      44.057  37.392  31.225  1.00  0.00     0.198 A 
ATOM     89  C   UNL A   1      43.732  36.639  33.482  1.00  0.00     0.198 A 
ATOM     90  F   UNL A   1      43.043  34.429  33.898  1.00  0.00    -0.203 F 
ATOM     91  F   UNL A   1      44.424  38.349  30.363  1.00  0.00    -0.200 F 
ATOM     92  C   UNL A   1      44.085  37.640  32.589  1.00  0.00     0.200 A 
ATOM     93  F   UNL A   1      43.748  36.881  34.800  1.00  0.00    -0.200 F 
ATOM     94  F   UNL A   1      44.460  38.843  33.045  1.00  0.00    -0.200 F 
ENDBRANCH  61  84
ENDBRANCH  35  36
ENDBRANCH  27  30
ENDBRANCH  25  26
ENDBRANCH  24  25
ENDBRANCH  23  24
ENDBRANCH   3  23
TORSDOF 17
ENDMDL
MODEL 2
REMARK VINA RESULT:     -10.4      3.875      8.810
REMARK SMILES C=CCN(CC(=O)NCCCNC(=O)c1ccc(-c2c3nc(c(-c4c(F)c(F)c(F)c(F)c4F)c4ccc([nH]4)c(-c4c(F)c(F)c(F)c(F)c4F)c4nc(c(-c5c(F)c(F)c(F)c(F)c5F)c5ccc2[nH]5)C=C4)C=C3)cc1)C(=O)c1ccc(C[NH3+])cc1
REMARK SMILES IDX 6 1 7 2 8 3 5 5 4 6 3 7 2 8 1 9 78 10 79 11 80 12 81 13
REMARK SMILES IDX 87 14 82 15 86 16 83 17 84 18 85 19 9 23 10 24 11 25 12 26
REMARK SMILES IDX 13 27 14 29 15 30 16 31 77 32 17 33 76 34 18 35 19 36 20 37
REMARK SMILES IDX 70 38 21 39 75 40 69 41 71 42 22 43 74 44 68 45 67 46 23 48
REMARK SMILES IDX 55 49 35 50 54 51 36 52 39 53 53 54 72 55 37 56 38 57 52 59
REMARK SMILES IDX 73 60 40 61 24 62 25 63 33 64 26 65 27 66 31 67 34 68 28 69
REMARK SMILES IDX 29 70 32 71 30 72 56 73 57 74 65 75 58 76 59 77 63 78 66 79
REMARK SMILES IDX 60 80 61 81 64 82 62 83 41 84 42 85 50 86 43 87 44 88 48 89
REMARK SMILES IDX 51 90 45 91 46 92 49 93 47 94
REMARK H PARENT 8 4 85 20 85 21 85 22 12 28 71 47 39 58
REMARK Flexibility Score: inf
ROOT
ATOM      1  C   UNL A   1      31.173  24.479  26.276  1.00  0.00     0.239 C 
ATOM      2  O   UNL A   1      31.291  23.725  27.248  1.00  0.00    -0.273 OA
ATOM      3  N   UNL A   1      31.416  25.800  26.509  1.00  0.00    -0.354 N 
ATOM      4  H   UNL A   1      31.384  26.060  27.459  1.00  0.00     0.163 HD
ENDROOT
BRANCH   1   5
ATOM      5  C   UNL A   1      30.905  23.897  24.874  1.00  0.00     0.220 C 
BRANCH   5   6
ATOM      6  N   UNL A   1      32.025  23.250  24.180  1.00  0.00    -0.326 N 
BRANCH   6   7
ATOM      7  C   UNL A   1      31.886  21.843  23.818  1.00  0.00     0.147 C 
BRANCH   7   8
ATOM      8  C   UNL A   1      32.246  20.958  24.973  1.00  0.00    -0.014 C 
ATOM      9  C   UNL A   1      33.274  20.098  24.943  1.00  0.00     0.006 C 
ENDBRANCH   7   8
ENDBRANCH   6   7
BRANCH   6  10
ATOM     10  C   UNL A   1      33.164  23.927  23.727  1.00  0.00     0.254 C 
ATOM     11  O   UNL A   1      33.124  24.835  22.899  1.00  0.00    -0.269 OA
BRANCH  10  12
ATOM     12  C   UNL A   1      34.499  23.565  24.252  1.00  0.00     0.040 A 
ATOM     13  C   UNL A   1      35.457  23.057  23.370  1.00  0.00     0.014 A 
ATOM     14  C   UNL A   1      34.767  23.613  25.621  1.00  0.00     0.014 A 
ATOM     15  C   UNL A   1      36.703  22.646  23.856  1.00  0.00     0.010 A 
ATOM     16  C   UNL A   1      36.020  23.227  26.101  1.00  0.00     0.010 A 
ATOM     17  C   UNL A   1      37.003  22.746  25.223  1.00  0.00     0.006 A 
BRANCH  17  18
ATOM     18  C   UNL A   1      38.339  22.286  25.751  1.00  0.00     0.295 C 
BRANCH  18  19
ATOM     19  N   UNL A   1      39.146  23.416  26.190  1.00  0.00    -0.354 N 
ATOM     20  H   UNL A   1      40.135  23.190  26.081  1.00  0.00     0.344 HD
ATOM     21  H   UNL A   1      38.948  23.613  27.172  1.00  0.00     0.344 HD
ATOM     22  H   UNL A   1      38.919  24.235  25.626  1.00  0.00     0.344 HD
ENDBRANCH  18  19
ENDBRANCH  17  18
ENDBRANCH  10  12
ENDBRANCH   6  10
ENDBRANCH   5   6
ENDBRANCH   1   5
BRANCH   3  23
ATOM     23  C   UNL A   1      31.712  26.886  25.598  1.00  0.00     0.117 C 
BRANCH  23  24
ATOM     24  C   UNL A   1      31.776  28.261  26.255  1.00  0.00     0.042 C 
BRANCH  24  25
ATOM     25  C   UNL A   1      32.830  29.209  25.687  1.00  0.00     0.118 C 
BRANCH  25  26
ATOM     26  N   UNL A   1      32.613  30.596  26.066  1.00  0.00    -0.352 N 
ATOM     27  C   UNL A   1      33.220  31.393  27.000  1.00  0.00     0.251 C 
ATOM     28  H   UNL A   1      31.900  31.046  25.558  1.00  0.00     0.163 HD
ATOM     29  O   UNL A   1      32.726  32.499  27.236  1.00  0.00    -0.269 OA
BRANCH  27  30
ATOM     30  C   UNL A   1      34.433  30.975  27.743  1.00  0.00     0.039 A 
ATOM     31  C   UNL A   1      35.443  31.924  27.945  1.00  0.00     0.014 A 
ATOM     32  C   UNL A   1      34.639  29.660  28.169  1.00  0.00     0.014 A 
ATOM     33  C   UNL A   1      36.622  31.574  28.607  1.00  0.00     0.010 A 
ATOM     34  C   UNL A   1      35.786  29.326  28.893  1.00  0.00     0.010 A 
ATOM     35  C   UNL A   1      36.794  30.277  29.114  1.00  0.00    -0.014 A 
BRANCH  35  36
ATOM     36  C   UNL A   1      38.019  29.914  29.876  1.00  0.00     0.031 A 
ATOM     37  C   UNL A   1      38.240  30.432  31.271  1.00  0.00     0.074 A 
ATOM     38  C   UNL A   1      38.958  29.143  29.293  1.00  0.00     0.049 A 
ATOM     39  N   UNL A   1      39.257  30.239  32.075  1.00  0.00    -0.248 NA
ATOM     40  C   UNL A   1      37.191  31.299  31.830  1.00  0.00     0.031 C 
ATOM     41  C   UNL A   1      38.889  28.617  27.929  1.00  0.00     0.029 A 
ATOM     42  N   UNL A   1      40.158  28.675  29.769  1.00  0.00    -0.354 N 
ATOM     43  C   UNL A   1      38.978  30.969  33.223  1.00  0.00     0.074 A 
ATOM     44  C   UNL A   1      37.718  31.645  32.995  1.00  0.00     0.031 C 
ATOM     45  C   UNL A   1      39.984  27.879  27.687  1.00  0.00     0.029 A 
ATOM     46  C   UNL A   1      40.846  27.906  28.864  1.00  0.00     0.049 A 
ATOM     47  H   UNL A   1      40.492  28.872  30.674  1.00  0.00     0.167 HD
ATOM     48  C   UNL A   1      39.696  31.052  34.369  1.00  0.00     0.037 A 
ATOM     49  C   UNL A   1      42.039  27.290  28.970  1.00  0.00     0.037 A 
ATOM     50  C   UNL A   1      40.936  30.359  34.607  1.00  0.00     0.049 A 
ATOM     51  C   UNL A   1      42.807  27.385  30.259  1.00  0.00     0.074 A 
ATOM     52  C   UNL A   1      41.705  30.335  35.757  1.00  0.00     0.029 A 
ATOM     53  N   UNL A   1      41.589  29.568  33.674  1.00  0.00    -0.354 N 
ATOM     54  N   UNL A   1      42.498  28.021  31.362  1.00  0.00    -0.248 NA
ATOM     55  C   UNL A   1      44.088  26.666  30.320  1.00  0.00     0.031 C 
ATOM     56  C   UNL A   1      42.844  29.560  35.508  1.00  0.00     0.029 A 
ATOM     57  C   UNL A   1      42.760  29.064  34.218  1.00  0.00     0.049 A 
ATOM     58  H   UNL A   1      41.268  29.390  32.760  1.00  0.00     0.167 HD
ATOM     59  C   UNL A   1      43.526  27.757  32.256  1.00  0.00     0.074 A 
ATOM     60  C   UNL A   1      44.464  26.892  31.572  1.00  0.00     0.031 C 
ATOM     61  C   UNL A   1      43.679  28.194  33.530  1.00  0.00     0.037 A 
BRANCH  48  62
ATOM     62  C   UNL A   1      39.154  31.924  35.466  1.00  0.00     0.064 A 
ATOM     63  C   UNL A   1      38.351  31.400  36.489  1.00  0.00     0.173 A 
ATOM     64  C   UNL A   1      39.477  33.288  35.519  1.00  0.00     0.173 A 
ATOM     65  F   UNL A   1      38.004  30.104  36.480  1.00  0.00    -0.203 F 
ATOM     66  C   UNL A   1      37.868  32.216  37.511  1.00  0.00     0.198 A 
ATOM     67  C   UNL A   1      39.018  34.094  36.557  1.00  0.00     0.198 A 
ATOM     68  F   UNL A   1      40.250  33.837  34.570  1.00  0.00    -0.203 F 
ATOM     69  F   UNL A   1      37.065  31.703  38.453  1.00  0.00    -0.200 F 
ATOM     70  C   UNL A   1      38.208  33.559  37.547  1.00  0.00     0.200 A 
ATOM     71  F   UNL A   1      39.357  35.390  36.599  1.00  0.00    -0.200 F 
ATOM     72  F   UNL A   1      37.749  34.341  38.535  1.00  0.00    -0.200 F 
ENDBRANCH  48  62
BRANCH  49  73
ATOM     73  C   UNL A   1      42.563  26.494  27.831  1.00  0.00     0.064 A 
ATOM     74  C   UNL A   1      43.268  27.111  26.789  1.00  0.00     0.173 A 
ATOM     75  C   UNL A   1      42.374  25.107  27.762  1.00  0.00     0.173 A 
ATOM     76  F   UNL A   1      43.455  28.439  26.801  1.00  0.00    -0.203 F 
ATOM     77  C   UNL A   1      43.748  26.373  25.709  1.00  0.00     0.198 A 
ATOM     78  C   UNL A   1      42.878  24.366  26.695  1.00  0.00     0.198 A 
ATOM     79  F   UNL A   1      41.710  24.469  28.737  1.00  0.00    -0.203 F 
ATOM     80  F   UNL A   1      44.382  26.994  24.705  1.00  0.00    -0.200 F 
ATOM     81  C   UNL A   1      43.559  25.000  25.666  1.00  0.00     0.200 A 
ATOM     82  F   UNL A   1      42.704  23.037  26.662  1.00  0.00    -0.200 F 
ATOM     83  F   UNL A   1      44.025  24.290  24.631  1.00  0.00    -0.200 F 
ENDBRANCH  49  73
BRANCH  61  84
ATOM     84  C   UNL A   1      44.885  27.712  34.281  1.00  0.00     0.064 A 
ATOM     85  C   UNL A   1      46.090  28.430  34.281  1.00  0.00     0.173 A 
ATOM     86  C   UNL A   1      44.824  26.531  35.037  1.00  0.00     0.173 A 
ATOM     87  F   UNL A   1      46.203  29.557  33.561  1.00  0.00    -0.203 F 
ATOM     88  C   UNL A   1      47.198  27.970  34.988  1.00  0.00     0.198 A 
ATOM     89  C   UNL A   1      45.924  26.088  35.765  1.00  0.00     0.198 A 
ATOM     90  F   UNL A   1      43.694  25.810  35.075  1.00  0.00    -0.203 F 
ATOM     91  F   UNL A   1      48.352  28.647  34.934  1.00  0.00    -0.200 F 
ATOM     92  C   UNL A   1      47.112  26.804  35.734  1.00  0.00     0.200 A 
ATOM     93  F   UNL A   1      45.837  24.967  36.495  1.00  0.00    -0.200 F 
ATOM     94  F   UNL A   1      48.178  26.365  36.417  1.00  0.00    -0.200 F 
ENDBRANCH  61  84
ENDBRANCH  35  36
ENDBRANCH  27  30
ENDBRANCH  25  26
ENDBRANCH  24  25
ENDBRANCH  23  24
ENDBRANCH   3  23
TORSDOF 17
ENDMDL
MODEL 3
REMARK VINA RESULT:     -10.4      3.983      9.042
REMARK SMILES C=CCN(CC(=O)NCCCNC(=O)c1ccc(-c2c3nc(c(-c4c(F)c(F)c(F)c(F)c4F)c4ccc([nH]4)c(-c4c(F)c(F)c(F)c(F)c4F)c4nc(c(-c5c(F)c(F)c(F)c(F)c5F)c5ccc2[nH]5)C=C4)C=C3)cc1)C(=O)c1ccc(C[NH3+])cc1
REMARK SMILES IDX 6 1 7 2 8 3 5 5 4 6 3 7 2 8 1 9 78 10 79 11 80 12 81 13
REMARK SMILES IDX 87 14 82 15 86 16 83 17 84 18 85 19 9 23 10 24 11 25 12 26
REMARK SMILES IDX 13 27 14 29 15 30 16 31 77 32 17 33 76 34 18 35 19 36 20 37
REMARK SMILES IDX 70 38 21 39 75 40 69 41 71 42 22 43 74 44 68 45 67 46 23 48
REMARK SMILES IDX 55 49 35 50 54 51 36 52 39 53 53 54 72 55 37 56 38 57 52 59
REMARK SMILES IDX 73 60 40 61 24 62 25 63 33 64 26 65 27 66 31 67 34 68 28 69
REMARK SMILES IDX 29 70 32 71 30 72 56 73 57 74 65 75 58 76 59 77 63 78 66 79
REMARK SMILES IDX 60 80 61 81 64 82 62 83 41 84 42 85 50 86 43 87 44 88 48 89
REMARK SMILES IDX 51 90 45 91 46 92 49 93 47 94
REMARK H PARENT 8 4 85 20 85 21 85 22 12 28 71 47 39 58
REMARK Flexibility Score: inf
ROOT
ATOM      1  C   UNL A   1      32.947  28.988  24.898  1.00  0.00     0.239 C 
ATOM      2  O   UNL A   1      34.077  28.674  25.290  1.00  0.00    -0.273 OA
ATOM      3  N   UNL A   1      32.272  29.885  25.672  1.00  0.00    -0.354 N 
ATOM      4  H   UNL A   1      32.620  29.977  26.589  1.00  0.00     0.163 HD
ENDROOT
BRANCH   1   5
ATOM      5  C   UNL A   1      32.432  28.479  23.537  1.00  0.00     0.220 C 
BRANCH   5   6
ATOM      6  N   UNL A   1      32.289  27.029  23.363  1.00  0.00    -0.326 N 
BRANCH   6   7
ATOM      7  C   UNL A   1      31.005  26.422  23.700  1.00  0.00     0.147 C 
BRANCH   7   8
ATOM      8  C   UNL A   1      30.852  26.291  25.185  1.00  0.00    -0.014 C 
ATOM      9  C   UNL A   1      29.889  25.555  25.759  1.00  0.00     0.006 C 
ENDBRANCH   7   8
ENDBRANCH   6   7
BRANCH   6  10
ATOM     10  C   UNL A   1      33.259  26.209  22.773  1.00  0.00     0.254 C 
ATOM     11  O   UNL A   1      33.669  26.369  21.624  1.00  0.00    -0.269 OA
BRANCH  10  12
ATOM     12  C   UNL A   1      33.849  25.090  23.539  1.00  0.00     0.040 A 
ATOM     13  C   UNL A   1      33.740  23.792  23.030  1.00  0.00     0.014 A 
ATOM     14  C   UNL A   1      34.400  25.300  24.804  1.00  0.00     0.014 A 
ATOM     15  C   UNL A   1      34.232  22.711  23.769  1.00  0.00     0.010 A 
ATOM     16  C   UNL A   1      34.914  24.222  25.528  1.00  0.00     0.010 A 
ATOM     17  C   UNL A   1      34.841  22.918  25.017  1.00  0.00     0.006 A 
BRANCH  17  18
ATOM     18  C   UNL A   1      35.355  21.752  25.823  1.00  0.00     0.295 C 
BRANCH  18  19
ATOM     19  N   UNL A   1      36.776  21.897  26.106  1.00  0.00    -0.354 N 
ATOM     20  H   UNL A   1      37.032  22.883  26.062  1.00  0.00     0.344 HD
ATOM     21  H   UNL A   1      37.316  21.373  25.416  1.00  0.00     0.344 HD
ATOM     22  H   UNL A   1      36.975  21.535  27.038  1.00  0.00     0.344 HD
ENDBRANCH  18  19
ENDBRANCH  17  18
ENDBRANCH  10  12
ENDBRANCH   6  10
ENDBRANCH   5   6
ENDBRANCH   1   5
BRANCH   3  23
ATOM     23  C   UNL A   1      31.130  30.724  25.375  1.00  0.00     0.117 C 
BRANCH  23  24
ATOM     24  C   UNL A   1      31.053  32.001  26.206  1.00  0.00     0.042 C 
BRANCH  24  25
ATOM     25  C   UNL A   1      32.356  32.421  26.881  1.00  0.00     0.118 C 
BRANCH  25  26
ATOM     26  N   UNL A   1      32.319  33.781  27.397  1.00  0.00    -0.352 N 
ATOM     27  C   UNL A   1      33.057  34.412  28.363  1.00  0.00     0.251 C 
ATOM     28  H   UNL A   1      31.638  34.353  26.975  1.00  0.00     0.163 HD
ATOM     29  O   UNL A   1      32.706  35.538  28.726  1.00  0.00    -0.269 OA
BRANCH  27  30
ATOM     30  C   UNL A   1      34.248  33.793  28.991  1.00  0.00     0.039 A 
ATOM     31  C   UNL A   1      34.043  32.781  29.938  1.00  0.00     0.014 A 
ATOM     32  C   UNL A   1      35.549  34.236  28.739  1.00  0.00     0.014 A 
ATOM     33  C   UNL A   1      35.129  32.188  30.587  1.00  0.00     0.010 A 
ATOM     34  C   UNL A   1      36.639  33.597  29.334  1.00  0.00     0.010 A 
ATOM     35  C   UNL A   1      36.442  32.570  30.271  1.00  0.00    -0.014 A 
BRANCH  35  36
ATOM     36  C   UNL A   1      37.605  31.900  30.911  1.00  0.00     0.031 A 
ATOM     37  C   UNL A   1      38.049  32.286  32.296  1.00  0.00     0.074 A 
ATOM     38  C   UNL A   1      38.290  30.964  30.226  1.00  0.00     0.049 A 
ATOM     39  N   UNL A   1      39.054  31.827  33.002  1.00  0.00    -0.248 NA
ATOM     40  C   UNL A   1      37.278  33.342  32.969  1.00  0.00     0.031 C 
ATOM     41  C   UNL A   1      37.994  30.533  28.859  1.00  0.00     0.029 A 
ATOM     42  N   UNL A   1      39.382  30.211  30.582  1.00  0.00    -0.354 N 
ATOM     43  C   UNL A   1      39.043  32.545  34.190  1.00  0.00     0.074 A 
ATOM     44  C   UNL A   1      37.960  33.501  34.093  1.00  0.00     0.031 C 
ATOM     45  C   UNL A   1      38.865  29.577  28.501  1.00  0.00     0.029 A 
ATOM     46  C   UNL A   1      39.800  29.349  29.599  1.00  0.00     0.049 A 
ATOM     47  H   UNL A   1      39.823  30.282  31.459  1.00  0.00     0.167 HD
ATOM     48  C   UNL A   1      39.848  32.407  35.270  1.00  0.00     0.037 A 
ATOM     49  C   UNL A   1      40.822  28.472  29.582  1.00  0.00     0.037 A 
ATOM     50  C   UNL A   1      40.908  31.438  35.379  1.00  0.00     0.049 A 
ATOM     51  C   UNL A   1      41.690  28.327  30.800  1.00  0.00     0.074 A 
ATOM     52  C   UNL A   1      41.739  31.183  36.456  1.00  0.00     0.029 A 
ATOM     53  N   UNL A   1      41.285  30.564  34.370  1.00  0.00    -0.354 N 
ATOM     54  N   UNL A   1      41.625  28.963  31.944  1.00  0.00    -0.248 NA
ATOM     55  C   UNL A   1      42.770  27.332  30.729  1.00  0.00     0.031 C 
ATOM     56  C   UNL A   1      42.644  30.181  36.087  1.00  0.00     0.029 A 
ATOM     57  C   UNL A   1      42.346  29.779  34.795  1.00  0.00     0.049 A 
ATOM     58  H   UNL A   1      40.860  30.508  33.483  1.00  0.00     0.167 HD
ATOM     59  C   UNL A   1      42.631  28.428  32.736  1.00  0.00     0.074 A 
ATOM     60  C   UNL A   1      43.285  27.405  31.948  1.00  0.00     0.031 C 
ATOM     61  C   UNL A   1      42.980  28.757  34.004  1.00  0.00     0.037 A 
BRANCH  48  62
ATOM     62  C   UNL A   1      39.612  33.325  36.436  1.00  0.00     0.064 A 
ATOM     63  C   UNL A   1      40.246  34.573  36.527  1.00  0.00     0.173 A 
ATOM     64  C   UNL A   1      38.708  32.972  37.449  1.00  0.00     0.173 A 
ATOM     65  F   UNL A   1      41.126  34.954  35.590  1.00  0.00    -0.203 F 
ATOM     66  C   UNL A   1      40.005  35.422  37.605  1.00  0.00     0.198 A 
ATOM     67  C   UNL A   1      38.447  33.836  38.510  1.00  0.00     0.198 A 
ATOM     68  F   UNL A   1      38.068  31.794  37.405  1.00  0.00    -0.203 F 
ATOM     69  F   UNL A   1      40.656  36.589  37.695  1.00  0.00    -0.200 F 
ATOM     70  C   UNL A   1      39.101  35.056  38.591  1.00  0.00     0.200 A 
ATOM     71  F   UNL A   1      37.564  33.487  39.456  1.00  0.00    -0.200 F 
ATOM     72  F   UNL A   1      38.864  35.878  39.623  1.00  0.00    -0.200 F 
ENDBRANCH  48  62
BRANCH  49  73
ATOM     73  C   UNL A   1      41.055  27.633  28.378  1.00  0.00     0.064 A 
ATOM     74  C   UNL A   1      41.940  28.049  27.375  1.00  0.00     0.173 A 
ATOM     75  C   UNL A   1      40.405  26.403  28.209  1.00  0.00     0.173 A 
ATOM     76  F   UNL A   1      42.569  29.228  27.483  1.00  0.00    -0.203 F 
ATOM     77  C   UNL A   1      42.151  27.275  26.236  1.00  0.00     0.198 A 
ATOM     78  C   UNL A   1      40.638  25.617  27.083  1.00  0.00     0.198 A 
ATOM     79  F   UNL A   1      39.553  25.959  29.144  1.00  0.00    -0.203 F 
ATOM     80  F   UNL A   1      42.971  27.715  25.271  1.00  0.00    -0.200 F 
ATOM     81  C   UNL A   1      41.506  26.056  26.094  1.00  0.00     0.200 A 
ATOM     82  F   UNL A   1      40.021  24.434  26.954  1.00  0.00    -0.200 F 
ATOM     83  F   UNL A   1      41.713  25.309  25.002  1.00  0.00    -0.200 F 
ENDBRANCH  49  73
BRANCH  61  84
ATOM     84  C   UNL A   1      44.097  27.976  34.633  1.00  0.00     0.064 A 
ATOM     85  C   UNL A   1      43.859  26.798  35.355  1.00  0.00     0.173 A 
ATOM     86  C   UNL A   1      45.428  28.397  34.482  1.00  0.00     0.173 A 
ATOM     87  F   UNL A   1      42.602  26.363  35.541  1.00  0.00    -0.203 F 
ATOM     88  C   UNL A   1      44.909  26.084  35.927  1.00  0.00     0.198 A 
ATOM     89  C   UNL A   1      46.477  27.666  35.031  1.00  0.00     0.198 A 
ATOM     90  F   UNL A   1      45.710  29.513  33.795  1.00  0.00    -0.203 F 
ATOM     91  F   UNL A   1      44.653  24.988  36.654  1.00  0.00    -0.200 F 
ATOM     92  C   UNL A   1      46.216  26.514  35.759  1.00  0.00     0.200 A 
ATOM     93  F   UNL A   1      47.742  28.077  34.858  1.00  0.00    -0.200 F 
ATOM     94  F   UNL A   1      47.226  25.824  36.307  1.00  0.00    -0.200 F 
ENDBRANCH  61  84
ENDBRANCH  35  36
ENDBRANCH  27  30
ENDBRANCH  25  26
ENDBRANCH  24  25
ENDBRANCH  23  24
ENDBRANCH   3  23
TORSDOF 17
ENDMDL
