MODEL 1
REMARK VINA RESULT:     -10.6      0.000      0.000
REMARK SMILES Cc1cccc(C[NH+]2CCC(OCC(=O)NCCCNC(=O)c3ccc(-c4c5nc(c(-c6c(F)c(F)c(F)c(F)c6F)c6ccc([nH]6)c(-c6c(F)c(F)c(F)c(F)c6F)c6nc(c(-c7c(F)c(F)c(F)c(F)c7F)c7ccc4[nH]7)C=C6)C=C5)cc3)CC2)n1
REMARK SMILES IDX 17 1 16 2 14 3 15 4 13 6 12 7 11 8 8 9 9 10 87 11 10 13
REMARK SMILES IDX 86 14 7 15 6 16 1 17 2 18 3 19 88 20 4 21 5 22 18 23 19 24
REMARK SMILES IDX 20 25 21 26 22 28 23 29 24 30 85 31 25 32 84 33 26 34 27 35
REMARK SMILES IDX 28 36 78 37 29 38 83 39 77 40 79 41 30 42 82 43 76 44 75 45
REMARK SMILES IDX 31 47 63 48 43 49 62 50 44 51 47 52 61 53 80 54 45 55 46 56
REMARK SMILES IDX 60 58 81 59 48 60 32 61 33 62 41 63 34 64 35 65 39 66 42 67
REMARK SMILES IDX 36 68 37 69 40 70 38 71 64 72 65 73 73 74 66 75 67 76 71 77
REMARK SMILES IDX 74 78 68 79 69 80 72 81 70 82 49 83 50 84 58 85 51 86 52 87
REMARK SMILES IDX 56 88 59 89 53 90 54 91 57 92 55 93
REMARK H PARENT 16 5 8 12 20 27 79 46 47 57
REMARK Flexibility Score: inf
ROOT
ATOM      1  C   UNL A   1      34.042  35.442  28.732  1.00  0.00     0.117 C 
ENDROOT
BRANCH   1   2
ATOM      2  N   UNL A   1      33.051  36.056  29.595  1.00  0.00    -0.354 N 
ATOM      3  C   UNL A   1      32.953  36.003  30.956  1.00  0.00     0.246 C 
ATOM      4  O   UNL A   1      32.141  36.742  31.516  1.00  0.00    -0.272 OA
ATOM      5  H   UNL A   1      32.355  36.580  29.138  1.00  0.00     0.163 HD
BRANCH   3   6
ATOM      6  C   UNL A   1      33.849  35.044  31.753  1.00  0.00     0.260 C 
BRANCH   6   7
ATOM      7  O   UNL A   1      34.509  35.555  32.899  1.00  0.00    -0.368 OA
BRANCH   7   8
ATOM      8  C   UNL A   1      35.694  34.885  33.341  1.00  0.00     0.130 C 
ATOM      9  N   UNL A   1      37.400  32.630  33.972  1.00  0.00    -0.330 N 
ATOM     10  C   UNL A   1      36.863  33.449  35.063  1.00  0.00     0.265 C 
ATOM     11  C   UNL A   1      37.649  33.436  32.771  1.00  0.00     0.265 C 
ATOM     12  H   UNL A   1      36.676  31.947  33.748  1.00  0.00     0.348 HD
ATOM     13  C   UNL A   1      35.534  34.096  34.645  1.00  0.00     0.093 C 
ATOM     14  C   UNL A   1      36.344  34.022  32.262  1.00  0.00     0.093 C 
BRANCH   9  15
ATOM     15  C   UNL A   1      38.590  31.841  34.359  1.00  0.00     0.319 C 
BRANCH  15  16
ATOM     16  C   UNL A   1      38.770  30.492  33.681  1.00  0.00     0.095 A 
ATOM     17  C   UNL A   1      41.607  28.205  33.196  1.00  0.00     0.067 C 
ATOM     18  C   UNL A   1      40.215  28.754  33.107  1.00  0.00     0.038 A 
ATOM     19  C   UNL A   1      39.166  27.997  32.605  1.00  0.00     0.023 A 
ATOM     20  N   UNL A   1      40.031  29.992  33.613  1.00  0.00    -0.252 NA
ATOM     21  C   UNL A   1      37.883  28.537  32.628  1.00  0.00     0.004 A 
ATOM     22  C   UNL A   1      37.676  29.796  33.181  1.00  0.00     0.030 A 
ENDBRANCH  15  16
ENDBRANCH   9  15
ENDBRANCH   7   8
ENDBRANCH   6   7
ENDBRANCH   3   6
ENDBRANCH   1   2
BRANCH   1  23
ATOM     23  C   UNL A   1      33.558  34.186  28.011  1.00  0.00     0.042 C 
BRANCH  23  24
ATOM     24  C   UNL A   1      34.302  32.897  28.361  1.00  0.00     0.118 C 
BRANCH  24  25
ATOM     25  N   UNL A   1      33.666  31.704  27.820  1.00  0.00    -0.352 N 
ATOM     26  C   UNL A   1      34.165  30.458  27.542  1.00  0.00     0.251 C 
ATOM     27  H   UNL A   1      32.709  31.811  27.619  1.00  0.00     0.163 HD
ATOM     28  O   UNL A   1      33.458  29.656  26.929  1.00  0.00    -0.269 OA
BRANCH  26  29
ATOM     29  C   UNL A   1      35.535  30.056  27.934  1.00  0.00     0.039 A 
ATOM     30  C   UNL A   1      36.539  30.084  26.958  1.00  0.00     0.014 A 
ATOM     31  C   UNL A   1      35.836  29.592  29.217  1.00  0.00     0.014 A 
ATOM     32  C   UNL A   1      37.849  29.721  27.285  1.00  0.00     0.010 A 
ATOM     33  C   UNL A   1      37.156  29.283  29.558  1.00  0.00     0.010 A 
ATOM     34  C   UNL A   1      38.178  29.355  28.600  1.00  0.00    -0.014 A 
BRANCH  34  35
ATOM     35  C   UNL A   1      39.589  29.088  28.989  1.00  0.00     0.031 A 
ATOM     36  C   UNL A   1      40.382  30.105  29.763  1.00  0.00     0.074 A 
ATOM     37  C   UNL A   1      40.178  27.945  28.588  1.00  0.00     0.049 A 
ATOM     38  N   UNL A   1      41.642  30.072  30.122  1.00  0.00    -0.248 NA
ATOM     39  C   UNL A   1      39.674  31.329  30.170  1.00  0.00     0.031 C 
ATOM     40  C   UNL A   1      39.532  26.892  27.802  1.00  0.00     0.029 A 
ATOM     41  N   UNL A   1      41.458  27.481  28.772  1.00  0.00    -0.354 N 
ATOM     42  C   UNL A   1      41.881  31.270  30.782  1.00  0.00     0.074 A 
ATOM     43  C   UNL A   1      40.645  32.025  30.746  1.00  0.00     0.031 C 
ATOM     44  C   UNL A   1      40.411  25.903  27.583  1.00  0.00     0.029 A 
ATOM     45  C   UNL A   1      41.694  26.266  28.178  1.00  0.00     0.049 A 
ATOM     46  H   UNL A   1      42.142  27.973  29.282  1.00  0.00     0.167 HD
ATOM     47  C   UNL A   1      43.022  31.694  31.377  1.00  0.00     0.037 A 
ATOM     48  C   UNL A   1      42.821  25.530  28.106  1.00  0.00     0.037 A 
ATOM     49  C   UNL A   1      44.243  30.931  31.441  1.00  0.00     0.049 A 
ATOM     50  C   UNL A   1      44.075  26.034  28.766  1.00  0.00     0.074 A 
ATOM     51  C   UNL A   1      45.426  31.250  32.088  1.00  0.00     0.029 A 
ATOM     52  N   UNL A   1      44.439  29.700  30.835  1.00  0.00    -0.354 N 
ATOM     53  N   UNL A   1      44.267  27.137  29.447  1.00  0.00    -0.248 NA
ATOM     54  C   UNL A   1      45.271  25.186  28.649  1.00  0.00     0.031 C 
ATOM     55  C   UNL A   1      46.352  30.234  31.835  1.00  0.00     0.029 A 
ATOM     56  C   UNL A   1      45.734  29.260  31.069  1.00  0.00     0.049 A 
ATOM     57  H   UNL A   1      43.761  29.211  30.315  1.00  0.00     0.167 HD
ATOM     58  C   UNL A   1      45.592  27.104  29.860  1.00  0.00     0.074 A 
ATOM     59  C   UNL A   1      46.154  25.864  29.367  1.00  0.00     0.031 C 
ATOM     60  C   UNL A   1      46.281  28.021  30.582  1.00  0.00     0.037 A 
BRANCH  47  61
ATOM     61  C   UNL A   1      43.017  33.051  32.017  1.00  0.00     0.064 A 
ATOM     62  C   UNL A   1      43.308  34.210  31.283  1.00  0.00     0.173 A 
ATOM     63  C   UNL A   1      42.640  33.201  33.361  1.00  0.00     0.173 A 
ATOM     64  F   UNL A   1      43.679  34.118  29.997  1.00  0.00    -0.203 F 
ATOM     65  C   UNL A   1      43.237  35.469  31.874  1.00  0.00     0.198 A 
ATOM     66  C   UNL A   1      42.546  34.463  33.941  1.00  0.00     0.198 A 
ATOM     67  F   UNL A   1      42.343  32.125  34.104  1.00  0.00    -0.203 F 
ATOM     68  F   UNL A   1      43.546  36.561  31.162  1.00  0.00    -0.200 F 
ATOM     69  C   UNL A   1      42.847  35.595  33.200  1.00  0.00     0.200 A 
ATOM     70  F   UNL A   1      42.156  34.585  35.218  1.00  0.00    -0.200 F 
ATOM     71  F   UNL A   1      42.764  36.809  33.762  1.00  0.00    -0.200 F 
ENDBRANCH  47  61
BRANCH  48  72
ATOM     72  C   UNL A   1      42.818  24.230  27.386  1.00  0.00     0.064 A 
ATOM     73  C   UNL A   1      42.485  23.041  28.050  1.00  0.00     0.173 A 
ATOM     74  C   UNL A   1      43.170  24.146  26.031  1.00  0.00     0.173 A 
ATOM     75  F   UNL A   1      42.167  23.069  29.352  1.00  0.00    -0.203 F 
ATOM     76  C   UNL A   1      42.529  21.814  27.392  1.00  0.00     0.198 A 
ATOM     77  C   UNL A   1      43.185  22.921  25.367  1.00  0.00     0.198 A 
ATOM     78  F   UNL A   1      43.495  25.255  25.351  1.00  0.00    -0.203 F 
ATOM     79  F   UNL A   1      42.258  20.687  28.064  1.00  0.00    -0.200 F 
ATOM     80  C   UNL A   1      42.874  21.756  26.050  1.00  0.00     0.200 A 
ATOM     81  F   UNL A   1      43.508  22.870  24.067  1.00  0.00    -0.200 F 
ATOM     82  F   UNL A   1      42.919  20.574  25.418  1.00  0.00    -0.200 F 
ENDBRANCH  48  72
BRANCH  60  83
ATOM     83  C   UNL A   1      47.710  27.705  30.908  1.00  0.00     0.064 A 
ATOM     84  C   UNL A   1      48.059  26.996  32.067  1.00  0.00     0.173 A 
ATOM     85  C   UNL A   1      48.740  28.087  30.035  1.00  0.00     0.173 A 
ATOM     86  F   UNL A   1      47.112  26.624  32.941  1.00  0.00    -0.203 F 
ATOM     87  C   UNL A   1      49.390  26.703  32.352  1.00  0.00     0.198 A 
ATOM     88  C   UNL A   1      50.067  27.767  30.309  1.00  0.00     0.198 A 
ATOM     89  F   UNL A   1      48.458  28.761  28.910  1.00  0.00    -0.203 F 
ATOM     90  F   UNL A   1      49.705  26.067  33.488  1.00  0.00    -0.200 F 
ATOM     91  C   UNL A   1      50.392  27.083  31.471  1.00  0.00     0.200 A 
ATOM     92  F   UNL A   1      51.032  28.125  29.451  1.00  0.00    -0.200 F 
ATOM     93  F   UNL A   1      51.671  26.796  31.745  1.00  0.00    -0.200 F 
ENDBRANCH  60  83
ENDBRANCH  34  35
ENDBRANCH  26  29
ENDBRANCH  24  25
ENDBRANCH  23  24
ENDBRANCH   1  23
TORSDOF 14
ENDMDL
MODEL 2
REMARK VINA RESULT:     -10.2      4.975     10.046
REMARK SMILES Cc1cccc(C[NH+]2CCC(OCC(=O)NCCCNC(=O)c3ccc(-c4c5nc(c(-c6c(F)c(F)c(F)c(F)c6F)c6ccc([nH]6)c(-c6c(F)c(F)c(F)c(F)c6F)c6nc(c(-c7c(F)c(F)c(F)c(F)c7F)c7ccc4[nH]7)C=C6)C=C5)cc3)CC2)n1
REMARK SMILES IDX 17 1 16 2 14 3 15 4 13 6 12 7 11 8 8 9 9 10 87 11 10 13
REMARK SMILES IDX 86 14 7 15 6 16 1 17 2 18 3 19 88 20 4 21 5 22 18 23 19 24
REMARK SMILES IDX 20 25 21 26 22 28 23 29 24 30 85 31 25 32 84 33 26 34 27 35
REMARK SMILES IDX 28 36 78 37 29 38 83 39 77 40 79 41 30 42 82 43 76 44 75 45
REMARK SMILES IDX 31 47 63 48 43 49 62 50 44 51 47 52 61 53 80 54 45 55 46 56
REMARK SMILES IDX 60 58 81 59 48 60 32 61 33 62 41 63 34 64 35 65 39 66 42 67
REMARK SMILES IDX 36 68 37 69 40 70 38 71 64 72 65 73 73 74 66 75 67 76 71 77
REMARK SMILES IDX 74 78 68 79 69 80 72 81 70 82 49 83 50 84 58 85 51 86 52 87
REMARK SMILES IDX 56 88 59 89 53 90 54 91 57 92 55 93
REMARK H PARENT 16 5 8 12 20 27 79 46 47 57
REMARK Flexibility Score: inf
ROOT
ATOM      1  C   UNL A   1      36.619  20.459  24.995  1.00  0.00     0.117 C 
ENDROOT
BRANCH   1   2
ATOM      2  N   UNL A   1      36.829  21.785  25.544  1.00  0.00    -0.354 N 
ATOM      3  C   UNL A   1      36.425  22.990  25.046  1.00  0.00     0.246 C 
ATOM      4  O   UNL A   1      36.547  23.990  25.756  1.00  0.00    -0.272 OA
ATOM      5  H   UNL A   1      37.332  21.820  26.390  1.00  0.00     0.163 HD
BRANCH   3   6
ATOM      6  C   UNL A   1      35.827  23.075  23.635  1.00  0.00     0.260 C 
BRANCH   6   7
ATOM      7  O   UNL A   1      34.442  23.356  23.520  1.00  0.00    -0.368 OA
BRANCH   7   8
ATOM      8  C   UNL A   1      34.059  24.679  23.133  1.00  0.00     0.130 C 
ATOM      9  N   UNL A   1      32.344  27.007  22.945  1.00  0.00    -0.330 N 
ATOM     10  C   UNL A   1      32.583  26.196  21.748  1.00  0.00     0.265 C 
ATOM     11  C   UNL A   1      33.517  27.019  23.827  1.00  0.00     0.265 C 
ATOM     12  H   UNL A   1      31.579  26.555  23.445  1.00  0.00     0.348 HD
ATOM     13  C   UNL A   1      32.895  24.743  22.137  1.00  0.00     0.093 C 
ATOM     14  C   UNL A   1      33.809  25.612  24.317  1.00  0.00     0.093 C 
BRANCH   9  15
ATOM     15  C   UNL A   1      31.871  28.376  22.644  1.00  0.00     0.319 C 
BRANCH  15  16
ATOM     16  C   UNL A   1      30.374  28.622  22.737  1.00  0.00     0.095 A 
ATOM     17  C   UNL A   1      28.029  30.923  21.088  1.00  0.00     0.067 C 
ATOM     18  C   UNL A   1      28.531  29.851  22.006  1.00  0.00     0.038 A 
ATOM     19  C   UNL A   1      27.661  29.048  22.730  1.00  0.00     0.023 A 
ATOM     20  N   UNL A   1      29.868  29.664  22.026  1.00  0.00    -0.252 NA
ATOM     21  C   UNL A   1      28.190  28.016  23.499  1.00  0.00     0.004 A 
ATOM     22  C   UNL A   1      29.562  27.790  23.498  1.00  0.00     0.030 A 
ENDBRANCH  15  16
ENDBRANCH   9  15
ENDBRANCH   7   8
ENDBRANCH   6   7
ENDBRANCH   3   6
ENDBRANCH   1   2
BRANCH   1  23
ATOM     23  C   UNL A   1      37.861  19.570  25.001  1.00  0.00     0.042 C 
BRANCH  23  24
ATOM     24  C   UNL A   1      39.036  20.086  25.830  1.00  0.00     0.118 C 
BRANCH  24  25
ATOM     25  N   UNL A   1      40.132  19.133  25.924  1.00  0.00    -0.352 N 
ATOM     26  C   UNL A   1      41.478  19.314  26.114  1.00  0.00     0.251 C 
ATOM     27  H   UNL A   1      39.860  18.192  25.836  1.00  0.00     0.163 HD
ATOM     28  O   UNL A   1      42.233  18.348  25.993  1.00  0.00    -0.269 OA
BRANCH  26  29
ATOM     29  C   UNL A   1      42.053  20.641  26.435  1.00  0.00     0.039 A 
ATOM     30  C   UNL A   1      42.378  21.497  25.376  1.00  0.00     0.014 A 
ATOM     31  C   UNL A   1      42.338  21.030  27.747  1.00  0.00     0.014 A 
ATOM     32  C   UNL A   1      42.915  22.762  25.633  1.00  0.00     0.010 A 
ATOM     33  C   UNL A   1      42.822  22.315  28.007  1.00  0.00     0.010 A 
ATOM     34  C   UNL A   1      43.106  23.198  26.954  1.00  0.00    -0.014 A 
BRANCH  34  35
ATOM     35  C   UNL A   1      43.557  24.586  27.243  1.00  0.00     0.031 A 
ATOM     36  C   UNL A   1      42.594  25.621  27.756  1.00  0.00     0.074 A 
ATOM     37  C   UNL A   1      44.834  24.931  26.982  1.00  0.00     0.049 A 
ATOM     38  N   UNL A   1      42.797  26.894  27.992  1.00  0.00    -0.248 NA
ATOM     39  C   UNL A   1      41.219  25.173  28.022  1.00  0.00     0.031 C 
ATOM     40  C   UNL A   1      45.859  24.033  26.449  1.00  0.00     0.029 A 
ATOM     41  N   UNL A   1      45.485  26.134  27.115  1.00  0.00    -0.354 N 
ATOM     42  C   UNL A   1      41.576  27.401  28.417  1.00  0.00     0.074 A 
ATOM     43  C   UNL A   1      40.628  26.307  28.377  1.00  0.00     0.031 C 
ATOM     44  C   UNL A   1      47.010  24.709  26.313  1.00  0.00     0.029 A 
ATOM     45  C   UNL A   1      46.796  26.097  26.711  1.00  0.00     0.049 A 
ATOM     46  H   UNL A   1      45.051  26.945  27.467  1.00  0.00     0.167 HD
ATOM     47  C   UNL A   1      41.278  28.660  28.820  1.00  0.00     0.037 A 
ATOM     48  C   UNL A   1      47.723  27.075  26.653  1.00  0.00     0.037 A 
ATOM     49  C   UNL A   1      42.227  29.742  28.891  1.00  0.00     0.049 A 
ATOM     50  C   UNL A   1      47.357  28.466  27.095  1.00  0.00     0.074 A 
ATOM     51  C   UNL A   1      42.031  31.032  29.357  1.00  0.00     0.029 A 
ATOM     52  N   UNL A   1      43.549  29.663  28.481  1.00  0.00    -0.354 N 
ATOM     53  N   UNL A   1      46.217  28.913  27.561  1.00  0.00    -0.248 NA
ATOM     54  C   UNL A   1      48.411  29.487  27.004  1.00  0.00     0.031 C 
ATOM     55  C   UNL A   1      43.221  31.746  29.188  1.00  0.00     0.029 A 
ATOM     56  C   UNL A   1      44.172  30.889  28.658  1.00  0.00     0.049 A 
ATOM     57  H   UNL A   1      43.981  28.856  28.118  1.00  0.00     0.167 HD
ATOM     58  C   UNL A   1      46.423  30.257  27.843  1.00  0.00     0.074 A 
ATOM     59  C   UNL A   1      47.801  30.549  27.511  1.00  0.00     0.031 C 
ATOM     60  C   UNL A   1      45.546  31.167  28.332  1.00  0.00     0.037 A 
BRANCH  47  61
ATOM     61  C   UNL A   1      39.863  28.951  29.223  1.00  0.00     0.064 A 
ATOM     62  C   UNL A   1      38.903  29.365  28.288  1.00  0.00     0.173 A 
ATOM     63  C   UNL A   1      39.442  28.737  30.546  1.00  0.00     0.173 A 
ATOM     64  F   UNL A   1      39.256  29.589  27.014  1.00  0.00    -0.203 F 
ATOM     65  C   UNL A   1      37.578  29.569  28.664  1.00  0.00     0.198 A 
ATOM     66  C   UNL A   1      38.111  28.918  30.912  1.00  0.00     0.198 A 
ATOM     67  F   UNL A   1      40.319  28.331  31.476  1.00  0.00    -0.203 F 
ATOM     68  F   UNL A   1      36.684  29.992  27.760  1.00  0.00    -0.200 F 
ATOM     69  C   UNL A   1      37.181  29.337  29.973  1.00  0.00     0.200 A 
ATOM     70  F   UNL A   1      37.727  28.679  32.174  1.00  0.00    -0.200 F 
ATOM     71  F   UNL A   1      35.902  29.518  30.329  1.00  0.00    -0.200 F 
ENDBRANCH  47  61
BRANCH  48  72
ATOM     72  C   UNL A   1      49.092  26.775  26.162  1.00  0.00     0.064 A 
ATOM     73  C   UNL A   1      50.084  26.312  27.038  1.00  0.00     0.173 A 
ATOM     74  C   UNL A   1      49.445  26.969  24.819  1.00  0.00     0.173 A 
ATOM     75  F   UNL A   1      49.801  26.136  28.336  1.00  0.00    -0.203 F 
ATOM     76  C   UNL A   1      51.383  26.076  26.593  1.00  0.00     0.198 A 
ATOM     77  C   UNL A   1      50.737  26.706  24.369  1.00  0.00     0.198 A 
ATOM     78  F   UNL A   1      48.532  27.410  23.941  1.00  0.00    -0.203 F 
ATOM     79  F   UNL A   1      52.325  25.685  27.462  1.00  0.00    -0.200 F 
ATOM     80  C   UNL A   1      51.708  26.270  25.259  1.00  0.00     0.200 A 
ATOM     81  F   UNL A   1      51.044  26.883  23.077  1.00  0.00    -0.200 F 
ATOM     82  F   UNL A   1      52.958  26.046  24.832  1.00  0.00    -0.200 F 
ENDBRANCH  48  72
BRANCH  60  83
ATOM     83  C   UNL A   1      46.059  32.557  28.566  1.00  0.00     0.064 A 
ATOM     84  C   UNL A   1      45.967  33.550  27.579  1.00  0.00     0.173 A 
ATOM     85  C   UNL A   1      46.619  32.910  29.804  1.00  0.00     0.173 A 
ATOM     86  F   UNL A   1      45.455  33.258  26.374  1.00  0.00    -0.203 F 
ATOM     87  C   UNL A   1      46.441  34.838  27.815  1.00  0.00     0.198 A 
ATOM     88  C   UNL A   1      47.066  34.206  30.045  1.00  0.00     0.198 A 
ATOM     89  F   UNL A   1      46.725  31.998  30.783  1.00  0.00    -0.203 F 
ATOM     90  F   UNL A   1      46.386  35.758  26.842  1.00  0.00    -0.200 F 
ATOM     91  C   UNL A   1      46.983  35.167  29.049  1.00  0.00     0.200 A 
ATOM     92  F   UNL A   1      47.579  34.525  31.241  1.00  0.00    -0.200 F 
ATOM     93  F   UNL A   1      47.434  36.408  29.274  1.00  0.00    -0.200 F 
ENDBRANCH  60  83
ENDBRANCH  34  35
ENDBRANCH  26  29
ENDBRANCH  24  25
ENDBRANCH  23  24
ENDBRANCH   1  23
TORSDOF 14
ENDMDL
MODEL 3
REMARK VINA RESULT:     -10.2      4.013     10.613
REMARK SMILES Cc1cccc(C[NH+]2CCC(OCC(=O)NCCCNC(=O)c3ccc(-c4c5nc(c(-c6c(F)c(F)c(F)c(F)c6F)c6ccc([nH]6)c(-c6c(F)c(F)c(F)c(F)c6F)c6nc(c(-c7c(F)c(F)c(F)c(F)c7F)c7ccc4[nH]7)C=C6)C=C5)cc3)CC2)n1
REMARK SMILES IDX 17 1 16 2 14 3 15 4 13 6 12 7 11 8 8 9 9 10 87 11 10 13
REMARK SMILES IDX 86 14 7 15 6 16 1 17 2 18 3 19 88 20 4 21 5 22 18 23 19 24
REMARK SMILES IDX 20 25 21 26 22 28 23 29 24 30 85 31 25 32 84 33 26 34 27 35
REMARK SMILES IDX 28 36 78 37 29 38 83 39 77 40 79 41 30 42 82 43 76 44 75 45
REMARK SMILES IDX 31 47 63 48 43 49 62 50 44 51 47 52 61 53 80 54 45 55 46 56
REMARK SMILES IDX 60 58 81 59 48 60 32 61 33 62 41 63 34 64 35 65 39 66 42 67
REMARK SMILES IDX 36 68 37 69 40 70 38 71 64 72 65 73 73 74 66 75 67 76 71 77
REMARK SMILES IDX 74 78 68 79 69 80 72 81 70 82 49 83 50 84 58 85 51 86 52 87
REMARK SMILES IDX 56 88 59 89 53 90 54 91 57 92 55 93
REMARK H PARENT 16 5 8 12 20 27 79 46 47 57
REMARK Flexibility Score: inf
ROOT
ATOM      1  C   UNL A   1      32.044  30.497  27.152  1.00  0.00     0.117 C 
ENDROOT
BRANCH   1   2
ATOM      2  N   UNL A   1      33.420  30.283  27.561  1.00  0.00    -0.354 N 
ATOM      3  C   UNL A   1      34.224  29.205  27.325  1.00  0.00     0.246 C 
ATOM      4  O   UNL A   1      35.421  29.294  27.602  1.00  0.00    -0.272 OA
ATOM      5  H   UNL A   1      33.828  31.014  28.080  1.00  0.00     0.163 HD
BRANCH   3   6
ATOM      6  C   UNL A   1      33.632  27.925  26.719  1.00  0.00     0.260 C 
BRANCH   6   7
ATOM      7  O   UNL A   1      33.804  27.712  25.328  1.00  0.00    -0.368 OA
BRANCH   7   8
ATOM      8  C   UNL A   1      32.638  27.738  24.499  1.00  0.00     0.130 C 
ATOM      9  N   UNL A   1      30.119  28.742  23.477  1.00  0.00    -0.330 N 
ATOM     10  C   UNL A   1      30.129  27.509  24.271  1.00  0.00     0.265 C 
ATOM     11  C   UNL A   1      31.348  28.880  22.687  1.00  0.00     0.265 C 
ATOM     12  H   UNL A   1      30.087  29.509  24.148  1.00  0.00     0.348 HD
ATOM     13  C   UNL A   1      31.318  27.506  25.244  1.00  0.00     0.093 C 
ATOM     14  C   UNL A   1      32.548  28.978  23.612  1.00  0.00     0.093 C 
BRANCH   9  15
ATOM     15  C   UNL A   1      28.909  28.892  22.639  1.00  0.00     0.319 C 
BRANCH  15  16
ATOM     16  C   UNL A   1      28.588  30.292  22.141  1.00  0.00     0.095 A 
ATOM     17  C   UNL A   1      29.240  33.688  23.386  1.00  0.00     0.067 C 
ATOM     18  C   UNL A   1      28.730  32.592  22.501  1.00  0.00     0.038 A 
ATOM     19  C   UNL A   1      28.179  32.859  21.257  1.00  0.00     0.023 A 
ATOM     20  N   UNL A   1      28.910  31.332  22.953  1.00  0.00    -0.252 NA
ATOM     21  C   UNL A   1      27.802  31.789  20.450  1.00  0.00     0.004 A 
ATOM     22  C   UNL A   1      28.016  30.487  20.889  1.00  0.00     0.030 A 
ENDBRANCH  15  16
ENDBRANCH   9  15
ENDBRANCH   7   8
ENDBRANCH   6   7
ENDBRANCH   3   6
ENDBRANCH   1   2
BRANCH   1  23
ATOM     23  C   UNL A   1      31.682  31.959  26.900  1.00  0.00     0.042 C 
BRANCH  23  24
ATOM     24  C   UNL A   1      32.851  32.942  26.933  1.00  0.00     0.118 C 
BRANCH  24  25
ATOM     25  N   UNL A   1      32.514  34.212  27.559  1.00  0.00    -0.352 N 
ATOM     26  C   UNL A   1      33.017  34.837  28.671  1.00  0.00     0.251 C 
ATOM     27  H   UNL A   1      31.797  34.711  27.105  1.00  0.00     0.163 HD
ATOM     28  O   UNL A   1      32.448  35.843  29.099  1.00  0.00    -0.269 OA
BRANCH  26  29
ATOM     29  C   UNL A   1      34.209  34.327  29.386  1.00  0.00     0.039 A 
ATOM     30  C   UNL A   1      34.019  33.679  30.613  1.00  0.00     0.014 A 
ATOM     31  C   UNL A   1      35.506  34.529  28.909  1.00  0.00     0.014 A 
ATOM     32  C   UNL A   1      35.114  33.174  31.319  1.00  0.00     0.010 A 
ATOM     33  C   UNL A   1      36.596  33.975  29.587  1.00  0.00     0.010 A 
ATOM     34  C   UNL A   1      36.410  33.282  30.792  1.00  0.00    -0.014 A 
BRANCH  34  35
ATOM     35  C   UNL A   1      37.568  32.639  31.471  1.00  0.00     0.031 A 
ATOM     36  C   UNL A   1      38.276  31.468  30.847  1.00  0.00     0.074 A 
ATOM     37  C   UNL A   1      37.944  33.077  32.689  1.00  0.00     0.049 A 
ATOM     38  N   UNL A   1      39.253  30.740  31.330  1.00  0.00    -0.248 NA
ATOM     39  C   UNL A   1      37.815  31.046  29.516  1.00  0.00     0.031 C 
ATOM     40  C   UNL A   1      37.318  34.180  33.420  1.00  0.00     0.029 A 
ATOM     41  N   UNL A   1      38.934  32.639  33.535  1.00  0.00    -0.354 N 
ATOM     42  C   UNL A   1      39.513  29.769  30.372  1.00  0.00     0.074 A 
ATOM     43  C   UNL A   1      38.569  29.978  29.293  1.00  0.00     0.031 C 
ATOM     44  C   UNL A   1      37.945  34.341  34.595  1.00  0.00     0.029 A 
ATOM     45  C   UNL A   1      38.990  33.330  34.720  1.00  0.00     0.049 A 
ATOM     46  H   UNL A   1      39.545  31.900  33.312  1.00  0.00     0.167 HD
ATOM     47  C   UNL A   1      40.462  28.801  30.385  1.00  0.00     0.037 A 
ATOM     48  C   UNL A   1      39.785  33.161  35.795  1.00  0.00     0.037 A 
ATOM     49  C   UNL A   1      41.421  28.612  31.442  1.00  0.00     0.049 A 
ATOM     50  C   UNL A   1      40.821  32.070  35.784  1.00  0.00     0.074 A 
ATOM     51  C   UNL A   1      42.467  27.705  31.506  1.00  0.00     0.029 A 
ATOM     52  N   UNL A   1      41.452  29.338  32.623  1.00  0.00    -0.354 N 
ATOM     53  N   UNL A   1      41.100  31.204  34.842  1.00  0.00    -0.248 NA
ATOM     54  C   UNL A   1      41.653  31.936  36.989  1.00  0.00     0.031 C 
ATOM     55  C   UNL A   1      43.102  27.852  32.743  1.00  0.00     0.029 A 
ATOM     56  C   UNL A   1      42.481  28.880  33.432  1.00  0.00     0.049 A 
ATOM     57  H   UNL A   1      40.835  30.070  32.853  1.00  0.00     0.167 HD
ATOM     58  C   UNL A   1      42.155  30.441  35.327  1.00  0.00     0.074 A 
ATOM     59  C   UNL A   1      42.476  30.957  36.640  1.00  0.00     0.031 C 
ATOM     60  C   UNL A   1      42.797  29.405  34.735  1.00  0.00     0.037 A 
BRANCH  47  61
ATOM     61  C   UNL A   1      40.522  27.862  29.216  1.00  0.00     0.064 A 
ATOM     62  C   UNL A   1      41.424  28.061  28.160  1.00  0.00     0.173 A 
ATOM     63  C   UNL A   1      39.724  26.707  29.191  1.00  0.00     0.173 A 
ATOM     64  F   UNL A   1      42.204  29.152  28.136  1.00  0.00    -0.203 F 
ATOM     65  C   UNL A   1      41.514  27.147  27.114  1.00  0.00     0.198 A 
ATOM     66  C   UNL A   1      39.835  25.784  28.155  1.00  0.00     0.198 A 
ATOM     67  F   UNL A   1      38.853  26.467  30.181  1.00  0.00    -0.203 F 
ATOM     68  F   UNL A   1      42.363  27.371  26.101  1.00  0.00    -0.200 F 
ATOM     69  C   UNL A   1      40.726  26.004  27.117  1.00  0.00     0.200 A 
ATOM     70  F   UNL A   1      39.084  24.673  28.167  1.00  0.00    -0.200 F 
ATOM     71  F   UNL A   1      40.827  25.118  26.117  1.00  0.00    -0.200 F 
ENDBRANCH  47  61
BRANCH  48  72
ATOM     72  C   UNL A   1      39.640  34.051  36.977  1.00  0.00     0.064 A 
ATOM     73  C   UNL A   1      40.307  35.282  37.034  1.00  0.00     0.173 A 
ATOM     74  C   UNL A   1      38.856  33.679  38.078  1.00  0.00     0.173 A 
ATOM     75  F   UNL A   1      41.088  35.668  36.016  1.00  0.00    -0.203 F 
ATOM     76  C   UNL A   1      40.213  36.098  38.160  1.00  0.00     0.198 A 
ATOM     77  C   UNL A   1      38.740  34.509  39.191  1.00  0.00     0.198 A 
ATOM     78  F   UNL A   1      38.197  32.511  38.071  1.00  0.00    -0.203 F 
ATOM     79  F   UNL A   1      40.904  37.246  38.212  1.00  0.00    -0.200 F 
ATOM     80  C   UNL A   1      39.427  35.713  39.235  1.00  0.00     0.200 A 
ATOM     81  F   UNL A   1      37.971  34.139  40.224  1.00  0.00    -0.200 F 
ATOM     82  F   UNL A   1      39.340  36.496  40.319  1.00  0.00    -0.200 F 
ENDBRANCH  48  72
BRANCH  60  83
ATOM     83  C   UNL A   1      43.932  28.780  35.490  1.00  0.00     0.064 A 
ATOM     84  C   UNL A   1      45.255  29.214  35.321  1.00  0.00     0.173 A 
ATOM     85  C   UNL A   1      43.689  27.756  36.419  1.00  0.00     0.173 A 
ATOM     86  F   UNL A   1      45.540  30.178  34.433  1.00  0.00    -0.203 F 
ATOM     87  C   UNL A   1      46.296  28.628  36.036  1.00  0.00     0.198 A 
ATOM     88  C   UNL A   1      44.729  27.192  37.153  1.00  0.00     0.198 A 
ATOM     89  F   UNL A   1      42.441  27.309  36.622  1.00  0.00    -0.203 F 
ATOM     90  F   UNL A   1      47.558  29.026  35.824  1.00  0.00    -0.200 F 
ATOM     91  C   UNL A   1      46.032  27.623  36.955  1.00  0.00     0.200 A 
ATOM     92  F   UNL A   1      44.471  26.229  38.048  1.00  0.00    -0.200 F 
ATOM     93  F   UNL A   1      47.036  27.065  37.645  1.00  0.00    -0.200 F 
ENDBRANCH  60  83
ENDBRANCH  34  35
ENDBRANCH  26  29
ENDBRANCH  24  25
ENDBRANCH  23  24
ENDBRANCH   1  23
TORSDOF 14
ENDMDL
