MODEL 1
REMARK VINA RESULT:     -11.6      0.000      0.000
REMARK SMILES CC(C)(C)OC(=O)Nc1ccc(SCC(=O)NCCCNC(=O)c2ccc(-c3c4nc(c(-c5c(F)c(F)c(F)c(F)c5F)c5ccc([nH]5)c(-c5c(F)c(F)c(F)c(F)c5F)c5nc(c(-c6c(F)c(F)c(F)c(F)c6F)c6ccc3[nH]6)C=C5)C=C4)cc2)cc1
REMARK SMILES IDX 15 1 16 2 17 3 14 5 13 6 12 7 9 8 10 9 88 10 11 11 87 12
REMARK SMILES IDX 8 13 6 14 7 15 5 17 2 18 1 19 3 20 4 21 18 22 19 23 20 24
REMARK SMILES IDX 21 25 22 26 23 28 24 29 25 30 86 31 26 32 85 33 27 34 28 35
REMARK SMILES IDX 29 36 79 37 30 38 84 39 78 40 80 41 31 42 83 43 77 44 76 45
REMARK SMILES IDX 32 47 64 48 44 49 63 50 45 51 48 52 62 53 81 54 46 55 47 56
REMARK SMILES IDX 61 58 82 59 49 60 33 61 34 62 42 63 35 64 36 65 40 66 43 67
REMARK SMILES IDX 37 68 38 69 41 70 39 71 65 72 66 73 74 74 67 75 68 76 72 77
REMARK SMILES IDX 75 78 69 79 70 80 73 81 71 82 50 83 51 84 59 85 52 86 53 87
REMARK SMILES IDX 57 88 60 89 54 90 55 91 58 92 56 93
REMARK H PARENT 17 4 8 16 21 27 80 46 48 57
REMARK Flexibility Score: inf
ROOT
ATOM      1  C   UNL A   1      33.495  29.349  26.021  1.00  0.00     0.230 C 
ATOM      2  O   UNL A   1      34.414  28.953  26.743  1.00  0.00    -0.274 OA
ATOM      3  N   UNL A   1      32.590  30.201  26.575  1.00  0.00    -0.355 N 
ATOM      4  H   UNL A   1      32.748  30.415  27.523  1.00  0.00     0.163 HD
ENDROOT
BRANCH   1   5
ATOM      5  C   UNL A   1      33.441  28.973  24.551  1.00  0.00     0.174 C 
BRANCH   5   6
ATOM      6  S   UNL A   1      32.288  27.622  24.146  1.00  0.00    -0.116 SA
BRANCH   6   7
ATOM      7  C   UNL A   1      33.263  26.128  24.174  1.00  0.00     0.008 A 
ATOM      8  C   UNL A   1      34.950  23.870  24.409  1.00  0.00     0.044 A 
ATOM      9  C   UNL A   1      34.726  24.697  25.506  1.00  0.00     0.027 A 
ATOM     10  C   UNL A   1      34.279  24.139  23.216  1.00  0.00     0.027 A 
ATOM     11  C   UNL A   1      33.908  25.828  25.382  1.00  0.00     0.017 A 
ATOM     12  C   UNL A   1      33.425  25.246  23.109  1.00  0.00     0.017 A 
BRANCH   8  13
ATOM     13  N   UNL A   1      35.807  22.772  24.578  1.00  0.00    -0.291 N 
ATOM     14  C   UNL A   1      35.498  21.448  24.764  1.00  0.00     0.412 C 
ATOM     15  O   UNL A   1      36.369  20.641  25.068  1.00  0.00    -0.224 OA
ATOM     16  H   UNL A   1      36.769  22.982  24.561  1.00  0.00     0.173 HD
BRANCH  14  17
ATOM     17  O   UNL A   1      34.212  21.141  24.473  1.00  0.00    -0.444 OA
BRANCH  17  18
ATOM     18  C   UNL A   1      33.225  20.927  25.513  1.00  0.00     0.106 C 
ATOM     19  C   UNL A   1      32.916  19.423  25.447  1.00  0.00     0.056 C 
ATOM     20  C   UNL A   1      31.948  21.713  25.208  1.00  0.00     0.056 C 
ATOM     21  C   UNL A   1      33.777  21.244  26.907  1.00  0.00     0.056 C 
ENDBRANCH  17  18
ENDBRANCH  14  17
ENDBRANCH   8  13
ENDBRANCH   6   7
ENDBRANCH   5   6
ENDBRANCH   1   5
BRANCH   3  22
ATOM     22  C   UNL A   1      31.430  30.841  25.987  1.00  0.00     0.117 C 
BRANCH  22  23
ATOM     23  C   UNL A   1      31.283  32.293  26.438  1.00  0.00     0.042 C 
BRANCH  23  24
ATOM     24  C   UNL A   1      32.461  32.829  27.248  1.00  0.00     0.118 C 
BRANCH  24  25
ATOM     25  N   UNL A   1      32.292  34.220  27.647  1.00  0.00    -0.352 N 
ATOM     26  C   UNL A   1      32.951  34.964  28.592  1.00  0.00     0.251 C 
ATOM     27  H   UNL A   1      31.590  34.705  27.158  1.00  0.00     0.163 HD
ATOM     28  O   UNL A   1      32.535  36.084  28.878  1.00  0.00    -0.269 OA
BRANCH  26  29
ATOM     29  C   UNL A   1      34.144  34.433  29.291  1.00  0.00     0.039 A 
ATOM     30  C   UNL A   1      33.973  33.836  30.545  1.00  0.00     0.014 A 
ATOM     31  C   UNL A   1      35.425  34.553  28.748  1.00  0.00     0.014 A 
ATOM     32  C   UNL A   1      35.072  33.302  31.221  1.00  0.00     0.010 A 
ATOM     33  C   UNL A   1      36.512  33.961  29.391  1.00  0.00     0.010 A 
ATOM     34  C   UNL A   1      36.347  33.328  30.633  1.00  0.00    -0.014 A 
BRANCH  34  35
ATOM     35  C   UNL A   1      37.511  32.683  31.293  1.00  0.00     0.031 A 
ATOM     36  C   UNL A   1      38.217  31.528  30.641  1.00  0.00     0.074 A 
ATOM     37  C   UNL A   1      37.885  33.090  32.522  1.00  0.00     0.049 A 
ATOM     38  N   UNL A   1      39.195  30.788  31.099  1.00  0.00    -0.248 NA
ATOM     39  C   UNL A   1      37.740  31.132  29.308  1.00  0.00     0.031 C 
ATOM     40  C   UNL A   1      37.247  34.162  33.286  1.00  0.00     0.029 A 
ATOM     41  N   UNL A   1      38.879  32.635  33.353  1.00  0.00    -0.354 N 
ATOM     42  C   UNL A   1      39.436  29.830  30.124  1.00  0.00     0.074 A 
ATOM     43  C   UNL A   1      38.473  30.055  29.066  1.00  0.00     0.031 C 
ATOM     44  C   UNL A   1      37.868  34.289  34.469  1.00  0.00     0.029 A 
ATOM     45  C   UNL A   1      38.924  33.286  34.562  1.00  0.00     0.049 A 
ATOM     46  H   UNL A   1      39.500  31.912  33.106  1.00  0.00     0.167 HD
ATOM     47  C   UNL A   1      40.383  28.862  30.105  1.00  0.00     0.037 A 
ATOM     48  C   UNL A   1      39.718  33.087  35.632  1.00  0.00     0.037 A 
ATOM     49  C   UNL A   1      41.360  28.661  31.144  1.00  0.00     0.049 A 
ATOM     50  C   UNL A   1      40.775  32.020  35.578  1.00  0.00     0.074 A 
ATOM     51  C   UNL A   1      42.415  27.765  31.174  1.00  0.00     0.029 A 
ATOM     52  N   UNL A   1      41.398  29.362  32.339  1.00  0.00    -0.354 N 
ATOM     53  N   UNL A   1      41.047  31.174  34.615  1.00  0.00    -0.248 NA
ATOM     54  C   UNL A   1      41.642  31.885  36.758  1.00  0.00     0.031 C 
ATOM     55  C   UNL A   1      43.061  27.892  32.408  1.00  0.00     0.029 A 
ATOM     56  C   UNL A   1      42.441  28.901  33.127  1.00  0.00     0.049 A 
ATOM     57  H   UNL A   1      40.775  30.083  32.591  1.00  0.00     0.167 HD
ATOM     58  C   UNL A   1      42.125  30.422  35.061  1.00  0.00     0.074 A 
ATOM     59  C   UNL A   1      42.469  30.922  36.375  1.00  0.00     0.031 C 
ATOM     60  C   UNL A   1      42.771  29.406  34.435  1.00  0.00     0.037 A 
BRANCH  47  61
ATOM     61  C   UNL A   1      40.409  27.940  28.919  1.00  0.00     0.064 A 
ATOM     62  C   UNL A   1      41.165  28.230  27.774  1.00  0.00     0.173 A 
ATOM     63  C   UNL A   1      39.692  26.733  28.944  1.00  0.00     0.173 A 
ATOM     64  F   UNL A   1      41.860  29.374  27.696  1.00  0.00    -0.203 F 
ATOM     65  C   UNL A   1      41.175  27.364  26.684  1.00  0.00     0.198 A 
ATOM     66  C   UNL A   1      39.730  25.855  27.864  1.00  0.00     0.198 A 
ATOM     67  F   UNL A   1      38.960  26.402  30.018  1.00  0.00    -0.203 F 
ATOM     68  F   UNL A   1      41.863  27.687  25.580  1.00  0.00    -0.200 F 
ATOM     69  C   UNL A   1      40.463  26.174  26.732  1.00  0.00     0.200 A 
ATOM     70  F   UNL A   1      39.051  24.700  27.917  1.00  0.00    -0.200 F 
ATOM     71  F   UNL A   1      40.478  25.340  25.683  1.00  0.00    -0.200 F 
ENDBRANCH  47  61
BRANCH  48  72
ATOM     72  C   UNL A   1      39.549  33.936  36.839  1.00  0.00     0.064 A 
ATOM     73  C   UNL A   1      38.778  33.501  37.924  1.00  0.00     0.173 A 
ATOM     74  C   UNL A   1      40.169  35.190  36.938  1.00  0.00     0.173 A 
ATOM     75  F   UNL A   1      38.150  32.316  37.867  1.00  0.00    -0.203 F 
ATOM     76  C   UNL A   1      38.620  34.294  39.059  1.00  0.00     0.198 A 
ATOM     77  C   UNL A   1      40.032  35.972  38.084  1.00  0.00     0.198 A 
ATOM     78  F   UNL A   1      40.923  35.649  35.928  1.00  0.00    -0.203 F 
ATOM     79  F   UNL A   1      37.846  33.870  40.067  1.00  0.00    -0.200 F 
ATOM     80  C   UNL A   1      39.252  35.525  39.140  1.00  0.00     0.200 A 
ATOM     81  F   UNL A   1      40.657  37.154  38.164  1.00  0.00    -0.200 F 
ATOM     82  F   UNL A   1      39.108  36.284  40.235  1.00  0.00    -0.200 F 
ENDBRANCH  48  72
BRANCH  60  83
ATOM     83  C   UNL A   1      43.931  28.782  35.155  1.00  0.00     0.064 A 
ATOM     84  C   UNL A   1      43.761  27.678  36.002  1.00  0.00     0.173 A 
ATOM     85  C   UNL A   1      45.232  29.272  34.965  1.00  0.00     0.173 A 
ATOM     86  F   UNL A   1      42.535  27.184  36.230  1.00  0.00    -0.203 F 
ATOM     87  C   UNL A   1      44.850  27.099  36.650  1.00  0.00     0.198 A 
ATOM     88  C   UNL A   1      46.321  28.674  35.592  1.00  0.00     0.198 A 
ATOM     89  F   UNL A   1      45.449  30.323  34.161  1.00  0.00    -0.203 F 
ATOM     90  F   UNL A   1      44.659  26.072  37.490  1.00  0.00    -0.200 F 
ATOM     91  C   UNL A   1      46.129  27.592  36.439  1.00  0.00     0.200 A 
ATOM     92  F   UNL A   1      47.558  29.144  35.378  1.00  0.00    -0.200 F 
ATOM     93  F   UNL A   1      47.176  27.029  37.058  1.00  0.00    -0.200 F 
ENDBRANCH  60  83
ENDBRANCH  34  35
ENDBRANCH  26  29
ENDBRANCH  24  25
ENDBRANCH  23  24
ENDBRANCH  22  23
ENDBRANCH   3  22
TORSDOF 15
ENDMDL
MODEL 2
REMARK VINA RESULT:     -11.5      5.548     11.225
REMARK SMILES CC(C)(C)OC(=O)Nc1ccc(SCC(=O)NCCCNC(=O)c2ccc(-c3c4nc(c(-c5c(F)c(F)c(F)c(F)c5F)c5ccc([nH]5)c(-c5c(F)c(F)c(F)c(F)c5F)c5nc(c(-c6c(F)c(F)c(F)c(F)c6F)c6ccc3[nH]6)C=C5)C=C4)cc2)cc1
REMARK SMILES IDX 15 1 16 2 17 3 14 5 13 6 12 7 9 8 10 9 88 10 11 11 87 12
REMARK SMILES IDX 8 13 6 14 7 15 5 17 2 18 1 19 3 20 4 21 18 22 19 23 20 24
REMARK SMILES IDX 21 25 22 26 23 28 24 29 25 30 86 31 26 32 85 33 27 34 28 35
REMARK SMILES IDX 29 36 79 37 30 38 84 39 78 40 80 41 31 42 83 43 77 44 76 45
REMARK SMILES IDX 32 47 64 48 44 49 63 50 45 51 48 52 62 53 81 54 46 55 47 56
REMARK SMILES IDX 61 58 82 59 49 60 33 61 34 62 42 63 35 64 36 65 40 66 43 67
REMARK SMILES IDX 37 68 38 69 41 70 39 71 65 72 66 73 74 74 67 75 68 76 72 77
REMARK SMILES IDX 75 78 69 79 70 80 73 81 71 82 50 83 51 84 59 85 52 86 53 87
REMARK SMILES IDX 57 88 60 89 54 90 55 91 58 92 56 93
REMARK H PARENT 17 4 8 16 21 27 80 46 48 57
REMARK Flexibility Score: inf
ROOT
ATOM      1  C   UNL A   1      34.206  19.775  24.866  1.00  0.00     0.230 C 
ATOM      2  O   UNL A   1      33.434  18.814  24.931  1.00  0.00    -0.274 OA
ATOM      3  N   UNL A   1      35.535  19.517  25.001  1.00  0.00    -0.355 N 
ATOM      4  H   UNL A   1      35.761  18.571  25.155  1.00  0.00     0.163 HD
ENDROOT
BRANCH   1   5
ATOM      5  C   UNL A   1      33.691  21.168  24.551  1.00  0.00     0.174 C 
BRANCH   5   6
ATOM      6  S   UNL A   1      32.225  21.218  23.470  1.00  0.00    -0.116 SA
BRANCH   6   7
ATOM      7  C   UNL A   1      31.964  22.941  23.089  1.00  0.00     0.008 A 
ATOM      8  C   UNL A   1      31.808  25.696  22.465  1.00  0.00     0.044 A 
ATOM      9  C   UNL A   1      32.872  24.927  21.996  1.00  0.00     0.027 A 
ATOM     10  C   UNL A   1      30.794  25.070  23.189  1.00  0.00     0.027 A 
ATOM     11  C   UNL A   1      32.958  23.569  22.326  1.00  0.00     0.017 A 
ATOM     12  C   UNL A   1      30.862  23.700  23.478  1.00  0.00     0.017 A 
BRANCH   8  13
ATOM     13  N   UNL A   1      31.789  27.060  22.137  1.00  0.00    -0.291 N 
ATOM     14  C   UNL A   1      32.335  28.124  22.809  1.00  0.00     0.412 C 
ATOM     15  O   UNL A   1      32.077  29.274  22.473  1.00  0.00    -0.224 OA
ATOM     16  H   UNL A   1      31.315  27.287  21.304  1.00  0.00     0.173 HD
BRANCH  14  17
ATOM     17  O   UNL A   1      33.232  27.768  23.758  1.00  0.00    -0.444 OA
BRANCH  17  18
ATOM     18  C   UNL A   1      32.920  27.849  25.172  1.00  0.00     0.106 C 
ATOM     19  C   UNL A   1      33.406  26.511  25.750  1.00  0.00     0.056 C 
ATOM     20  C   UNL A   1      31.409  27.964  25.380  1.00  0.00     0.056 C 
ATOM     21  C   UNL A   1      33.685  28.980  25.868  1.00  0.00     0.056 C 
ENDBRANCH  17  18
ENDBRANCH  14  17
ENDBRANCH   8  13
ENDBRANCH   6   7
ENDBRANCH   5   6
ENDBRANCH   1   5
BRANCH   3  22
ATOM     22  C   UNL A   1      36.669  20.418  24.954  1.00  0.00     0.117 C 
BRANCH  22  23
ATOM     23  C   UNL A   1      37.990  19.673  24.782  1.00  0.00     0.042 C 
BRANCH  23  24
ATOM     24  C   UNL A   1      39.092  20.099  25.750  1.00  0.00     0.118 C 
BRANCH  24  25
ATOM     25  N   UNL A   1      40.157  19.113  25.871  1.00  0.00    -0.352 N 
ATOM     26  C   UNL A   1      41.501  19.274  26.095  1.00  0.00     0.251 C 
ATOM     27  H   UNL A   1      39.864  18.179  25.777  1.00  0.00     0.163 HD
ATOM     28  O   UNL A   1      42.249  18.304  26.000  1.00  0.00    -0.269 OA
BRANCH  26  29
ATOM     29  C   UNL A   1      42.070  20.600  26.428  1.00  0.00     0.039 A 
ATOM     30  C   UNL A   1      42.438  21.451  25.380  1.00  0.00     0.014 A 
ATOM     31  C   UNL A   1      42.282  20.995  27.751  1.00  0.00     0.014 A 
ATOM     32  C   UNL A   1      42.954  22.718  25.658  1.00  0.00     0.010 A 
ATOM     33  C   UNL A   1      42.733  22.285  28.027  1.00  0.00     0.010 A 
ATOM     34  C   UNL A   1      43.072  23.161  26.984  1.00  0.00    -0.014 A 
BRANCH  34  35
ATOM     35  C   UNL A   1      43.531  24.539  27.298  1.00  0.00     0.031 A 
ATOM     36  C   UNL A   1      42.559  25.576  27.785  1.00  0.00     0.074 A 
ATOM     37  C   UNL A   1      44.814  24.879  27.066  1.00  0.00     0.049 A 
ATOM     38  N   UNL A   1      42.756  26.847  28.031  1.00  0.00    -0.248 NA
ATOM     39  C   UNL A   1      41.173  25.132  27.997  1.00  0.00     0.031 C 
ATOM     40  C   UNL A   1      45.843  23.981  26.541  1.00  0.00     0.029 A 
ATOM     41  N   UNL A   1      45.466  26.077  27.223  1.00  0.00    -0.354 N 
ATOM     42  C   UNL A   1      41.520  27.357  28.404  1.00  0.00     0.074 A 
ATOM     43  C   UNL A   1      40.569  26.269  28.313  1.00  0.00     0.031 C 
ATOM     44  C   UNL A   1      46.998  24.656  26.426  1.00  0.00     0.029 A 
ATOM     45  C   UNL A   1      46.783  26.040  26.836  1.00  0.00     0.049 A 
ATOM     46  H   UNL A   1      45.031  26.885  27.579  1.00  0.00     0.167 HD
ATOM     47  C   UNL A   1      41.210  28.614  28.804  1.00  0.00     0.037 A 
ATOM     48  C   UNL A   1      47.712  27.015  26.800  1.00  0.00     0.037 A 
ATOM     49  C   UNL A   1      42.164  29.687  28.924  1.00  0.00     0.049 A 
ATOM     50  C   UNL A   1      47.348  28.397  27.267  1.00  0.00     0.074 A 
ATOM     51  C   UNL A   1      41.963  30.970  29.404  1.00  0.00     0.029 A 
ATOM     52  N   UNL A   1      43.498  29.603  28.556  1.00  0.00    -0.354 N 
ATOM     53  N   UNL A   1      46.195  28.847  27.697  1.00  0.00    -0.248 NA
ATOM     54  C   UNL A   1      48.417  29.406  27.251  1.00  0.00     0.031 C 
ATOM     55  C   UNL A   1      43.164  31.676  29.281  1.00  0.00     0.029 A 
ATOM     56  C   UNL A   1      44.126  30.819  28.771  1.00  0.00     0.049 A 
ATOM     57  H   UNL A   1      43.934  28.798  28.194  1.00  0.00     0.167 HD
ATOM     58  C   UNL A   1      46.402  30.181  28.022  1.00  0.00     0.074 A 
ATOM     59  C   UNL A   1      47.797  30.464  27.754  1.00  0.00     0.031 C 
ATOM     60  C   UNL A   1      45.515  31.089  28.499  1.00  0.00     0.037 A 
BRANCH  47  61
ATOM     61  C   UNL A   1      39.774  28.902  29.137  1.00  0.00     0.064 A 
ATOM     62  C   UNL A   1      38.861  29.329  28.161  1.00  0.00     0.173 A 
ATOM     63  C   UNL A   1      39.298  28.715  30.444  1.00  0.00     0.173 A 
ATOM     64  F   UNL A   1      39.267  29.532  26.900  1.00  0.00    -0.203 F 
ATOM     65  C   UNL A   1      37.534  29.593  28.489  1.00  0.00     0.198 A 
ATOM     66  C   UNL A   1      37.962  28.950  30.761  1.00  0.00     0.198 A 
ATOM     67  F   UNL A   1      40.126  28.299  31.413  1.00  0.00    -0.203 F 
ATOM     68  F   UNL A   1      36.693  30.051  27.551  1.00  0.00    -0.200 F 
ATOM     69  C   UNL A   1      37.083  29.397  29.787  1.00  0.00     0.200 A 
ATOM     70  F   UNL A   1      37.526  28.748  32.012  1.00  0.00    -0.200 F 
ATOM     71  F   UNL A   1      35.804  29.648  30.098  1.00  0.00    -0.200 F 
ENDBRANCH  47  61
BRANCH  48  72
ATOM     72  C   UNL A   1      49.082  26.707  26.319  1.00  0.00     0.064 A 
ATOM     73  C   UNL A   1      50.062  26.222  27.195  1.00  0.00     0.173 A 
ATOM     74  C   UNL A   1      49.435  26.876  24.972  1.00  0.00     0.173 A 
ATOM     75  F   UNL A   1      49.777  26.063  28.496  1.00  0.00    -0.203 F 
ATOM     76  C   UNL A   1      51.348  25.930  26.746  1.00  0.00     0.198 A 
ATOM     77  C   UNL A   1      50.714  26.558  24.518  1.00  0.00     0.198 A 
ATOM     78  F   UNL A   1      48.531  27.331  24.093  1.00  0.00    -0.203 F 
ATOM     79  F   UNL A   1      52.277  25.502  27.611  1.00  0.00    -0.200 F 
ATOM     80  C   UNL A   1      51.671  26.092  25.407  1.00  0.00     0.200 A 
ATOM     81  F   UNL A   1      51.017  26.703  23.221  1.00  0.00    -0.200 F 
ATOM     82  F   UNL A   1      52.905  25.802  24.973  1.00  0.00    -0.200 F 
ENDBRANCH  48  72
BRANCH  60  83
ATOM     83  C   UNL A   1      46.030  32.469  28.783  1.00  0.00     0.064 A 
ATOM     84  C   UNL A   1      46.507  32.829  30.052  1.00  0.00     0.173 A 
ATOM     85  C   UNL A   1      46.084  33.432  27.763  1.00  0.00     0.173 A 
ATOM     86  F   UNL A   1      46.461  31.949  31.064  1.00  0.00    -0.203 F 
ATOM     87  C   UNL A   1      46.998  34.109  30.295  1.00  0.00     0.198 A 
ATOM     88  C   UNL A   1      46.601  34.701  28.003  1.00  0.00     0.198 A 
ATOM     89  F   UNL A   1      45.645  33.137  26.531  1.00  0.00    -0.203 F 
ATOM     90  F   UNL A   1      47.406  34.445  31.527  1.00  0.00    -0.200 F 
ATOM     91  C   UNL A   1      47.052  35.041  29.270  1.00  0.00     0.200 A 
ATOM     92  F   UNL A   1      46.663  35.598  27.008  1.00  0.00    -0.200 F 
ATOM     93  F   UNL A   1      47.531  36.271  29.505  1.00  0.00    -0.200 F 
ENDBRANCH  60  83
ENDBRANCH  34  35
ENDBRANCH  26  29
ENDBRANCH  24  25
ENDBRANCH  23  24
ENDBRANCH  22  23
ENDBRANCH   3  22
TORSDOF 15
ENDMDL
MODEL 3
REMARK VINA RESULT:     -11.5      5.367     11.247
REMARK SMILES CC(C)(C)OC(=O)Nc1ccc(SCC(=O)NCCCNC(=O)c2ccc(-c3c4nc(c(-c5c(F)c(F)c(F)c(F)c5F)c5ccc([nH]5)c(-c5c(F)c(F)c(F)c(F)c5F)c5nc(c(-c6c(F)c(F)c(F)c(F)c6F)c6ccc3[nH]6)C=C5)C=C4)cc2)cc1
REMARK SMILES IDX 15 1 16 2 17 3 14 5 13 6 12 7 9 8 10 9 88 10 11 11 87 12
REMARK SMILES IDX 8 13 6 14 7 15 5 17 2 18 1 19 3 20 4 21 18 22 19 23 20 24
REMARK SMILES IDX 21 25 22 26 23 28 24 29 25 30 86 31 26 32 85 33 27 34 28 35
REMARK SMILES IDX 29 36 79 37 30 38 84 39 78 40 80 41 31 42 83 43 77 44 76 45
REMARK SMILES IDX 32 47 64 48 44 49 63 50 45 51 48 52 62 53 81 54 46 55 47 56
REMARK SMILES IDX 61 58 82 59 49 60 33 61 34 62 42 63 35 64 36 65 40 66 43 67
REMARK SMILES IDX 37 68 38 69 41 70 39 71 65 72 66 73 74 74 67 75 68 76 72 77
REMARK SMILES IDX 75 78 69 79 70 80 73 81 71 82 50 83 51 84 59 85 52 86 53 87
REMARK SMILES IDX 57 88 60 89 54 90 55 91 58 92 56 93
REMARK H PARENT 17 4 8 16 21 27 80 46 48 57
REMARK Flexibility Score: inf
ROOT
ATOM      1  C   UNL A   1      34.076  20.347  25.026  1.00  0.00     0.230 C 
ATOM      2  O   UNL A   1      33.174  19.548  25.294  1.00  0.00    -0.274 OA
ATOM      3  N   UNL A   1      35.357  19.921  25.201  1.00  0.00    -0.355 N 
ATOM      4  H   UNL A   1      35.447  19.004  25.546  1.00  0.00     0.163 HD
ENDROOT
BRANCH   1   5
ATOM      5  C   UNL A   1      33.761  21.708  24.434  1.00  0.00     0.174 C 
BRANCH   5   6
ATOM      6  S   UNL A   1      32.493  21.701  23.125  1.00  0.00    -0.116 SA
BRANCH   6   7
ATOM      7  C   UNL A   1      31.847  23.363  23.068  1.00  0.00     0.008 A 
ATOM      8  C   UNL A   1      31.070  26.081  22.955  1.00  0.00     0.044 A 
ATOM      9  C   UNL A   1      32.238  25.657  22.326  1.00  0.00     0.027 A 
ATOM     10  C   UNL A   1      30.263  25.133  23.584  1.00  0.00     0.027 A 
ATOM     11  C   UNL A   1      32.633  24.315  22.403  1.00  0.00     0.017 A 
ATOM     12  C   UNL A   1      30.639  23.783  23.619  1.00  0.00     0.017 A 
BRANCH   8  13
ATOM     13  N   UNL A   1      30.740  27.443  22.879  1.00  0.00    -0.291 N 
ATOM     14  C   UNL A   1      30.808  28.409  23.849  1.00  0.00     0.412 C 
ATOM     15  O   UNL A   1      30.316  29.517  23.663  1.00  0.00    -0.224 OA
ATOM     16  H   UNL A   1      30.412  27.748  22.002  1.00  0.00     0.173 HD
BRANCH  14  17
ATOM     17  O   UNL A   1      31.543  28.051  24.928  1.00  0.00    -0.444 OA
BRANCH  17  18
ATOM     18  C   UNL A   1      32.868  28.591  25.163  1.00  0.00     0.106 C 
ATOM     19  C   UNL A   1      33.529  27.586  26.119  1.00  0.00     0.056 C 
ATOM     20  C   UNL A   1      32.775  29.952  25.855  1.00  0.00     0.056 C 
ATOM     21  C   UNL A   1      33.701  28.653  23.878  1.00  0.00     0.056 C 
ENDBRANCH  17  18
ENDBRANCH  14  17
ENDBRANCH   8  13
ENDBRANCH   6   7
ENDBRANCH   5   6
ENDBRANCH   1   5
BRANCH   3  22
ATOM     22  C   UNL A   1      36.609  20.611  24.961  1.00  0.00     0.117 C 
BRANCH  22  23
ATOM     23  C   UNL A   1      37.802  19.658  24.966  1.00  0.00     0.042 C 
BRANCH  23  24
ATOM     24  C   UNL A   1      39.024  20.172  25.723  1.00  0.00     0.118 C 
BRANCH  24  25
ATOM     25  N   UNL A   1      40.077  19.174  25.849  1.00  0.00    -0.352 N 
ATOM     26  C   UNL A   1      41.420  19.319  26.093  1.00  0.00     0.251 C 
ATOM     27  H   UNL A   1      39.777  18.243  25.741  1.00  0.00     0.163 HD
ATOM     28  O   UNL A   1      42.160  18.343  25.999  1.00  0.00    -0.269 OA
BRANCH  26  29
ATOM     29  C   UNL A   1      41.996  20.637  26.448  1.00  0.00     0.039 A 
ATOM     30  C   UNL A   1      42.338  21.516  25.415  1.00  0.00     0.014 A 
ATOM     31  C   UNL A   1      42.242  20.996  27.775  1.00  0.00     0.014 A 
ATOM     32  C   UNL A   1      42.861  22.776  25.714  1.00  0.00     0.010 A 
ATOM     33  C   UNL A   1      42.700  22.278  28.075  1.00  0.00     0.010 A 
ATOM     34  C   UNL A   1      43.013  23.182  27.049  1.00  0.00    -0.014 A 
BRANCH  34  35
ATOM     35  C   UNL A   1      43.479  24.552  27.387  1.00  0.00     0.031 A 
ATOM     36  C   UNL A   1      42.519  25.575  27.926  1.00  0.00     0.074 A 
ATOM     37  C   UNL A   1      44.756  24.898  27.134  1.00  0.00     0.049 A 
ATOM     38  N   UNL A   1      42.722  26.838  28.201  1.00  0.00    -0.248 NA
ATOM     39  C   UNL A   1      41.139  25.125  28.159  1.00  0.00     0.031 C 
ATOM     40  C   UNL A   1      45.772  24.015  26.561  1.00  0.00     0.029 A 
ATOM     41  N   UNL A   1      45.412  26.092  27.308  1.00  0.00    -0.354 N 
ATOM     42  C   UNL A   1      41.496  27.338  28.617  1.00  0.00     0.074 A 
ATOM     43  C   UNL A   1      40.543  26.252  28.519  1.00  0.00     0.031 C 
ATOM     44  C   UNL A   1      46.924  24.693  26.436  1.00  0.00     0.029 A 
ATOM     45  C   UNL A   1      46.720  26.066  26.888  1.00  0.00     0.049 A 
ATOM     46  H   UNL A   1      44.986  26.890  27.696  1.00  0.00     0.167 HD
ATOM     47  C   UNL A   1      41.195  28.584  29.057  1.00  0.00     0.037 A 
ATOM     48  C   UNL A   1      47.647  27.042  26.857  1.00  0.00     0.037 A 
ATOM     49  C   UNL A   1      42.152  29.653  29.183  1.00  0.00     0.049 A 
ATOM     50  C   UNL A   1      47.294  28.411  27.369  1.00  0.00     0.074 A 
ATOM     51  C   UNL A   1      41.963  30.923  29.702  1.00  0.00     0.029 A 
ATOM     52  N   UNL A   1      43.476  29.580  28.781  1.00  0.00    -0.354 N 
ATOM     53  N   UNL A   1      46.152  28.849  27.839  1.00  0.00    -0.248 NA
ATOM     54  C   UNL A   1      48.364  29.420  27.354  1.00  0.00     0.031 C 
ATOM     55  C   UNL A   1      43.161  31.633  29.569  1.00  0.00     0.029 A 
ATOM     56  C   UNL A   1      44.110  30.790  29.014  1.00  0.00     0.049 A 
ATOM     57  H   UNL A   1      43.904  28.785  28.388  1.00  0.00     0.167 HD
ATOM     58  C   UNL A   1      46.368  30.173  28.193  1.00  0.00     0.074 A 
ATOM     59  C   UNL A   1      47.755  30.464  27.900  1.00  0.00     0.031 C 
ATOM     60  C   UNL A   1      45.492  31.068  28.716  1.00  0.00     0.037 A 
BRANCH  47  61
ATOM     61  C   UNL A   1      39.768  28.861  29.433  1.00  0.00     0.064 A 
ATOM     62  C   UNL A   1      39.296  28.665  30.739  1.00  0.00     0.173 A 
ATOM     63  C   UNL A   1      38.868  29.362  28.479  1.00  0.00     0.173 A 
ATOM     64  F   UNL A   1      40.114  28.180  31.686  1.00  0.00    -0.203 F 
ATOM     65  C   UNL A   1      37.969  28.926  31.069  1.00  0.00     0.198 A 
ATOM     66  C   UNL A   1      37.549  29.651  28.821  1.00  0.00     0.198 A 
ATOM     67  F   UNL A   1      39.268  29.576  27.217  1.00  0.00    -0.203 F 
ATOM     68  F   UNL A   1      37.529  28.681  32.311  1.00  0.00    -0.200 F 
ATOM     69  C   UNL A   1      37.098  29.424  30.111  1.00  0.00     0.200 A 
ATOM     70  F   UNL A   1      36.711  30.144  27.897  1.00  0.00    -0.200 F 
ATOM     71  F   UNL A   1      35.822  29.678  30.432  1.00  0.00    -0.200 F 
ENDBRANCH  47  61
BRANCH  48  72
ATOM     72  C   UNL A   1      49.006  26.748  26.335  1.00  0.00     0.064 A 
ATOM     73  C   UNL A   1      49.330  26.988  24.993  1.00  0.00     0.173 A 
ATOM     74  C   UNL A   1      50.010  26.237  27.170  1.00  0.00     0.173 A 
ATOM     75  F   UNL A   1      48.397  27.458  24.152  1.00  0.00    -0.203 F 
ATOM     76  C   UNL A   1      50.605  26.714  24.501  1.00  0.00     0.198 A 
ATOM     77  C   UNL A   1      51.293  25.989  26.683  1.00  0.00     0.198 A 
ATOM     78  F   UNL A   1      49.751  25.996  28.463  1.00  0.00    -0.203 F 
ATOM     79  F   UNL A   1      50.879  26.918  23.206  1.00  0.00    -0.200 F 
ATOM     80  C   UNL A   1      51.587  26.222  25.348  1.00  0.00     0.200 A 
ATOM     81  F   UNL A   1      52.242  25.527  27.508  1.00  0.00    -0.200 F 
ATOM     82  F   UNL A   1      52.815  25.968  24.877  1.00  0.00    -0.200 F 
ENDBRANCH  48  72
BRANCH  60  83
ATOM     83  C   UNL A   1      46.014  32.440  29.024  1.00  0.00     0.064 A 
ATOM     84  C   UNL A   1      46.598  32.743  30.263  1.00  0.00     0.173 A 
ATOM     85  C   UNL A   1      45.965  33.454  28.055  1.00  0.00     0.173 A 
ATOM     86  F   UNL A   1      46.655  31.812  31.228  1.00  0.00    -0.203 F 
ATOM     87  C   UNL A   1      47.094  34.017  30.527  1.00  0.00     0.198 A 
ATOM     88  C   UNL A   1      46.486  34.718  28.314  1.00  0.00     0.198 A 
ATOM     89  F   UNL A   1      45.421  33.215  26.853  1.00  0.00    -0.203 F 
ATOM     90  F   UNL A   1      47.607  34.296  31.734  1.00  0.00    -0.200 F 
ATOM     91  C   UNL A   1      47.045  35.001  29.552  1.00  0.00     0.200 A 
ATOM     92  F   UNL A   1      46.448  35.665  27.365  1.00  0.00    -0.200 F 
ATOM     93  F   UNL A   1      47.528  36.225  29.807  1.00  0.00    -0.200 F 
ENDBRANCH  60  83
ENDBRANCH  34  35
ENDBRANCH  26  29
ENDBRANCH  24  25
ENDBRANCH  23  24
ENDBRANCH  22  23
ENDBRANCH   3  22
TORSDOF 15
ENDMDL
