MODEL 1
REMARK VINA RESULT:     -12.9      0.000      0.000
REMARK SMILES CCc1nn(-c2ccc(Cl)nn2)c(CC)c1CC(=O)NCCCNC(=O)c1ccc(-c2c3nc(c(-c4c(F)c(F)c(F)c(F)c4F)c4ccc([nH]4)c(-c4c(F)c(F)c(F)c(F)c4F)c4nc(c(-c5c(F)c(F)c(F)c(F)c5F)c5ccc2[nH]5)C=C4)C=C3)cc1
REMARK SMILES IDX 22 1 21 2 20 3 18 4 19 5 17 7 16 8 3 9 4 10 5 11 13 12 2 13
REMARK SMILES IDX 1 14 6 15 7 16 12 17 8 18 11 19 9 20 10 21 14 22 15 23 23 24
REMARK SMILES IDX 24 25 25 26 26 28 27 29 28 30 89 31 29 32 88 33 30 34 31 35
REMARK SMILES IDX 32 36 82 37 33 38 87 39 81 40 83 41 34 42 86 43 80 44 79 45
REMARK SMILES IDX 35 47 67 48 47 49 66 50 48 51 51 52 65 53 84 54 49 55 50 56
REMARK SMILES IDX 64 58 85 59 52 60 36 61 37 62 45 63 38 64 39 65 43 66 46 67
REMARK SMILES IDX 40 68 41 69 44 70 42 71 68 72 69 73 77 74 70 75 71 76 75 77
REMARK SMILES IDX 78 78 72 79 73 80 76 81 74 82 53 83 54 84 62 85 55 86 56 87
REMARK SMILES IDX 60 88 63 89 57 90 58 91 61 92 59 93
REMARK H PARENT 20 6 24 27 83 46 51 57
REMARK Flexibility Score: inf
ROOT
ATOM      1  C   UNL A   1      37.567  22.195  24.895  1.00  0.00     0.042 C 
ENDROOT
BRANCH   1   2
ATOM      2  C   UNL A   1      36.073  22.466  25.084  1.00  0.00     0.117 C 
BRANCH   2   3
ATOM      3  N   UNL A   1      35.358  22.741  23.851  1.00  0.00    -0.356 N 
ATOM      4  C   UNL A   1      34.565  23.811  23.542  1.00  0.00     0.224 C 
ATOM      5  O   UNL A   1      34.128  23.901  22.393  1.00  0.00    -0.275 OA
ATOM      6  H   UNL A   1      35.458  22.065  23.140  1.00  0.00     0.163 HD
BRANCH   4   7
ATOM      7  C   UNL A   1      34.247  24.858  24.599  1.00  0.00     0.139 C 
BRANCH   7   8
ATOM      8  C   UNL A   1      32.936  25.535  24.350  1.00  0.00     0.006 A 
ATOM      9  C   UNL A   1      31.603  25.028  24.445  1.00  0.00     0.067 A 
ATOM     10  N   UNL A   1      30.708  25.982  24.156  1.00  0.00    -0.171 NA
ATOM     11  N   UNL A   1      31.422  27.078  23.828  1.00  0.00    -0.217 N 
ATOM     12  C   UNL A   1      32.779  26.874  23.995  1.00  0.00     0.050 A 
BRANCH   9  13
ATOM     13  C   UNL A   1      31.042  23.661  24.735  1.00  0.00     0.055 C 
ATOM     14  C   UNL A   1      30.748  23.287  26.176  1.00  0.00     0.011 C 
ENDBRANCH   9  13
BRANCH  11  15
ATOM     15  C   UNL A   1      30.778  28.243  23.338  1.00  0.00     0.176 A 
ATOM     16  C   UNL A   1      30.531  29.301  24.207  1.00  0.00     0.054 A 
ATOM     17  N   UNL A   1      30.351  28.262  22.055  1.00  0.00    -0.129 NA
ATOM     18  C   UNL A   1      29.744  30.359  23.763  1.00  0.00     0.047 A 
ATOM     19  N   UNL A   1      29.563  29.301  21.623  1.00  0.00    -0.136 NA
ATOM     20  C   UNL A   1      29.261  30.304  22.471  1.00  0.00     0.151 A 
ATOM     21  Cl  UNL A   1      28.209  31.507  21.863  1.00  0.00    -0.060 Cl
ENDBRANCH  11  15
BRANCH  12  22
ATOM     22  C   UNL A   1      33.808  27.973  23.949  1.00  0.00     0.053 C 
ATOM     23  C   UNL A   1      34.028  28.687  25.274  1.00  0.00     0.011 C 
ENDBRANCH  12  22
ENDBRANCH   7   8
ENDBRANCH   4   7
ENDBRANCH   2   3
ENDBRANCH   1   2
BRANCH   1  24
ATOM     24  C   UNL A   1      38.377  22.465  26.145  1.00  0.00     0.118 C 
BRANCH  24  25
ATOM     25  N   UNL A   1      39.790  22.106  26.002  1.00  0.00    -0.352 N 
ATOM     26  C   UNL A   1      40.906  22.894  26.235  1.00  0.00     0.251 C 
ATOM     27  H   UNL A   1      39.968  21.186  25.702  1.00  0.00     0.163 HD
ATOM     28  O   UNL A   1      42.000  22.588  25.809  1.00  0.00    -0.269 OA
BRANCH  26  29
ATOM     29  C   UNL A   1      40.714  24.140  27.000  1.00  0.00     0.039 A 
ATOM     30  C   UNL A   1      41.392  24.369  28.198  1.00  0.00     0.014 A 
ATOM     31  C   UNL A   1      39.936  25.130  26.419  1.00  0.00     0.014 A 
ATOM     32  C   UNL A   1      41.359  25.650  28.748  1.00  0.00     0.010 A 
ATOM     33  C   UNL A   1      40.091  26.425  26.840  1.00  0.00     0.010 A 
ATOM     34  C   UNL A   1      40.733  26.691  28.045  1.00  0.00    -0.014 A 
BRANCH  34  35
ATOM     35  C   UNL A   1      40.765  28.067  28.540  1.00  0.00     0.031 A 
ATOM     36  C   UNL A   1      41.869  28.943  28.046  1.00  0.00     0.074 A 
ATOM     37  C   UNL A   1      39.762  28.603  29.273  1.00  0.00     0.049 A 
ATOM     38  N   UNL A   1      42.784  29.540  28.741  1.00  0.00    -0.248 NA
ATOM     39  C   UNL A   1      42.004  29.143  26.595  1.00  0.00     0.031 C 
ATOM     40  C   UNL A   1      38.458  28.030  29.635  1.00  0.00     0.029 A 
ATOM     41  N   UNL A   1      39.685  29.859  29.788  1.00  0.00    -0.354 N 
ATOM     42  C   UNL A   1      43.540  30.293  27.844  1.00  0.00     0.074 A 
ATOM     43  C   UNL A   1      43.073  29.941  26.526  1.00  0.00     0.031 C 
ATOM     44  C   UNL A   1      37.643  29.002  30.095  1.00  0.00     0.029 A 
ATOM     45  C   UNL A   1      38.431  30.205  30.262  1.00  0.00     0.049 A 
ATOM     46  H   UNL A   1      40.456  30.471  29.822  1.00  0.00     0.167 HD
ATOM     47  C   UNL A   1      44.403  31.265  28.259  1.00  0.00     0.037 A 
ATOM     48  C   UNL A   1      38.055  31.399  30.768  1.00  0.00     0.037 A 
ATOM     49  C   UNL A   1      44.728  31.123  29.652  1.00  0.00     0.049 A 
ATOM     50  C   UNL A   1      39.285  32.098  31.205  1.00  0.00     0.074 A 
ATOM     51  C   UNL A   1      45.369  30.152  30.399  1.00  0.00     0.029 A 
ATOM     52  N   UNL A   1      44.069  31.905  30.568  1.00  0.00    -0.354 N 
ATOM     53  N   UNL A   1      40.031  31.701  32.199  1.00  0.00    -0.248 NA
ATOM     54  C   UNL A   1      39.929  32.991  30.256  1.00  0.00     0.031 C 
ATOM     55  C   UNL A   1      44.645  30.095  31.626  1.00  0.00     0.029 A 
ATOM     56  C   UNL A   1      43.646  31.069  31.572  1.00  0.00     0.049 A 
ATOM     57  H   UNL A   1      43.928  32.877  30.516  1.00  0.00     0.167 HD
ATOM     58  C   UNL A   1      41.331  31.948  31.785  1.00  0.00     0.074 A 
ATOM     59  C   UNL A   1      41.200  32.829  30.629  1.00  0.00     0.031 C 
ATOM     60  C   UNL A   1      42.377  31.201  32.249  1.00  0.00     0.037 A 
BRANCH  47  61
ATOM     61  C   UNL A   1      44.765  32.495  27.468  1.00  0.00     0.064 A 
ATOM     62  C   UNL A   1      46.003  32.569  26.797  1.00  0.00     0.173 A 
ATOM     63  C   UNL A   1      44.055  33.710  27.569  1.00  0.00     0.173 A 
ATOM     64  F   UNL A   1      46.778  31.481  26.670  1.00  0.00    -0.203 F 
ATOM     65  C   UNL A   1      46.508  33.778  26.307  1.00  0.00     0.198 A 
ATOM     66  C   UNL A   1      44.538  34.904  27.034  1.00  0.00     0.198 A 
ATOM     67  F   UNL A   1      42.922  33.807  28.277  1.00  0.00    -0.203 F 
ATOM     68  F   UNL A   1      47.735  33.818  25.768  1.00  0.00    -0.200 F 
ATOM     69  C   UNL A   1      45.776  34.945  26.426  1.00  0.00     0.200 A 
ATOM     70  F   UNL A   1      43.822  36.029  27.179  1.00  0.00    -0.200 F 
ATOM     71  F   UNL A   1      46.279  36.112  26.003  1.00  0.00    -0.200 F 
ENDBRANCH  47  61
BRANCH  48  72
ATOM     72  C   UNL A   1      36.745  32.063  30.622  1.00  0.00     0.064 A 
ATOM     73  C   UNL A   1      35.880  32.211  31.713  1.00  0.00     0.173 A 
ATOM     74  C   UNL A   1      36.438  32.806  29.464  1.00  0.00     0.173 A 
ATOM     75  F   UNL A   1      36.129  31.564  32.861  1.00  0.00    -0.203 F 
ATOM     76  C   UNL A   1      34.785  33.077  31.661  1.00  0.00     0.198 A 
ATOM     77  C   UNL A   1      35.343  33.666  29.411  1.00  0.00     0.198 A 
ATOM     78  F   UNL A   1      37.253  32.783  28.397  1.00  0.00    -0.203 F 
ATOM     79  F   UNL A   1      34.013  33.242  32.746  1.00  0.00    -0.200 F 
ATOM     80  C   UNL A   1      34.524  33.813  30.516  1.00  0.00     0.200 A 
ATOM     81  F   UNL A   1      35.125  34.399  28.311  1.00  0.00    -0.200 F 
ATOM     82  F   UNL A   1      33.514  34.693  30.491  1.00  0.00    -0.200 F 
ENDBRANCH  48  72
BRANCH  60  83
ATOM     83  C   UNL A   1      42.111  30.255  33.391  1.00  0.00     0.064 A 
ATOM     84  C   UNL A   1      41.711  28.917  33.222  1.00  0.00     0.173 A 
ATOM     85  C   UNL A   1      42.408  30.672  34.695  1.00  0.00     0.173 A 
ATOM     86  F   UNL A   1      41.513  28.406  32.004  1.00  0.00    -0.203 F 
ATOM     87  C   UNL A   1      41.568  28.057  34.310  1.00  0.00     0.198 A 
ATOM     88  C   UNL A   1      42.299  29.801  35.777  1.00  0.00     0.198 A 
ATOM     89  F   UNL A   1      42.854  31.919  34.916  1.00  0.00    -0.203 F 
ATOM     90  F   UNL A   1      41.171  26.789  34.117  1.00  0.00    -0.200 F 
ATOM     91  C   UNL A   1      41.868  28.498  35.586  1.00  0.00     0.200 A 
ATOM     92  F   UNL A   1      42.640  30.218  37.004  1.00  0.00    -0.200 F 
ATOM     93  F   UNL A   1      41.769  27.661  36.629  1.00  0.00    -0.200 F 
ENDBRANCH  60  83
ENDBRANCH  34  35
ENDBRANCH  26  29
ENDBRANCH  24  25
ENDBRANCH   1  24
TORSDOF 14
ENDMDL
MODEL 2
REMARK VINA RESULT:     -12.9      1.119      1.298
REMARK SMILES CCc1nn(-c2ccc(Cl)nn2)c(CC)c1CC(=O)NCCCNC(=O)c1ccc(-c2c3nc(c(-c4c(F)c(F)c(F)c(F)c4F)c4ccc([nH]4)c(-c4c(F)c(F)c(F)c(F)c4F)c4nc(c(-c5c(F)c(F)c(F)c(F)c5F)c5ccc2[nH]5)C=C4)C=C3)cc1
REMARK SMILES IDX 22 1 21 2 20 3 18 4 19 5 17 7 16 8 3 9 4 10 5 11 13 12 2 13
REMARK SMILES IDX 1 14 6 15 7 16 12 17 8 18 11 19 9 20 10 21 14 22 15 23 23 24
REMARK SMILES IDX 24 25 25 26 26 28 27 29 28 30 89 31 29 32 88 33 30 34 31 35
REMARK SMILES IDX 32 36 82 37 33 38 87 39 81 40 83 41 34 42 86 43 80 44 79 45
REMARK SMILES IDX 35 47 67 48 47 49 66 50 48 51 51 52 65 53 84 54 49 55 50 56
REMARK SMILES IDX 64 58 85 59 52 60 36 61 37 62 45 63 38 64 39 65 43 66 46 67
REMARK SMILES IDX 40 68 41 69 44 70 42 71 68 72 69 73 77 74 70 75 71 76 75 77
REMARK SMILES IDX 78 78 72 79 73 80 76 81 74 82 53 83 54 84 62 85 55 86 56 87
REMARK SMILES IDX 60 88 63 89 57 90 58 91 61 92 59 93
REMARK H PARENT 20 6 24 27 83 46 51 57
REMARK Flexibility Score: inf
ROOT
ATOM      1  C   UNL A   1      38.615  21.920  25.753  1.00  0.00     0.042 C 
ENDROOT
BRANCH   1   2
ATOM      2  C   UNL A   1      37.738  23.174  25.764  1.00  0.00     0.117 C 
BRANCH   2   3
ATOM      3  N   UNL A   1      36.411  22.966  26.314  1.00  0.00    -0.356 N 
ATOM      4  C   UNL A   1      35.199  23.076  25.690  1.00  0.00     0.224 C 
ATOM      5  O   UNL A   1      34.188  22.756  26.318  1.00  0.00    -0.275 OA
ATOM      6  H   UNL A   1      36.379  22.711  27.265  1.00  0.00     0.163 HD
BRANCH   4   7
ATOM      7  C   UNL A   1      35.121  23.573  24.254  1.00  0.00     0.139 C 
BRANCH   7   8
ATOM      8  C   UNL A   1      33.736  23.991  23.874  1.00  0.00     0.006 A 
ATOM      9  C   UNL A   1      32.662  23.230  23.316  1.00  0.00     0.067 A 
ATOM     10  N   UNL A   1      31.573  23.992  23.148  1.00  0.00    -0.171 NA
ATOM     11  N   UNL A   1      31.924  25.236  23.534  1.00  0.00    -0.217 N 
ATOM     12  C   UNL A   1      33.208  25.270  24.046  1.00  0.00     0.050 A 
BRANCH   9  13
ATOM     13  C   UNL A   1      32.552  21.805  22.841  1.00  0.00     0.055 C 
ATOM     14  C   UNL A   1      32.482  20.697  23.876  1.00  0.00     0.011 C 
ENDBRANCH   9  13
BRANCH  11  15
ATOM     15  C   UNL A   1      31.034  26.326  23.361  1.00  0.00     0.176 A 
ATOM     16  C   UNL A   1      29.797  26.304  23.995  1.00  0.00     0.054 A 
ATOM     17  N   UNL A   1      31.383  27.325  22.518  1.00  0.00    -0.129 NA
ATOM     18  C   UNL A   1      28.866  27.287  23.677  1.00  0.00     0.047 A 
ATOM     19  N   UNL A   1      30.458  28.287  22.195  1.00  0.00    -0.136 NA
ATOM     20  C   UNL A   1      29.232  28.244  22.752  1.00  0.00     0.151 A 
ATOM     21  Cl  UNL A   1      28.128  29.439  22.224  1.00  0.00    -0.060 Cl
ENDBRANCH  11  15
BRANCH  12  22
ATOM     22  C   UNL A   1      33.791  26.450  24.779  1.00  0.00     0.053 C 
ATOM     23  C   UNL A   1      33.144  26.738  26.125  1.00  0.00     0.011 C 
ENDBRANCH  12  22
ENDBRANCH   7   8
ENDBRANCH   4   7
ENDBRANCH   2   3
ENDBRANCH   1   2
BRANCH   1  24
ATOM     24  C   UNL A   1      39.704  21.954  26.805  1.00  0.00     0.118 C 
BRANCH  24  25
ATOM     25  N   UNL A   1      41.051  22.014  26.234  1.00  0.00    -0.352 N 
ATOM     26  C   UNL A   1      41.875  23.119  26.083  1.00  0.00     0.251 C 
ATOM     27  H   UNL A   1      41.419  21.158  25.916  1.00  0.00     0.163 HD
ATOM     28  O   UNL A   1      42.835  23.099  25.342  1.00  0.00    -0.269 OA
BRANCH  26  29
ATOM     29  C   UNL A   1      41.527  24.337  26.838  1.00  0.00     0.039 A 
ATOM     30  C   UNL A   1      42.065  24.588  28.100  1.00  0.00     0.014 A 
ATOM     31  C   UNL A   1      40.748  25.285  26.191  1.00  0.00     0.014 A 
ATOM     32  C   UNL A   1      41.894  25.855  28.658  1.00  0.00     0.010 A 
ATOM     33  C   UNL A   1      40.776  26.580  26.639  1.00  0.00     0.010 A 
ATOM     34  C   UNL A   1      41.276  26.866  27.905  1.00  0.00    -0.014 A 
BRANCH  34  35
ATOM     35  C   UNL A   1      41.168  28.233  28.415  1.00  0.00     0.031 A 
ATOM     36  C   UNL A   1      42.220  29.204  27.988  1.00  0.00     0.074 A 
ATOM     37  C   UNL A   1      40.089  28.674  29.100  1.00  0.00     0.049 A 
ATOM     38  N   UNL A   1      43.046  29.864  28.735  1.00  0.00    -0.248 NA
ATOM     39  C   UNL A   1      42.412  29.435  26.548  1.00  0.00     0.031 C 
ATOM     40  C   UNL A   1      38.820  27.992  29.388  1.00  0.00     0.029 A 
ATOM     41  N   UNL A   1      39.882  29.913  29.623  1.00  0.00    -0.354 N 
ATOM     42  C   UNL A   1      43.782  30.689  27.886  1.00  0.00     0.074 A 
ATOM     43  C   UNL A   1      43.413  30.318  26.542  1.00  0.00     0.031 C 
ATOM     44  C   UNL A   1      37.905  28.886  29.816  1.00  0.00     0.029 A 
ATOM     45  C   UNL A   1      38.581  30.148  30.035  1.00  0.00     0.049 A 
ATOM     46  H   UNL A   1      40.597  30.585  29.703  1.00  0.00     0.167 HD
ATOM     47  C   UNL A   1      44.539  31.722  28.354  1.00  0.00     0.037 A 
ATOM     48  C   UNL A   1      38.082  31.300  30.533  1.00  0.00     0.037 A 
ATOM     49  C   UNL A   1      44.804  31.588  29.761  1.00  0.00     0.049 A 
ATOM     50  C   UNL A   1      39.227  32.091  31.040  1.00  0.00     0.074 A 
ATOM     51  C   UNL A   1      45.484  30.663  30.530  1.00  0.00     0.029 A 
ATOM     52  N   UNL A   1      44.037  32.300  30.650  1.00  0.00    -0.354 N 
ATOM     53  N   UNL A   1      39.952  31.743  32.067  1.00  0.00    -0.248 NA
ATOM     54  C   UNL A   1      39.842  33.047  30.134  1.00  0.00     0.031 C 
ATOM     55  C   UNL A   1      44.705  30.529  31.718  1.00  0.00     0.029 A 
ATOM     56  C   UNL A   1      43.634  31.417  31.621  1.00  0.00     0.049 A 
ATOM     57  H   UNL A   1      43.818  33.258  30.600  1.00  0.00     0.167 HD
ATOM     58  C   UNL A   1      41.246  32.101  31.723  1.00  0.00     0.074 A 
ATOM     59  C   UNL A   1      41.102  32.985  30.571  1.00  0.00     0.031 C 
ATOM     60  C   UNL A   1      42.325  31.435  32.233  1.00  0.00     0.037 A 
BRANCH  47  61
ATOM     61  C   UNL A   1      44.837  32.989  27.596  1.00  0.00     0.064 A 
ATOM     62  C   UNL A   1      46.078  33.151  26.944  1.00  0.00     0.173 A 
ATOM     63  C   UNL A   1      44.055  34.158  27.713  1.00  0.00     0.173 A 
ATOM     64  F   UNL A   1      46.917  32.114  26.805  1.00  0.00    -0.203 F 
ATOM     65  C   UNL A   1      46.517  34.398  26.488  1.00  0.00     0.198 A 
ATOM     66  C   UNL A   1      44.474  35.390  27.211  1.00  0.00     0.198 A 
ATOM     67  F   UNL A   1      42.910  34.172  28.406  1.00  0.00    -0.203 F 
ATOM     68  F   UNL A   1      47.746  34.524  25.968  1.00  0.00    -0.200 F 
ATOM     69  C   UNL A   1      45.715  35.517  26.622  1.00  0.00     0.200 A 
ATOM     70  F   UNL A   1      43.691  36.467  27.370  1.00  0.00    -0.200 F 
ATOM     71  F   UNL A   1      46.153  36.721  26.232  1.00  0.00    -0.200 F 
ENDBRANCH  47  61
BRANCH  48  72
ATOM     72  C   UNL A   1      36.731  31.855  30.326  1.00  0.00     0.064 A 
ATOM     73  C   UNL A   1      35.896  32.158  31.409  1.00  0.00     0.173 A 
ATOM     74  C   UNL A   1      36.342  32.354  29.066  1.00  0.00     0.173 A 
ATOM     75  F   UNL A   1      36.222  31.749  32.643  1.00  0.00    -0.203 F 
ATOM     76  C   UNL A   1      34.750  32.941  31.247  1.00  0.00     0.198 A 
ATOM     77  C   UNL A   1      35.196  33.131  28.905  1.00  0.00     0.198 A 
ATOM     78  F   UNL A   1      37.120  32.177  27.986  1.00  0.00    -0.203 F 
ATOM     79  F   UNL A   1      34.008  33.264  32.316  1.00  0.00    -0.200 F 
ATOM     80  C   UNL A   1      34.409  33.437  29.999  1.00  0.00     0.200 A 
ATOM     81  F   UNL A   1      34.898  33.636  27.700  1.00  0.00    -0.200 F 
ATOM     82  F   UNL A   1      33.347  34.244  29.858  1.00  0.00    -0.200 F 
ENDBRANCH  48  72
BRANCH  60  83
ATOM     83  C   UNL A   1      42.081  30.455  33.350  1.00  0.00     0.064 A 
ATOM     84  C   UNL A   1      41.857  29.081  33.151  1.00  0.00     0.173 A 
ATOM     85  C   UNL A   1      42.219  30.892  34.674  1.00  0.00     0.173 A 
ATOM     86  F   UNL A   1      41.819  28.560  31.920  1.00  0.00    -0.203 F 
ATOM     87  C   UNL A   1      41.728  28.200  34.224  1.00  0.00     0.198 A 
ATOM     88  C   UNL A   1      42.126  30.005  35.744  1.00  0.00     0.198 A 
ATOM     89  F   UNL A   1      42.496  32.181  34.930  1.00  0.00    -0.203 F 
ATOM     90  F   UNL A   1      41.500  26.896  34.000  1.00  0.00    -0.200 F 
ATOM     91  C   UNL A   1      41.870  28.662  35.520  1.00  0.00     0.200 A 
ATOM     92  F   UNL A   1      42.315  30.448  36.995  1.00  0.00    -0.200 F 
ATOM     93  F   UNL A   1      41.785  27.810  36.552  1.00  0.00    -0.200 F 
ENDBRANCH  60  83
ENDBRANCH  34  35
ENDBRANCH  26  29
ENDBRANCH  24  25
ENDBRANCH   1  24
TORSDOF 14
ENDMDL
MODEL 3
REMARK VINA RESULT:     -12.6      3.789      9.174
REMARK SMILES CCc1nn(-c2ccc(Cl)nn2)c(CC)c1CC(=O)NCCCNC(=O)c1ccc(-c2c3nc(c(-c4c(F)c(F)c(F)c(F)c4F)c4ccc([nH]4)c(-c4c(F)c(F)c(F)c(F)c4F)c4nc(c(-c5c(F)c(F)c(F)c(F)c5F)c5ccc2[nH]5)C=C4)C=C3)cc1
REMARK SMILES IDX 22 1 21 2 20 3 18 4 19 5 17 7 16 8 3 9 4 10 5 11 13 12 2 13
REMARK SMILES IDX 1 14 6 15 7 16 12 17 8 18 11 19 9 20 10 21 14 22 15 23 23 24
REMARK SMILES IDX 24 25 25 26 26 28 27 29 28 30 89 31 29 32 88 33 30 34 31 35
REMARK SMILES IDX 32 36 82 37 33 38 87 39 81 40 83 41 34 42 86 43 80 44 79 45
REMARK SMILES IDX 35 47 67 48 47 49 66 50 48 51 51 52 65 53 84 54 49 55 50 56
REMARK SMILES IDX 64 58 85 59 52 60 36 61 37 62 45 63 38 64 39 65 43 66 46 67
REMARK SMILES IDX 40 68 41 69 44 70 42 71 68 72 69 73 77 74 70 75 71 76 75 77
REMARK SMILES IDX 78 78 72 79 73 80 76 81 74 82 53 83 54 84 62 85 55 86 56 87
REMARK SMILES IDX 60 88 63 89 57 90 58 91 61 92 59 93
REMARK H PARENT 20 6 24 27 83 46 51 57
REMARK Flexibility Score: inf
ROOT
ATOM      1  C   UNL A   1      33.049  29.642  25.875  1.00  0.00     0.042 C 
ENDROOT
BRANCH   1   2
ATOM      2  C   UNL A   1      33.115  28.268  25.203  1.00  0.00     0.117 C 
BRANCH   2   3
ATOM      3  N   UNL A   1      32.215  27.284  25.775  1.00  0.00    -0.356 N 
ATOM      4  C   UNL A   1      32.467  25.979  26.098  1.00  0.00     0.224 C 
ATOM      5  O   UNL A   1      31.583  25.338  26.670  1.00  0.00    -0.275 OA
ATOM      6  H   UNL A   1      31.298  27.597  25.954  1.00  0.00     0.163 HD
BRANCH   4   7
ATOM      7  C   UNL A   1      33.812  25.353  25.761  1.00  0.00     0.139 C 
BRANCH   7   8
ATOM      8  C   UNL A   1      33.666  24.037  25.065  1.00  0.00     0.006 A 
ATOM      9  C   UNL A   1      33.389  23.744  23.694  1.00  0.00     0.067 A 
ATOM     10  N   UNL A   1      33.365  22.421  23.483  1.00  0.00    -0.171 NA
ATOM     11  N   UNL A   1      33.569  21.848  24.686  1.00  0.00    -0.217 N 
ATOM     12  C   UNL A   1      33.824  22.789  25.666  1.00  0.00     0.050 A 
BRANCH   9  13
ATOM     13  C   UNL A   1      33.067  24.609  22.503  1.00  0.00     0.055 C 
ATOM     14  C   UNL A   1      31.730  25.327  22.466  1.00  0.00     0.011 C 
ENDBRANCH   9  13
BRANCH  11  15
ATOM     15  C   UNL A   1      33.474  20.441  24.845  1.00  0.00     0.176 A 
ATOM     16  C   UNL A   1      34.585  19.649  24.580  1.00  0.00     0.054 A 
ATOM     17  N   UNL A   1      32.278  19.902  25.173  1.00  0.00    -0.129 NA
ATOM     18  C   UNL A   1      34.432  18.267  24.565  1.00  0.00     0.047 A 
ATOM     19  N   UNL A   1      32.124  18.537  25.144  1.00  0.00    -0.136 NA
ATOM     20  C   UNL A   1      33.177  17.756  24.828  1.00  0.00     0.151 A 
ATOM     21  Cl  UNL A   1      32.862  16.077  24.741  1.00  0.00    -0.060 Cl
ENDBRANCH  11  15
BRANCH  12  22
ATOM     22  C   UNL A   1      34.329  22.454  27.045  1.00  0.00     0.053 C 
ATOM     23  C   UNL A   1      33.237  22.228  28.079  1.00  0.00     0.011 C 
ENDBRANCH  12  22
ENDBRANCH   7   8
ENDBRANCH   4   7
ENDBRANCH   2   3
ENDBRANCH   1   2
BRANCH   1  24
ATOM     24  C   UNL A   1      34.107  29.826  26.942  1.00  0.00     0.118 C 
BRANCH  24  25
ATOM     25  N   UNL A   1      34.048  31.140  27.587  1.00  0.00    -0.352 N 
ATOM     26  C   UNL A   1      35.006  31.755  28.378  1.00  0.00     0.251 C 
ATOM     27  H   UNL A   1      33.220  31.652  27.438  1.00  0.00     0.163 HD
ATOM     28  O   UNL A   1      34.733  32.702  29.086  1.00  0.00    -0.269 OA
BRANCH  26  29
ATOM     29  C   UNL A   1      36.372  31.200  28.351  1.00  0.00     0.039 A 
ATOM     30  C   UNL A   1      37.459  31.918  28.850  1.00  0.00     0.014 A 
ATOM     31  C   UNL A   1      36.516  29.886  27.931  1.00  0.00     0.014 A 
ATOM     32  C   UNL A   1      38.674  31.256  29.020  1.00  0.00     0.010 A 
ATOM     33  C   UNL A   1      37.636  29.191  28.307  1.00  0.00     0.010 A 
ATOM     34  C   UNL A   1      38.751  29.875  28.779  1.00  0.00    -0.014 A 
BRANCH  34  35
ATOM     35  C   UNL A   1      39.980  29.126  29.042  1.00  0.00     0.031 A 
ATOM     36  C   UNL A   1      40.309  28.837  30.471  1.00  0.00     0.074 A 
ATOM     37  C   UNL A   1      40.715  28.560  28.059  1.00  0.00     0.049 A 
ATOM     38  N   UNL A   1      41.359  29.200  31.136  1.00  0.00    -0.248 NA
ATOM     39  C   UNL A   1      39.326  28.094  31.275  1.00  0.00     0.031 C 
ATOM     40  C   UNL A   1      40.437  28.466  26.619  1.00  0.00     0.029 A 
ATOM     41  N   UNL A   1      41.869  27.851  28.183  1.00  0.00    -0.354 N 
ATOM     42  C   UNL A   1      41.243  28.634  32.404  1.00  0.00     0.074 A 
ATOM     43  C   UNL A   1      39.931  28.039  32.464  1.00  0.00     0.031 C 
ATOM     44  C   UNL A   1      41.257  27.557  26.052  1.00  0.00     0.029 A 
ATOM     45  C   UNL A   1      42.247  27.172  27.036  1.00  0.00     0.049 A 
ATOM     46  H   UNL A   1      42.392  27.823  29.016  1.00  0.00     0.167 HD
ATOM     47  C   UNL A   1      42.296  28.569  33.269  1.00  0.00     0.037 A 
ATOM     48  C   UNL A   1      43.309  26.349  26.892  1.00  0.00     0.037 A 
ATOM     49  C   UNL A   1      43.343  29.482  32.896  1.00  0.00     0.049 A 
ATOM     50  C   UNL A   1      44.271  26.682  27.967  1.00  0.00     0.074 A 
ATOM     51  C   UNL A   1      43.432  30.858  32.796  1.00  0.00     0.029 A 
ATOM     52  N   UNL A   1      44.425  29.000  32.203  1.00  0.00    -0.354 N 
ATOM     53  N   UNL A   1      44.919  27.812  28.037  1.00  0.00    -0.248 NA
ATOM     54  C   UNL A   1      44.183  25.933  29.210  1.00  0.00     0.031 C 
ATOM     55  C   UNL A   1      44.233  31.091  31.639  1.00  0.00     0.029 A 
ATOM     56  C   UNL A   1      44.625  29.847  31.141  1.00  0.00     0.049 A 
ATOM     57  H   UNL A   1      44.955  28.201  32.425  1.00  0.00     0.167 HD
ATOM     58  C   UNL A   1      44.957  28.115  29.390  1.00  0.00     0.074 A 
ATOM     59  C   UNL A   1      44.577  26.878  30.066  1.00  0.00     0.031 C 
ATOM     60  C   UNL A   1      45.028  29.408  29.825  1.00  0.00     0.037 A 
BRANCH  47  61
ATOM     61  C   UNL A   1      42.492  27.504  34.316  1.00  0.00     0.064 A 
ATOM     62  C   UNL A   1      43.107  26.281  33.978  1.00  0.00     0.173 A 
ATOM     63  C   UNL A   1      41.854  27.536  35.574  1.00  0.00     0.173 A 
ATOM     64  F   UNL A   1      43.716  26.127  32.792  1.00  0.00    -0.203 F 
ATOM     65  C   UNL A   1      43.046  25.164  34.818  1.00  0.00     0.198 A 
ATOM     66  C   UNL A   1      41.839  26.436  36.433  1.00  0.00     0.198 A 
ATOM     67  F   UNL A   1      41.135  28.593  35.973  1.00  0.00    -0.203 F 
ATOM     68  F   UNL A   1      43.556  23.993  34.410  1.00  0.00    -0.200 F 
ATOM     69  C   UNL A   1      42.412  25.242  36.044  1.00  0.00     0.200 A 
ATOM     70  F   UNL A   1      41.200  26.525  37.608  1.00  0.00    -0.200 F 
ATOM     71  F   UNL A   1      42.308  24.161  36.829  1.00  0.00    -0.200 F 
ENDBRANCH  47  61
BRANCH  48  72
ATOM     72  C   UNL A   1      43.390  25.127  26.071  1.00  0.00     0.064 A 
ATOM     73  C   UNL A   1      44.459  24.912  25.192  1.00  0.00     0.173 A 
ATOM     74  C   UNL A   1      42.557  24.022  26.338  1.00  0.00     0.173 A 
ATOM     75  F   UNL A   1      45.316  25.908  24.920  1.00  0.00    -0.203 F 
ATOM     76  C   UNL A   1      44.701  23.654  24.633  1.00  0.00     0.198 A 
ATOM     77  C   UNL A   1      42.796  22.768  25.777  1.00  0.00     0.198 A 
ATOM     78  F   UNL A   1      41.554  24.115  27.225  1.00  0.00    -0.203 F 
ATOM     79  F   UNL A   1      45.770  23.469  23.846  1.00  0.00    -0.200 F 
ATOM     80  C   UNL A   1      43.878  22.582  24.936  1.00  0.00     0.200 A 
ATOM     81  F   UNL A   1      42.015  21.731  26.107  1.00  0.00    -0.200 F 
ATOM     82  F   UNL A   1      44.150  21.361  24.453  1.00  0.00    -0.200 F 
ENDBRANCH  48  72
BRANCH  60  83
ATOM     83  C   UNL A   1      45.294  30.480  28.800  1.00  0.00     0.064 A 
ATOM     84  C   UNL A   1      44.283  31.154  28.092  1.00  0.00     0.173 A 
ATOM     85  C   UNL A   1      46.606  30.940  28.632  1.00  0.00     0.173 A 
ATOM     86  F   UNL A   1      42.994  30.851  28.275  1.00  0.00    -0.203 F 
ATOM     87  C   UNL A   1      44.578  32.202  27.222  1.00  0.00     0.198 A 
ATOM     88  C   UNL A   1      46.895  32.012  27.789  1.00  0.00     0.198 A 
ATOM     89  F   UNL A   1      47.609  30.380  29.327  1.00  0.00    -0.203 F 
ATOM     90  F   UNL A   1      43.592  32.817  26.550  1.00  0.00    -0.200 F 
ATOM     91  C   UNL A   1      45.884  32.635  27.076  1.00  0.00     0.200 A 
ATOM     92  F   UNL A   1      48.154  32.461  27.691  1.00  0.00    -0.200 F 
ATOM     93  F   UNL A   1      46.165  33.669  26.269  1.00  0.00    -0.200 F 
ENDBRANCH  60  83
ENDBRANCH  34  35
ENDBRANCH  26  29
ENDBRANCH  24  25
ENDBRANCH   1  24
TORSDOF 14
ENDMDL
