MODEL 1
REMARK VINA RESULT:     -12.2      0.000      0.000
REMARK SMILES O=C(NCCCNC(=O)c1ccc(CN2CC(=O)N3CCCC[C@@H]3C2=O)o1)c1ccc(-c2c3nc(c(-c4c(F)c(F)c(F)c(F)c4F)c4ccc([nH]4)c(-c4c(F)c(F)c(F)c(F)c4F)c4nc(c(-c5c(F)c(F)c(F)c(F)c5F)c5ccc2[nH]5)C=C4)C=C3)cc1
REMARK SMILES IDX 5 1 4 2 3 3 1 4 2 5 28 7 29 8 90 9 30 10 89 11 31 12 32 13
REMARK SMILES IDX 33 14 83 15 34 16 88 17 82 18 84 19 35 20 87 21 81 22 80 23
REMARK SMILES IDX 36 25 68 26 48 27 67 28 49 29 52 30 66 31 85 32 50 33 51 34
REMARK SMILES IDX 65 36 86 37 53 38 37 39 38 40 46 41 39 42 40 43 44 44 47 45
REMARK SMILES IDX 41 46 42 47 45 48 43 49 69 50 70 51 78 52 71 53 72 54 76 55
REMARK SMILES IDX 79 56 73 57 74 58 77 59 75 60 54 61 55 62 63 63 56 64 57 65
REMARK SMILES IDX 61 66 64 67 58 68 59 69 62 70 60 71 6 72 7 73 8 74 9 76
REMARK SMILES IDX 10 77 11 78 27 79 12 80 13 81 14 82 15 83 16 84 25 85 17 86
REMARK SMILES IDX 24 87 26 88 18 89 19 90 23 91 20 92 22 93 21 94
REMARK H PARENT 3 6 84 24 52 35 7 75
REMARK Flexibility Score: inf
ROOT
ATOM      1  C   UNL A   1      40.943  21.180  27.454  1.00  0.00     0.042 C 
ENDROOT
BRANCH   1   2
ATOM      2  C   UNL A   1      41.028  22.238  26.362  1.00  0.00     0.118 C 
BRANCH   2   3
ATOM      3  N   UNL A   1      39.722  22.573  25.805  1.00  0.00    -0.352 N 
ATOM      4  O   UNL A   1      37.719  23.586  25.649  1.00  0.00    -0.269 OA
ATOM      5  C   UNL A   1      38.863  23.605  26.094  1.00  0.00     0.251 C 
ATOM      6  H   UNL A   1      39.403  21.958  25.106  1.00  0.00     0.163 HD
BRANCH   5   7
ATOM      7  C   UNL A   1      39.298  24.734  26.946  1.00  0.00     0.039 A 
ATOM      8  C   UNL A   1      38.987  24.764  28.305  1.00  0.00     0.014 A 
ATOM      9  C   UNL A   1      40.073  25.758  26.389  1.00  0.00     0.014 A 
ATOM     10  C   UNL A   1      39.298  25.886  29.062  1.00  0.00     0.010 A 
ATOM     11  C   UNL A   1      40.482  26.838  27.180  1.00  0.00     0.010 A 
ATOM     12  C   UNL A   1      40.072  26.926  28.518  1.00  0.00    -0.014 A 
BRANCH  12  13
ATOM     13  C   UNL A   1      40.488  28.038  29.410  1.00  0.00     0.031 A 
ATOM     14  C   UNL A   1      41.886  28.133  29.950  1.00  0.00     0.074 A 
ATOM     15  C   UNL A   1      39.594  29.014  29.667  1.00  0.00     0.049 A 
ATOM     16  N   UNL A   1      42.426  29.087  30.667  1.00  0.00    -0.248 NA
ATOM     17  C   UNL A   1      42.796  27.014  29.661  1.00  0.00     0.031 C 
ATOM     18  C   UNL A   1      38.199  29.013  29.217  1.00  0.00     0.029 A 
ATOM     19  N   UNL A   1      39.726  30.207  30.328  1.00  0.00    -0.354 N 
ATOM     20  C   UNL A   1      43.731  28.683  30.920  1.00  0.00     0.074 A 
ATOM     21  C   UNL A   1      43.894  27.382  30.307  1.00  0.00     0.031 C 
ATOM     22  C   UNL A   1      37.626  30.177  29.554  1.00  0.00     0.029 A 
ATOM     23  C   UNL A   1      38.590  30.980  30.295  1.00  0.00     0.049 A 
ATOM     24  H   UNL A   1      40.555  30.484  30.783  1.00  0.00     0.167 HD
ATOM     25  C   UNL A   1      44.702  29.345  31.594  1.00  0.00     0.037 A 
ATOM     26  C   UNL A   1      38.347  32.198  30.810  1.00  0.00     0.037 A 
ATOM     27  C   UNL A   1      44.537  30.648  32.191  1.00  0.00     0.049 A 
ATOM     28  C   UNL A   1      39.449  32.909  31.541  1.00  0.00     0.074 A 
ATOM     29  C   UNL A   1      45.465  31.404  32.885  1.00  0.00     0.029 A 
ATOM     30  N   UNL A   1      43.364  31.388  32.160  1.00  0.00    -0.354 N 
ATOM     31  N   UNL A   1      40.682  32.521  31.755  1.00  0.00    -0.248 NA
ATOM     32  C   UNL A   1      39.123  34.225  32.106  1.00  0.00     0.031 C 
ATOM     33  C   UNL A   1      44.845  32.587  33.303  1.00  0.00     0.029 A 
ATOM     34  C   UNL A   1      43.542  32.586  32.833  1.00  0.00     0.049 A 
ATOM     35  H   UNL A   1      42.529  31.104  31.723  1.00  0.00     0.167 HD
ATOM     36  C   UNL A   1      41.281  33.541  32.478  1.00  0.00     0.074 A 
ATOM     37  C   UNL A   1      40.286  34.584  32.631  1.00  0.00     0.031 C 
ATOM     38  C   UNL A   1      42.537  33.605  32.984  1.00  0.00     0.037 A 
BRANCH  25  39
ATOM     39  C   UNL A   1      46.041  28.678  31.730  1.00  0.00     0.064 A 
ATOM     40  C   UNL A   1      46.314  27.794  32.784  1.00  0.00     0.173 A 
ATOM     41  C   UNL A   1      47.034  28.867  30.756  1.00  0.00     0.173 A 
ATOM     42  F   UNL A   1      45.403  27.587  33.746  1.00  0.00    -0.203 F 
ATOM     43  C   UNL A   1      47.538  27.134  32.866  1.00  0.00     0.198 A 
ATOM     44  C   UNL A   1      48.246  28.187  30.829  1.00  0.00     0.198 A 
ATOM     45  F   UNL A   1      46.820  29.697  29.725  1.00  0.00    -0.203 F 
ATOM     46  F   UNL A   1      47.789  26.316  33.897  1.00  0.00    -0.200 F 
ATOM     47  C   UNL A   1      48.499  27.324  31.884  1.00  0.00     0.200 A 
ATOM     48  F   UNL A   1      49.170  28.363  29.873  1.00  0.00    -0.200 F 
ATOM     49  F   UNL A   1      49.670  26.676  31.955  1.00  0.00    -0.200 F 
ENDBRANCH  25  39
BRANCH  26  50
ATOM     50  C   UNL A   1      37.004  32.812  30.656  1.00  0.00     0.064 A 
ATOM     51  C   UNL A   1      36.042  32.718  31.669  1.00  0.00     0.173 A 
ATOM     52  C   UNL A   1      36.659  33.512  29.490  1.00  0.00     0.173 A 
ATOM     53  F   UNL A   1      36.317  32.043  32.795  1.00  0.00    -0.203 F 
ATOM     54  C   UNL A   1      34.777  33.283  31.514  1.00  0.00     0.198 A 
ATOM     55  C   UNL A   1      35.408  34.105  29.349  1.00  0.00     0.198 A 
ATOM     56  F   UNL A   1      37.548  33.637  28.493  1.00  0.00    -0.203 F 
ATOM     57  F   UNL A   1      33.859  33.139  32.479  1.00  0.00    -0.200 F 
ATOM     58  C   UNL A   1      34.464  33.983  30.358  1.00  0.00     0.200 A 
ATOM     59  F   UNL A   1      35.116  34.794  28.238  1.00  0.00    -0.200 F 
ATOM     60  F   UNL A   1      33.250  34.531  30.212  1.00  0.00    -0.200 F 
ENDBRANCH  26  50
BRANCH  38  61
ATOM     61  C   UNL A   1      42.892  34.847  33.746  1.00  0.00     0.064 A 
ATOM     62  C   UNL A   1      42.783  34.900  35.143  1.00  0.00     0.173 A 
ATOM     63  C   UNL A   1      43.346  35.991  33.075  1.00  0.00     0.173 A 
ATOM     64  F   UNL A   1      42.335  33.837  35.827  1.00  0.00    -0.203 F 
ATOM     65  C   UNL A   1      43.083  36.069  35.838  1.00  0.00     0.198 A 
ATOM     66  C   UNL A   1      43.672  37.148  33.775  1.00  0.00     0.198 A 
ATOM     67  F   UNL A   1      43.472  35.987  31.738  1.00  0.00    -0.203 F 
ATOM     68  F   UNL A   1      42.916  36.117  37.167  1.00  0.00    -0.200 F 
ATOM     69  C   UNL A   1      43.530  37.190  35.155  1.00  0.00     0.200 A 
ATOM     70  F   UNL A   1      44.112  38.228  33.114  1.00  0.00    -0.200 F 
ATOM     71  F   UNL A   1      43.813  38.314  35.824  1.00  0.00    -0.200 F 
ENDBRANCH  38  61
ENDBRANCH  12  13
ENDBRANCH   5   7
ENDBRANCH   2   3
ENDBRANCH   1   2
BRANCH   1  72
ATOM     72  C   UNL A   1      42.258  20.451  27.696  1.00  0.00     0.118 C 
BRANCH  72  73
ATOM     73  N   UNL A   1      42.224  19.092  27.179  1.00  0.00    -0.349 N 
ATOM     74  C   UNL A   1      42.889  18.567  26.103  1.00  0.00     0.286 C 
ATOM     75  H   UNL A   1      41.644  18.466  27.670  1.00  0.00     0.163 HD
ATOM     76  O   UNL A   1      42.508  17.457  25.695  1.00  0.00    -0.266 OA
BRANCH  74  77
ATOM     77  C   UNL A   1      43.983  19.294  25.512  1.00  0.00     0.191 A 
ATOM     78  C   UNL A   1      45.296  18.958  25.228  1.00  0.00     0.056 A 
ATOM     79  O   UNL A   1      43.744  20.558  25.062  1.00  0.00    -0.454 OA
ATOM     80  C   UNL A   1      45.881  20.078  24.583  1.00  0.00     0.048 A 
ATOM     81  C   UNL A   1      44.887  21.029  24.487  1.00  0.00     0.124 A 
BRANCH  81  82
ATOM     82  C   UNL A   1      44.782  22.366  23.831  1.00  0.00     0.195 C 
BRANCH  82  83
ATOM     83  N   UNL A   1      45.081  23.354  24.854  1.00  0.00    -0.324 N 
ATOM     84  C   UNL A   1      46.130  23.108  25.822  1.00  0.00     0.220 C 
ATOM     85  C   UNL A   1      44.198  24.404  25.075  1.00  0.00     0.246 C 
ATOM     86  C   UNL A   1      46.800  24.357  26.400  1.00  0.00     0.242 C 
ATOM     87  C   UNL A   1      44.963  25.699  25.415  1.00  0.00     0.174 C 
ATOM     88  O   UNL A   1      43.020  24.375  24.732  1.00  0.00    -0.272 OA
ATOM     89  O   UNL A   1      47.884  24.269  26.977  1.00  0.00    -0.273 OA
ATOM     90  N   UNL A   1      46.022  25.517  26.422  1.00  0.00    -0.329 N 
ATOM     91  C   UNL A   1      43.978  26.811  25.782  1.00  0.00     0.035 C 
ATOM     92  C   UNL A   1      46.648  26.718  26.965  1.00  0.00     0.120 C 
ATOM     93  C   UNL A   1      44.708  28.094  26.155  1.00  0.00     0.004 C 
ATOM     94  C   UNL A   1      45.657  27.822  27.312  1.00  0.00     0.022 C 
ENDBRANCH  82  83
ENDBRANCH  81  82
ENDBRANCH  74  77
ENDBRANCH  72  73
ENDBRANCH   1  72
TORSDOF 12
ENDMDL
MODEL 2
REMARK VINA RESULT:     -12.1      4.312     11.748
REMARK SMILES O=C(NCCCNC(=O)c1ccc(CN2CC(=O)N3CCCC[C@@H]3C2=O)o1)c1ccc(-c2c3nc(c(-c4c(F)c(F)c(F)c(F)c4F)c4ccc([nH]4)c(-c4c(F)c(F)c(F)c(F)c4F)c4nc(c(-c5c(F)c(F)c(F)c(F)c5F)c5ccc2[nH]5)C=C4)C=C3)cc1
REMARK SMILES IDX 5 1 4 2 3 3 1 4 2 5 28 7 29 8 90 9 30 10 89 11 31 12 32 13
REMARK SMILES IDX 33 14 83 15 34 16 88 17 82 18 84 19 35 20 87 21 81 22 80 23
REMARK SMILES IDX 36 25 68 26 48 27 67 28 49 29 52 30 66 31 85 32 50 33 51 34
REMARK SMILES IDX 65 36 86 37 53 38 37 39 38 40 46 41 39 42 40 43 44 44 47 45
REMARK SMILES IDX 41 46 42 47 45 48 43 49 69 50 70 51 78 52 71 53 72 54 76 55
REMARK SMILES IDX 79 56 73 57 74 58 77 59 75 60 54 61 55 62 63 63 56 64 57 65
REMARK SMILES IDX 61 66 64 67 58 68 59 69 62 70 60 71 6 72 7 73 8 74 9 76
REMARK SMILES IDX 10 77 11 78 27 79 12 80 13 81 14 82 15 83 16 84 25 85 17 86
REMARK SMILES IDX 24 87 26 88 18 89 19 90 23 91 20 92 22 93 21 94
REMARK H PARENT 3 6 84 24 52 35 7 75
REMARK Flexibility Score: inf
ROOT
ATOM      1  C   UNL A   1      35.134  33.395  28.031  1.00  0.00     0.042 C 
ENDROOT
BRANCH   1   2
ATOM      2  C   UNL A   1      34.608  32.398  29.056  1.00  0.00     0.118 C 
BRANCH   2   3
ATOM      3  N   UNL A   1      34.028  31.212  28.436  1.00  0.00    -0.352 N 
ATOM      4  O   UNL A   1      33.963  29.283  27.282  1.00  0.00    -0.269 OA
ATOM      5  C   UNL A   1      34.623  30.074  27.949  1.00  0.00     0.251 C 
ATOM      6  H   UNL A   1      33.047  31.230  28.353  1.00  0.00     0.163 HD
BRANCH   5   7
ATOM      7  C   UNL A   1      36.053  29.797  28.211  1.00  0.00     0.039 A 
ATOM      8  C   UNL A   1      37.022  30.078  27.250  1.00  0.00     0.014 A 
ATOM      9  C   UNL A   1      36.438  29.292  29.459  1.00  0.00     0.014 A 
ATOM     10  C   UNL A   1      38.341  29.702  27.465  1.00  0.00     0.010 A 
ATOM     11  C   UNL A   1      37.786  29.015  29.717  1.00  0.00     0.010 A 
ATOM     12  C   UNL A   1      38.746  29.189  28.709  1.00  0.00    -0.014 A 
BRANCH  12  13
ATOM     13  C   UNL A   1      40.191  28.927  28.930  1.00  0.00     0.031 A 
ATOM     14  C   UNL A   1      41.052  29.874  29.717  1.00  0.00     0.074 A 
ATOM     15  C   UNL A   1      40.704  27.770  28.466  1.00  0.00     0.049 A 
ATOM     16  N   UNL A   1      42.306  29.743  30.070  1.00  0.00    -0.248 NA
ATOM     17  C   UNL A   1      40.435  31.134  30.159  1.00  0.00     0.031 C 
ATOM     18  C   UNL A   1      39.969  26.788  27.664  1.00  0.00     0.029 A 
ATOM     19  N   UNL A   1      41.942  27.203  28.629  1.00  0.00    -0.354 N 
ATOM     20  C   UNL A   1      42.630  30.900  30.766  1.00  0.00     0.074 A 
ATOM     21  C   UNL A   1      41.451  31.738  30.760  1.00  0.00     0.031 C 
ATOM     22  C   UNL A   1      40.743  25.712  27.466  1.00  0.00     0.029 A 
ATOM     23  C   UNL A   1      42.048  25.952  28.070  1.00  0.00     0.049 A 
ATOM     24  H   UNL A   1      42.682  27.649  29.100  1.00  0.00     0.167 HD
ATOM     25  C   UNL A   1      43.803  31.224  31.363  1.00  0.00     0.037 A 
ATOM     26  C   UNL A   1      43.082  25.093  28.041  1.00  0.00     0.037 A 
ATOM     27  C   UNL A   1      44.971  30.378  31.377  1.00  0.00     0.049 A 
ATOM     28  C   UNL A   1      44.364  25.478  28.721  1.00  0.00     0.074 A 
ATOM     29  C   UNL A   1      46.202  30.614  31.964  1.00  0.00     0.029 A 
ATOM     30  N   UNL A   1      45.049  29.129  30.778  1.00  0.00    -0.354 N 
ATOM     31  N   UNL A   1      44.647  26.568  29.391  1.00  0.00    -0.248 NA
ATOM     32  C   UNL A   1      45.469  24.516  28.638  1.00  0.00     0.031 C 
ATOM     33  C   UNL A   1      47.036  29.524  31.691  1.00  0.00     0.029 A 
ATOM     34  C   UNL A   1      46.311  28.589  30.971  1.00  0.00     0.049 A 
ATOM     35  H   UNL A   1      44.316  28.690  30.289  1.00  0.00     0.167 HD
ATOM     36  C   UNL A   1      45.961  26.426  29.809  1.00  0.00     0.074 A 
ATOM     37  C   UNL A   1      46.406  25.125  29.351  1.00  0.00     0.031 C 
ATOM     38  C   UNL A   1      46.737  27.298  30.497  1.00  0.00     0.037 A 
BRANCH  25  39
ATOM     39  C   UNL A   1      43.894  32.554  32.055  1.00  0.00     0.064 A 
ATOM     40  C   UNL A   1      44.155  33.733  31.342  1.00  0.00     0.173 A 
ATOM     41  C   UNL A   1      43.646  32.659  33.432  1.00  0.00     0.173 A 
ATOM     42  F   UNL A   1      44.409  33.685  30.026  1.00  0.00    -0.203 F 
ATOM     43  C   UNL A   1      44.175  34.968  31.985  1.00  0.00     0.198 A 
ATOM     44  C   UNL A   1      43.644  33.898  34.066  1.00  0.00     0.198 A 
ATOM     45  F   UNL A   1      43.386  31.562  34.158  1.00  0.00    -0.203 F 
ATOM     46  F   UNL A   1      44.455  36.080  31.290  1.00  0.00    -0.200 F 
ATOM     47  C   UNL A   1      43.912  35.051  33.344  1.00  0.00     0.200 A 
ATOM     48  F   UNL A   1      43.378  33.978  35.378  1.00  0.00    -0.200 F 
ATOM     49  F   UNL A   1      43.917  36.242  33.959  1.00  0.00    -0.200 F 
ENDBRANCH  25  39
BRANCH  26  50
ATOM     50  C   UNL A   1      42.945  23.793  27.337  1.00  0.00     0.064 A 
ATOM     51  C   UNL A   1      43.366  23.638  26.010  1.00  0.00     0.173 A 
ATOM     52  C   UNL A   1      42.392  22.677  27.982  1.00  0.00     0.173 A 
ATOM     53  F   UNL A   1      43.885  24.680  25.345  1.00  0.00    -0.203 F 
ATOM     54  C   UNL A   1      43.222  22.419  25.348  1.00  0.00     0.198 A 
ATOM     55  C   UNL A   1      42.279  21.452  27.331  1.00  0.00     0.198 A 
ATOM     56  F   UNL A   1      41.979  22.772  29.255  1.00  0.00    -0.203 F 
ATOM     57  F   UNL A   1      43.591  22.310  24.065  1.00  0.00    -0.200 F 
ATOM     58  C   UNL A   1      42.686  21.326  26.011  1.00  0.00     0.200 A 
ATOM     59  F   UNL A   1      41.776  20.393  27.981  1.00  0.00    -0.200 F 
ATOM     60  F   UNL A   1      42.554  20.153  25.376  1.00  0.00    -0.200 F 
ENDBRANCH  26  50
BRANCH  38  61
ATOM     61  C   UNL A   1      48.142  26.862  30.790  1.00  0.00     0.064 A 
ATOM     62  C   UNL A   1      48.445  26.098  31.927  1.00  0.00     0.173 A 
ATOM     63  C   UNL A   1      49.192  27.209  29.929  1.00  0.00     0.173 A 
ATOM     64  F   UNL A   1      47.476  25.758  32.791  1.00  0.00    -0.203 F 
ATOM     65  C   UNL A   1      49.757  25.728  32.208  1.00  0.00     0.198 A 
ATOM     66  C   UNL A   1      50.498  26.814  30.199  1.00  0.00     0.198 A 
ATOM     67  F   UNL A   1      48.951  27.935  28.826  1.00  0.00    -0.203 F 
ATOM     68  F   UNL A   1      50.033  25.049  33.331  1.00  0.00    -0.200 F 
ATOM     69  C   UNL A   1      50.781  26.082  31.344  1.00  0.00     0.200 A 
ATOM     70  F   UNL A   1      51.485  27.148  29.357  1.00  0.00    -0.200 F 
ATOM     71  F   UNL A   1      52.043  25.729  31.619  1.00  0.00    -0.200 F 
ENDBRANCH  38  61
ENDBRANCH  12  13
ENDBRANCH   5   7
ENDBRANCH   2   3
ENDBRANCH   1   2
BRANCH   1  72
ATOM     72  C   UNL A   1      35.268  34.812  28.576  1.00  0.00     0.118 C 
BRANCH  72  73
ATOM     73  N   UNL A   1      34.071  35.598  28.329  1.00  0.00    -0.349 N 
ATOM     74  C   UNL A   1      33.122  36.020  29.224  1.00  0.00     0.286 C 
ATOM     75  H   UNL A   1      33.921  35.863  27.393  1.00  0.00     0.163 HD
ATOM     76  O   UNL A   1      32.058  36.453  28.751  1.00  0.00    -0.266 OA
BRANCH  74  77
ATOM     77  C   UNL A   1      33.393  35.959  30.637  1.00  0.00     0.191 A 
ATOM     78  C   UNL A   1      33.349  36.904  31.649  1.00  0.00     0.056 A 
ATOM     79  O   UNL A   1      33.709  34.749  31.178  1.00  0.00    -0.454 OA
ATOM     80  C   UNL A   1      33.662  36.232  32.858  1.00  0.00     0.048 A 
ATOM     81  C   UNL A   1      33.859  34.909  32.524  1.00  0.00     0.124 A 
BRANCH  81  82
ATOM     82  C   UNL A   1      34.097  33.659  33.305  1.00  0.00     0.195 C 
BRANCH  82  83
ATOM     83  N   UNL A   1      35.535  33.455  33.333  1.00  0.00    -0.324 N 
ATOM     84  C   UNL A   1      36.426  34.570  33.579  1.00  0.00     0.220 C 
ATOM     85  C   UNL A   1      36.069  32.262  32.862  1.00  0.00     0.246 C 
ATOM     86  C   UNL A   1      37.771  34.211  34.215  1.00  0.00     0.242 C 
ATOM     87  C   UNL A   1      37.282  31.833  33.712  1.00  0.00     0.174 C 
ATOM     88  O   UNL A   1      35.468  31.511  32.100  1.00  0.00    -0.272 OA
ATOM     89  O   UNL A   1      38.461  35.083  34.744  1.00  0.00    -0.273 OA
ATOM     90  N   UNL A   1      38.243  32.920  33.966  1.00  0.00    -0.329 N 
ATOM     91  C   UNL A   1      37.937  30.590  33.106  1.00  0.00     0.035 C 
ATOM     92  C   UNL A   1      39.522  32.559  34.571  1.00  0.00     0.120 C 
ATOM     93  C   UNL A   1      39.160  30.164  33.906  1.00  0.00     0.004 C 
ATOM     94  C   UNL A   1      40.155  31.313  33.967  1.00  0.00     0.022 C 
ENDBRANCH  82  83
ENDBRANCH  81  82
ENDBRANCH  74  77
ENDBRANCH  72  73
ENDBRANCH   1  72
TORSDOF 12
ENDMDL
MODEL 3
REMARK VINA RESULT:     -12.1      4.887     10.642
REMARK SMILES O=C(NCCCNC(=O)c1ccc(CN2CC(=O)N3CCCC[C@@H]3C2=O)o1)c1ccc(-c2c3nc(c(-c4c(F)c(F)c(F)c(F)c4F)c4ccc([nH]4)c(-c4c(F)c(F)c(F)c(F)c4F)c4nc(c(-c5c(F)c(F)c(F)c(F)c5F)c5ccc2[nH]5)C=C4)C=C3)cc1
REMARK SMILES IDX 5 1 4 2 3 3 1 4 2 5 28 7 29 8 90 9 30 10 89 11 31 12 32 13
REMARK SMILES IDX 33 14 83 15 34 16 88 17 82 18 84 19 35 20 87 21 81 22 80 23
REMARK SMILES IDX 36 25 68 26 48 27 67 28 49 29 52 30 66 31 85 32 50 33 51 34
REMARK SMILES IDX 65 36 86 37 53 38 37 39 38 40 46 41 39 42 40 43 44 44 47 45
REMARK SMILES IDX 41 46 42 47 45 48 43 49 69 50 70 51 78 52 71 53 72 54 76 55
REMARK SMILES IDX 79 56 73 57 74 58 77 59 75 60 54 61 55 62 63 63 56 64 57 65
REMARK SMILES IDX 61 66 64 67 58 68 59 69 62 70 60 71 6 72 7 73 8 74 9 76
REMARK SMILES IDX 10 77 11 78 27 79 12 80 13 81 14 82 15 83 16 84 25 85 17 86
REMARK SMILES IDX 24 87 26 88 18 89 19 90 23 91 20 92 22 93 21 94
REMARK H PARENT 3 6 84 24 52 35 7 75
REMARK Flexibility Score: inf
ROOT
ATOM      1  C   UNL A   1      31.285  31.782  26.441  1.00  0.00     0.042 C 
ENDROOT
BRANCH   1   2
ATOM      2  C   UNL A   1      32.601  32.416  26.876  1.00  0.00     0.118 C 
BRANCH   2   3
ATOM      3  N   UNL A   1      32.424  33.759  27.417  1.00  0.00    -0.352 N 
ATOM      4  O   UNL A   1      32.622  35.463  28.871  1.00  0.00    -0.269 OA
ATOM      5  C   UNL A   1      33.068  34.401  28.446  1.00  0.00     0.251 C 
ATOM      6  H   UNL A   1      31.727  34.293  26.972  1.00  0.00     0.163 HD
BRANCH   5   7
ATOM      7  C   UNL A   1      34.286  33.821  29.055  1.00  0.00     0.039 A 
ATOM      8  C   UNL A   1      34.205  32.710  29.893  1.00  0.00     0.014 A 
ATOM      9  C   UNL A   1      35.537  34.368  28.745  1.00  0.00     0.014 A 
ATOM     10  C   UNL A   1      35.341  32.254  30.550  1.00  0.00     0.010 A 
ATOM     11  C   UNL A   1      36.696  33.837  29.322  1.00  0.00     0.010 A 
ATOM     12  C   UNL A   1      36.605  32.794  30.254  1.00  0.00    -0.014 A 
BRANCH  12  13
ATOM     13  C   UNL A   1      37.800  32.180  30.886  1.00  0.00     0.031 A 
ATOM     14  C   UNL A   1      38.218  32.527  32.286  1.00  0.00     0.074 A 
ATOM     15  C   UNL A   1      38.469  31.235  30.194  1.00  0.00     0.049 A 
ATOM     16  N   UNL A   1      39.183  32.013  33.007  1.00  0.00    -0.248 NA
ATOM     17  C   UNL A   1      37.466  33.593  32.967  1.00  0.00     0.031 C 
ATOM     18  C   UNL A   1      38.170  30.836  28.816  1.00  0.00     0.029 A 
ATOM     19  N   UNL A   1      39.505  30.414  30.558  1.00  0.00    -0.354 N 
ATOM     20  C   UNL A   1      39.161  32.694  34.218  1.00  0.00     0.074 A 
ATOM     21  C   UNL A   1      38.106  33.681  34.125  1.00  0.00     0.031 C 
ATOM     22  C   UNL A   1      38.953  29.803  28.476  1.00  0.00     0.029 A 
ATOM     23  C   UNL A   1      39.850  29.507  29.586  1.00  0.00     0.049 A 
ATOM     24  H   UNL A   1      39.956  30.469  31.431  1.00  0.00     0.167 HD
ATOM     25  C   UNL A   1      39.943  32.502  35.307  1.00  0.00     0.037 A 
ATOM     26  C   UNL A   1      40.791  28.545  29.583  1.00  0.00     0.037 A 
ATOM     27  C   UNL A   1      40.984  31.508  35.398  1.00  0.00     0.049 A 
ATOM     28  C   UNL A   1      41.634  28.352  30.810  1.00  0.00     0.074 A 
ATOM     29  C   UNL A   1      41.824  31.230  36.462  1.00  0.00     0.029 A 
ATOM     30  N   UNL A   1      41.323  30.624  34.383  1.00  0.00    -0.354 N 
ATOM     31  N   UNL A   1      41.587  28.992  31.953  1.00  0.00    -0.248 NA
ATOM     32  C   UNL A   1      42.662  27.306  30.745  1.00  0.00     0.031 C 
ATOM     33  C   UNL A   1      42.693  30.202  36.081  1.00  0.00     0.029 A 
ATOM     34  C   UNL A   1      42.367  29.810  34.793  1.00  0.00     0.049 A 
ATOM     35  H   UNL A   1      40.886  30.581  33.502  1.00  0.00     0.167 HD
ATOM     36  C   UNL A   1      42.577  28.429  32.743  1.00  0.00     0.074 A 
ATOM     37  C   UNL A   1      43.181  27.368  31.963  1.00  0.00     0.031 C 
ATOM     38  C   UNL A   1      42.962  28.769  33.997  1.00  0.00     0.037 A 
BRANCH  25  39
ATOM     39  C   UNL A   1      39.714  33.385  36.499  1.00  0.00     0.064 A 
ATOM     40  C   UNL A   1      40.331  34.640  36.611  1.00  0.00     0.173 A 
ATOM     41  C   UNL A   1      38.811  33.005  37.505  1.00  0.00     0.173 A 
ATOM     42  F   UNL A   1      41.210  35.045  35.682  1.00  0.00    -0.203 F 
ATOM     43  C   UNL A   1      40.063  35.476  37.692  1.00  0.00     0.198 A 
ATOM     44  C   UNL A   1      38.527  33.854  38.571  1.00  0.00     0.198 A 
ATOM     45  F   UNL A   1      38.190  31.818  37.442  1.00  0.00    -0.203 F 
ATOM     46  F   UNL A   1      40.685  36.659  37.793  1.00  0.00    -0.200 F 
ATOM     47  C   UNL A   1      39.155  35.087  38.666  1.00  0.00     0.200 A 
ATOM     48  F   UNL A   1      37.642  33.481  39.506  1.00  0.00    -0.200 F 
ATOM     49  F   UNL A   1      38.886  35.900  39.697  1.00  0.00    -0.200 F 
ENDBRANCH  25  39
BRANCH  26  50
ATOM     50  C   UNL A   1      40.985  27.703  28.375  1.00  0.00     0.064 A 
ATOM     51  C   UNL A   1      41.872  28.082  27.361  1.00  0.00     0.173 A 
ATOM     52  C   UNL A   1      40.286  26.497  28.216  1.00  0.00     0.173 A 
ATOM     53  F   UNL A   1      42.550  29.235  27.458  1.00  0.00    -0.203 F 
ATOM     54  C   UNL A   1      42.040  27.295  26.222  1.00  0.00     0.198 A 
ATOM     55  C   UNL A   1      40.479  25.695  27.095  1.00  0.00     0.198 A 
ATOM     56  F   UNL A   1      39.429  26.086  29.163  1.00  0.00    -0.203 F 
ATOM     57  F   UNL A   1      42.861  27.703  25.244  1.00  0.00    -0.200 F 
ATOM     58  C   UNL A   1      41.349  26.100  26.093  1.00  0.00     0.200 A 
ATOM     59  F   UNL A   1      39.822  24.532  26.983  1.00  0.00    -0.200 F 
ATOM     60  F   UNL A   1      41.516  25.341  25.001  1.00  0.00    -0.200 F 
ENDBRANCH  26  50
BRANCH  38  61
ATOM     61  C   UNL A   1      44.089  27.977  34.591  1.00  0.00     0.064 A 
ATOM     62  C   UNL A   1      45.422  28.395  34.459  1.00  0.00     0.173 A 
ATOM     63  C   UNL A   1      43.836  26.794  35.299  1.00  0.00     0.173 A 
ATOM     64  F   UNL A   1      45.715  29.511  33.773  1.00  0.00    -0.203 F 
ATOM     65  C   UNL A   1      46.463  27.636  34.984  1.00  0.00     0.198 A 
ATOM     66  C   UNL A   1      44.877  26.052  35.847  1.00  0.00     0.198 A 
ATOM     67  F   UNL A   1      42.577  26.356  35.458  1.00  0.00    -0.203 F 
ATOM     68  F   UNL A   1      47.733  28.022  34.795  1.00  0.00    -0.200 F 
ATOM     69  C   UNL A   1      46.191  26.468  35.680  1.00  0.00     0.200 A 
ATOM     70  F   UNL A   1      44.612  24.929  36.528  1.00  0.00    -0.200 F 
ATOM     71  F   UNL A   1      47.195  25.736  36.181  1.00  0.00    -0.200 F 
ENDBRANCH  38  61
ENDBRANCH  12  13
ENDBRANCH   5   7
ENDBRANCH   2   3
ENDBRANCH   1   2
BRANCH   1  72
ATOM     72  C   UNL A   1      31.407  30.302  26.103  1.00  0.00     0.118 C 
BRANCH  72  73
ATOM     73  N   UNL A   1      32.306  30.078  24.983  1.00  0.00    -0.349 N 
ATOM     74  C   UNL A   1      32.422  28.971  24.184  1.00  0.00     0.286 C 
ATOM     75  H   UNL A   1      32.913  30.823  24.770  1.00  0.00     0.163 HD
ATOM     76  O   UNL A   1      33.430  28.904  23.460  1.00  0.00    -0.266 OA
BRANCH  74  77
ATOM     77  C   UNL A   1      31.394  27.962  24.204  1.00  0.00     0.191 A 
ATOM     78  C   UNL A   1      30.188  27.831  23.535  1.00  0.00     0.056 A 
ATOM     79  O   UNL A   1      31.598  26.852  24.967  1.00  0.00    -0.454 OA
ATOM     80  C   UNL A   1      29.634  26.583  23.921  1.00  0.00     0.048 A 
ATOM     81  C   UNL A   1      30.541  26.010  24.787  1.00  0.00     0.124 A 
BRANCH  81  82
ATOM     82  C   UNL A   1      30.646  24.682  25.461  1.00  0.00     0.195 C 
BRANCH  82  83
ATOM     83  N   UNL A   1      31.841  24.044  24.937  1.00  0.00    -0.324 N 
ATOM     84  C   UNL A   1      31.885  23.596  23.560  1.00  0.00     0.220 C 
ATOM     85  C   UNL A   1      32.834  23.620  25.811  1.00  0.00     0.246 C 
ATOM     86  C   UNL A   1      33.277  23.550  22.926  1.00  0.00     0.242 C 
ATOM     87  C   UNL A   1      34.231  23.835  25.196  1.00  0.00     0.174 C 
ATOM     88  O   UNL A   1      32.636  23.416  27.005  1.00  0.00    -0.272 OA
ATOM     89  O   UNL A   1      33.400  23.490  21.702  1.00  0.00    -0.273 OA
ATOM     90  N   UNL A   1      34.347  23.366  23.805  1.00  0.00    -0.329 N 
ATOM     91  C   UNL A   1      35.307  23.247  26.113  1.00  0.00     0.035 C 
ATOM     92  C   UNL A   1      35.682  23.326  23.217  1.00  0.00     0.120 C 
ATOM     93  C   UNL A   1      36.696  23.415  25.513  1.00  0.00     0.004 C 
ATOM     94  C   UNL A   1      36.744  22.752  24.146  1.00  0.00     0.022 C 
ENDBRANCH  82  83
ENDBRANCH  81  82
ENDBRANCH  74  77
ENDBRANCH  72  73
ENDBRANCH   1  72
TORSDOF 12
ENDMDL
