MODEL 1
REMARK VINA RESULT:     -11.0      0.000      0.000
REMARK SMILES O=C(NCCCNC(=O)C1(Cc2nccs2)CC1)c1ccc(-c2c3nc(c(-c4c(F)c(F)c(F)c(F)c4F)c4ccc([nH]4)c(-c4c(F)c(F)c(F)c(F)c4F)c4nc(c(-c5c(F)c(F)c(F)c(F)c5F)c5ccc2[nH]5)C=C4)C=C3)cc1
REMARK SMILES IDX 5 1 4 2 3 3 1 4 2 5 19 7 20 8 81 9 21 10 80 11 22 12 23 13
REMARK SMILES IDX 24 14 74 15 25 16 79 17 73 18 75 19 26 20 78 21 72 22 71 23
REMARK SMILES IDX 27 25 59 26 39 27 58 28 40 29 43 30 57 31 76 32 41 33 42 34
REMARK SMILES IDX 56 36 77 37 44 38 28 39 29 40 37 41 30 42 31 43 35 44 38 45
REMARK SMILES IDX 32 46 33 47 36 48 34 49 60 50 61 51 69 52 62 53 63 54 67 55
REMARK SMILES IDX 70 56 64 57 65 58 68 59 66 60 45 61 46 62 54 63 47 64 48 65
REMARK SMILES IDX 52 66 55 67 49 68 50 69 53 70 51 71 6 72 7 73 8 74 9 76
REMARK SMILES IDX 10 77 17 78 18 79 11 80 12 81 13 82 16 83 14 84 15 85
REMARK H PARENT 3 6 75 24 43 35 7 75
REMARK Flexibility Score: inf
ROOT
ATOM      1  C   UNL A   1      31.359  31.988  26.472  1.00  0.00     0.042 C 
ENDROOT
BRANCH   1   2
ATOM      2  C   UNL A   1      32.592  32.559  27.167  1.00  0.00     0.118 C 
BRANCH   2   3
ATOM      3  N   UNL A   1      32.404  33.950  27.547  1.00  0.00    -0.352 N 
ATOM      4  O   UNL A   1      32.609  35.769  28.863  1.00  0.00    -0.269 OA
ATOM      5  C   UNL A   1      33.034  34.668  28.532  1.00  0.00     0.251 C 
ATOM      6  H   UNL A   1      31.732  34.446  27.027  1.00  0.00     0.163 HD
BRANCH   5   7
ATOM      7  C   UNL A   1      34.225  34.106  29.199  1.00  0.00     0.039 A 
ATOM      8  C   UNL A   1      34.093  33.180  30.240  1.00  0.00     0.014 A 
ATOM      9  C   UNL A   1      35.491  34.479  28.743  1.00  0.00     0.014 A 
ATOM     10  C   UNL A   1      35.227  32.692  30.881  1.00  0.00     0.010 A 
ATOM     11  C   UNL A   1      36.628  33.944  29.348  1.00  0.00     0.010 A 
ATOM     12  C   UNL A   1      36.503  33.056  30.428  1.00  0.00    -0.014 A 
BRANCH  12  13
ATOM     13  C   UNL A   1      37.711  32.449  31.035  1.00  0.00     0.031 A 
ATOM     14  C   UNL A   1      38.442  31.339  30.344  1.00  0.00     0.074 A 
ATOM     15  C   UNL A   1      38.111  32.880  32.246  1.00  0.00     0.049 A 
ATOM     16  N   UNL A   1      39.457  30.629  30.766  1.00  0.00    -0.248 NA
ATOM     17  C   UNL A   1      37.962  30.969  29.004  1.00  0.00     0.031 C 
ATOM     18  C   UNL A   1      37.463  33.943  33.015  1.00  0.00     0.029 A 
ATOM     19  N   UNL A   1      39.144  32.466  33.048  1.00  0.00    -0.354 N 
ATOM     20  C   UNL A   1      39.723  29.713  29.758  1.00  0.00     0.074 A 
ATOM     21  C   UNL A   1      38.750  29.944  28.711  1.00  0.00     0.031 C 
ATOM     22  C   UNL A   1      38.110  34.098  34.179  1.00  0.00     0.029 A 
ATOM     23  C   UNL A   1      39.183  33.112  34.259  1.00  0.00     0.049 A 
ATOM     24  H   UNL A   1      39.792  31.776  32.782  1.00  0.00     0.167 HD
ATOM     25  C   UNL A   1      40.695  28.770  29.716  1.00  0.00     0.037 A 
ATOM     26  C   UNL A   1      39.970  32.908  35.330  1.00  0.00     0.037 A 
ATOM     27  C   UNL A   1      41.664  28.561  30.761  1.00  0.00     0.049 A 
ATOM     28  C   UNL A   1      41.027  31.845  35.269  1.00  0.00     0.074 A 
ATOM     29  C   UNL A   1      42.726  27.673  30.790  1.00  0.00     0.029 A 
ATOM     30  N   UNL A   1      41.679  29.242  31.971  1.00  0.00    -0.354 N 
ATOM     31  N   UNL A   1      41.305  31.017  34.292  1.00  0.00    -0.248 NA
ATOM     32  C   UNL A   1      41.879  31.685  36.454  1.00  0.00     0.031 C 
ATOM     33  C   UNL A   1      43.353  27.782  32.036  1.00  0.00     0.029 A 
ATOM     34  C   UNL A   1      42.714  28.773  32.765  1.00  0.00     0.049 A 
ATOM     35  H   UNL A   1      41.049  29.952  32.227  1.00  0.00     0.167 HD
ATOM     36  C   UNL A   1      42.372  30.249  34.734  1.00  0.00     0.074 A 
ATOM     37  C   UNL A   1      42.698  30.716  36.067  1.00  0.00     0.031 C 
ATOM     38  C   UNL A   1      43.023  29.251  34.090  1.00  0.00     0.037 A 
BRANCH  25  39
ATOM     39  C   UNL A   1      40.739  27.874  28.512  1.00  0.00     0.064 A 
ATOM     40  C   UNL A   1      40.046  26.656  28.471  1.00  0.00     0.173 A 
ATOM     41  C   UNL A   1      41.469  28.252  27.375  1.00  0.00     0.173 A 
ATOM     42  F   UNL A   1      39.340  26.243  29.535  1.00  0.00    -0.203 F 
ATOM     43  C   UNL A   1      40.111  25.831  27.350  1.00  0.00     0.198 A 
ATOM     44  C   UNL A   1      41.509  27.439  26.245  1.00  0.00     0.198 A 
ATOM     45  F   UNL A   1      42.144  29.410  27.358  1.00  0.00    -0.203 F 
ATOM     46  F   UNL A   1      39.485  24.646  27.354  1.00  0.00    -0.200 F 
ATOM     47  C   UNL A   1      40.839  26.224  26.236  1.00  0.00     0.200 A 
ATOM     48  F   UNL A   1      42.204  27.825  25.166  1.00  0.00    -0.200 F 
ATOM     49  F   UNL A   1      40.901  25.430  25.159  1.00  0.00    -0.200 F 
ENDBRANCH  25  39
BRANCH  26  50
ATOM     50  C   UNL A   1      39.761  33.735  36.545  1.00  0.00     0.064 A 
ATOM     51  C   UNL A   1      40.359  34.995  36.673  1.00  0.00     0.173 A 
ATOM     52  C   UNL A   1      38.902  33.309  37.570  1.00  0.00     0.173 A 
ATOM     53  F   UNL A   1      41.200  35.437  35.726  1.00  0.00    -0.203 F 
ATOM     54  C   UNL A   1      40.104  35.800  37.782  1.00  0.00     0.198 A 
ATOM     55  C   UNL A   1      38.629  34.124  38.663  1.00  0.00     0.198 A 
ATOM     56  F   UNL A   1      38.299  32.114  37.486  1.00  0.00    -0.203 F 
ATOM     57  F   UNL A   1      40.703  36.994  37.890  1.00  0.00    -0.200 F 
ATOM     58  C   UNL A   1      39.232  35.368  38.770  1.00  0.00     0.200 A 
ATOM     59  F   UNL A   1      37.771  33.712  39.607  1.00  0.00    -0.200 F 
ATOM     60  F   UNL A   1      38.971  36.153  39.825  1.00  0.00    -0.200 F 
ENDBRANCH  26  50
BRANCH  38  61
ATOM     61  C   UNL A   1      44.173  28.607  34.806  1.00  0.00     0.064 A 
ATOM     62  C   UNL A   1      45.467  29.142  34.743  1.00  0.00     0.173 A 
ATOM     63  C   UNL A   1      43.961  27.481  35.616  1.00  0.00     0.173 A 
ATOM     64  F   UNL A   1      45.721  30.208  33.969  1.00  0.00    -0.203 F 
ATOM     65  C   UNL A   1      46.512  28.566  35.462  1.00  0.00     0.198 A 
ATOM     66  C   UNL A   1      45.003  26.924  36.350  1.00  0.00     0.198 A 
ATOM     67  F   UNL A   1      42.740  26.937  35.709  1.00  0.00    -0.203 F 
ATOM     68  F   UNL A   1      47.748  29.075  35.366  1.00  0.00    -0.200 F 
ATOM     69  C   UNL A   1      46.278  27.465  36.271  1.00  0.00     0.200 A 
ATOM     70  F   UNL A   1      44.772  25.866  37.141  1.00  0.00    -0.200 F 
ATOM     71  F   UNL A   1      47.282  26.921  36.972  1.00  0.00    -0.200 F 
ENDBRANCH  38  61
ENDBRANCH  12  13
ENDBRANCH   5   7
ENDBRANCH   2   3
ENDBRANCH   1   2
BRANCH   1  72
ATOM     72  C   UNL A   1      31.409  30.470  26.328  1.00  0.00     0.117 C 
BRANCH  72  73
ATOM     73  N   UNL A   1      32.132  30.102  25.128  1.00  0.00    -0.356 N 
ATOM     74  C   UNL A   1      33.168  29.226  24.968  1.00  0.00     0.226 C 
ATOM     75  H   UNL A   1      31.830  30.549  24.305  1.00  0.00     0.163 HD
ATOM     76  O   UNL A   1      33.691  29.083  23.872  1.00  0.00    -0.274 OA
BRANCH  74  77
ATOM     77  C   UNL A   1      33.645  28.410  26.133  1.00  0.00     0.056 C 
ATOM     78  C   UNL A   1      34.942  28.912  26.775  1.00  0.00     0.018 C 
ATOM     79  C   UNL A   1      33.667  28.975  27.549  1.00  0.00     0.018 C 
BRANCH  77  80
ATOM     80  C   UNL A   1      33.547  26.896  25.945  1.00  0.00     0.084 C 
BRANCH  80  81
ATOM     81  C   UNL A   1      32.172  26.366  25.636  1.00  0.00     0.094 A 
ATOM     82  N   UNL A   1      31.215  26.214  26.528  1.00  0.00    -0.250 NA
ATOM     83  S   UNL A   1      31.740  25.938  24.025  1.00  0.00    -0.127 S 
ATOM     84  C   UNL A   1      30.070  25.739  25.923  1.00  0.00     0.123 A 
ATOM     85  C   UNL A   1      30.163  25.537  24.565  1.00  0.00     0.087 A 
ENDBRANCH  80  81
ENDBRANCH  77  80
ENDBRANCH  74  77
ENDBRANCH  72  73
ENDBRANCH   1  72
TORSDOF 12
ENDMDL
MODEL 2
REMARK VINA RESULT:     -11.0      0.267      1.690
REMARK SMILES O=C(NCCCNC(=O)C1(Cc2nccs2)CC1)c1ccc(-c2c3nc(c(-c4c(F)c(F)c(F)c(F)c4F)c4ccc([nH]4)c(-c4c(F)c(F)c(F)c(F)c4F)c4nc(c(-c5c(F)c(F)c(F)c(F)c5F)c5ccc2[nH]5)C=C4)C=C3)cc1
REMARK SMILES IDX 5 1 4 2 3 3 1 4 2 5 19 7 20 8 81 9 21 10 80 11 22 12 23 13
REMARK SMILES IDX 24 14 74 15 25 16 79 17 73 18 75 19 26 20 78 21 72 22 71 23
REMARK SMILES IDX 27 25 59 26 39 27 58 28 40 29 43 30 57 31 76 32 41 33 42 34
REMARK SMILES IDX 56 36 77 37 44 38 28 39 29 40 37 41 30 42 31 43 35 44 38 45
REMARK SMILES IDX 32 46 33 47 36 48 34 49 60 50 61 51 69 52 62 53 63 54 67 55
REMARK SMILES IDX 70 56 64 57 65 58 68 59 66 60 45 61 46 62 54 63 47 64 48 65
REMARK SMILES IDX 52 66 55 67 49 68 50 69 53 70 51 71 6 72 7 73 8 74 9 76
REMARK SMILES IDX 10 77 17 78 18 79 11 80 12 81 13 82 16 83 14 84 15 85
REMARK H PARENT 3 6 75 24 43 35 7 75
REMARK Flexibility Score: inf
ROOT
ATOM      1  C   UNL A   1      31.402  32.082  26.494  1.00  0.00     0.042 C 
ENDROOT
BRANCH   1   2
ATOM      2  C   UNL A   1      32.626  32.620  27.230  1.00  0.00     0.118 C 
BRANCH   2   3
ATOM      3  N   UNL A   1      32.455  34.011  27.621  1.00  0.00    -0.352 N 
ATOM      4  O   UNL A   1      32.668  35.813  28.958  1.00  0.00    -0.269 OA
ATOM      5  C   UNL A   1      33.081  34.707  28.622  1.00  0.00     0.251 C 
ATOM      6  H   UNL A   1      31.798  34.522  27.096  1.00  0.00     0.163 HD
BRANCH   5   7
ATOM      7  C   UNL A   1      34.252  34.120  29.302  1.00  0.00     0.039 A 
ATOM      8  C   UNL A   1      34.092  33.298  30.423  1.00  0.00     0.014 A 
ATOM      9  C   UNL A   1      35.525  34.360  28.779  1.00  0.00     0.014 A 
ATOM     10  C   UNL A   1      35.212  32.785  31.071  1.00  0.00     0.010 A 
ATOM     11  C   UNL A   1      36.642  33.797  29.395  1.00  0.00     0.010 A 
ATOM     12  C   UNL A   1      36.493  33.016  30.552  1.00  0.00    -0.014 A 
BRANCH  12  13
ATOM     13  C   UNL A   1      37.676  32.377  31.175  1.00  0.00     0.031 A 
ATOM     14  C   UNL A   1      38.387  31.249  30.492  1.00  0.00     0.074 A 
ATOM     15  C   UNL A   1      38.071  32.797  32.390  1.00  0.00     0.049 A 
ATOM     16  N   UNL A   1      39.377  30.511  30.927  1.00  0.00    -0.248 NA
ATOM     17  C   UNL A   1      37.915  30.891  29.146  1.00  0.00     0.031 C 
ATOM     18  C   UNL A   1      37.441  33.876  33.152  1.00  0.00     0.029 A 
ATOM     19  N   UNL A   1      39.082  32.356  33.206  1.00  0.00    -0.354 N 
ATOM     20  C   UNL A   1      39.632  29.589  29.922  1.00  0.00     0.074 A 
ATOM     21  C   UNL A   1      38.679  29.846  28.862  1.00  0.00     0.031 C 
ATOM     22  C   UNL A   1      38.077  34.013  34.324  1.00  0.00     0.029 A 
ATOM     23  C   UNL A   1      39.122  32.999  34.418  1.00  0.00     0.049 A 
ATOM     24  H   UNL A   1      39.715  31.648  32.949  1.00  0.00     0.167 HD
ATOM     25  C   UNL A   1      40.579  28.621  29.892  1.00  0.00     0.037 A 
ATOM     26  C   UNL A   1      39.890  32.775  35.500  1.00  0.00     0.037 A 
ATOM     27  C   UNL A   1      41.528  28.385  30.950  1.00  0.00     0.049 A 
ATOM     28  C   UNL A   1      40.918  31.683  35.452  1.00  0.00     0.074 A 
ATOM     29  C   UNL A   1      42.565  27.470  30.992  1.00  0.00     0.029 A 
ATOM     30  N   UNL A   1      41.545  29.065  32.161  1.00  0.00    -0.354 N 
ATOM     31  N   UNL A   1      41.187  30.849  34.478  1.00  0.00    -0.248 NA
ATOM     32  C   UNL A   1      41.750  31.501  36.648  1.00  0.00     0.031 C 
ATOM     33  C   UNL A   1      43.178  27.562  32.247  1.00  0.00     0.029 A 
ATOM     34  C   UNL A   1      42.557  28.569  32.968  1.00  0.00     0.049 A 
ATOM     35  H   UNL A   1      40.931  29.792  32.409  1.00  0.00     0.167 HD
ATOM     36  C   UNL A   1      42.227  30.053  34.934  1.00  0.00     0.074 A 
ATOM     37  C   UNL A   1      42.548  30.511  36.270  1.00  0.00     0.031 C 
ATOM     38  C   UNL A   1      42.861  29.038  34.298  1.00  0.00     0.037 A 
BRANCH  25  39
ATOM     39  C   UNL A   1      40.615  27.725  28.689  1.00  0.00     0.064 A 
ATOM     40  C   UNL A   1      41.401  28.023  27.566  1.00  0.00     0.173 A 
ATOM     41  C   UNL A   1      39.866  26.538  28.668  1.00  0.00     0.173 A 
ATOM     42  F   UNL A   1      42.128  29.150  27.531  1.00  0.00    -0.203 F 
ATOM     43  C   UNL A   1      41.410  27.185  26.453  1.00  0.00     0.198 A 
ATOM     44  C   UNL A   1      39.899  25.688  27.565  1.00  0.00     0.198 A 
ATOM     45  F   UNL A   1      39.104  26.200  29.717  1.00  0.00    -0.203 F 
ATOM     46  F   UNL A   1      42.126  27.519  25.371  1.00  0.00    -0.200 F 
ATOM     47  C   UNL A   1      40.662  26.017  26.454  1.00  0.00     0.200 A 
ATOM     48  F   UNL A   1      39.185  24.554  27.572  1.00  0.00    -0.200 F 
ATOM     49  F   UNL A   1      40.670  25.213  25.382  1.00  0.00    -0.200 F 
ENDBRANCH  25  39
BRANCH  26  50
ATOM     50  C   UNL A   1      39.686  33.607  36.712  1.00  0.00     0.064 A 
ATOM     51  C   UNL A   1      40.304  34.856  36.843  1.00  0.00     0.173 A 
ATOM     52  C   UNL A   1      38.813  33.196  37.731  1.00  0.00     0.173 A 
ATOM     53  F   UNL A   1      41.158  35.283  35.901  1.00  0.00    -0.203 F 
ATOM     54  C   UNL A   1      40.055  35.666  37.949  1.00  0.00     0.198 A 
ATOM     55  C   UNL A   1      38.547  34.017  38.822  1.00  0.00     0.198 A 
ATOM     56  F   UNL A   1      38.190  32.011  37.645  1.00  0.00    -0.203 F 
ATOM     57  F   UNL A   1      40.673  36.850  38.060  1.00  0.00    -0.200 F 
ATOM     58  C   UNL A   1      39.170  35.251  38.932  1.00  0.00     0.200 A 
ATOM     59  F   UNL A   1      37.676  33.620  39.760  1.00  0.00    -0.200 F 
ATOM     60  F   UNL A   1      38.915  36.041  39.984  1.00  0.00    -0.200 F 
ENDBRANCH  26  50
BRANCH  38  61
ATOM     61  C   UNL A   1      43.984  28.364  35.028  1.00  0.00     0.064 A 
ATOM     62  C   UNL A   1      43.769  27.218  35.806  1.00  0.00     0.173 A 
ATOM     63  C   UNL A   1      45.299  28.833  34.891  1.00  0.00     0.173 A 
ATOM     64  F   UNL A   1      42.527  26.742  35.978  1.00  0.00    -0.203 F 
ATOM     65  C   UNL A   1      44.833  26.571  36.429  1.00  0.00     0.198 A 
ATOM     66  C   UNL A   1      46.361  28.170  35.496  1.00  0.00     0.198 A 
ATOM     67  F   UNL A   1      45.554  29.925  34.154  1.00  0.00    -0.203 F 
ATOM     68  F   UNL A   1      44.603  25.492  37.192  1.00  0.00    -0.200 F 
ATOM     69  C   UNL A   1      46.127  27.040  36.267  1.00  0.00     0.200 A 
ATOM     70  F   UNL A   1      47.613  28.618  35.329  1.00  0.00    -0.200 F 
ATOM     71  F   UNL A   1      47.150  26.407  36.856  1.00  0.00    -0.200 F 
ENDBRANCH  38  61
ENDBRANCH  12  13
ENDBRANCH   5   7
ENDBRANCH   2   3
ENDBRANCH   1   2
BRANCH   1  72
ATOM     72  C   UNL A   1      31.403  30.561  26.375  1.00  0.00     0.117 C 
BRANCH  72  73
ATOM     73  N   UNL A   1      32.113  30.149  25.181  1.00  0.00    -0.356 N 
ATOM     74  C   UNL A   1      33.132  29.250  25.039  1.00  0.00     0.226 C 
ATOM     75  H   UNL A   1      31.817  30.582  24.349  1.00  0.00     0.163 HD
ATOM     76  O   UNL A   1      33.648  29.071  23.945  1.00  0.00    -0.274 OA
BRANCH  74  77
ATOM     77  C   UNL A   1      33.598  28.454  26.222  1.00  0.00     0.056 C 
ATOM     78  C   UNL A   1      34.882  28.975  26.876  1.00  0.00     0.018 C 
ATOM     79  C   UNL A   1      33.596  29.039  27.631  1.00  0.00     0.018 C 
BRANCH  77  80
ATOM     80  C   UNL A   1      33.515  26.938  26.055  1.00  0.00     0.084 C 
BRANCH  80  81
ATOM     81  C   UNL A   1      32.168  26.401  25.649  1.00  0.00     0.094 A 
ATOM     82  N   UNL A   1      31.103  26.396  26.426  1.00  0.00    -0.250 NA
ATOM     83  S   UNL A   1      31.918  25.763  24.069  1.00  0.00    -0.127 S 
ATOM     84  C   UNL A   1      30.023  25.868  25.750  1.00  0.00     0.123 A 
ATOM     85  C   UNL A   1      30.272  25.477  24.455  1.00  0.00     0.087 A 
ENDBRANCH  80  81
ENDBRANCH  77  80
ENDBRANCH  74  77
ENDBRANCH  72  73
ENDBRANCH   1  72
TORSDOF 12
ENDMDL
MODEL 3
REMARK VINA RESULT:     -10.9      6.207     11.369
REMARK SMILES O=C(NCCCNC(=O)C1(Cc2nccs2)CC1)c1ccc(-c2c3nc(c(-c4c(F)c(F)c(F)c(F)c4F)c4ccc([nH]4)c(-c4c(F)c(F)c(F)c(F)c4F)c4nc(c(-c5c(F)c(F)c(F)c(F)c5F)c5ccc2[nH]5)C=C4)C=C3)cc1
REMARK SMILES IDX 5 1 4 2 3 3 1 4 2 5 19 7 20 8 81 9 21 10 80 11 22 12 23 13
REMARK SMILES IDX 24 14 74 15 25 16 79 17 73 18 75 19 26 20 78 21 72 22 71 23
REMARK SMILES IDX 27 25 59 26 39 27 58 28 40 29 43 30 57 31 76 32 41 33 42 34
REMARK SMILES IDX 56 36 77 37 44 38 28 39 29 40 37 41 30 42 31 43 35 44 38 45
REMARK SMILES IDX 32 46 33 47 36 48 34 49 60 50 61 51 69 52 62 53 63 54 67 55
REMARK SMILES IDX 70 56 64 57 65 58 68 59 66 60 45 61 46 62 54 63 47 64 48 65
REMARK SMILES IDX 52 66 55 67 49 68 50 69 53 70 51 71 6 72 7 73 8 74 9 76
REMARK SMILES IDX 10 77 17 78 18 79 11 80 12 81 13 82 16 83 14 84 15 85
REMARK H PARENT 3 6 75 24 43 35 7 75
REMARK Flexibility Score: inf
ROOT
ATOM      1  C   UNL A   1      37.724  19.655  25.006  1.00  0.00     0.042 C 
ENDROOT
BRANCH   1   2
ATOM      2  C   UNL A   1      38.990  20.236  25.630  1.00  0.00     0.118 C 
BRANCH   2   3
ATOM      3  N   UNL A   1      40.017  19.223  25.816  1.00  0.00    -0.352 N 
ATOM      4  O   UNL A   1      42.121  18.431  25.972  1.00  0.00    -0.269 OA
ATOM      5  C   UNL A   1      41.358  19.388  26.051  1.00  0.00     0.251 C 
ATOM      6  H   UNL A   1      39.707  18.290  25.766  1.00  0.00     0.163 HD
BRANCH   5   7
ATOM      7  C   UNL A   1      41.882  20.724  26.394  1.00  0.00     0.039 A 
ATOM      8  C   UNL A   1      42.122  21.677  25.397  1.00  0.00     0.014 A 
ATOM      9  C   UNL A   1      42.093  21.040  27.738  1.00  0.00     0.014 A 
ATOM     10  C   UNL A   1      42.653  22.917  25.738  1.00  0.00     0.010 A 
ATOM     11  C   UNL A   1      42.569  22.305  28.083  1.00  0.00     0.010 A 
ATOM     12  C   UNL A   1      42.863  23.247  27.085  1.00  0.00    -0.014 A 
BRANCH  12  13
ATOM     13  C   UNL A   1      43.320  24.606  27.456  1.00  0.00     0.031 A 
ATOM     14  C   UNL A   1      42.360  25.614  28.011  1.00  0.00     0.074 A 
ATOM     15  C   UNL A   1      44.606  24.937  27.240  1.00  0.00     0.049 A 
ATOM     16  N   UNL A   1      42.560  26.874  28.303  1.00  0.00    -0.248 NA
ATOM     17  C   UNL A   1      40.987  25.148  28.258  1.00  0.00     0.031 C 
ATOM     18  C   UNL A   1      45.623  24.039  26.689  1.00  0.00     0.029 A 
ATOM     19  N   UNL A   1      45.274  26.119  27.438  1.00  0.00    -0.354 N 
ATOM     20  C   UNL A   1      41.337  27.359  28.745  1.00  0.00     0.074 A 
ATOM     21  C   UNL A   1      40.395  26.262  28.665  1.00  0.00     0.031 C 
ATOM     22  C   UNL A   1      46.784  24.701  26.591  1.00  0.00     0.029 A 
ATOM     23  C   UNL A   1      46.582  26.081  27.021  1.00  0.00     0.049 A 
ATOM     24  H   UNL A   1      44.857  26.914  27.839  1.00  0.00     0.167 HD
ATOM     25  C   UNL A   1      41.037  28.605  29.182  1.00  0.00     0.037 A 
ATOM     26  C   UNL A   1      47.505  27.057  26.957  1.00  0.00     0.037 A 
ATOM     27  C   UNL A   1      41.990  29.684  29.267  1.00  0.00     0.049 A 
ATOM     28  C   UNL A   1      47.144  28.435  27.425  1.00  0.00     0.074 A 
ATOM     29  C   UNL A   1      41.801  30.966  29.751  1.00  0.00     0.029 A 
ATOM     30  N   UNL A   1      43.310  29.604  28.845  1.00  0.00    -0.354 N 
ATOM     31  N   UNL A   1      46.000  28.873  27.891  1.00  0.00    -0.248 NA
ATOM     32  C   UNL A   1      48.198  29.456  27.362  1.00  0.00     0.031 C 
ATOM     33  C   UNL A   1      42.994  31.678  29.576  1.00  0.00     0.029 A 
ATOM     34  C   UNL A   1      43.940  30.825  29.031  1.00  0.00     0.049 A 
ATOM     35  H   UNL A   1      43.736  28.801  28.471  1.00  0.00     0.167 HD
ATOM     36  C   UNL A   1      46.197  30.212  28.192  1.00  0.00     0.074 A 
ATOM     37  C   UNL A   1      47.576  30.515  27.864  1.00  0.00     0.031 C 
ATOM     38  C   UNL A   1      45.315  31.108  28.698  1.00  0.00     0.037 A 
BRANCH  25  39
ATOM     39  C   UNL A   1      39.614  28.879  29.571  1.00  0.00     0.064 A 
ATOM     40  C   UNL A   1      38.677  29.373  28.651  1.00  0.00     0.173 A 
ATOM     41  C   UNL A   1      39.176  28.623  30.879  1.00  0.00     0.173 A 
ATOM     42  F   UNL A   1      39.046  29.645  27.390  1.00  0.00    -0.203 F 
ATOM     43  C   UNL A   1      37.364  29.634  29.036  1.00  0.00     0.198 A 
ATOM     44  C   UNL A   1      37.855  28.858  31.252  1.00  0.00     0.198 A 
ATOM     45  F   UNL A   1      40.028  28.142  31.796  1.00  0.00    -0.203 F 
ATOM     46  F   UNL A   1      36.500  30.158  28.155  1.00  0.00    -0.200 F 
ATOM     47  C   UNL A   1      36.952  29.373  30.334  1.00  0.00     0.200 A 
ATOM     48  F   UNL A   1      37.457  28.594  32.505  1.00  0.00    -0.200 F 
ATOM     49  F   UNL A   1      35.689  29.626  30.703  1.00  0.00    -0.200 F 
ENDBRANCH  25  39
BRANCH  26  50
ATOM     50  C   UNL A   1      48.849  26.741  26.412  1.00  0.00     0.064 A 
ATOM     51  C   UNL A   1      49.829  26.141  27.211  1.00  0.00     0.173 A 
ATOM     52  C   UNL A   1      49.154  26.972  25.062  1.00  0.00     0.173 A 
ATOM     53  F   UNL A   1      49.588  25.915  28.511  1.00  0.00    -0.203 F 
ATOM     54  C   UNL A   1      51.065  25.780  26.679  1.00  0.00     0.198 A 
ATOM     55  C   UNL A   1      50.379  26.589  24.526  1.00  0.00     0.198 A 
ATOM     56  F   UNL A   1      48.242  27.537  24.255  1.00  0.00    -0.203 F 
ATOM     57  F   UNL A   1      51.994  25.223  27.468  1.00  0.00    -0.200 F 
ATOM     58  C   UNL A   1      51.335  25.995  25.336  1.00  0.00     0.200 A 
ATOM     59  F   UNL A   1      50.628  26.780  23.224  1.00  0.00    -0.200 F 
ATOM     60  F   UNL A   1      52.517  25.627  24.821  1.00  0.00    -0.200 F 
ENDBRANCH  26  50
BRANCH  38  61
ATOM     61  C   UNL A   1      45.816  32.498  28.953  1.00  0.00     0.064 A 
ATOM     62  C   UNL A   1      45.685  33.512  27.995  1.00  0.00     0.173 A 
ATOM     63  C   UNL A   1      46.372  32.831  30.198  1.00  0.00     0.173 A 
ATOM     64  F   UNL A   1      45.174  33.237  26.786  1.00  0.00    -0.203 F 
ATOM     65  C   UNL A   1      46.103  34.811  28.272  1.00  0.00     0.198 A 
ATOM     66  C   UNL A   1      46.766  34.135  30.478  1.00  0.00     0.198 A 
ATOM     67  F   UNL A   1      46.515  31.894  31.147  1.00  0.00    -0.203 F 
ATOM     68  F   UNL A   1      45.995  35.761  27.332  1.00  0.00    -0.200 F 
ATOM     69  C   UNL A   1      46.634  35.124  29.514  1.00  0.00     0.200 A 
ATOM     70  F   UNL A   1      47.268  34.439  31.683  1.00  0.00    -0.200 F 
ATOM     71  F   UNL A   1      47.021  36.378  29.782  1.00  0.00    -0.200 F 
ENDBRANCH  38  61
ENDBRANCH  12  13
ENDBRANCH   5   7
ENDBRANCH   2   3
ENDBRANCH   1   2
BRANCH   1  72
ATOM     72  C   UNL A   1      36.649  20.708  24.755  1.00  0.00     0.117 C 
BRANCH  72  73
ATOM     73  N   UNL A   1      35.678  20.703  25.830  1.00  0.00    -0.356 N 
ATOM     74  C   UNL A   1      34.348  21.012  25.805  1.00  0.00     0.226 C 
ATOM     75  H   UNL A   1      36.029  20.436  26.710  1.00  0.00     0.163 HD
ATOM     76  O   UNL A   1      33.692  21.001  26.838  1.00  0.00    -0.274 OA
BRANCH  74  77
ATOM     77  C   UNL A   1      33.678  21.335  24.502  1.00  0.00     0.056 C 
ATOM     78  C   UNL A   1      32.911  22.660  24.489  1.00  0.00     0.018 C 
ATOM     79  C   UNL A   1      34.129  22.510  23.641  1.00  0.00     0.018 C 
BRANCH  77  80
ATOM     80  C   UNL A   1      32.970  20.159  23.831  1.00  0.00     0.084 C 
BRANCH  80  81
ATOM     81  C   UNL A   1      33.104  18.832  24.531  1.00  0.00     0.094 A 
ATOM     82  N   UNL A   1      32.277  18.393  25.458  1.00  0.00    -0.250 NA
ATOM     83  S   UNL A   1      34.379  17.750  24.121  1.00  0.00    -0.127 S 
ATOM     84  C   UNL A   1      32.655  17.134  25.875  1.00  0.00     0.123 A 
ATOM     85  C   UNL A   1      33.770  16.618  25.255  1.00  0.00     0.087 A 
ENDBRANCH  80  81
ENDBRANCH  77  80
ENDBRANCH  74  77
ENDBRANCH  72  73
ENDBRANCH   1  72
TORSDOF 12
ENDMDL
