MODEL 1
REMARK VINA RESULT:     -12.8      0.000      0.000
REMARK SMILES O=C(C[C@@H](NC(=O)C1CCN(C(=O)c2cccs2)CC1)c1cccs1)NCCCNC(=O)c1ccc(-c2c3nc(c(-c4c(F)c(F)c(F)c(F)c4F)c4ccc([nH]4)c(-c4c(F)c(F)c(F)c(F)c4F)c4nc(c(-c5c(F)c(F)c(F)c(F)c5F)c5ccc2[nH]5)C=C4)C=C3)cc1
REMARK SMILES IDX 27 1 26 2 1 3 2 4 3 6 4 7 5 8 6 9 7 11 8 12 9 13 20 14 10 15
REMARK SMILES IDX 19 16 11 17 12 18 13 19 14 20 15 21 18 22 16 23 17 24 21 25
REMARK SMILES IDX 22 26 25 27 23 28 24 29 28 30 29 31 30 32 31 33 32 35 33 36
REMARK SMILES IDX 34 37 95 38 35 39 94 40 36 41 37 42 38 43 88 44 39 45 93 46
REMARK SMILES IDX 87 47 89 48 40 49 92 50 86 51 85 52 41 54 73 55 53 56 72 57
REMARK SMILES IDX 54 58 57 59 71 60 90 61 55 62 56 63 70 65 91 66 58 67 42 68
REMARK SMILES IDX 43 69 51 70 44 71 45 72 49 73 52 74 46 75 47 76 50 77 48 78
REMARK SMILES IDX 74 79 75 80 83 81 76 82 77 83 81 84 84 85 78 86 79 87 82 88
REMARK SMILES IDX 80 89 59 90 60 91 68 92 61 93 62 94 66 95 69 96 63 97 64 98
REMARK SMILES IDX 67 99 65 100
REMARK H PARENT 26 5 5 10 30 34 89 53 57 64
REMARK Flexibility Score: inf
ROOT
ATOM      1  C   UNL A   1      37.142  21.036  24.986  1.00  0.00     0.117 C 
ENDROOT
BRANCH   1   2
ATOM      2  N   UNL A   1      35.840  20.583  25.442  1.00  0.00    -0.356 N 
ATOM      3  O   UNL A   1      35.084  22.653  26.092  1.00  0.00    -0.275 OA
ATOM      4  C   UNL A   1      34.904  21.448  25.964  1.00  0.00     0.222 C 
ATOM      5  H   UNL A   1      35.618  19.626  25.375  1.00  0.00     0.163 HD
BRANCH   4   6
ATOM      6  C   UNL A   1      33.589  20.797  26.320  1.00  0.00     0.130 C 
BRANCH   6   7
ATOM      7  C   UNL A   1      32.743  20.611  25.051  1.00  0.00     0.131 C 
BRANCH   7   8
ATOM      8  N   UNL A   1      33.071  21.647  24.044  1.00  0.00    -0.348 N 
ATOM      9  C   UNL A   1      32.354  22.585  23.364  1.00  0.00     0.223 C 
ATOM     10  H   UNL A   1      34.029  21.661  23.813  1.00  0.00     0.164 HD
ATOM     11  O   UNL A   1      32.671  22.782  22.189  1.00  0.00    -0.275 OA
BRANCH   9  12
ATOM     12  C   UNL A   1      31.326  23.453  24.078  1.00  0.00     0.082 C 
ATOM     13  C   UNL A   1      30.509  24.350  23.126  1.00  0.00     0.035 C 
ATOM     14  C   UNL A   1      32.036  24.267  25.177  1.00  0.00     0.035 C 
ATOM     15  C   UNL A   1      31.224  25.638  22.719  1.00  0.00     0.120 C 
ATOM     16  C   UNL A   1      32.738  25.506  24.625  1.00  0.00     0.120 C 
ATOM     17  N   UNL A   1      31.769  26.307  23.891  1.00  0.00    -0.338 N 
ATOM     18  C   UNL A   1      31.130  27.445  24.402  1.00  0.00     0.263 C 
ATOM     19  O   UNL A   1      30.063  27.836  23.924  1.00  0.00    -0.268 OA
BRANCH  18  20
ATOM     20  C   UNL A   1      31.779  28.145  25.499  1.00  0.00     0.092 A 
ATOM     21  C   UNL A   1      31.610  27.977  26.862  1.00  0.00     0.025 A 
ATOM     22  S   UNL A   1      32.969  29.328  25.158  1.00  0.00    -0.139 S 
ATOM     23  C   UNL A   1      32.429  28.859  27.625  1.00  0.00     0.012 A 
ATOM     24  C   UNL A   1      33.215  29.654  26.821  1.00  0.00     0.065 A 
ENDBRANCH  18  20
ENDBRANCH   9  12
ENDBRANCH   7   8
BRANCH   7  25
ATOM     25  C   UNL A   1      32.808  19.193  24.547  1.00  0.00     0.027 A 
ATOM     26  C   UNL A   1      32.886  18.727  23.243  1.00  0.00     0.017 A 
ATOM     27  S   UNL A   1      32.908  17.888  25.663  1.00  0.00    -0.147 S 
ATOM     28  C   UNL A   1      32.907  17.306  23.166  1.00  0.00     0.012 A 
ATOM     29  C   UNL A   1      32.899  16.725  24.413  1.00  0.00     0.065 A 
ENDBRANCH   7  25
ENDBRANCH   6   7
ENDBRANCH   4   6
ENDBRANCH   1   2
BRANCH   1  30
ATOM     30  C   UNL A   1      38.185  19.923  25.001  1.00  0.00     0.042 C 
BRANCH  30  31
ATOM     31  C   UNL A   1      39.221  20.038  26.114  1.00  0.00     0.118 C 
BRANCH  31  32
ATOM     32  N   UNL A   1      40.288  19.055  26.013  1.00  0.00    -0.352 N 
ATOM     33  C   UNL A   1      41.648  19.236  26.074  1.00  0.00     0.251 C 
ATOM     34  H   UNL A   1      39.993  18.125  25.882  1.00  0.00     0.163 HD
ATOM     35  O   UNL A   1      42.402  18.294  25.841  1.00  0.00    -0.269 OA
BRANCH  33  36
ATOM     36  C   UNL A   1      42.214  20.566  26.384  1.00  0.00     0.039 A 
ATOM     37  C   UNL A   1      42.533  21.422  25.324  1.00  0.00     0.014 A 
ATOM     38  C   UNL A   1      42.449  20.967  27.702  1.00  0.00     0.014 A 
ATOM     39  C   UNL A   1      43.024  22.703  25.587  1.00  0.00     0.010 A 
ATOM     40  C   UNL A   1      42.889  22.263  27.965  1.00  0.00     0.010 A 
ATOM     41  C   UNL A   1      43.175  23.144  26.910  1.00  0.00    -0.014 A 
BRANCH  41  42
ATOM     42  C   UNL A   1      43.631  24.523  27.218  1.00  0.00     0.031 A 
ATOM     43  C   UNL A   1      42.656  25.539  27.737  1.00  0.00     0.074 A 
ATOM     44  C   UNL A   1      44.902  24.880  26.954  1.00  0.00     0.049 A 
ATOM     45  N   UNL A   1      42.826  26.821  27.941  1.00  0.00    -0.248 NA
ATOM     46  C   UNL A   1      41.301  25.055  28.044  1.00  0.00     0.031 C 
ATOM     47  C   UNL A   1      45.936  23.995  26.418  1.00  0.00     0.029 A 
ATOM     48  N   UNL A   1      45.535  26.091  27.085  1.00  0.00    -0.354 N 
ATOM     49  C   UNL A   1      41.596  27.301  28.372  1.00  0.00     0.074 A 
ATOM     50  C   UNL A   1      40.682  26.178  28.376  1.00  0.00     0.031 C 
ATOM     51  C   UNL A   1      47.077  24.690  26.273  1.00  0.00     0.029 A 
ATOM     52  C   UNL A   1      46.844  26.075  26.675  1.00  0.00     0.049 A 
ATOM     53  H   UNL A   1      45.090  26.895  27.440  1.00  0.00     0.167 HD
ATOM     54  C   UNL A   1      41.265  28.561  28.738  1.00  0.00     0.037 A 
ATOM     55  C   UNL A   1      47.752  27.067  26.616  1.00  0.00     0.037 A 
ATOM     56  C   UNL A   1      42.182  29.668  28.774  1.00  0.00     0.049 A 
ATOM     57  C   UNL A   1      47.364  28.451  27.055  1.00  0.00     0.074 A 
ATOM     58  C   UNL A   1      41.950  30.969  29.186  1.00  0.00     0.029 A 
ATOM     59  N   UNL A   1      43.512  29.602  28.389  1.00  0.00    -0.354 N 
ATOM     60  N   UNL A   1      46.207  28.886  27.492  1.00  0.00    -0.248 NA
ATOM     61  C   UNL A   1      48.409  29.483  26.994  1.00  0.00     0.031 C 
ATOM     62  C   UNL A   1      43.136  31.697  29.029  1.00  0.00     0.029 A 
ATOM     63  C   UNL A   1      44.112  30.840  28.546  1.00  0.00     0.049 A 
ATOM     64  H   UNL A   1      43.963  28.793  28.054  1.00  0.00     0.167 HD
ATOM     65  C   UNL A   1      46.389  30.231  27.778  1.00  0.00     0.074 A 
ATOM     66  C   UNL A   1      47.769  30.542  27.473  1.00  0.00     0.031 C 
ATOM     67  C   UNL A   1      45.491  31.129  28.249  1.00  0.00     0.037 A 
BRANCH  54  68
ATOM     68  C   UNL A   1      39.841  28.810  29.135  1.00  0.00     0.064 A 
ATOM     69  C   UNL A   1      39.411  28.659  30.461  1.00  0.00     0.173 A 
ATOM     70  C   UNL A   1      38.902  29.234  28.182  1.00  0.00     0.173 A 
ATOM     71  F   UNL A   1      40.270  28.242  31.404  1.00  0.00    -0.203 F 
ATOM     72  C   UNL A   1      38.088  28.904  30.816  1.00  0.00     0.198 A 
ATOM     73  C   UNL A   1      37.585  29.499  28.546  1.00  0.00     0.198 A 
ATOM     74  F   UNL A   1      39.265  29.396  26.901  1.00  0.00    -0.203 F 
ATOM     75  F   UNL A   1      37.690  28.716  32.082  1.00  0.00    -0.200 F 
ATOM     76  C   UNL A   1      37.177  29.328  29.860  1.00  0.00     0.200 A 
ATOM     77  F   UNL A   1      36.708  29.917  27.621  1.00  0.00    -0.200 F 
ATOM     78  F   UNL A   1      35.905  29.567  30.204  1.00  0.00    -0.200 F 
ENDBRANCH  54  68
BRANCH  55  79
ATOM     79  C   UNL A   1      49.127  26.782  26.138  1.00  0.00     0.064 A 
ATOM     80  C   UNL A   1      49.470  26.974  24.793  1.00  0.00     0.173 A 
ATOM     81  C   UNL A   1      50.121  26.318  27.010  1.00  0.00     0.173 A 
ATOM     82  F   UNL A   1      48.544  27.396  23.921  1.00  0.00    -0.203 F 
ATOM     83  C   UNL A   1      50.756  26.700  24.334  1.00  0.00     0.198 A 
ATOM     84  C   UNL A   1      51.412  26.063  26.554  1.00  0.00     0.198 A 
ATOM     85  F   UNL A   1      49.839  26.121  28.306  1.00  0.00    -0.203 F 
ATOM     86  F   UNL A   1      51.050  26.859  23.037  1.00  0.00    -0.200 F 
ATOM     87  C   UNL A   1      51.727  26.249  25.217  1.00  0.00     0.200 A 
ATOM     88  F   UNL A   1      52.351  25.635  27.410  1.00  0.00    -0.200 F 
ATOM     89  F   UNL A   1      52.965  25.988  24.775  1.00  0.00    -0.200 F 
ENDBRANCH  55  79
BRANCH  67  90
ATOM     90  C   UNL A   1      45.979  32.523  28.494  1.00  0.00     0.064 A 
ATOM     91  C   UNL A   1      46.548  32.894  29.721  1.00  0.00     0.173 A 
ATOM     92  C   UNL A   1      45.912  33.487  27.478  1.00  0.00     0.173 A 
ATOM     93  F   UNL A   1      46.617  32.009  30.727  1.00  0.00    -0.203 F 
ATOM     94  C   UNL A   1      47.020  34.187  29.925  1.00  0.00     0.198 A 
ATOM     95  C   UNL A   1      46.403  34.774  27.680  1.00  0.00     0.198 A 
ATOM     96  F   UNL A   1      45.377  33.177  26.286  1.00  0.00    -0.203 F 
ATOM     97  F   UNL A   1      47.530  34.531  31.116  1.00  0.00    -0.200 F 
ATOM     98  C   UNL A   1      46.952  35.123  28.904  1.00  0.00     0.200 A 
ATOM     99  F   UNL A   1      46.343  35.676  26.691  1.00  0.00    -0.200 F 
ATOM    100  F   UNL A   1      47.411  36.366  29.102  1.00  0.00    -0.200 F 
ENDBRANCH  67  90
ENDBRANCH  41  42
ENDBRANCH  33  36
ENDBRANCH  31  32
ENDBRANCH  30  31
ENDBRANCH   1  30
TORSDOF 15
ENDMDL
MODEL 2
REMARK VINA RESULT:     -12.7      5.479     11.356
REMARK SMILES O=C(C[C@@H](NC(=O)C1CCN(C(=O)c2cccs2)CC1)c1cccs1)NCCCNC(=O)c1ccc(-c2c3nc(c(-c4c(F)c(F)c(F)c(F)c4F)c4ccc([nH]4)c(-c4c(F)c(F)c(F)c(F)c4F)c4nc(c(-c5c(F)c(F)c(F)c(F)c5F)c5ccc2[nH]5)C=C4)C=C3)cc1
REMARK SMILES IDX 27 1 26 2 1 3 2 4 3 6 4 7 5 8 6 9 7 11 8 12 9 13 20 14 10 15
REMARK SMILES IDX 19 16 11 17 12 18 13 19 14 20 15 21 18 22 16 23 17 24 21 25
REMARK SMILES IDX 22 26 25 27 23 28 24 29 28 30 29 31 30 32 31 33 32 35 33 36
REMARK SMILES IDX 34 37 95 38 35 39 94 40 36 41 37 42 38 43 88 44 39 45 93 46
REMARK SMILES IDX 87 47 89 48 40 49 92 50 86 51 85 52 41 54 73 55 53 56 72 57
REMARK SMILES IDX 54 58 57 59 71 60 90 61 55 62 56 63 70 65 91 66 58 67 42 68
REMARK SMILES IDX 43 69 51 70 44 71 45 72 49 73 52 74 46 75 47 76 50 77 48 78
REMARK SMILES IDX 74 79 75 80 83 81 76 82 77 83 81 84 84 85 78 86 79 87 82 88
REMARK SMILES IDX 80 89 59 90 60 91 68 92 61 93 62 94 66 95 69 96 63 97 64 98
REMARK SMILES IDX 67 99 65 100
REMARK H PARENT 26 5 5 10 30 34 89 53 57 64
REMARK Flexibility Score: inf
ROOT
ATOM      1  C   UNL A   1      31.785  30.640  26.575  1.00  0.00     0.117 C 
ENDROOT
BRANCH   1   2
ATOM      2  N   UNL A   1      31.645  30.231  25.190  1.00  0.00    -0.356 N 
ATOM      3  O   UNL A   1      33.204  28.545  25.283  1.00  0.00    -0.275 OA
ATOM      4  C   UNL A   1      32.380  29.197  24.653  1.00  0.00     0.222 C 
ATOM      5  H   UNL A   1      31.003  30.707  24.614  1.00  0.00     0.163 HD
BRANCH   4   6
ATOM      6  C   UNL A   1      32.044  28.880  23.215  1.00  0.00     0.130 C 
BRANCH   6   7
ATOM      7  C   UNL A   1      30.849  27.916  23.163  1.00  0.00     0.131 C 
BRANCH   7   8
ATOM      8  N   UNL A   1      30.803  27.071  24.378  1.00  0.00    -0.348 N 
ATOM      9  C   UNL A   1      30.690  25.733  24.611  1.00  0.00     0.223 C 
ATOM     10  H   UNL A   1      30.868  27.596  25.208  1.00  0.00     0.164 HD
ATOM     11  O   UNL A   1      30.002  25.393  25.576  1.00  0.00    -0.275 OA
BRANCH   9  12
ATOM     12  C   UNL A   1      31.512  24.727  23.814  1.00  0.00     0.082 C 
ATOM     13  C   UNL A   1      31.128  23.259  24.091  1.00  0.00     0.035 C 
ATOM     14  C   UNL A   1      33.008  24.994  24.065  1.00  0.00     0.035 C 
ATOM     15  C   UNL A   1      31.759  22.680  25.357  1.00  0.00     0.120 C 
ATOM     16  C   UNL A   1      33.497  24.391  25.380  1.00  0.00     0.120 C 
ATOM     17  N   UNL A   1      33.186  22.968  25.388  1.00  0.00    -0.338 N 
ATOM     18  C   UNL A   1      34.106  21.952  25.097  1.00  0.00     0.263 C 
ATOM     19  O   UNL A   1      33.722  20.841  24.728  1.00  0.00    -0.268 OA
BRANCH  18  20
ATOM     20  C   UNL A   1      35.519  22.258  25.258  1.00  0.00     0.092 A 
ATOM     21  C   UNL A   1      36.118  23.458  25.599  1.00  0.00     0.025 A 
ATOM     22  S   UNL A   1      36.679  21.012  25.065  1.00  0.00    -0.139 S 
ATOM     23  C   UNL A   1      37.539  23.360  25.655  1.00  0.00     0.012 A 
ATOM     24  C   UNL A   1      37.977  22.083  25.379  1.00  0.00     0.065 A 
ENDBRANCH  18  20
ENDBRANCH   9  12
ENDBRANCH   7   8
BRANCH   7  25
ATOM     25  C   UNL A   1      29.568  28.642  22.844  1.00  0.00     0.027 A 
ATOM     26  C   UNL A   1      28.272  28.352  23.245  1.00  0.00     0.017 A 
ATOM     27  S   UNL A   1      29.611  30.111  21.950  1.00  0.00    -0.147 S 
ATOM     28  C   UNL A   1      27.315  29.265  22.718  1.00  0.00     0.012 A 
ATOM     29  C   UNL A   1      27.911  30.259  21.975  1.00  0.00     0.065 A 
ENDBRANCH   7  25
ENDBRANCH   6   7
ENDBRANCH   4   6
ENDBRANCH   1   2
BRANCH   1  30
ATOM     30  C   UNL A   1      31.530  32.131  26.772  1.00  0.00     0.042 C 
BRANCH  30  31
ATOM     31  C   UNL A   1      32.758  32.937  27.182  1.00  0.00     0.118 C 
BRANCH  31  32
ATOM     32  N   UNL A   1      32.439  34.276  27.652  1.00  0.00    -0.352 N 
ATOM     33  C   UNL A   1      33.009  35.001  28.670  1.00  0.00     0.251 C 
ATOM     34  H   UNL A   1      31.709  34.728  27.171  1.00  0.00     0.163 HD
ATOM     35  O   UNL A   1      32.518  36.077  29.005  1.00  0.00    -0.269 OA
BRANCH  33  36
ATOM     36  C   UNL A   1      34.190  34.480  29.392  1.00  0.00     0.039 A 
ATOM     37  C   UNL A   1      33.996  33.847  30.624  1.00  0.00     0.014 A 
ATOM     38  C   UNL A   1      35.480  34.626  28.875  1.00  0.00     0.014 A 
ATOM     39  C   UNL A   1      35.086  33.301  31.306  1.00  0.00     0.010 A 
ATOM     40  C   UNL A   1      36.560  34.036  29.529  1.00  0.00     0.010 A 
ATOM     41  C   UNL A   1      36.372  33.365  30.748  1.00  0.00    -0.014 A 
BRANCH  41  42
ATOM     42  C   UNL A   1      37.537  32.735  31.418  1.00  0.00     0.031 A 
ATOM     43  C   UNL A   1      38.243  31.580  30.772  1.00  0.00     0.074 A 
ATOM     44  C   UNL A   1      37.907  33.153  32.644  1.00  0.00     0.049 A 
ATOM     45  N   UNL A   1      39.191  30.815  31.252  1.00  0.00    -0.248 NA
ATOM     46  C   UNL A   1      37.809  31.219  29.414  1.00  0.00     0.031 C 
ATOM     47  C   UNL A   1      37.281  34.243  33.392  1.00  0.00     0.029 A 
ATOM     48  N   UNL A   1      38.892  32.694  33.484  1.00  0.00    -0.354 N 
ATOM     49  C   UNL A   1      39.446  29.868  30.270  1.00  0.00     0.074 A 
ATOM     50  C   UNL A   1      38.536  30.137  29.176  1.00  0.00     0.031 C 
ATOM     51  C   UNL A   1      37.901  34.376  34.576  1.00  0.00     0.029 A 
ATOM     52  C   UNL A   1      38.945  33.359  34.683  1.00  0.00     0.049 A 
ATOM     53  H   UNL A   1      39.502  31.958  33.247  1.00  0.00     0.167 HD
ATOM     54  C   UNL A   1      40.362  28.871  30.277  1.00  0.00     0.037 A 
ATOM     55  C   UNL A   1      39.736  33.163  35.755  1.00  0.00     0.037 A 
ATOM     56  C   UNL A   1      41.294  28.628  31.344  1.00  0.00     0.049 A 
ATOM     57  C   UNL A   1      40.762  32.066  35.724  1.00  0.00     0.074 A 
ATOM     58  C   UNL A   1      42.297  27.675  31.416  1.00  0.00     0.029 A 
ATOM     59  N   UNL A   1      41.343  29.349  32.527  1.00  0.00    -0.354 N 
ATOM     60  N   UNL A   1      41.016  31.197  34.776  1.00  0.00    -0.248 NA
ATOM     61  C   UNL A   1      41.614  31.922  36.915  1.00  0.00     0.031 C 
ATOM     62  C   UNL A   1      42.939  27.807  32.653  1.00  0.00     0.029 A 
ATOM     63  C   UNL A   1      42.354  28.859  33.338  1.00  0.00     0.049 A 
ATOM     64  H   UNL A   1      40.748  30.099  32.756  1.00  0.00     0.167 HD
ATOM     65  C   UNL A   1      42.066  30.420  35.243  1.00  0.00     0.074 A 
ATOM     66  C   UNL A   1      42.410  30.924  36.556  1.00  0.00     0.031 C 
ATOM     67  C   UNL A   1      42.689  29.381  34.637  1.00  0.00     0.037 A 
BRANCH  54  68
ATOM     68  C   UNL A   1      40.400  27.964  29.084  1.00  0.00     0.064 A 
ATOM     69  C   UNL A   1      41.201  28.251  27.969  1.00  0.00     0.173 A 
ATOM     70  C   UNL A   1      39.652  26.777  29.070  1.00  0.00     0.173 A 
ATOM     71  F   UNL A   1      41.923  29.381  27.932  1.00  0.00    -0.203 F 
ATOM     72  C   UNL A   1      41.235  27.394  26.873  1.00  0.00     0.198 A 
ATOM     73  C   UNL A   1      39.706  25.911  27.982  1.00  0.00     0.198 A 
ATOM     74  F   UNL A   1      38.873  26.457  30.115  1.00  0.00    -0.203 F 
ATOM     75  F   UNL A   1      41.976  27.708  25.802  1.00  0.00    -0.200 F 
ATOM     76  C   UNL A   1      40.491  26.223  26.882  1.00  0.00     0.200 A 
ATOM     77  F   UNL A   1      38.993  24.775  27.995  1.00  0.00    -0.200 F 
ATOM     78  F   UNL A   1      40.527  25.397  25.828  1.00  0.00    -0.200 F 
ENDBRANCH  54  68
BRANCH  55  79
ATOM     79  C   UNL A   1      39.599  34.040  36.943  1.00  0.00     0.064 A 
ATOM     80  C   UNL A   1      38.818  33.646  38.037  1.00  0.00     0.173 A 
ATOM     81  C   UNL A   1      40.245  35.282  37.011  1.00  0.00     0.173 A 
ATOM     82  F   UNL A   1      38.165  32.475  38.005  1.00  0.00    -0.203 F 
ATOM     83  C   UNL A   1      38.678  34.467  39.153  1.00  0.00     0.198 A 
ATOM     84  C   UNL A   1      40.120  36.094  38.135  1.00  0.00     0.198 A 
ATOM     85  F   UNL A   1      41.005  35.701  35.988  1.00  0.00    -0.203 F 
ATOM     86  F   UNL A   1      37.898  34.082  40.171  1.00  0.00    -0.200 F 
ATOM     87  C   UNL A   1      39.334  35.689  39.202  1.00  0.00     0.200 A 
ATOM     88  F   UNL A   1      40.761  37.271  38.184  1.00  0.00    -0.200 F 
ATOM     89  F   UNL A   1      39.200  36.479  40.277  1.00  0.00    -0.200 F 
ENDBRANCH  55  79
BRANCH  67  90
ATOM     90  C   UNL A   1      43.825  28.740  35.373  1.00  0.00     0.064 A 
ATOM     91  C   UNL A   1      45.150  29.155  35.178  1.00  0.00     0.173 A 
ATOM     92  C   UNL A   1      43.581  27.726  36.311  1.00  0.00     0.173 A 
ATOM     93  F   UNL A   1      45.433  30.109  34.278  1.00  0.00    -0.203 F 
ATOM     94  C   UNL A   1      46.193  28.566  35.887  1.00  0.00     0.198 A 
ATOM     95  C   UNL A   1      44.624  27.153  37.032  1.00  0.00     0.198 A 
ATOM     96  F   UNL A   1      42.328  27.298  36.532  1.00  0.00    -0.203 F 
ATOM     97  F   UNL A   1      47.456  28.953  35.662  1.00  0.00    -0.200 F 
ATOM     98  C   UNL A   1      45.929  27.570  36.817  1.00  0.00     0.200 A 
ATOM     99  F   UNL A   1      44.368  26.196  37.934  1.00  0.00    -0.200 F 
ATOM    100  F   UNL A   1      46.934  27.008  37.501  1.00  0.00    -0.200 F 
ENDBRANCH  67  90
ENDBRANCH  41  42
ENDBRANCH  33  36
ENDBRANCH  31  32
ENDBRANCH  30  31
ENDBRANCH   1  30
TORSDOF 15
ENDMDL
MODEL 3
REMARK VINA RESULT:     -12.4      0.701      7.265
REMARK SMILES O=C(C[C@@H](NC(=O)C1CCN(C(=O)c2cccs2)CC1)c1cccs1)NCCCNC(=O)c1ccc(-c2c3nc(c(-c4c(F)c(F)c(F)c(F)c4F)c4ccc([nH]4)c(-c4c(F)c(F)c(F)c(F)c4F)c4nc(c(-c5c(F)c(F)c(F)c(F)c5F)c5ccc2[nH]5)C=C4)C=C3)cc1
REMARK SMILES IDX 27 1 26 2 1 3 2 4 3 6 4 7 5 8 6 9 7 11 8 12 9 13 20 14 10 15
REMARK SMILES IDX 19 16 11 17 12 18 13 19 14 20 15 21 18 22 16 23 17 24 21 25
REMARK SMILES IDX 22 26 25 27 23 28 24 29 28 30 29 31 30 32 31 33 32 35 33 36
REMARK SMILES IDX 34 37 95 38 35 39 94 40 36 41 37 42 38 43 88 44 39 45 93 46
REMARK SMILES IDX 87 47 89 48 40 49 92 50 86 51 85 52 41 54 73 55 53 56 72 57
REMARK SMILES IDX 54 58 57 59 71 60 90 61 55 62 56 63 70 65 91 66 58 67 42 68
REMARK SMILES IDX 43 69 51 70 44 71 45 72 49 73 52 74 46 75 47 76 50 77 48 78
REMARK SMILES IDX 74 79 75 80 83 81 76 82 77 83 81 84 84 85 78 86 79 87 82 88
REMARK SMILES IDX 80 89 59 90 60 91 68 92 61 93 62 94 66 95 69 96 63 97 64 98
REMARK SMILES IDX 67 99 65 100
REMARK H PARENT 26 5 5 10 30 34 89 53 57 64
REMARK Flexibility Score: inf
ROOT
ATOM      1  C   UNL A   1      37.353  20.728  24.848  1.00  0.00     0.117 C 
ENDROOT
BRANCH   1   2
ATOM      2  N   UNL A   1      36.076  20.308  25.394  1.00  0.00    -0.356 N 
ATOM      3  O   UNL A   1      35.234  22.426  25.687  1.00  0.00    -0.275 OA
ATOM      4  C   UNL A   1      35.106  21.210  25.772  1.00  0.00     0.222 C 
ATOM      5  H   UNL A   1      35.895  19.345  25.497  1.00  0.00     0.163 HD
BRANCH   4   6
ATOM      6  C   UNL A   1      33.824  20.576  26.254  1.00  0.00     0.130 C 
BRANCH   6   7
ATOM      7  C   UNL A   1      32.945  20.204  25.049  1.00  0.00     0.131 C 
BRANCH   7   8
ATOM      8  N   UNL A   1      33.150  21.159  23.936  1.00  0.00    -0.348 N 
ATOM      9  C   UNL A   1      32.369  22.084  23.310  1.00  0.00     0.223 C 
ATOM     10  H   UNL A   1      34.059  21.115  23.561  1.00  0.00     0.164 HD
ATOM     11  O   UNL A   1      32.507  22.193  22.089  1.00  0.00    -0.275 OA
BRANCH   9  12
ATOM     12  C   UNL A   1      31.496  23.041  24.110  1.00  0.00     0.082 C 
ATOM     13  C   UNL A   1      30.629  23.967  23.232  1.00  0.00     0.035 C 
ATOM     14  C   UNL A   1      32.386  23.833  25.086  1.00  0.00     0.035 C 
ATOM     15  C   UNL A   1      31.373  25.190  22.696  1.00  0.00     0.120 C 
ATOM     16  C   UNL A   1      33.097  25.004  24.411  1.00  0.00     0.120 C 
ATOM     17  N   UNL A   1      32.101  25.851  23.770  1.00  0.00    -0.338 N 
ATOM     18  C   UNL A   1      31.605  27.045  24.313  1.00  0.00     0.263 C 
ATOM     19  O   UNL A   1      30.516  27.496  23.953  1.00  0.00    -0.268 OA
BRANCH  18  20
ATOM     20  C   UNL A   1      32.428  27.727  25.299  1.00  0.00     0.092 A 
ATOM     21  C   UNL A   1      33.677  28.302  25.145  1.00  0.00     0.025 A 
ATOM     22  S   UNL A   1      31.831  27.943  26.890  1.00  0.00    -0.139 S 
ATOM     23  C   UNL A   1      34.163  28.878  26.355  1.00  0.00     0.012 A 
ATOM     24  C   UNL A   1      33.259  28.748  27.386  1.00  0.00     0.065 A 
ENDBRANCH  18  20
ENDBRANCH   9  12
ENDBRANCH   7   8
BRANCH   7  25
ATOM     25  C   UNL A   1      33.102  18.753  24.679  1.00  0.00     0.027 A 
ATOM     26  C   UNL A   1      33.743  18.190  23.585  1.00  0.00     0.017 A 
ATOM     27  S   UNL A   1      32.534  17.527  25.744  1.00  0.00    -0.147 S 
ATOM     28  C   UNL A   1      33.659  16.769  23.568  1.00  0.00     0.012 A 
ATOM     29  C   UNL A   1      33.005  16.281  24.676  1.00  0.00     0.065 A 
ENDBRANCH   7  25
ENDBRANCH   6   7
ENDBRANCH   4   6
ENDBRANCH   1   2
BRANCH   1  30
ATOM     30  C   UNL A   1      38.433  19.662  25.001  1.00  0.00     0.042 C 
BRANCH  30  31
ATOM     31  C   UNL A   1      39.422  19.917  26.132  1.00  0.00     0.118 C 
BRANCH  31  32
ATOM     32  N   UNL A   1      40.580  19.036  26.096  1.00  0.00    -0.352 N 
ATOM     33  C   UNL A   1      41.915  19.350  26.164  1.00  0.00     0.251 C 
ATOM     34  H   UNL A   1      40.377  18.077  26.009  1.00  0.00     0.163 HD
ATOM     35  O   UNL A   1      42.760  18.474  25.990  1.00  0.00    -0.269 OA
BRANCH  33  36
ATOM     36  C   UNL A   1      42.347  20.742  26.411  1.00  0.00     0.039 A 
ATOM     37  C   UNL A   1      42.547  21.587  25.314  1.00  0.00     0.014 A 
ATOM     38  C   UNL A   1      42.572  21.214  27.707  1.00  0.00     0.014 A 
ATOM     39  C   UNL A   1      42.908  22.921  25.518  1.00  0.00     0.010 A 
ATOM     40  C   UNL A   1      42.880  22.558  27.913  1.00  0.00     0.010 A 
ATOM     41  C   UNL A   1      43.046  23.423  26.821  1.00  0.00    -0.014 A 
BRANCH  41  42
ATOM     42  C   UNL A   1      43.362  24.853  27.067  1.00  0.00     0.031 A 
ATOM     43  C   UNL A   1      44.745  25.374  26.804  1.00  0.00     0.074 A 
ATOM     44  C   UNL A   1      42.427  25.660  27.603  1.00  0.00     0.049 A 
ATOM     45  N   UNL A   1      45.253  26.549  27.076  1.00  0.00    -0.248 NA
ATOM     46  C   UNL A   1      45.691  24.440  26.173  1.00  0.00     0.031 C 
ATOM     47  C   UNL A   1      41.058  25.266  27.935  1.00  0.00     0.029 A 
ATOM     48  N   UNL A   1      42.496  26.979  27.979  1.00  0.00    -0.354 N 
ATOM     49  C   UNL A   1      46.581  26.488  26.677  1.00  0.00     0.074 A 
ATOM     50  C   UNL A   1      46.809  25.152  26.168  1.00  0.00     0.031 C 
ATOM     51  C   UNL A   1      40.412  26.321  28.457  1.00  0.00     0.029 A 
ATOM     52  C   UNL A   1      41.331  27.455  28.527  1.00  0.00     0.049 A 
ATOM     53  H   UNL A   1      43.304  27.530  27.866  1.00  0.00     0.167 HD
ATOM     54  C   UNL A   1      47.521  27.461  26.724  1.00  0.00     0.037 A 
ATOM     55  C   UNL A   1      41.041  28.665  29.042  1.00  0.00     0.037 A 
ATOM     56  C   UNL A   1      47.286  28.801  27.191  1.00  0.00     0.049 A 
ATOM     57  C   UNL A   1      42.096  29.735  29.056  1.00  0.00     0.074 A 
ATOM     58  C   UNL A   1      48.163  29.871  27.223  1.00  0.00     0.029 A 
ATOM     59  N   UNL A   1      46.080  29.256  27.702  1.00  0.00    -0.354 N 
ATOM     60  N   UNL A   1      43.339  29.675  28.647  1.00  0.00    -0.248 NA
ATOM     61  C   UNL A   1      41.706  31.042  29.605  1.00  0.00     0.031 C 
ATOM     62  C   UNL A   1      47.494  30.970  27.775  1.00  0.00     0.029 A 
ATOM     63  C   UNL A   1      46.192  30.590  28.059  1.00  0.00     0.049 A 
ATOM     64  H   UNL A   1      45.265  28.712  27.796  1.00  0.00     0.167 HD
ATOM     65  C   UNL A   1      43.874  30.936  28.866  1.00  0.00     0.074 A 
ATOM     66  C   UNL A   1      42.818  31.745  29.438  1.00  0.00     0.031 C 
ATOM     67  C   UNL A   1      45.128  31.383  28.616  1.00  0.00     0.037 A 
BRANCH  54  68
ATOM     68  C   UNL A   1      48.900  27.109  26.252  1.00  0.00     0.064 A 
ATOM     69  C   UNL A   1      49.253  27.182  24.898  1.00  0.00     0.173 A 
ATOM     70  C   UNL A   1      49.888  26.724  27.171  1.00  0.00     0.173 A 
ATOM     71  F   UNL A   1      48.338  27.532  23.981  1.00  0.00    -0.203 F 
ATOM     72  C   UNL A   1      50.540  26.862  24.476  1.00  0.00     0.198 A 
ATOM     73  C   UNL A   1      51.180  26.426  26.748  1.00  0.00     0.198 A 
ATOM     74  F   UNL A   1      49.599  26.642  28.479  1.00  0.00    -0.203 F 
ATOM     75  F   UNL A   1      50.845  26.901  23.172  1.00  0.00    -0.200 F 
ATOM     76  C   UNL A   1      51.504  26.489  25.401  1.00  0.00     0.200 A 
ATOM     77  F   UNL A   1      52.112  26.074  27.645  1.00  0.00    -0.200 F 
ATOM     78  F   UNL A   1      52.743  26.185  24.994  1.00  0.00    -0.200 F 
ENDBRANCH  54  68
BRANCH  55  79
ATOM     79  C   UNL A   1      39.681  28.934  29.570  1.00  0.00     0.064 A 
ATOM     80  C   UNL A   1      39.376  28.690  30.916  1.00  0.00     0.173 A 
ATOM     81  C   UNL A   1      38.666  29.441  28.748  1.00  0.00     0.173 A 
ATOM     82  F   UNL A   1      40.311  28.184  31.732  1.00  0.00    -0.203 F 
ATOM     83  C   UNL A   1      38.099  28.932  31.418  1.00  0.00     0.198 A 
ATOM     84  C   UNL A   1      37.395  29.702  29.256  1.00  0.00     0.198 A 
ATOM     85  F   UNL A   1      38.913  29.693  27.454  1.00  0.00    -0.203 F 
ATOM     86  F   UNL A   1      37.823  28.658  32.700  1.00  0.00    -0.200 F 
ATOM     87  C   UNL A   1      37.112  29.442  30.588  1.00  0.00     0.200 A 
ATOM     88  F   UNL A   1      36.445  30.203  28.454  1.00  0.00    -0.200 F 
ATOM     89  F   UNL A   1      35.884  29.677  31.072  1.00  0.00    -0.200 F 
ENDBRANCH  55  79
BRANCH  67  90
ATOM     90  C   UNL A   1      45.419  32.817  28.931  1.00  0.00     0.064 A 
ATOM     91  C   UNL A   1      45.156  33.837  28.005  1.00  0.00     0.173 A 
ATOM     92  C   UNL A   1      45.931  33.180  30.185  1.00  0.00     0.173 A 
ATOM     93  F   UNL A   1      44.684  33.536  26.786  1.00  0.00    -0.203 F 
ATOM     94  C   UNL A   1      45.410  35.169  28.320  1.00  0.00     0.198 A 
ATOM     95  C   UNL A   1      46.165  34.514  30.504  1.00  0.00     0.198 A 
ATOM     96  F   UNL A   1      46.196  32.237  31.104  1.00  0.00    -0.203 F 
ATOM     97  F   UNL A   1      45.183  36.125  27.409  1.00  0.00    -0.200 F 
ATOM     98  C   UNL A   1      45.908  35.506  29.570  1.00  0.00     0.200 A 
ATOM     99  F   UNL A   1      46.640  34.840  31.714  1.00  0.00    -0.200 F 
ATOM    100  F   UNL A   1      46.147  36.789  29.873  1.00  0.00    -0.200 F 
ENDBRANCH  67  90
ENDBRANCH  41  42
ENDBRANCH  33  36
ENDBRANCH  31  32
ENDBRANCH  30  31
ENDBRANCH   1  30
TORSDOF 15
ENDMDL
