MODEL 1
REMARK VINA RESULT:     -12.0      0.000      0.000
REMARK SMILES Cc1nc(C(F)(F)F)c(C(=O)NCCCNC(=O)c2ccc(-c3c4nc(c(-c5c(F)c(F)c(F)c(F)c5F)c5ccc([nH]5)c(-c5c(F)c(F)c(F)c(F)c5F)c5nc(c(-c6c(F)c(F)c(F)c(F)c6F)c6ccc3[nH]6)C=C5)C=C4)cc2)s1
REMARK SMILES IDX 14 1 13 2 12 3 10 4 11 5 9 7 1 8 2 9 3 10 82 11 4 12 5 13
REMARK SMILES IDX 6 14 7 15 8 16 15 17 16 18 17 19 18 21 19 22 20 23 81 24
REMARK SMILES IDX 21 25 80 26 22 27 23 28 24 29 74 30 25 31 79 32 73 33 75 34
REMARK SMILES IDX 26 35 78 36 72 37 71 38 27 40 59 41 39 42 58 43 40 44 43 45
REMARK SMILES IDX 57 46 76 47 41 48 42 49 56 51 77 52 44 53 28 54 29 55 37 56
REMARK SMILES IDX 30 57 31 58 35 59 38 60 32 61 33 62 36 63 34 64 60 65 61 66
REMARK SMILES IDX 69 67 62 68 63 69 67 70 70 71 64 72 65 73 68 74 66 75 45 76
REMARK SMILES IDX 46 77 54 78 47 79 48 80 52 81 55 82 49 83 50 84 53 85 51 86
REMARK H PARENT 12 6 16 20 75 39 43 50
REMARK Flexibility Score: inf
ROOT
ATOM      1  C   UNL A   1      31.399  32.208  26.510  1.00  0.00     0.042 C 
ENDROOT
BRANCH   1   2
ATOM      2  C   UNL A   1      31.547  30.722  26.194  1.00  0.00     0.118 C 
BRANCH   2   3
ATOM      3  N   UNL A   1      31.059  30.419  24.874  1.00  0.00    -0.351 N 
ATOM      4  C   UNL A   1      30.904  29.293  24.117  1.00  0.00     0.263 C 
ATOM      5  O   UNL A   1      30.373  29.563  23.030  1.00  0.00    -0.268 OA
ATOM      6  H   UNL A   1      30.762  31.227  24.397  1.00  0.00     0.163 HD
BRANCH   4   7
ATOM      7  C   UNL A   1      31.268  27.921  24.478  1.00  0.00     0.124 A 
ATOM      8  C   UNL A   1      30.736  24.040  24.137  1.00  0.00     0.079 C 
ATOM      9  C   UNL A   1      31.093  25.454  24.424  1.00  0.00     0.091 A 
ATOM     10  N   UNL A   1      32.113  25.822  25.150  1.00  0.00    -0.236 NA
ATOM     11  S   UNL A   1      30.173  26.726  23.789  1.00  0.00    -0.113 S 
ATOM     12  C   UNL A   1      32.258  27.225  25.182  1.00  0.00     0.168 A 
BRANCH  12  13
ATOM     13  C   UNL A   1      33.469  27.696  25.925  1.00  0.00     0.435 C 
ATOM     14  F   UNL A   1      34.069  28.749  25.320  1.00  0.00    -0.164 F 
ATOM     15  F   UNL A   1      33.187  28.057  27.204  1.00  0.00    -0.164 F 
ATOM     16  F   UNL A   1      34.434  26.738  26.023  1.00  0.00    -0.164 F 
ENDBRANCH  12  13
ENDBRANCH   4   7
ENDBRANCH   2   3
ENDBRANCH   1   2
BRANCH   1  17
ATOM     17  C   UNL A   1      32.590  32.776  27.269  1.00  0.00     0.118 C 
BRANCH  17  18
ATOM     18  N   UNL A   1      32.403  34.190  27.580  1.00  0.00    -0.352 N 
ATOM     19  C   UNL A   1      32.974  34.967  28.558  1.00  0.00     0.251 C 
ATOM     20  H   UNL A   1      31.767  34.662  26.995  1.00  0.00     0.163 HD
ATOM     21  O   UNL A   1      32.490  36.061  28.826  1.00  0.00    -0.269 OA
BRANCH  19  22
ATOM     22  C   UNL A   1      34.159  34.485  29.296  1.00  0.00     0.039 A 
ATOM     23  C   UNL A   1      33.988  33.891  30.549  1.00  0.00     0.014 A 
ATOM     24  C   UNL A   1      35.441  34.639  28.764  1.00  0.00     0.014 A 
ATOM     25  C   UNL A   1      35.094  33.379  31.231  1.00  0.00     0.010 A 
ATOM     26  C   UNL A   1      36.527  34.048  29.397  1.00  0.00     0.010 A 
ATOM     27  C   UNL A   1      36.365  33.411  30.636  1.00  0.00    -0.014 A 
BRANCH  27  28
ATOM     28  C   UNL A   1      37.545  32.781  31.279  1.00  0.00     0.031 A 
ATOM     29  C   UNL A   1      38.241  31.631  30.606  1.00  0.00     0.074 A 
ATOM     30  C   UNL A   1      37.924  33.181  32.507  1.00  0.00     0.049 A 
ATOM     31  N   UNL A   1      39.196  30.860  31.060  1.00  0.00    -0.248 NA
ATOM     32  C   UNL A   1      37.777  31.279  29.254  1.00  0.00     0.031 C 
ATOM     33  C   UNL A   1      37.298  34.258  33.277  1.00  0.00     0.029 A 
ATOM     34  N   UNL A   1      38.913  32.714  33.336  1.00  0.00    -0.354 N 
ATOM     35  C   UNL A   1      39.433  29.925  30.061  1.00  0.00     0.074 A 
ATOM     36  C   UNL A   1      38.484  30.187  29.001  1.00  0.00     0.031 C 
ATOM     37  C   UNL A   1      37.928  34.381  34.455  1.00  0.00     0.029 A 
ATOM     38  C   UNL A   1      38.966  33.360  34.548  1.00  0.00     0.049 A 
ATOM     39  H   UNL A   1      39.527  31.986  33.087  1.00  0.00     0.167 HD
ATOM     40  C   UNL A   1      40.372  28.950  30.024  1.00  0.00     0.037 A 
ATOM     41  C   UNL A   1      39.750  33.139  35.620  1.00  0.00     0.037 A 
ATOM     42  C   UNL A   1      41.325  28.711  31.076  1.00  0.00     0.049 A 
ATOM     43  C   UNL A   1      40.766  32.029  35.565  1.00  0.00     0.074 A 
ATOM     44  C   UNL A   1      42.358  27.793  31.111  1.00  0.00     0.029 A 
ATOM     45  N   UNL A   1      41.355  29.395  32.282  1.00  0.00    -0.354 N 
ATOM     46  N   UNL A   1      41.029  31.196  34.587  1.00  0.00    -0.248 NA
ATOM     47  C   UNL A   1      41.595  31.829  36.761  1.00  0.00     0.031 C 
ATOM     48  C   UNL A   1      42.977  27.879  32.361  1.00  0.00     0.029 A 
ATOM     49  C   UNL A   1      42.371  28.894  33.083  1.00  0.00     0.049 A 
ATOM     50  H   UNL A   1      40.747  30.127  32.534  1.00  0.00     0.167 HD
ATOM     51  C   UNL A   1      42.067  30.393  35.039  1.00  0.00     0.074 A 
ATOM     52  C   UNL A   1      42.398  30.850  36.372  1.00  0.00     0.031 C 
ATOM     53  C   UNL A   1      42.689  29.368  34.406  1.00  0.00     0.037 A 
BRANCH  40  54
ATOM     54  C   UNL A   1      40.413  28.067  28.810  1.00  0.00     0.064 A 
ATOM     55  C   UNL A   1      41.164  28.410  27.674  1.00  0.00     0.173 A 
ATOM     56  C   UNL A   1      39.725  26.845  28.794  1.00  0.00     0.173 A 
ATOM     57  F   UNL A   1      41.833  29.572  27.631  1.00  0.00    -0.203 F 
ATOM     58  C   UNL A   1      41.197  27.578  26.558  1.00  0.00     0.198 A 
ATOM     59  C   UNL A   1      39.788  25.999  27.689  1.00  0.00     0.198 A 
ATOM     60  F   UNL A   1      38.996  26.464  29.854  1.00  0.00    -0.203 F 
ATOM     61  F   UNL A   1      41.877  27.952  25.465  1.00  0.00    -0.200 F 
ATOM     62  C   UNL A   1      40.516  26.370  26.568  1.00  0.00     0.200 A 
ATOM     63  F   UNL A   1      39.142  24.826  27.708  1.00  0.00    -0.200 F 
ATOM     64  F   UNL A   1      40.556  25.566  25.498  1.00  0.00    -0.200 F 
ENDBRANCH  40  54
BRANCH  41  65
ATOM     65  C   UNL A   1      39.611  33.988  36.833  1.00  0.00     0.064 A 
ATOM     66  C   UNL A   1      40.295  35.207  36.940  1.00  0.00     0.173 A 
ATOM     67  C   UNL A   1      38.798  33.601  37.910  1.00  0.00     0.173 A 
ATOM     68  F   UNL A   1      41.100  35.612  35.946  1.00  0.00    -0.203 F 
ATOM     69  C   UNL A   1      40.191  35.994  38.085  1.00  0.00     0.198 A 
ATOM     70  C   UNL A   1      38.670  34.405  39.041  1.00  0.00     0.198 A 
ATOM     71  F   UNL A   1      38.117  32.448  37.857  1.00  0.00    -0.203 F 
ATOM     72  F   UNL A   1      40.897  37.129  38.180  1.00  0.00    -0.200 F 
ATOM     73  C   UNL A   1      39.374  35.596  39.132  1.00  0.00     0.200 A 
ATOM     74  F   UNL A   1      37.866  34.023  40.042  1.00  0.00    -0.200 F 
ATOM     75  F   UNL A   1      39.272  36.355  40.230  1.00  0.00    -0.200 F 
ENDBRANCH  41  65
BRANCH  53  76
ATOM     76  C   UNL A   1      43.813  28.688  35.134  1.00  0.00     0.064 A 
ATOM     77  C   UNL A   1      43.593  27.570  35.950  1.00  0.00     0.173 A 
ATOM     78  C   UNL A   1      45.136  29.127  34.963  1.00  0.00     0.173 A 
ATOM     79  F   UNL A   1      42.345  27.121  36.157  1.00  0.00    -0.203 F 
ATOM     80  C   UNL A   1      44.652  26.926  36.584  1.00  0.00     0.198 A 
ATOM     81  C   UNL A   1      46.195  28.463  35.572  1.00  0.00     0.198 A 
ATOM     82  F   UNL A   1      45.402  30.189  34.187  1.00  0.00    -0.203 F 
ATOM     83  F   UNL A   1      44.414  25.885  37.393  1.00  0.00    -0.200 F 
ATOM     84  C   UNL A   1      45.953  27.367  36.386  1.00  0.00     0.200 A 
ATOM     85  F   UNL A   1      47.453  28.879  35.366  1.00  0.00    -0.200 F 
ATOM     86  F   UNL A   1      46.973  26.737  36.984  1.00  0.00    -0.200 F 
ENDBRANCH  53  76
ENDBRANCH  27  28
ENDBRANCH  19  22
ENDBRANCH  17  18
ENDBRANCH   1  17
TORSDOF 11
ENDMDL
MODEL 2
REMARK VINA RESULT:     -11.9      6.360     11.568
REMARK SMILES Cc1nc(C(F)(F)F)c(C(=O)NCCCNC(=O)c2ccc(-c3c4nc(c(-c5c(F)c(F)c(F)c(F)c5F)c5ccc([nH]5)c(-c5c(F)c(F)c(F)c(F)c5F)c5nc(c(-c6c(F)c(F)c(F)c(F)c6F)c6ccc3[nH]6)C=C5)C=C4)cc2)s1
REMARK SMILES IDX 14 1 13 2 12 3 10 4 11 5 9 7 1 8 2 9 3 10 82 11 4 12 5 13
REMARK SMILES IDX 6 14 7 15 8 16 15 17 16 18 17 19 18 21 19 22 20 23 81 24
REMARK SMILES IDX 21 25 80 26 22 27 23 28 24 29 74 30 25 31 79 32 73 33 75 34
REMARK SMILES IDX 26 35 78 36 72 37 71 38 27 40 59 41 39 42 58 43 40 44 43 45
REMARK SMILES IDX 57 46 76 47 41 48 42 49 56 51 77 52 44 53 28 54 29 55 37 56
REMARK SMILES IDX 30 57 31 58 35 59 38 60 32 61 33 62 36 63 34 64 60 65 61 66
REMARK SMILES IDX 69 67 62 68 63 69 67 70 70 71 64 72 65 73 68 74 66 75 45 76
REMARK SMILES IDX 46 77 54 78 47 79 48 80 52 81 55 82 49 83 50 84 53 85 51 86
REMARK H PARENT 12 6 16 20 75 39 43 50
REMARK Flexibility Score: inf
ROOT
ATOM      1  C   UNL A   1      38.042  19.819  24.900  1.00  0.00     0.042 C 
ENDROOT
BRANCH   1   2
ATOM      2  C   UNL A   1      36.747  20.607  25.077  1.00  0.00     0.118 C 
BRANCH   2   3
ATOM      3  N   UNL A   1      35.597  19.746  24.987  1.00  0.00    -0.351 N 
ATOM      4  C   UNL A   1      34.242  19.916  24.936  1.00  0.00     0.263 C 
ATOM      5  O   UNL A   1      33.667  18.826  24.804  1.00  0.00    -0.268 OA
ATOM      6  H   UNL A   1      35.850  18.795  24.953  1.00  0.00     0.163 HD
BRANCH   4   7
ATOM      7  C   UNL A   1      33.500  21.177  25.000  1.00  0.00     0.124 A 
ATOM      8  C   UNL A   1      30.863  23.672  23.492  1.00  0.00     0.079 C 
ATOM      9  C   UNL A   1      31.895  22.889  24.220  1.00  0.00     0.091 A 
ATOM     10  N   UNL A   1      32.373  23.213  25.390  1.00  0.00    -0.236 NA
ATOM     11  S   UNL A   1      32.527  21.464  23.560  1.00  0.00    -0.113 S 
ATOM     12  C   UNL A   1      33.275  22.244  25.877  1.00  0.00     0.168 A 
BRANCH  12  13
ATOM     13  C   UNL A   1      33.782  22.522  27.258  1.00  0.00     0.435 C 
ATOM     14  F   UNL A   1      34.692  23.524  27.282  1.00  0.00    -0.164 F 
ATOM     15  F   UNL A   1      32.784  22.845  28.123  1.00  0.00    -0.164 F 
ATOM     16  F   UNL A   1      34.412  21.449  27.815  1.00  0.00    -0.164 F 
ENDBRANCH  12  13
ENDBRANCH   4   7
ENDBRANCH   2   3
ENDBRANCH   1   2
BRANCH   1  17
ATOM     17  C   UNL A   1      39.131  20.237  25.878  1.00  0.00     0.118 C 
BRANCH  17  18
ATOM     18  N   UNL A   1      40.153  19.204  26.017  1.00  0.00    -0.352 N 
ATOM     19  C   UNL A   1      41.518  19.315  26.126  1.00  0.00     0.251 C 
ATOM     20  H   UNL A   1      39.809  18.282  26.034  1.00  0.00     0.163 HD
ATOM     21  O   UNL A   1      42.223  18.325  25.964  1.00  0.00    -0.269 OA
BRANCH  19  22
ATOM     22  C   UNL A   1      42.138  20.621  26.426  1.00  0.00     0.039 A 
ATOM     23  C   UNL A   1      42.586  21.422  25.372  1.00  0.00     0.014 A 
ATOM     24  C   UNL A   1      42.299  21.047  27.746  1.00  0.00     0.014 A 
ATOM     25  C   UNL A   1      43.121  22.684  25.639  1.00  0.00     0.010 A 
ATOM     26  C   UNL A   1      42.744  22.337  28.006  1.00  0.00     0.010 A 
ATOM     27  C   UNL A   1      43.159  23.169  26.956  1.00  0.00    -0.014 A 
BRANCH  27  28
ATOM     28  C   UNL A   1      43.618  24.545  27.269  1.00  0.00     0.031 A 
ATOM     29  C   UNL A   1      42.641  25.562  27.788  1.00  0.00     0.074 A 
ATOM     30  C   UNL A   1      44.887  24.900  26.993  1.00  0.00     0.049 A 
ATOM     31  N   UNL A   1      42.808  26.844  27.992  1.00  0.00    -0.248 NA
ATOM     32  C   UNL A   1      41.283  25.080  28.086  1.00  0.00     0.031 C 
ATOM     33  C   UNL A   1      45.915  24.011  26.447  1.00  0.00     0.029 A 
ATOM     34  N   UNL A   1      45.526  26.109  27.112  1.00  0.00    -0.354 N 
ATOM     35  C   UNL A   1      41.577  27.321  28.422  1.00  0.00     0.074 A 
ATOM     36  C   UNL A   1      40.657  26.206  28.396  1.00  0.00     0.031 C 
ATOM     37  C   UNL A   1      47.057  24.698  26.296  1.00  0.00     0.029 A 
ATOM     38  C   UNL A   1      46.831  26.087  26.683  1.00  0.00     0.049 A 
ATOM     39  H   UNL A   1      45.091  26.916  27.471  1.00  0.00     0.167 HD
ATOM     40  C   UNL A   1      41.252  28.573  28.823  1.00  0.00     0.037 A 
ATOM     41  C   UNL A   1      47.735  27.080  26.591  1.00  0.00     0.037 A 
ATOM     42  C   UNL A   1      42.181  29.672  28.865  1.00  0.00     0.049 A 
ATOM     43  C   UNL A   1      47.339  28.469  27.015  1.00  0.00     0.074 A 
ATOM     44  C   UNL A   1      41.971  30.962  29.315  1.00  0.00     0.029 A 
ATOM     45  N   UNL A   1      43.498  29.607  28.434  1.00  0.00    -0.354 N 
ATOM     46  N   UNL A   1      46.192  28.895  27.487  1.00  0.00    -0.248 NA
ATOM     47  C   UNL A   1      48.363  29.516  26.895  1.00  0.00     0.031 C 
ATOM     48  C   UNL A   1      43.142  31.695  29.103  1.00  0.00     0.029 A 
ATOM     49  C   UNL A   1      44.103  30.846  28.577  1.00  0.00     0.049 A 
ATOM     50  H   UNL A   1      43.938  28.801  28.079  1.00  0.00     0.167 HD
ATOM     51  C   UNL A   1      46.364  30.248  27.744  1.00  0.00     0.074 A 
ATOM     52  C   UNL A   1      47.731  30.570  27.392  1.00  0.00     0.031 C 
ATOM     53  C   UNL A   1      45.468  31.144  28.227  1.00  0.00     0.037 A 
BRANCH  40  54
ATOM     54  C   UNL A   1      39.832  28.823  29.246  1.00  0.00     0.064 A 
ATOM     55  C   UNL A   1      38.854  29.248  28.333  1.00  0.00     0.173 A 
ATOM     56  C   UNL A   1      39.435  28.598  30.572  1.00  0.00     0.173 A 
ATOM     57  F   UNL A   1      39.182  29.488  27.054  1.00  0.00    -0.203 F 
ATOM     58  C   UNL A   1      37.541  29.470  28.740  1.00  0.00     0.198 A 
ATOM     59  C   UNL A   1      38.113  28.788  30.968  1.00  0.00     0.198 A 
ATOM     60  F   UNL A   1      40.326  28.186  31.486  1.00  0.00    -0.203 F 
ATOM     61  F   UNL A   1      36.637  29.928  27.862  1.00  0.00    -0.200 F 
ATOM     62  C   UNL A   1      37.169  29.232  30.054  1.00  0.00     0.200 A 
ATOM     63  F   UNL A   1      37.753  28.543  32.235  1.00  0.00    -0.200 F 
ATOM     64  F   UNL A   1      35.903  29.437  30.442  1.00  0.00    -0.200 F 
ENDBRANCH  40  54
BRANCH  41  65
ATOM     65  C   UNL A   1      49.104  26.797  26.085  1.00  0.00     0.064 A 
ATOM     66  C   UNL A   1      49.428  26.994  24.735  1.00  0.00     0.173 A 
ATOM     67  C   UNL A   1      50.115  26.319  26.934  1.00  0.00     0.173 A 
ATOM     68  F   UNL A   1      48.492  27.430  23.880  1.00  0.00    -0.203 F 
ATOM     69  C   UNL A   1      50.701  26.703  24.249  1.00  0.00     0.198 A 
ATOM     70  C   UNL A   1      51.397  26.060  26.452  1.00  0.00     0.198 A 
ATOM     71  F   UNL A   1      49.861  26.118  28.235  1.00  0.00    -0.203 F 
ATOM     72  F   UNL A   1      50.967  26.853  22.944  1.00  0.00    -0.200 F 
ATOM     73  C   UNL A   1      51.686  26.243  25.109  1.00  0.00     0.200 A 
ATOM     74  F   UNL A   1      52.350  25.631  27.291  1.00  0.00    -0.200 F 
ATOM     75  F   UNL A   1      52.911  25.968  24.642  1.00  0.00    -0.200 F 
ENDBRANCH  41  65
BRANCH  53  76
ATOM     76  C   UNL A   1      45.945  32.554  28.433  1.00  0.00     0.064 A 
ATOM     77  C   UNL A   1      45.804  33.532  27.439  1.00  0.00     0.173 A 
ATOM     78  C   UNL A   1      46.495  32.942  29.665  1.00  0.00     0.173 A 
ATOM     79  F   UNL A   1      45.299  33.207  26.239  1.00  0.00    -0.203 F 
ATOM     80  C   UNL A   1      46.214  34.843  27.663  1.00  0.00     0.198 A 
ATOM     81  C   UNL A   1      46.873  34.260  29.897  1.00  0.00     0.198 A 
ATOM     82  F   UNL A   1      46.645  32.045  30.653  1.00  0.00    -0.203 F 
ATOM     83  F   UNL A   1      46.110  35.753  26.684  1.00  0.00    -0.200 F 
ATOM     84  C   UNL A   1      46.738  35.209  28.894  1.00  0.00     0.200 A 
ATOM     85  F   UNL A   1      47.363  34.616  31.093  1.00  0.00    -0.200 F 
ATOM     86  F   UNL A   1      47.117  36.475  29.113  1.00  0.00    -0.200 F 
ENDBRANCH  53  76
ENDBRANCH  27  28
ENDBRANCH  19  22
ENDBRANCH  17  18
ENDBRANCH   1  17
TORSDOF 11
ENDMDL
MODEL 3
REMARK VINA RESULT:     -11.9      5.130      9.798
REMARK SMILES Cc1nc(C(F)(F)F)c(C(=O)NCCCNC(=O)c2ccc(-c3c4nc(c(-c5c(F)c(F)c(F)c(F)c5F)c5ccc([nH]5)c(-c5c(F)c(F)c(F)c(F)c5F)c5nc(c(-c6c(F)c(F)c(F)c(F)c6F)c6ccc3[nH]6)C=C5)C=C4)cc2)s1
REMARK SMILES IDX 14 1 13 2 12 3 10 4 11 5 9 7 1 8 2 9 3 10 82 11 4 12 5 13
REMARK SMILES IDX 6 14 7 15 8 16 15 17 16 18 17 19 18 21 19 22 20 23 81 24
REMARK SMILES IDX 21 25 80 26 22 27 23 28 24 29 74 30 25 31 79 32 73 33 75 34
REMARK SMILES IDX 26 35 78 36 72 37 71 38 27 40 59 41 39 42 58 43 40 44 43 45
REMARK SMILES IDX 57 46 76 47 41 48 42 49 56 51 77 52 44 53 28 54 29 55 37 56
REMARK SMILES IDX 30 57 31 58 35 59 38 60 32 61 33 62 36 63 34 64 60 65 61 66
REMARK SMILES IDX 69 67 62 68 63 69 67 70 70 71 64 72 65 73 68 74 66 75 45 76
REMARK SMILES IDX 46 77 54 78 47 79 48 80 52 81 55 82 49 83 50 84 53 85 51 86
REMARK H PARENT 12 6 16 20 75 39 43 50
REMARK Flexibility Score: inf
ROOT
ATOM      1  C   UNL A   1      41.173  20.416  26.371  1.00  0.00     0.042 C 
ENDROOT
BRANCH   1   2
ATOM      2  C   UNL A   1      42.640  20.752  26.120  1.00  0.00     0.118 C 
BRANCH   2   3
ATOM      3  N   UNL A   1      42.775  21.988  25.395  1.00  0.00    -0.351 N 
ATOM      4  C   UNL A   1      43.467  23.154  25.557  1.00  0.00     0.263 C 
ATOM      5  O   UNL A   1      43.281  23.914  24.596  1.00  0.00    -0.268 OA
ATOM      6  H   UNL A   1      42.231  21.994  24.574  1.00  0.00     0.163 HD
BRANCH   4   7
ATOM      7  C   UNL A   1      44.345  23.520  26.671  1.00  0.00     0.124 A 
ATOM      8  C   UNL A   1      47.684  25.101  28.016  1.00  0.00     0.079 C 
ATOM      9  C   UNL A   1      46.380  24.451  27.725  1.00  0.00     0.091 A 
ATOM     10  N   UNL A   1      45.520  24.088  28.637  1.00  0.00    -0.236 NA
ATOM     11  S   UNL A   1      45.902  24.141  26.130  1.00  0.00    -0.113 S 
ATOM     12  C   UNL A   1      44.335  23.575  28.069  1.00  0.00     0.168 A 
BRANCH  12  13
ATOM     13  C   UNL A   1      43.277  23.231  29.072  1.00  0.00     0.435 C 
ATOM     14  F   UNL A   1      43.633  23.572  30.334  1.00  0.00    -0.164 F 
ATOM     15  F   UNL A   1      42.088  23.829  28.799  1.00  0.00    -0.164 F 
ATOM     16  F   UNL A   1      43.010  21.895  29.120  1.00  0.00    -0.164 F 
ENDBRANCH  12  13
ENDBRANCH   4   7
ENDBRANCH   2   3
ENDBRANCH   1   2
BRANCH   1  17
ATOM     17  C   UNL A   1      40.406  21.554  27.031  1.00  0.00     0.118 C 
BRANCH  17  18
ATOM     18  N   UNL A   1      39.304  22.016  26.193  1.00  0.00    -0.352 N 
ATOM     19  C   UNL A   1      38.661  23.229  26.162  1.00  0.00     0.251 C 
ATOM     20  H   UNL A   1      38.968  21.352  25.549  1.00  0.00     0.163 HD
ATOM     21  O   UNL A   1      37.588  23.334  25.577  1.00  0.00    -0.269 OA
BRANCH  19  22
ATOM     22  C   UNL A   1      39.250  24.403  26.837  1.00  0.00     0.039 A 
ATOM     23  C   UNL A   1      40.123  25.232  26.127  1.00  0.00     0.014 A 
ATOM     24  C   UNL A   1      38.959  24.675  28.175  1.00  0.00     0.014 A 
ATOM     25  C   UNL A   1      40.640  26.377  26.736  1.00  0.00     0.010 A 
ATOM     26  C   UNL A   1      39.399  25.861  28.750  1.00  0.00     0.010 A 
ATOM     27  C   UNL A   1      40.243  26.725  28.037  1.00  0.00    -0.014 A 
BRANCH  27  28
ATOM     28  C   UNL A   1      40.683  27.989  28.677  1.00  0.00     0.031 A 
ATOM     29  C   UNL A   1      42.096  28.128  29.171  1.00  0.00     0.074 A 
ATOM     30  C   UNL A   1      39.785  28.967  28.899  1.00  0.00     0.049 A 
ATOM     31  N   UNL A   1      42.638  29.088  29.874  1.00  0.00    -0.248 NA
ATOM     32  C   UNL A   1      43.015  27.020  28.861  1.00  0.00     0.031 C 
ATOM     33  C   UNL A   1      38.376  28.929  28.504  1.00  0.00     0.029 A 
ATOM     34  N   UNL A   1      39.918  30.178  29.533  1.00  0.00    -0.354 N 
ATOM     35  C   UNL A   1      43.948  28.694  30.105  1.00  0.00     0.074 A 
ATOM     36  C   UNL A   1      44.107  27.382  29.518  1.00  0.00     0.031 C 
ATOM     37  C   UNL A   1      37.780  30.069  28.886  1.00  0.00     0.029 A 
ATOM     38  C   UNL A   1      38.748  30.895  29.600  1.00  0.00     0.049 A 
ATOM     39  H   UNL A   1      40.770  30.503  29.904  1.00  0.00     0.167 HD
ATOM     40  C   UNL A   1      44.936  29.376  30.732  1.00  0.00     0.037 A 
ATOM     41  C   UNL A   1      38.482  32.076  30.189  1.00  0.00     0.037 A 
ATOM     42  C   UNL A   1      44.774  30.691  31.294  1.00  0.00     0.049 A 
ATOM     43  C   UNL A   1      39.591  32.800  30.905  1.00  0.00     0.074 A 
ATOM     44  C   UNL A   1      45.726  31.496  31.893  1.00  0.00     0.029 A 
ATOM     45  N   UNL A   1      43.577  31.390  31.331  1.00  0.00    -0.354 N 
ATOM     46  N   UNL A   1      40.845  32.450  31.057  1.00  0.00    -0.248 NA
ATOM     47  C   UNL A   1      39.247  34.084  31.532  1.00  0.00     0.031 C 
ATOM     48  C   UNL A   1      45.093  32.658  32.345  1.00  0.00     0.029 A 
ATOM     49  C   UNL A   1      43.759  32.605  31.974  1.00  0.00     0.049 A 
ATOM     50  H   UNL A   1      42.724  31.072  30.957  1.00  0.00     0.167 HD
ATOM     51  C   UNL A   1      41.444  33.478  31.771  1.00  0.00     0.074 A 
ATOM     52  C   UNL A   1      40.420  34.474  32.008  1.00  0.00     0.031 C 
ATOM     53  C   UNL A   1      42.728  33.587  32.194  1.00  0.00     0.037 A 
BRANCH  40  54
ATOM     54  C   UNL A   1      46.279  28.713  30.845  1.00  0.00     0.064 A 
ATOM     55  C   UNL A   1      46.620  27.919  31.952  1.00  0.00     0.173 A 
ATOM     56  C   UNL A   1      47.225  28.840  29.816  1.00  0.00     0.173 A 
ATOM     57  F   UNL A   1      45.757  27.772  32.969  1.00  0.00    -0.203 F 
ATOM     58  C   UNL A   1      47.867  27.306  32.038  1.00  0.00     0.198 A 
ATOM     59  C   UNL A   1      48.458  28.197  29.891  1.00  0.00     0.198 A 
ATOM     60  F   UNL A   1      46.951  29.581  28.733  1.00  0.00    -0.203 F 
ATOM     61  F   UNL A   1      48.189  26.598  33.130  1.00  0.00    -0.200 F 
ATOM     62  C   UNL A   1      48.782  27.438  31.005  1.00  0.00     0.200 A 
ATOM     63  F   UNL A   1      49.335  28.314  28.884  1.00  0.00    -0.200 F 
ATOM     64  F   UNL A   1      49.978  26.840  31.086  1.00  0.00    -0.200 F 
ENDBRANCH  40  54
BRANCH  41  65
ATOM     65  C   UNL A   1      37.112  32.651  30.121  1.00  0.00     0.064 A 
ATOM     66  C   UNL A   1      36.193  32.445  31.159  1.00  0.00     0.173 A 
ATOM     67  C   UNL A   1      36.690  33.411  29.019  1.00  0.00     0.173 A 
ATOM     68  F   UNL A   1      36.541  31.709  32.225  1.00  0.00    -0.203 F 
ATOM     69  C   UNL A   1      34.899  32.957  31.088  1.00  0.00     0.198 A 
ATOM     70  C   UNL A   1      35.406  33.950  28.965  1.00  0.00     0.198 A 
ATOM     71  F   UNL A   1      37.531  33.643  28.001  1.00  0.00    -0.203 F 
ATOM     72  F   UNL A   1      34.026  32.702  32.073  1.00  0.00    -0.200 F 
ATOM     73  C   UNL A   1      34.509  33.715  29.995  1.00  0.00     0.200 A 
ATOM     74  F   UNL A   1      35.040  34.694  27.913  1.00  0.00    -0.200 F 
ATOM     75  F   UNL A   1      33.266  34.210  29.930  1.00  0.00    -0.200 F 
ENDBRANCH  41  65
BRANCH  53  76
ATOM     76  C   UNL A   1      43.109  34.840  32.929  1.00  0.00     0.064 A 
ATOM     77  C   UNL A   1      43.477  36.010  32.251  1.00  0.00     0.173 A 
ATOM     78  C   UNL A   1      43.046  34.884  34.332  1.00  0.00     0.173 A 
ATOM     79  F   UNL A   1      43.568  36.014  30.912  1.00  0.00    -0.203 F 
ATOM     80  C   UNL A   1      43.787  37.174  32.949  1.00  0.00     0.198 A 
ATOM     81  C   UNL A   1      43.324  36.058  35.024  1.00  0.00     0.198 A 
ATOM     82  F   UNL A   1      42.692  33.793  35.028  1.00  0.00    -0.203 F 
ATOM     83  F   UNL A   1      44.178  38.269  32.282  1.00  0.00    -0.200 F 
ATOM     84  C   UNL A   1      43.700  37.200  34.333  1.00  0.00     0.200 A 
ATOM     85  F   UNL A   1      43.223  36.087  36.360  1.00  0.00    -0.200 F 
ATOM     86  F   UNL A   1      43.983  38.326  35.002  1.00  0.00    -0.200 F 
ENDBRANCH  53  76
ENDBRANCH  27  28
ENDBRANCH  19  22
ENDBRANCH  17  18
ENDBRANCH   1  17
TORSDOF 11
ENDMDL
