MODEL 1
REMARK VINA RESULT:     -12.9      0.000      0.000
REMARK SMILES O=C(NCCCNC(=O)[C@H]1CCC(=O)N(C2CCCCC2)[C@H]1c1ccccc1)c1ccc(-c2c3nc(c(-c4c(F)c(F)c(F)c(F)c4F)c4ccc([nH]4)c(-c4c(F)c(F)c(F)c(F)c4F)c4nc(c(-c5c(F)c(F)c(F)c(F)c5F)c5ccc2[nH]5)C=C4)C=C3)cc1
REMARK SMILES IDX 4 1 3 2 1 3 2 4 29 6 30 7 91 8 31 9 90 10 32 11 33 12 34 13
REMARK SMILES IDX 84 14 35 15 89 16 83 17 85 18 36 19 88 20 82 21 81 22 37 24
REMARK SMILES IDX 69 25 49 26 68 27 50 28 53 29 67 30 86 31 51 32 52 33 66 35
REMARK SMILES IDX 87 36 54 37 38 38 39 39 47 40 40 41 41 42 45 43 48 44 42 45
REMARK SMILES IDX 43 46 46 47 44 48 70 49 71 50 79 51 72 52 73 53 77 54 80 55
REMARK SMILES IDX 74 56 75 57 78 58 76 59 55 60 56 61 64 62 57 63 58 64 62 65
REMARK SMILES IDX 65 66 59 67 60 68 63 69 61 70 5 71 6 72 7 73 8 74 9 76 10 77
REMARK SMILES IDX 11 78 22 79 12 80 15 81 13 82 14 83 23 84 24 85 28 86 25 87
REMARK SMILES IDX 27 88 26 89 16 90 17 91 21 92 18 93 20 94 19 95
REMARK H PARENT 3 5 85 23 53 34 7 75
REMARK Flexibility Score: inf
ROOT
ATOM      1  C   UNL A   1      32.744  32.881  27.141  1.00  0.00     0.118 C 
ENDROOT
BRANCH   1   2
ATOM      2  N   UNL A   1      32.441  34.223  27.620  1.00  0.00    -0.352 N 
ATOM      3  O   UNL A   1      32.500  35.995  29.015  1.00  0.00    -0.269 OA
ATOM      4  C   UNL A   1      32.995  34.935  28.660  1.00  0.00     0.251 C 
ATOM      5  H   UNL A   1      31.732  34.692  27.123  1.00  0.00     0.163 HD
BRANCH   4   6
ATOM      6  C   UNL A   1      34.176  34.393  29.367  1.00  0.00     0.039 A 
ATOM      7  C   UNL A   1      35.460  34.646  28.891  1.00  0.00     0.014 A 
ATOM      8  C   UNL A   1      33.996  33.609  30.510  1.00  0.00     0.014 A 
ATOM      9  C   UNL A   1      36.538  33.953  29.420  1.00  0.00     0.010 A 
ATOM     10  C   UNL A   1      35.104  33.016  31.127  1.00  0.00     0.010 A 
ATOM     11  C   UNL A   1      36.380  33.150  30.561  1.00  0.00    -0.014 A 
BRANCH  11  12
ATOM     12  C   UNL A   1      37.590  32.531  31.160  1.00  0.00     0.031 A 
ATOM     13  C   UNL A   1      38.055  32.884  32.545  1.00  0.00     0.074 A 
ATOM     14  C   UNL A   1      38.226  31.575  30.453  1.00  0.00     0.049 A 
ATOM     15  N   UNL A   1      39.049  32.377  33.232  1.00  0.00    -0.248 NA
ATOM     16  C   UNL A   1      37.322  33.945  33.252  1.00  0.00     0.031 C 
ATOM     17  C   UNL A   1      37.877  31.169  29.089  1.00  0.00     0.029 A 
ATOM     18  N   UNL A   1      39.265  30.747  30.788  1.00  0.00    -0.354 N 
ATOM     19  C   UNL A   1      39.072  33.064  34.437  1.00  0.00     0.074 A 
ATOM     20  C   UNL A   1      38.009  34.045  34.382  1.00  0.00     0.031 C 
ATOM     21  C   UNL A   1      38.633  30.122  28.733  1.00  0.00     0.029 A 
ATOM     22  C   UNL A   1      39.570  29.832  29.810  1.00  0.00     0.049 A 
ATOM     23  H   UNL A   1      39.746  30.802  31.645  1.00  0.00     0.167 HD
ATOM     24  C   UNL A   1      39.899  32.883  35.496  1.00  0.00     0.037 A 
ATOM     25  C   UNL A   1      40.509  28.870  29.776  1.00  0.00     0.037 A 
ATOM     26  C   UNL A   1      40.947  31.895  35.548  1.00  0.00     0.049 A 
ATOM     27  C   UNL A   1      41.401  28.688  30.968  1.00  0.00     0.074 A 
ATOM     28  C   UNL A   1      41.839  31.633  36.575  1.00  0.00     0.029 A 
ATOM     29  N   UNL A   1      41.241  30.999  34.530  1.00  0.00    -0.354 N 
ATOM     30  N   UNL A   1      41.403  29.341  32.103  1.00  0.00    -0.248 NA
ATOM     31  C   UNL A   1      42.423  27.638  30.872  1.00  0.00     0.031 C 
ATOM     32  C   UNL A   1      42.692  30.602  36.164  1.00  0.00     0.029 A 
ATOM     33  C   UNL A   1      42.304  30.191  34.900  1.00  0.00     0.049 A 
ATOM     34  H   UNL A   1      40.763  30.946  33.670  1.00  0.00     0.167 HD
ATOM     35  C   UNL A   1      42.424  28.785  32.858  1.00  0.00     0.074 A 
ATOM     36  C   UNL A   1      42.993  27.713  32.065  1.00  0.00     0.031 C 
ATOM     37  C   UNL A   1      42.861  29.136  34.092  1.00  0.00     0.037 A 
BRANCH  24  38
ATOM     38  C   UNL A   1      39.713  33.775  36.689  1.00  0.00     0.064 A 
ATOM     39  C   UNL A   1      40.300  35.048  36.754  1.00  0.00     0.173 A 
ATOM     40  C   UNL A   1      38.890  33.378  37.755  1.00  0.00     0.173 A 
ATOM     41  F   UNL A   1      41.105  35.470  35.768  1.00  0.00    -0.203 F 
ATOM     42  C   UNL A   1      40.082  35.884  37.847  1.00  0.00     0.198 A 
ATOM     43  C   UNL A   1      38.654  34.227  38.834  1.00  0.00     0.198 A 
ATOM     44  F   UNL A   1      38.300  32.174  37.742  1.00  0.00    -0.203 F 
ATOM     45  F   UNL A   1      40.681  37.081  37.902  1.00  0.00    -0.200 F 
ATOM     46  C   UNL A   1      39.254  35.476  38.882  1.00  0.00     0.200 A 
ATOM     47  F   UNL A   1      37.844  33.836  39.828  1.00  0.00    -0.200 F 
ATOM     48  F   UNL A   1      39.037  36.287  39.927  1.00  0.00    -0.200 F 
ENDBRANCH  24  38
BRANCH  25  49
ATOM     49  C   UNL A   1      40.651  28.023  28.565  1.00  0.00     0.064 A 
ATOM     50  C   UNL A   1      39.993  26.790  28.459  1.00  0.00     0.173 A 
ATOM     51  C   UNL A   1      41.436  28.440  27.479  1.00  0.00     0.173 A 
ATOM     52  F   UNL A   1      39.243  26.341  29.476  1.00  0.00    -0.203 F 
ATOM     53  C   UNL A   1      40.128  26.000  27.320  1.00  0.00     0.198 A 
ATOM     54  C   UNL A   1      41.543  27.664  26.327  1.00  0.00     0.198 A 
ATOM     55  F   UNL A   1      42.079  29.616  27.527  1.00  0.00    -0.203 F 
ATOM     56  F   UNL A   1      39.523  24.805  27.260  1.00  0.00    -0.200 F 
ATOM     57  C   UNL A   1      40.897  26.440  26.252  1.00  0.00     0.200 A 
ATOM     58  F   UNL A   1      42.270  28.105  25.291  1.00  0.00    -0.200 F 
ATOM     59  F   UNL A   1      41.018  25.685  25.153  1.00  0.00    -0.200 F 
ENDBRANCH  25  49
BRANCH  37  60
ATOM     60  C   UNL A   1      44.005  28.346  34.651  1.00  0.00     0.064 A 
ATOM     61  C   UNL A   1      43.791  27.174  35.391  1.00  0.00     0.173 A 
ATOM     62  C   UNL A   1      45.328  28.763  34.443  1.00  0.00     0.173 A 
ATOM     63  F   UNL A   1      42.542  26.746  35.631  1.00  0.00    -0.203 F 
ATOM     64  C   UNL A   1      44.860  26.466  35.932  1.00  0.00     0.198 A 
ATOM     65  C   UNL A   1      46.396  28.037  34.963  1.00  0.00     0.198 A 
ATOM     66  F   UNL A   1      45.583  29.876  33.739  1.00  0.00    -0.203 F 
ATOM     67  F   UNL A   1      44.629  25.380  36.684  1.00  0.00    -0.200 F 
ATOM     68  C   UNL A   1      46.160  26.895  35.715  1.00  0.00     0.200 A 
ATOM     69  F   UNL A   1      47.652  28.448  34.745  1.00  0.00    -0.200 F 
ATOM     70  F   UNL A   1      47.188  26.215  36.241  1.00  0.00    -0.200 F 
ENDBRANCH  37  60
ENDBRANCH  11  12
ENDBRANCH   4   6
ENDBRANCH   1   2
BRANCH   1  71
ATOM     71  C   UNL A   1      31.507  32.085  26.765  1.00  0.00     0.042 C 
BRANCH  71  72
ATOM     72  C   UNL A   1      31.733  30.584  26.681  1.00  0.00     0.117 C 
BRANCH  72  73
ATOM     73  N   UNL A   1      32.415  30.214  25.457  1.00  0.00    -0.356 N 
ATOM     74  C   UNL A   1      33.009  29.043  25.114  1.00  0.00     0.225 C 
ATOM     75  H   UNL A   1      32.452  30.918  24.770  1.00  0.00     0.163 HD
ATOM     76  O   UNL A   1      33.981  29.137  24.363  1.00  0.00    -0.275 OA
BRANCH  74  77
ATOM     77  C   UNL A   1      32.573  27.727  25.741  1.00  0.00     0.106 C 
ATOM     78  C   UNL A   1      31.068  27.490  25.849  1.00  0.00     0.026 C 
ATOM     79  C   UNL A   1      33.175  26.484  25.024  1.00  0.00     0.128 C 
ATOM     80  C   UNL A   1      30.845  26.332  26.797  1.00  0.00     0.101 C 
ATOM     81  N   UNL A   1      32.886  25.257  25.816  1.00  0.00    -0.332 N 
ATOM     82  C   UNL A   1      31.747  25.126  26.607  1.00  0.00     0.223 C 
ATOM     83  O   UNL A   1      31.463  24.094  27.219  1.00  0.00    -0.275 OA
BRANCH  79  84
ATOM     84  C   UNL A   1      32.733  26.327  23.555  1.00  0.00    -0.025 A 
ATOM     85  C   UNL A   1      33.652  26.189  22.500  1.00  0.00     0.006 A 
ATOM     86  C   UNL A   1      31.368  26.271  23.228  1.00  0.00     0.006 A 
ATOM     87  C   UNL A   1      33.226  25.965  21.188  1.00  0.00     0.000 A 
ATOM     88  C   UNL A   1      30.939  26.015  21.922  1.00  0.00     0.000 A 
ATOM     89  C   UNL A   1      31.869  25.858  20.903  1.00  0.00     0.000 A 
ENDBRANCH  79  84
BRANCH  81  90
ATOM     90  C   UNL A   1      33.804  24.102  25.651  1.00  0.00     0.085 C 
ATOM     91  C   UNL A   1      33.317  23.144  24.547  1.00  0.00     0.025 C 
ATOM     92  C   UNL A   1      35.271  24.536  25.459  1.00  0.00     0.025 C 
ATOM     93  C   UNL A   1      34.295  21.999  24.296  1.00  0.00     0.002 C 
ATOM     94  C   UNL A   1      36.204  23.363  25.181  1.00  0.00     0.002 C 
ATOM     95  C   UNL A   1      35.701  22.516  24.019  1.00  0.00     0.000 C 
ENDBRANCH  81  90
ENDBRANCH  74  77
ENDBRANCH  72  73
ENDBRANCH  71  72
ENDBRANCH   1  71
TORSDOF 12
ENDMDL
MODEL 2
REMARK VINA RESULT:     -12.8      1.982      3.511
REMARK SMILES O=C(NCCCNC(=O)[C@H]1CCC(=O)N(C2CCCCC2)[C@H]1c1ccccc1)c1ccc(-c2c3nc(c(-c4c(F)c(F)c(F)c(F)c4F)c4ccc([nH]4)c(-c4c(F)c(F)c(F)c(F)c4F)c4nc(c(-c5c(F)c(F)c(F)c(F)c5F)c5ccc2[nH]5)C=C4)C=C3)cc1
REMARK SMILES IDX 4 1 3 2 1 3 2 4 29 6 30 7 91 8 31 9 90 10 32 11 33 12 34 13
REMARK SMILES IDX 84 14 35 15 89 16 83 17 85 18 36 19 88 20 82 21 81 22 37 24
REMARK SMILES IDX 69 25 49 26 68 27 50 28 53 29 67 30 86 31 51 32 52 33 66 35
REMARK SMILES IDX 87 36 54 37 38 38 39 39 47 40 40 41 41 42 45 43 48 44 42 45
REMARK SMILES IDX 43 46 46 47 44 48 70 49 71 50 79 51 72 52 73 53 77 54 80 55
REMARK SMILES IDX 74 56 75 57 78 58 76 59 55 60 56 61 64 62 57 63 58 64 62 65
REMARK SMILES IDX 65 66 59 67 60 68 63 69 61 70 5 71 6 72 7 73 8 74 9 76 10 77
REMARK SMILES IDX 11 78 22 79 12 80 15 81 13 82 14 83 23 84 24 85 28 86 25 87
REMARK SMILES IDX 27 88 26 89 16 90 17 91 21 92 18 93 20 94 19 95
REMARK H PARENT 3 5 85 23 53 34 7 75
REMARK Flexibility Score: inf
ROOT
ATOM      1  C   UNL A   1      33.278  29.089  25.360  1.00  0.00     0.118 C 
ENDROOT
BRANCH   1   2
ATOM      2  N   UNL A   1      32.712  30.327  25.880  1.00  0.00    -0.352 N 
ATOM      3  O   UNL A   1      32.454  32.057  27.305  1.00  0.00    -0.269 OA
ATOM      4  C   UNL A   1      33.151  31.136  26.904  1.00  0.00     0.251 C 
ATOM      5  H   UNL A   1      31.890  30.631  25.431  1.00  0.00     0.163 HD
BRANCH   4   6
ATOM      6  C   UNL A   1      34.460  30.864  27.538  1.00  0.00     0.039 A 
ATOM      7  C   UNL A   1      34.770  29.586  27.996  1.00  0.00     0.014 A 
ATOM      8  C   UNL A   1      35.382  31.905  27.691  1.00  0.00     0.014 A 
ATOM      9  C   UNL A   1      35.892  29.393  28.786  1.00  0.00     0.010 A 
ATOM     10  C   UNL A   1      36.582  31.675  28.374  1.00  0.00     0.010 A 
ATOM     11  C   UNL A   1      36.827  30.426  28.964  1.00  0.00    -0.014 A 
BRANCH  11  12
ATOM     12  C   UNL A   1      38.074  30.126  29.715  1.00  0.00     0.031 A 
ATOM     13  C   UNL A   1      38.292  30.627  31.114  1.00  0.00     0.074 A 
ATOM     14  C   UNL A   1      38.982  29.319  29.132  1.00  0.00     0.049 A 
ATOM     15  N   UNL A   1      39.295  30.389  31.924  1.00  0.00    -0.248 NA
ATOM     16  C   UNL A   1      37.266  31.514  31.681  1.00  0.00     0.031 C 
ATOM     17  C   UNL A   1      38.884  28.793  27.768  1.00  0.00     0.029 A 
ATOM     18  N   UNL A   1      40.139  28.765  29.617  1.00  0.00    -0.354 N 
ATOM     19  C   UNL A   1      39.030  31.106  33.083  1.00  0.00     0.074 A 
ATOM     20  C   UNL A   1      37.785  31.812  32.865  1.00  0.00     0.031 C 
ATOM     21  C   UNL A   1      39.892  27.937  27.551  1.00  0.00     0.029 A 
ATOM     22  C   UNL A   1      40.747  27.911  28.730  1.00  0.00     0.049 A 
ATOM     23  H   UNL A   1      40.498  28.962  30.511  1.00  0.00     0.167 HD
ATOM     24  C   UNL A   1      39.757  31.161  34.226  1.00  0.00     0.037 A 
ATOM     25  C   UNL A   1      41.878  27.192  28.845  1.00  0.00     0.037 A 
ATOM     26  C   UNL A   1      40.989  30.444  34.440  1.00  0.00     0.049 A 
ATOM     27  C   UNL A   1      42.652  27.265  30.128  1.00  0.00     0.074 A 
ATOM     28  C   UNL A   1      41.800  30.434  35.563  1.00  0.00     0.029 A 
ATOM     29  N   UNL A   1      41.587  29.605  33.511  1.00  0.00    -0.354 N 
ATOM     30  N   UNL A   1      42.383  27.942  31.216  1.00  0.00    -0.248 NA
ATOM     31  C   UNL A   1      43.890  26.477  30.195  1.00  0.00     0.031 C 
ATOM     32  C   UNL A   1      42.903  29.614  35.300  1.00  0.00     0.029 A 
ATOM     33  C   UNL A   1      42.759  29.079  34.031  1.00  0.00     0.049 A 
ATOM     34  H   UNL A   1      41.230  29.411  32.613  1.00  0.00     0.167 HD
ATOM     35  C   UNL A   1      43.415  27.664  32.099  1.00  0.00     0.074 A 
ATOM     36  C   UNL A   1      44.295  26.725  31.432  1.00  0.00     0.031 C 
ATOM     37  C   UNL A   1      43.624  28.153  33.346  1.00  0.00     0.037 A 
BRANCH  24  38
ATOM     38  C   UNL A   1      39.245  32.029  35.340  1.00  0.00     0.064 A 
ATOM     39  C   UNL A   1      38.456  31.506  36.375  1.00  0.00     0.173 A 
ATOM     40  C   UNL A   1      39.597  33.386  35.405  1.00  0.00     0.173 A 
ATOM     41  F   UNL A   1      38.081  30.218  36.352  1.00  0.00    -0.203 F 
ATOM     42  C   UNL A   1      38.025  32.312  37.426  1.00  0.00     0.198 A 
ATOM     43  C   UNL A   1      39.186  34.183  36.471  1.00  0.00     0.198 A 
ATOM     44  F   UNL A   1      40.355  33.935  34.444  1.00  0.00    -0.203 F 
ATOM     45  F   UNL A   1      37.244  31.799  38.385  1.00  0.00    -0.200 F 
ATOM     46  C   UNL A   1      38.397  33.647  37.477  1.00  0.00     0.200 A 
ATOM     47  F   UNL A   1      39.556  35.470  36.525  1.00  0.00    -0.200 F 
ATOM     48  F   UNL A   1      37.991  34.419  38.495  1.00  0.00    -0.200 F 
ENDBRANCH  24  38
BRANCH  25  49
ATOM     49  C   UNL A   1      42.339  26.357  27.707  1.00  0.00     0.064 A 
ATOM     50  C   UNL A   1      41.811  25.078  27.484  1.00  0.00     0.173 A 
ATOM     51  C   UNL A   1      43.306  26.831  26.809  1.00  0.00     0.173 A 
ATOM     52  F   UNL A   1      40.896  24.575  28.324  1.00  0.00    -0.203 F 
ATOM     53  C   UNL A   1      42.245  24.300  26.414  1.00  0.00     0.198 A 
ATOM     54  C   UNL A   1      43.715  26.066  25.720  1.00  0.00     0.198 A 
ATOM     55  F   UNL A   1      43.835  28.053  26.974  1.00  0.00    -0.203 F 
ATOM     56  F   UNL A   1      41.757  23.063  26.246  1.00  0.00    -0.200 F 
ATOM     57  C   UNL A   1      43.191  24.796  25.528  1.00  0.00     0.200 A 
ATOM     58  F   UNL A   1      44.613  26.559  24.856  1.00  0.00    -0.200 F 
ATOM     59  F   UNL A   1      43.602  24.051  24.494  1.00  0.00    -0.200 F 
ENDBRANCH  25  49
BRANCH  37  60
ATOM     60  C   UNL A   1      44.850  27.669  34.061  1.00  0.00     0.064 A 
ATOM     61  C   UNL A   1      46.069  28.355  33.968  1.00  0.00     0.173 A 
ATOM     62  C   UNL A   1      44.804  26.509  34.848  1.00  0.00     0.173 A 
ATOM     63  F   UNL A   1      46.166  29.460  33.211  1.00  0.00    -0.203 F 
ATOM     64  C   UNL A   1      47.208  27.879  34.610  1.00  0.00     0.198 A 
ATOM     65  C   UNL A   1      45.939  26.051  35.511  1.00  0.00     0.198 A 
ATOM     66  F   UNL A   1      43.660  25.820  34.971  1.00  0.00    -0.203 F 
ATOM     67  F   UNL A   1      48.376  28.519  34.460  1.00  0.00    -0.200 F 
ATOM     68  C   UNL A   1      47.142  26.730  35.383  1.00  0.00     0.200 A 
ATOM     69  F   UNL A   1      45.872  24.946  36.265  1.00  0.00    -0.200 F 
ATOM     70  F   UNL A   1      48.240  26.270  35.997  1.00  0.00    -0.200 F 
ENDBRANCH  37  60
ENDBRANCH  11  12
ENDBRANCH   4   6
ENDBRANCH   1   2
BRANCH   1  71
ATOM     71  C   UNL A   1      32.317  27.916  25.428  1.00  0.00     0.042 C 
BRANCH  71  72
ATOM     72  C   UNL A   1      32.378  26.989  24.224  1.00  0.00     0.117 C 
BRANCH  72  73
ATOM     73  N   UNL A   1      31.218  26.123  24.158  1.00  0.00    -0.356 N 
ATOM     74  C   UNL A   1      31.102  24.802  24.450  1.00  0.00     0.225 C 
ATOM     75  H   UNL A   1      30.388  26.558  23.855  1.00  0.00     0.163 HD
ATOM     76  O   UNL A   1      30.272  24.180  23.786  1.00  0.00    -0.275 OA
BRANCH  74  77
ATOM     77  C   UNL A   1      32.045  24.130  25.435  1.00  0.00     0.106 C 
ATOM     78  C   UNL A   1      31.412  23.164  26.434  1.00  0.00     0.026 C 
ATOM     79  C   UNL A   1      33.204  23.361  24.737  1.00  0.00     0.128 C 
ATOM     80  C   UNL A   1      32.425  22.888  27.524  1.00  0.00     0.101 C 
ATOM     81  N   UNL A   1      34.199  22.918  25.753  1.00  0.00    -0.332 N 
ATOM     82  C   UNL A   1      33.845  22.612  27.065  1.00  0.00     0.223 C 
ATOM     83  O   UNL A   1      34.646  22.186  27.899  1.00  0.00    -0.275 OA
BRANCH  79  84
ATOM     84  C   UNL A   1      32.740  22.188  23.851  1.00  0.00    -0.025 A 
ATOM     85  C   UNL A   1      32.453  22.340  22.483  1.00  0.00     0.006 A 
ATOM     86  C   UNL A   1      32.630  20.894  24.389  1.00  0.00     0.006 A 
ATOM     87  C   UNL A   1      32.114  21.245  21.684  1.00  0.00     0.000 A 
ATOM     88  C   UNL A   1      32.323  19.792  23.586  1.00  0.00     0.000 A 
ATOM     89  C   UNL A   1      32.068  19.967  22.232  1.00  0.00     0.000 A 
ENDBRANCH  79  84
BRANCH  81  90
ATOM     90  C   UNL A   1      35.593  22.696  25.295  1.00  0.00     0.085 C 
ATOM     91  C   UNL A   1      36.591  23.583  26.064  1.00  0.00     0.025 C 
ATOM     92  C   UNL A   1      35.990  21.205  25.308  1.00  0.00     0.025 C 
ATOM     93  C   UNL A   1      38.040  23.304  25.676  1.00  0.00     0.002 C 
ATOM     94  C   UNL A   1      37.452  20.978  24.945  1.00  0.00     0.002 C 
ATOM     95  C   UNL A   1      38.378  21.824  25.809  1.00  0.00     0.000 C 
ENDBRANCH  81  90
ENDBRANCH  74  77
ENDBRANCH  72  73
ENDBRANCH  71  72
ENDBRANCH   1  71
TORSDOF 12
ENDMDL
MODEL 3
REMARK VINA RESULT:     -12.7      0.864      1.876
REMARK SMILES O=C(NCCCNC(=O)[C@H]1CCC(=O)N(C2CCCCC2)[C@H]1c1ccccc1)c1ccc(-c2c3nc(c(-c4c(F)c(F)c(F)c(F)c4F)c4ccc([nH]4)c(-c4c(F)c(F)c(F)c(F)c4F)c4nc(c(-c5c(F)c(F)c(F)c(F)c5F)c5ccc2[nH]5)C=C4)C=C3)cc1
REMARK SMILES IDX 4 1 3 2 1 3 2 4 29 6 30 7 91 8 31 9 90 10 32 11 33 12 34 13
REMARK SMILES IDX 84 14 35 15 89 16 83 17 85 18 36 19 88 20 82 21 81 22 37 24
REMARK SMILES IDX 69 25 49 26 68 27 50 28 53 29 67 30 86 31 51 32 52 33 66 35
REMARK SMILES IDX 87 36 54 37 38 38 39 39 47 40 40 41 41 42 45 43 48 44 42 45
REMARK SMILES IDX 43 46 46 47 44 48 70 49 71 50 79 51 72 52 73 53 77 54 80 55
REMARK SMILES IDX 74 56 75 57 78 58 76 59 55 60 56 61 64 62 57 63 58 64 62 65
REMARK SMILES IDX 65 66 59 67 60 68 63 69 61 70 5 71 6 72 7 73 8 74 9 76 10 77
REMARK SMILES IDX 11 78 22 79 12 80 15 81 13 82 14 83 23 84 24 85 28 86 25 87
REMARK SMILES IDX 27 88 26 89 16 90 17 91 21 92 18 93 20 94 19 95
REMARK H PARENT 3 5 85 23 53 34 7 75
REMARK Flexibility Score: inf
ROOT
ATOM      1  C   UNL A   1      32.774  32.950  27.218  1.00  0.00     0.118 C 
ENDROOT
BRANCH   1   2
ATOM      2  N   UNL A   1      32.465  34.284  27.715  1.00  0.00    -0.352 N 
ATOM      3  O   UNL A   1      32.516  36.038  29.134  1.00  0.00    -0.269 OA
ATOM      4  C   UNL A   1      33.016  34.986  28.764  1.00  0.00     0.251 C 
ATOM      5  H   UNL A   1      31.752  34.756  27.226  1.00  0.00     0.163 HD
BRANCH   4   6
ATOM      6  C   UNL A   1      34.202  34.441  29.461  1.00  0.00     0.039 A 
ATOM      7  C   UNL A   1      35.481  34.664  28.957  1.00  0.00     0.014 A 
ATOM      8  C   UNL A   1      34.031  33.684  30.624  1.00  0.00     0.014 A 
ATOM      9  C   UNL A   1      36.557  33.967  29.481  1.00  0.00     0.010 A 
ATOM     10  C   UNL A   1      35.141  33.088  31.234  1.00  0.00     0.010 A 
ATOM     11  C   UNL A   1      36.408  33.190  30.642  1.00  0.00    -0.014 A 
BRANCH  11  12
ATOM     12  C   UNL A   1      37.620  32.566  31.233  1.00  0.00     0.031 A 
ATOM     13  C   UNL A   1      38.095  32.916  32.615  1.00  0.00     0.074 A 
ATOM     14  C   UNL A   1      38.248  31.609  30.521  1.00  0.00     0.049 A 
ATOM     15  N   UNL A   1      39.092  32.404  33.295  1.00  0.00    -0.248 NA
ATOM     16  C   UNL A   1      37.371  33.979  33.327  1.00  0.00     0.031 C 
ATOM     17  C   UNL A   1      37.888  31.205  29.159  1.00  0.00     0.029 A 
ATOM     18  N   UNL A   1      39.286  30.775  30.849  1.00  0.00    -0.354 N 
ATOM     19  C   UNL A   1      39.125  33.090  34.501  1.00  0.00     0.074 A 
ATOM     20  C   UNL A   1      38.065  34.075  34.454  1.00  0.00     0.031 C 
ATOM     21  C   UNL A   1      38.638  30.155  28.798  1.00  0.00     0.029 A 
ATOM     22  C   UNL A   1      39.580  29.860  29.868  1.00  0.00     0.049 A 
ATOM     23  H   UNL A   1      39.772  30.828  31.703  1.00  0.00     0.167 HD
ATOM     24  C   UNL A   1      39.959  32.905  35.554  1.00  0.00     0.037 A 
ATOM     25  C   UNL A   1      40.516  28.895  29.826  1.00  0.00     0.037 A 
ATOM     26  C   UNL A   1      41.003  31.913  35.599  1.00  0.00     0.049 A 
ATOM     27  C   UNL A   1      41.414  28.709  31.013  1.00  0.00     0.074 A 
ATOM     28  C   UNL A   1      41.900  31.647  36.620  1.00  0.00     0.029 A 
ATOM     29  N   UNL A   1      41.287  31.017  34.577  1.00  0.00    -0.354 N 
ATOM     30  N   UNL A   1      41.426  29.361  32.149  1.00  0.00    -0.248 NA
ATOM     31  C   UNL A   1      42.432  27.655  30.909  1.00  0.00     0.031 C 
ATOM     32  C   UNL A   1      42.746  30.613  36.202  1.00  0.00     0.029 A 
ATOM     33  C   UNL A   1      42.349  30.205  34.940  1.00  0.00     0.049 A 
ATOM     34  H   UNL A   1      40.803  30.966  33.721  1.00  0.00     0.167 HD
ATOM     35  C   UNL A   1      42.450  28.799  32.896  1.00  0.00     0.074 A 
ATOM     36  C   UNL A   1      43.010  27.726  32.099  1.00  0.00     0.031 C 
ATOM     37  C   UNL A   1      42.896  29.148  34.128  1.00  0.00     0.037 A 
BRANCH  24  38
ATOM     38  C   UNL A   1      39.784  33.797  36.750  1.00  0.00     0.064 A 
ATOM     39  C   UNL A   1      40.403  35.053  36.826  1.00  0.00     0.173 A 
ATOM     40  C   UNL A   1      38.939  33.418  37.804  1.00  0.00     0.173 A 
ATOM     41  F   UNL A   1      41.230  35.458  35.850  1.00  0.00    -0.203 F 
ATOM     42  C   UNL A   1      40.197  35.890  37.920  1.00  0.00     0.198 A 
ATOM     43  C   UNL A   1      38.715  34.268  38.885  1.00  0.00     0.198 A 
ATOM     44  F   UNL A   1      38.318  32.230  37.780  1.00  0.00    -0.203 F 
ATOM     45  F   UNL A   1      40.826  37.071  37.987  1.00  0.00    -0.200 F 
ATOM     46  C   UNL A   1      39.347  35.501  38.945  1.00  0.00     0.200 A 
ATOM     47  F   UNL A   1      37.884  33.894  39.869  1.00  0.00    -0.200 F 
ATOM     48  F   UNL A   1      39.140  36.312  39.991  1.00  0.00    -0.200 F 
ENDBRANCH  24  38
BRANCH  25  49
ATOM     49  C   UNL A   1      40.646  28.048  28.614  1.00  0.00     0.064 A 
ATOM     50  C   UNL A   1      41.447  28.443  27.534  1.00  0.00     0.173 A 
ATOM     51  C   UNL A   1      39.984  26.815  28.520  1.00  0.00     0.173 A 
ATOM     52  F   UNL A   1      42.088  29.621  27.571  1.00  0.00    -0.203 F 
ATOM     53  C   UNL A   1      41.567  27.645  26.399  1.00  0.00     0.198 A 
ATOM     54  C   UNL A   1      40.132  26.002  27.399  1.00  0.00     0.198 A 
ATOM     55  F   UNL A   1      39.213  26.387  29.530  1.00  0.00    -0.203 F 
ATOM     56  F   UNL A   1      42.305  28.064  25.362  1.00  0.00    -0.200 F 
ATOM     57  C   UNL A   1      40.916  26.421  26.335  1.00  0.00     0.200 A 
ATOM     58  F   UNL A   1      39.517  24.812  27.352  1.00  0.00    -0.200 F 
ATOM     59  F   UNL A   1      41.040  25.649  25.248  1.00  0.00    -0.200 F 
ENDBRANCH  25  49
BRANCH  37  60
ATOM     60  C   UNL A   1      44.041  28.353  34.679  1.00  0.00     0.064 A 
ATOM     61  C   UNL A   1      45.371  28.748  34.476  1.00  0.00     0.173 A 
ATOM     62  C   UNL A   1      43.805  27.184  35.418  1.00  0.00     0.173 A 
ATOM     63  F   UNL A   1      45.646  29.849  33.759  1.00  0.00    -0.203 F 
ATOM     64  C   UNL A   1      46.426  27.984  34.965  1.00  0.00     0.198 A 
ATOM     65  C   UNL A   1      44.863  26.437  35.929  1.00  0.00     0.198 A 
ATOM     66  F   UNL A   1      42.550  26.767  35.642  1.00  0.00    -0.203 F 
ATOM     67  F   UNL A   1      47.690  28.351  34.709  1.00  0.00    -0.200 F 
ATOM     68  C   UNL A   1      46.172  26.833  35.693  1.00  0.00     0.200 A 
ATOM     69  F   UNL A   1      44.616  25.330  36.640  1.00  0.00    -0.200 F 
ATOM     70  F   UNL A   1      47.189  26.095  36.160  1.00  0.00    -0.200 F 
ENDBRANCH  37  60
ENDBRANCH  11  12
ENDBRANCH   4   6
ENDBRANCH   1   2
BRANCH   1  71
ATOM     71  C   UNL A   1      31.546  32.174  26.779  1.00  0.00     0.042 C 
BRANCH  71  72
ATOM     72  C   UNL A   1      31.836  30.753  26.322  1.00  0.00     0.117 C 
BRANCH  72  73
ATOM     73  N   UNL A   1      33.216  30.383  26.572  1.00  0.00    -0.356 N 
ATOM     74  C   UNL A   1      33.725  29.255  27.129  1.00  0.00     0.225 C 
ATOM     75  H   UNL A   1      33.884  31.051  26.295  1.00  0.00     0.163 HD
ATOM     76  O   UNL A   1      34.770  29.400  27.765  1.00  0.00    -0.275 OA
BRANCH  74  77
ATOM     77  C   UNL A   1      32.963  27.940  27.078  1.00  0.00     0.106 C 
ATOM     78  C   UNL A   1      31.440  28.038  27.016  1.00  0.00     0.026 C 
ATOM     79  C   UNL A   1      33.405  27.028  25.898  1.00  0.00     0.128 C 
ATOM     80  C   UNL A   1      30.871  26.671  27.329  1.00  0.00     0.101 C 
ATOM     81  N   UNL A   1      32.781  25.684  26.038  1.00  0.00    -0.332 N 
ATOM     82  C   UNL A   1      31.541  25.493  26.645  1.00  0.00     0.223 C 
ATOM     83  O   UNL A   1      30.984  24.396  26.713  1.00  0.00    -0.275 OA
BRANCH  79  84
ATOM     84  C   UNL A   1      33.145  27.630  24.503  1.00  0.00    -0.025 A 
ATOM     85  C   UNL A   1      31.850  27.814  23.988  1.00  0.00     0.006 A 
ATOM     86  C   UNL A   1      34.219  28.064  23.707  1.00  0.00     0.006 A 
ATOM     87  C   UNL A   1      31.638  28.438  22.755  1.00  0.00     0.000 A 
ATOM     88  C   UNL A   1      34.010  28.717  22.489  1.00  0.00     0.000 A 
ATOM     89  C   UNL A   1      32.717  28.907  22.015  1.00  0.00     0.000 A 
ENDBRANCH  79  84
BRANCH  81  90
ATOM     90  C   UNL A   1      33.472  24.536  25.401  1.00  0.00     0.085 C 
ATOM     91  C   UNL A   1      32.984  24.309  23.957  1.00  0.00     0.025 C 
ATOM     92  C   UNL A   1      35.007  24.640  25.500  1.00  0.00     0.025 C 
ATOM     93  C   UNL A   1      33.748  23.193  23.250  1.00  0.00     0.002 C 
ATOM     94  C   UNL A   1      35.727  23.522  24.754  1.00  0.00     0.002 C 
ATOM     95  C   UNL A   1      35.253  23.422  23.310  1.00  0.00     0.000 C 
ENDBRANCH  81  90
ENDBRANCH  74  77
ENDBRANCH  72  73
ENDBRANCH  71  72
ENDBRANCH   1  71
TORSDOF 12
ENDMDL
