MODEL 1
REMARK VINA RESULT:     -12.2      0.000      0.000
REMARK SMILES CCOc1cc2c(cc1OCC)[C@@H](C(=O)NCCCNC(=O)c1ccc(-c3c4nc(c(-c5c(F)c(F)c(F)c(F)c5F)c5ccc([nH]5)c(-c5c(F)c(F)c(F)c(F)c5F)c5nc(c(-c6c(F)c(F)c(F)c(F)c6F)c6ccc3[nH]6)C=C5)C=C4)cc1)[C@H](c1ccc(F)cc1Cl)N(C)C2=O
REMARK SMILES IDX 18 1 17 2 16 3 14 4 15 5 13 7 4 8 5 9 9 10 6 11 8 12 7 13
REMARK SMILES IDX 97 14 95 15 98 16 86 17 96 18 3 19 2 20 1 21 10 22 11 23
REMARK SMILES IDX 12 24 87 25 88 26 93 27 89 28 92 29 94 30 90 31 91 32 19 33
REMARK SMILES IDX 20 34 21 35 22 37 23 38 24 39 85 40 25 41 84 42 26 43 27 44
REMARK SMILES IDX 28 45 78 46 29 47 83 48 77 49 79 50 30 51 82 52 76 53 75 54
REMARK SMILES IDX 31 56 63 57 43 58 62 59 44 60 47 61 61 62 80 63 45 64 46 65
REMARK SMILES IDX 60 67 81 68 48 69 32 70 33 71 41 72 34 73 35 74 39 75 42 76
REMARK SMILES IDX 36 77 37 78 40 79 38 80 64 81 65 82 73 83 66 84 67 85 71 86
REMARK SMILES IDX 74 87 68 88 69 89 72 90 70 91 49 92 50 93 58 94 51 95 52 96
REMARK SMILES IDX 56 97 59 98 53 99 54 100 57 101 55 102
REMARK H PARENT 16 6 20 36 79 55 47 66
REMARK Flexibility Score: inf
ROOT
ATOM      1  C   UNL A   1      31.822  27.794  27.392  1.00  0.00     0.042 C 
ENDROOT
BRANCH   1   2
ATOM      2  C   UNL A   1      31.390  26.799  26.320  1.00  0.00     0.117 C 
BRANCH   2   3
ATOM      3  N   UNL A   1      31.168  25.477  26.890  1.00  0.00    -0.355 N 
ATOM      4  C   UNL A   1      31.750  24.265  26.715  1.00  0.00     0.230 C 
ATOM      5  O   UNL A   1      31.163  23.319  27.261  1.00  0.00    -0.274 OA
ATOM      6  H   UNL A   1      30.434  25.461  27.547  1.00  0.00     0.163 HD
BRANCH   4   7
ATOM      7  C   UNL A   1      33.012  23.952  25.907  1.00  0.00     0.136 C 
ATOM      8  C   UNL A   1      33.164  24.733  21.676  1.00  0.00     0.161 A 
ATOM      9  C   UNL A   1      32.937  23.437  22.159  1.00  0.00     0.064 A 
ATOM     10  C   UNL A   1      33.357  25.795  22.570  1.00  0.00     0.161 A 
ATOM     11  C   UNL A   1      32.842  23.195  23.527  1.00  0.00     0.048 A 
ATOM     12  C   UNL A   1      33.248  25.540  23.946  1.00  0.00     0.056 A 
ATOM     13  C   UNL A   1      32.998  24.248  24.431  1.00  0.00    -0.016 A 
ATOM     14  C   UNL A   1      32.509  21.828  24.018  1.00  0.00     0.254 C 
ATOM     15  N   UNL A   1      32.782  21.567  25.361  1.00  0.00    -0.333 N 
ATOM     16  O   UNL A   1      31.976  21.029  23.257  1.00  0.00    -0.269 OA
ATOM     17  C   UNL A   1      33.567  22.511  26.155  1.00  0.00     0.134 C 
ATOM     18  C   UNL A   1      32.396  20.300  25.968  1.00  0.00     0.147 C 
BRANCH   8  19
ATOM     19  O   UNL A   1      33.298  24.883  20.323  1.00  0.00    -0.490 OA
BRANCH  19  20
ATOM     20  C   UNL A   1      32.236  25.648  19.735  1.00  0.00     0.226 C 
ATOM     21  C   UNL A   1      32.020  25.288  18.275  1.00  0.00     0.049 C 
ENDBRANCH  19  20
ENDBRANCH   8  19
BRANCH  10  22
ATOM     22  O   UNL A   1      33.670  27.101  22.320  1.00  0.00    -0.490 OA
BRANCH  22  23
ATOM     23  C   UNL A   1      32.837  28.158  22.780  1.00  0.00     0.226 C 
ATOM     24  C   UNL A   1      33.586  29.127  23.679  1.00  0.00     0.049 C 
ENDBRANCH  22  23
ENDBRANCH  10  22
BRANCH  17  25
ATOM     25  C   UNL A   1      35.106  22.427  25.928  1.00  0.00    -0.005 A 
ATOM     26  C   UNL A   1      35.851  23.559  26.353  1.00  0.00     0.010 A 
ATOM     27  C   UNL A   1      35.852  21.375  25.341  1.00  0.00     0.049 A 
ATOM     28  C   UNL A   1      37.222  23.682  26.113  1.00  0.00     0.040 A 
ATOM     29  C   UNL A   1      37.230  21.506  25.106  1.00  0.00     0.060 A 
ATOM     30  Cl  UNL A   1      35.254  19.822  24.875  1.00  0.00    -0.084 Cl
ATOM     31  C   UNL A   1      37.896  22.658  25.475  1.00  0.00     0.124 A 
ATOM     32  F   UNL A   1      39.207  22.772  25.230  1.00  0.00    -0.207 F 
ENDBRANCH  17  25
ENDBRANCH   4   7
ENDBRANCH   2   3
ENDBRANCH   1   2
BRANCH   1  33
ATOM     33  C   UNL A   1      33.239  28.319  27.237  1.00  0.00     0.118 C 
BRANCH  33  34
ATOM     34  N   UNL A   1      33.291  29.775  27.223  1.00  0.00    -0.352 N 
ATOM     35  C   UNL A   1      34.237  30.644  27.711  1.00  0.00     0.251 C 
ATOM     36  H   UNL A   1      32.519  30.208  26.793  1.00  0.00     0.163 HD
ATOM     37  O   UNL A   1      33.975  31.844  27.754  1.00  0.00    -0.269 OA
BRANCH  35  38
ATOM     38  C   UNL A   1      35.561  30.173  28.193  1.00  0.00     0.039 A 
ATOM     39  C   UNL A   1      36.645  30.193  27.307  1.00  0.00     0.014 A 
ATOM     40  C   UNL A   1      35.741  29.655  29.477  1.00  0.00     0.014 A 
ATOM     41  C   UNL A   1      37.904  29.745  27.722  1.00  0.00     0.010 A 
ATOM     42  C   UNL A   1      37.014  29.308  29.923  1.00  0.00     0.010 A 
ATOM     43  C   UNL A   1      38.107  29.327  29.046  1.00  0.00    -0.014 A 
BRANCH  43  44
ATOM     44  C   UNL A   1      39.438  28.863  29.524  1.00  0.00     0.031 A 
ATOM     45  C   UNL A   1      40.198  29.672  30.542  1.00  0.00     0.074 A 
ATOM     46  C   UNL A   1      39.992  27.751  29.003  1.00  0.00     0.049 A 
ATOM     47  N   UNL A   1      41.400  29.485  31.025  1.00  0.00    -0.248 NA
ATOM     48  C   UNL A   1      39.526  30.873  31.062  1.00  0.00     0.031 C 
ATOM     49  C   UNL A   1      39.378  26.898  27.986  1.00  0.00     0.029 A 
ATOM     50  N   UNL A   1      41.200  27.151  29.256  1.00  0.00    -0.354 N 
ATOM     51  C   UNL A   1      41.632  30.550  31.886  1.00  0.00     0.074 A 
ATOM     52  C   UNL A   1      40.476  31.415  31.808  1.00  0.00     0.031 C 
ATOM     53  C   UNL A   1      40.194  25.863  27.728  1.00  0.00     0.029 A 
ATOM     54  C   UNL A   1      41.407  26.004  28.529  1.00  0.00     0.049 A 
ATOM     55  H   UNL A   1      41.857  27.508  29.897  1.00  0.00     0.167 HD
ATOM     56  C   UNL A   1      42.698  30.775  32.693  1.00  0.00     0.037 A 
ATOM     57  C   UNL A   1      42.458  25.162  28.510  1.00  0.00     0.037 A 
ATOM     58  C   UNL A   1      43.836  29.899  32.788  1.00  0.00     0.049 A 
ATOM     59  C   UNL A   1      43.643  25.444  29.394  1.00  0.00     0.074 A 
ATOM     60  C   UNL A   1      44.945  30.008  33.609  1.00  0.00     0.029 A 
ATOM     61  N   UNL A   1      44.011  28.749  32.032  1.00  0.00    -0.354 N 
ATOM     62  N   UNL A   1      43.827  26.425  30.243  1.00  0.00    -0.248 NA
ATOM     63  C   UNL A   1      44.764  24.499  29.315  1.00  0.00     0.031 C 
ATOM     64  C   UNL A   1      45.811  28.947  33.317  1.00  0.00     0.029 A 
ATOM     65  C   UNL A   1      45.220  28.150  32.351  1.00  0.00     0.049 A 
ATOM     66  H   UNL A   1      43.370  28.408  31.366  1.00  0.00     0.167 HD
ATOM     67  C   UNL A   1      45.069  26.199  30.823  1.00  0.00     0.074 A 
ATOM     68  C   UNL A   1      45.587  24.981  30.235  1.00  0.00     0.031 C 
ATOM     69  C   UNL A   1      45.719  26.934  31.760  1.00  0.00     0.037 A 
BRANCH  56  70
ATOM     70  C   UNL A   1      42.674  32.020  33.534  1.00  0.00     0.064 A 
ATOM     71  C   UNL A   1      42.116  32.031  34.822  1.00  0.00     0.173 A 
ATOM     72  C   UNL A   1      43.213  33.222  33.048  1.00  0.00     0.173 A 
ATOM     73  F   UNL A   1      41.577  30.913  35.333  1.00  0.00    -0.203 F 
ATOM     74  C   UNL A   1      42.055  33.203  35.571  1.00  0.00     0.198 A 
ATOM     75  C   UNL A   1      43.183  34.386  33.814  1.00  0.00     0.198 A 
ATOM     76  F   UNL A   1      43.768  33.270  31.827  1.00  0.00    -0.203 F 
ATOM     77  F   UNL A   1      41.452  33.201  36.769  1.00  0.00    -0.200 F 
ATOM     78  C   UNL A   1      42.592  34.378  35.068  1.00  0.00     0.200 A 
ATOM     79  F   UNL A   1      43.715  35.517  33.332  1.00  0.00    -0.200 F 
ATOM     80  F   UNL A   1      42.528  35.507  35.787  1.00  0.00    -0.200 F 
ENDBRANCH  56  70
BRANCH  57  81
ATOM     81  C   UNL A   1      42.416  23.947  27.657  1.00  0.00     0.064 A 
ATOM     82  C   UNL A   1      41.949  22.729  28.173  1.00  0.00     0.173 A 
ATOM     83  C   UNL A   1      42.826  23.972  26.316  1.00  0.00     0.173 A 
ATOM     84  F   UNL A   1      41.567  22.650  29.456  1.00  0.00    -0.203 F 
ATOM     85  C   UNL A   1      41.904  21.581  27.386  1.00  0.00     0.198 A 
ATOM     86  C   UNL A   1      42.756  22.829  25.522  1.00  0.00     0.198 A 
ATOM     87  F   UNL A   1      43.279  25.112  25.774  1.00  0.00    -0.203 F 
ATOM     88  F   UNL A   1      41.489  20.423  27.916  1.00  0.00    -0.200 F 
ATOM     89  C   UNL A   1      42.301  21.634  26.058  1.00  0.00     0.200 A 
ATOM     90  F   UNL A   1      43.130  22.886  24.236  1.00  0.00    -0.200 F 
ATOM     91  F   UNL A   1      42.253  20.531  25.298  1.00  0.00    -0.200 F 
ENDBRANCH  57  81
BRANCH  69  92
ATOM     92  C   UNL A   1      47.046  26.420  32.236  1.00  0.00     0.064 A 
ATOM     93  C   UNL A   1      48.250  26.819  31.637  1.00  0.00     0.173 A 
ATOM     94  C   UNL A   1      47.116  25.546  33.332  1.00  0.00     0.173 A 
ATOM     95  F   UNL A   1      48.235  27.641  30.577  1.00  0.00    -0.203 F 
ATOM     96  C   UNL A   1      49.472  26.343  32.102  1.00  0.00     0.198 A 
ATOM     97  C   UNL A   1      48.342  25.096  33.813  1.00  0.00     0.198 A 
ATOM     98  F   UNL A   1      45.995  25.138  33.945  1.00  0.00    -0.203 F 
ATOM     99  F   UNL A   1      50.607  26.700  31.484  1.00  0.00    -0.200 F 
ATOM    100  C   UNL A   1      49.518  25.488  33.193  1.00  0.00     0.200 A 
ATOM    101  F   UNL A   1      48.385  24.281  34.877  1.00  0.00    -0.200 F 
ATOM    102  F   UNL A   1      50.697  25.037  33.644  1.00  0.00    -0.200 F 
ENDBRANCH  69  92
ENDBRANCH  43  44
ENDBRANCH  35  38
ENDBRANCH  33  34
ENDBRANCH   1  33
TORSDOF 15
ENDMDL
MODEL 2
REMARK VINA RESULT:     -11.8      6.099     13.284
REMARK SMILES CCOc1cc2c(cc1OCC)[C@@H](C(=O)NCCCNC(=O)c1ccc(-c3c4nc(c(-c5c(F)c(F)c(F)c(F)c5F)c5ccc([nH]5)c(-c5c(F)c(F)c(F)c(F)c5F)c5nc(c(-c6c(F)c(F)c(F)c(F)c6F)c6ccc3[nH]6)C=C5)C=C4)cc1)[C@H](c1ccc(F)cc1Cl)N(C)C2=O
REMARK SMILES IDX 18 1 17 2 16 3 14 4 15 5 13 7 4 8 5 9 9 10 6 11 8 12 7 13
REMARK SMILES IDX 97 14 95 15 98 16 86 17 96 18 3 19 2 20 1 21 10 22 11 23
REMARK SMILES IDX 12 24 87 25 88 26 93 27 89 28 92 29 94 30 90 31 91 32 19 33
REMARK SMILES IDX 20 34 21 35 22 37 23 38 24 39 85 40 25 41 84 42 26 43 27 44
REMARK SMILES IDX 28 45 78 46 29 47 83 48 77 49 79 50 30 51 82 52 76 53 75 54
REMARK SMILES IDX 31 56 63 57 43 58 62 59 44 60 47 61 61 62 80 63 45 64 46 65
REMARK SMILES IDX 60 67 81 68 48 69 32 70 33 71 41 72 34 73 35 74 39 75 42 76
REMARK SMILES IDX 36 77 37 78 40 79 38 80 64 81 65 82 73 83 66 84 67 85 71 86
REMARK SMILES IDX 74 87 68 88 69 89 72 90 70 91 49 92 50 93 58 94 51 95 52 96
REMARK SMILES IDX 56 97 59 98 53 99 54 100 57 101 55 102
REMARK H PARENT 16 6 20 36 79 55 47 66
REMARK Flexibility Score: inf
ROOT
ATOM      1  C   UNL A   1      49.089  25.319  33.351  1.00  0.00     0.042 C 
ENDROOT
BRANCH   1   2
ATOM      2  C   UNL A   1      48.506  25.640  31.978  1.00  0.00     0.117 C 
BRANCH   2   3
ATOM      3  N   UNL A   1      49.501  25.457  30.930  1.00  0.00    -0.355 N 
ATOM      4  C   UNL A   1      49.497  25.632  29.585  1.00  0.00     0.230 C 
ATOM      5  O   UNL A   1      50.500  25.200  28.998  1.00  0.00    -0.274 OA
ATOM      6  H   UNL A   1      50.366  25.135  31.274  1.00  0.00     0.163 HD
BRANCH   4   7
ATOM      7  C   UNL A   1      48.392  26.270  28.738  1.00  0.00     0.136 C 
ATOM      8  C   UNL A   1      46.292  23.969  25.767  1.00  0.00     0.161 A 
ATOM      9  C   UNL A   1      47.325  24.843  25.401  1.00  0.00     0.064 A 
ATOM     10  C   UNL A   1      45.922  23.841  27.113  1.00  0.00     0.161 A 
ATOM     11  C   UNL A   1      48.033  25.552  26.368  1.00  0.00     0.048 A 
ATOM     12  C   UNL A   1      46.651  24.551  28.079  1.00  0.00     0.056 A 
ATOM     13  C   UNL A   1      47.699  25.410  27.716  1.00  0.00    -0.016 A 
ATOM     14  C   UNL A   1      49.186  26.406  25.966  1.00  0.00     0.254 C 
ATOM     15  N   UNL A   1      49.614  27.351  26.899  1.00  0.00    -0.333 N 
ATOM     16  O   UNL A   1      49.730  26.213  24.885  1.00  0.00    -0.269 OA
ATOM     17  C   UNL A   1      48.813  27.630  28.091  1.00  0.00     0.134 C 
ATOM     18  C   UNL A   1      50.799  28.162  26.652  1.00  0.00     0.147 C 
BRANCH   8  19
ATOM     19  O   UNL A   1      45.608  23.350  24.758  1.00  0.00    -0.490 OA
BRANCH  19  20
ATOM     20  C   UNL A   1      45.974  21.972  24.594  1.00  0.00     0.226 C 
ATOM     21  C   UNL A   1      44.804  21.040  24.864  1.00  0.00     0.049 C 
ENDBRANCH  19  20
ENDBRANCH   8  19
BRANCH  10  22
ATOM     22  O   UNL A   1      44.905  23.121  27.673  1.00  0.00    -0.490 OA
BRANCH  22  23
ATOM     23  C   UNL A   1      44.211  23.598  28.820  1.00  0.00     0.226 C 
ATOM     24  C   UNL A   1      42.964  22.783  29.115  1.00  0.00     0.049 C 
ENDBRANCH  22  23
ENDBRANCH  10  22
BRANCH  17  25
ATOM     25  C   UNL A   1      47.594  28.568  27.848  1.00  0.00    -0.005 A 
ATOM     26  C   UNL A   1      47.377  28.955  26.498  1.00  0.00     0.010 A 
ATOM     27  C   UNL A   1      46.685  29.095  28.799  1.00  0.00     0.049 A 
ATOM     28  C   UNL A   1      46.397  29.882  26.137  1.00  0.00     0.040 A 
ATOM     29  C   UNL A   1      45.702  30.025  28.427  1.00  0.00     0.060 A 
ATOM     30  Cl  UNL A   1      46.598  28.686  30.476  1.00  0.00    -0.084 Cl
ATOM     31  C   UNL A   1      45.578  30.422  27.110  1.00  0.00     0.124 A 
ATOM     32  F   UNL A   1      44.644  31.321  26.775  1.00  0.00    -0.207 F 
ENDBRANCH  17  25
ENDBRANCH   4   7
ENDBRANCH   2   3
ENDBRANCH   1   2
BRANCH   1  33
ATOM     33  C   UNL A   1      48.263  24.351  34.181  1.00  0.00     0.118 C 
BRANCH  33  34
ATOM     34  N   UNL A   1      48.184  24.749  35.579  1.00  0.00    -0.352 N 
ATOM     35  C   UNL A   1      47.377  25.669  36.206  1.00  0.00     0.251 C 
ATOM     36  H   UNL A   1      48.815  24.284  36.174  1.00  0.00     0.163 HD
ATOM     37  O   UNL A   1      47.621  25.975  37.371  1.00  0.00    -0.269 OA
BRANCH  35  38
ATOM     38  C   UNL A   1      46.227  26.303  35.514  1.00  0.00     0.039 A 
ATOM     39  C   UNL A   1      46.429  27.520  34.851  1.00  0.00     0.014 A 
ATOM     40  C   UNL A   1      44.943  25.757  35.557  1.00  0.00     0.014 A 
ATOM     41  C   UNL A   1      45.365  28.154  34.200  1.00  0.00     0.010 A 
ATOM     42  C   UNL A   1      43.909  26.332  34.821  1.00  0.00     0.010 A 
ATOM     43  C   UNL A   1      44.100  27.549  34.152  1.00  0.00    -0.014 A 
BRANCH  43  44
ATOM     44  C   UNL A   1      42.954  28.187  33.450  1.00  0.00     0.031 A 
ATOM     45  C   UNL A   1      42.675  27.858  32.007  1.00  0.00     0.074 A 
ATOM     46  C   UNL A   1      42.199  29.103  34.087  1.00  0.00     0.049 A 
ATOM     47  N   UNL A   1      41.780  28.364  31.196  1.00  0.00    -0.248 NA
ATOM     48  C   UNL A   1      43.544  26.848  31.383  1.00  0.00     0.031 C 
ATOM     49  C   UNL A   1      42.385  29.536  35.471  1.00  0.00     0.029 A 
ATOM     50  N   UNL A   1      41.126  29.838  33.649  1.00  0.00    -0.354 N 
ATOM     51  C   UNL A   1      41.992  27.749  29.969  1.00  0.00     0.074 A 
ATOM     52  C   UNL A   1      43.141  26.885  30.122  1.00  0.00     0.031 C 
ATOM     53  C   UNL A   1      41.434  30.433  35.783  1.00  0.00     0.029 A 
ATOM     54  C   UNL A   1      40.601  30.670  34.607  1.00  0.00     0.049 A 
ATOM     55  H   UNL A   1      40.767  29.777  32.734  1.00  0.00     0.167 HD
ATOM     56  C   UNL A   1      41.277  27.868  28.823  1.00  0.00     0.037 A 
ATOM     57  C   UNL A   1      39.565  31.528  34.544  1.00  0.00     0.037 A 
ATOM     58  C   UNL A   1      40.117  28.709  28.680  1.00  0.00     0.049 A 
ATOM     59  C   UNL A   1      38.801  31.665  33.255  1.00  0.00     0.074 A 
ATOM     60  C   UNL A   1      39.293  28.865  27.580  1.00  0.00     0.029 A 
ATOM     61  N   UNL A   1      39.620  29.541  29.673  1.00  0.00    -0.354 N 
ATOM     62  N   UNL A   1      38.977  31.039  32.117  1.00  0.00    -0.248 NA
ATOM     63  C   UNL A   1      37.692  32.629  33.245  1.00  0.00     0.031 C 
ATOM     64  C   UNL A   1      38.322  29.825  27.893  1.00  0.00     0.029 A 
ATOM     65  C   UNL A   1      38.511  30.228  29.205  1.00  0.00     0.049 A 
ATOM     66  H   UNL A   1      39.998  29.628  30.579  1.00  0.00     0.167 HD
ATOM     67  C   UNL A   1      37.984  31.507  31.266  1.00  0.00     0.074 A 
ATOM     68  C   UNL A   1      37.203  32.463  32.024  1.00  0.00     0.031 C 
ATOM     69  C   UNL A   1      37.741  31.173  29.975  1.00  0.00     0.037 A 
BRANCH  56  70
ATOM     70  C   UNL A   1      41.736  27.066  27.638  1.00  0.00     0.064 A 
ATOM     71  C   UNL A   1      41.317  25.741  27.436  1.00  0.00     0.173 A 
ATOM     72  C   UNL A   1      42.609  27.624  26.691  1.00  0.00     0.173 A 
ATOM     73  F   UNL A   1      40.490  25.154  28.315  1.00  0.00    -0.203 F 
ATOM     74  C   UNL A   1      41.789  24.992  26.362  1.00  0.00     0.198 A 
ATOM     75  C   UNL A   1      43.053  26.884  25.597  1.00  0.00     0.198 A 
ATOM     76  F   UNL A   1      43.037  28.889  26.828  1.00  0.00    -0.203 F 
ATOM     77  F   UNL A   1      41.429  23.708  26.232  1.00  0.00    -0.200 F 
ATOM     78  C   UNL A   1      42.653  25.566  25.441  1.00  0.00     0.200 A 
ATOM     79  F   UNL A   1      43.877  27.444  24.701  1.00  0.00    -0.200 F 
ATOM     80  F   UNL A   1      43.112  24.843  24.410  1.00  0.00    -0.200 F 
ENDBRANCH  56  70
BRANCH  57  81
ATOM     81  C   UNL A   1      39.161  32.290  35.755  1.00  0.00     0.064 A 
ATOM     82  C   UNL A   1      38.282  31.726  36.690  1.00  0.00     0.173 A 
ATOM     83  C   UNL A   1      39.647  33.580  36.010  1.00  0.00     0.173 A 
ATOM     84  F   UNL A   1      37.773  30.504  36.478  1.00  0.00    -0.203 F 
ATOM     85  C   UNL A   1      37.893  32.428  37.829  1.00  0.00     0.198 A 
ATOM     86  C   UNL A   1      39.278  34.271  37.163  1.00  0.00     0.198 A 
ATOM     87  F   UNL A   1      40.491  34.163  35.147  1.00  0.00    -0.203 F 
ATOM     88  F   UNL A   1      37.022  31.881  38.687  1.00  0.00    -0.200 F 
ATOM     89  C   UNL A   1      38.398  33.698  38.068  1.00  0.00     0.200 A 
ATOM     90  F   UNL A   1      39.777  35.493  37.396  1.00  0.00    -0.200 F 
ATOM     91  F   UNL A   1      38.030  34.372  39.166  1.00  0.00    -0.200 F 
ENDBRANCH  57  81
BRANCH  69  92
ATOM     92  C   UNL A   1      36.560  31.818  29.309  1.00  0.00     0.064 A 
ATOM     93  C   UNL A   1      36.561  33.176  28.959  1.00  0.00     0.173 A 
ATOM     94  C   UNL A   1      35.427  31.056  28.983  1.00  0.00     0.173 A 
ATOM     95  F   UNL A   1      37.614  33.951  29.264  1.00  0.00    -0.203 F 
ATOM     96  C   UNL A   1      35.462  33.753  28.329  1.00  0.00     0.198 A 
ATOM     97  C   UNL A   1      34.343  31.629  28.325  1.00  0.00     0.198 A 
ATOM     98  F   UNL A   1      35.379  29.751  29.289  1.00  0.00    -0.203 F 
ATOM     99  F   UNL A   1      35.465  35.063  28.048  1.00  0.00    -0.200 F 
ATOM    100  C   UNL A   1      34.358  32.978  28.007  1.00  0.00     0.200 A 
ATOM    101  F   UNL A   1      33.283  30.875  28.002  1.00  0.00    -0.200 F 
ATOM    102  F   UNL A   1      33.303  33.534  27.393  1.00  0.00    -0.200 F 
ENDBRANCH  69  92
ENDBRANCH  43  44
ENDBRANCH  35  38
ENDBRANCH  33  34
ENDBRANCH   1  33
TORSDOF 15
ENDMDL
MODEL 3
REMARK VINA RESULT:     -11.7      2.088      7.149
REMARK SMILES CCOc1cc2c(cc1OCC)[C@@H](C(=O)NCCCNC(=O)c1ccc(-c3c4nc(c(-c5c(F)c(F)c(F)c(F)c5F)c5ccc([nH]5)c(-c5c(F)c(F)c(F)c(F)c5F)c5nc(c(-c6c(F)c(F)c(F)c(F)c6F)c6ccc3[nH]6)C=C5)C=C4)cc1)[C@H](c1ccc(F)cc1Cl)N(C)C2=O
REMARK SMILES IDX 18 1 17 2 16 3 14 4 15 5 13 7 4 8 5 9 9 10 6 11 8 12 7 13
REMARK SMILES IDX 97 14 95 15 98 16 86 17 96 18 3 19 2 20 1 21 10 22 11 23
REMARK SMILES IDX 12 24 87 25 88 26 93 27 89 28 92 29 94 30 90 31 91 32 19 33
REMARK SMILES IDX 20 34 21 35 22 37 23 38 24 39 85 40 25 41 84 42 26 43 27 44
REMARK SMILES IDX 28 45 78 46 29 47 83 48 77 49 79 50 30 51 82 52 76 53 75 54
REMARK SMILES IDX 31 56 63 57 43 58 62 59 44 60 47 61 61 62 80 63 45 64 46 65
REMARK SMILES IDX 60 67 81 68 48 69 32 70 33 71 41 72 34 73 35 74 39 75 42 76
REMARK SMILES IDX 36 77 37 78 40 79 38 80 64 81 65 82 73 83 66 84 67 85 71 86
REMARK SMILES IDX 74 87 68 88 69 89 72 90 70 91 49 92 50 93 58 94 51 95 52 96
REMARK SMILES IDX 56 97 59 98 53 99 54 100 57 101 55 102
REMARK H PARENT 16 6 20 36 79 55 47 66
REMARK Flexibility Score: inf
ROOT
ATOM      1  C   UNL A   1      31.527  27.759  26.846  1.00  0.00     0.042 C 
ENDROOT
BRANCH   1   2
ATOM      2  C   UNL A   1      31.008  26.568  26.047  1.00  0.00     0.117 C 
BRANCH   2   3
ATOM      3  N   UNL A   1      31.002  25.356  26.855  1.00  0.00    -0.355 N 
ATOM      4  C   UNL A   1      31.737  24.217  26.851  1.00  0.00     0.230 C 
ATOM      5  O   UNL A   1      31.318  23.320  27.598  1.00  0.00    -0.274 OA
ATOM      6  H   UNL A   1      30.314  25.368  27.560  1.00  0.00     0.163 HD
BRANCH   4   7
ATOM      7  C   UNL A   1      32.986  23.924  26.015  1.00  0.00     0.136 C 
ATOM      8  C   UNL A   1      33.321  25.378  21.977  1.00  0.00     0.161 A 
ATOM      9  C   UNL A   1      32.962  24.048  22.233  1.00  0.00     0.064 A 
ATOM     10  C   UNL A   1      33.587  26.253  23.038  1.00  0.00     0.161 A 
ATOM     11  C   UNL A   1      32.810  23.592  23.540  1.00  0.00     0.048 A 
ATOM     12  C   UNL A   1      33.419  25.785  24.351  1.00  0.00     0.056 A 
ATOM     13  C   UNL A   1      33.039  24.461  24.610  1.00  0.00    -0.016 A 
ATOM     14  C   UNL A   1      32.339  22.200  23.791  1.00  0.00     0.254 C 
ATOM     15  N   UNL A   1      32.551  21.695  25.074  1.00  0.00    -0.333 N 
ATOM     16  O   UNL A   1      31.754  21.593  22.901  1.00  0.00    -0.269 OA
ATOM     17  C   UNL A   1      33.399  22.415  26.023  1.00  0.00     0.134 C 
ATOM     18  C   UNL A   1      32.034  20.387  25.456  1.00  0.00     0.147 C 
BRANCH   8  19
ATOM     19  O   UNL A   1      33.503  25.737  20.669  1.00  0.00    -0.490 OA
BRANCH  19  20
ATOM     20  C   UNL A   1      32.269  25.957  19.970  1.00  0.00     0.226 C 
ATOM     21  C   UNL A   1      32.248  25.250  18.625  1.00  0.00     0.049 C 
ENDBRANCH  19  20
ENDBRANCH   8  19
BRANCH  10  22
ATOM     22  O   UNL A   1      34.026  27.547  23.014  1.00  0.00    -0.490 OA
BRANCH  22  23
ATOM     23  C   UNL A   1      33.309  28.554  22.310  1.00  0.00     0.226 C 
ATOM     24  C   UNL A   1      31.863  28.651  22.766  1.00  0.00     0.049 C 
ENDBRANCH  22  23
ENDBRANCH  10  22
BRANCH  17  25
ATOM     25  C   UNL A   1      34.929  22.223  25.802  1.00  0.00    -0.005 A 
ATOM     26  C   UNL A   1      35.751  23.296  26.237  1.00  0.00     0.010 A 
ATOM     27  C   UNL A   1      35.601  21.125  25.210  1.00  0.00     0.049 A 
ATOM     28  C   UNL A   1      37.128  23.323  26.003  1.00  0.00     0.040 A 
ATOM     29  C   UNL A   1      36.985  21.159  24.980  1.00  0.00     0.060 A 
ATOM     30  Cl  UNL A   1      34.895  19.622  24.730  1.00  0.00    -0.084 Cl
ATOM     31  C   UNL A   1      37.730  22.258  25.360  1.00  0.00     0.124 A 
ATOM     32  F   UNL A   1      39.047  22.280  25.121  1.00  0.00    -0.207 F 
ENDBRANCH  17  25
ENDBRANCH   4   7
ENDBRANCH   2   3
ENDBRANCH   1   2
BRANCH   1  33
ATOM     33  C   UNL A   1      32.650  28.533  26.176  1.00  0.00     0.118 C 
BRANCH  33  34
ATOM     34  N   UNL A   1      32.429  29.972  26.215  1.00  0.00    -0.352 N 
ATOM     35  C   UNL A   1      33.063  30.958  26.934  1.00  0.00     0.251 C 
ATOM     36  H   UNL A   1      31.705  30.291  25.631  1.00  0.00     0.163 HD
ATOM     37  O   UNL A   1      32.577  32.087  26.948  1.00  0.00    -0.269 OA
BRANCH  35  38
ATOM     38  C   UNL A   1      34.311  30.695  27.694  1.00  0.00     0.039 A 
ATOM     39  C   UNL A   1      35.236  31.735  27.849  1.00  0.00     0.014 A 
ATOM     40  C   UNL A   1      34.617  29.432  28.204  1.00  0.00     0.014 A 
ATOM     41  C   UNL A   1      36.429  31.520  28.549  1.00  0.00     0.010 A 
ATOM     42  C   UNL A   1      35.752  29.245  28.989  1.00  0.00     0.010 A 
ATOM     43  C   UNL A   1      36.684  30.280  29.153  1.00  0.00    -0.014 A 
BRANCH  43  44
ATOM     44  C   UNL A   1      37.933  30.026  29.920  1.00  0.00     0.031 A 
ATOM     45  C   UNL A   1      39.010  29.147  29.341  1.00  0.00     0.074 A 
ATOM     46  C   UNL A   1      38.078  30.534  31.159  1.00  0.00     0.049 A 
ATOM     47  N   UNL A   1      40.131  28.738  29.880  1.00  0.00    -0.248 NA
ATOM     48  C   UNL A   1      38.777  28.631  27.983  1.00  0.00     0.031 C 
ATOM     49  C   UNL A   1      37.096  31.371  31.850  1.00  0.00     0.029 A 
ATOM     50  N   UNL A   1      39.106  30.416  32.060  1.00  0.00    -0.354 N 
ATOM     51  C   UNL A   1      40.722  27.906  28.938  1.00  0.00     0.074 A 
ATOM     52  C   UNL A   1      39.806  27.813  27.822  1.00  0.00     0.031 C 
ATOM     53  C   UNL A   1      37.585  31.723  33.050  1.00  0.00     0.029 A 
ATOM     54  C   UNL A   1      38.894  31.101  33.231  1.00  0.00     0.049 A 
ATOM     55  H   UNL A   1      39.920  29.889  31.884  1.00  0.00     0.167 HD
ATOM     56  C   UNL A   1      41.933  27.297  28.981  1.00  0.00     0.037 A 
ATOM     57  C   UNL A   1      39.667  31.214  34.328  1.00  0.00     0.037 A 
ATOM     58  C   UNL A   1      42.854  27.412  30.081  1.00  0.00     0.049 A 
ATOM     59  C   UNL A   1      40.996  30.507  34.367  1.00  0.00     0.074 A 
ATOM     60  C   UNL A   1      44.124  26.877  30.205  1.00  0.00     0.029 A 
ATOM     61  N   UNL A   1      42.599  28.112  31.252  1.00  0.00    -0.354 N 
ATOM     62  N   UNL A   1      41.568  29.768  33.448  1.00  0.00    -0.248 NA
ATOM     63  C   UNL A   1      41.786  30.655  35.597  1.00  0.00     0.031 C 
ATOM     64  C   UNL A   1      44.620  27.216  31.470  1.00  0.00     0.029 A 
ATOM     65  C   UNL A   1      43.681  28.005  32.113  1.00  0.00     0.049 A 
ATOM     66  H   UNL A   1      41.773  28.612  31.443  1.00  0.00     0.167 HD
ATOM     67  C   UNL A   1      42.796  29.388  33.975  1.00  0.00     0.074 A 
ATOM     68  C   UNL A   1      42.889  29.989  35.289  1.00  0.00     0.031 C 
ATOM     69  C   UNL A   1      43.760  28.614  33.417  1.00  0.00     0.037 A 
BRANCH  56  70
ATOM     70  C   UNL A   1      42.321  26.453  27.800  1.00  0.00     0.064 A 
ATOM     71  C   UNL A   1      41.857  25.136  27.649  1.00  0.00     0.173 A 
ATOM     72  C   UNL A   1      43.170  26.961  26.806  1.00  0.00     0.173 A 
ATOM     73  F   UNL A   1      41.050  24.594  28.575  1.00  0.00    -0.203 F 
ATOM     74  C   UNL A   1      42.264  24.347  26.577  1.00  0.00     0.198 A 
ATOM     75  C   UNL A   1      43.548  26.182  25.714  1.00  0.00     0.198 A 
ATOM     76  F   UNL A   1      43.639  28.216  26.892  1.00  0.00    -0.203 F 
ATOM     77  F   UNL A   1      41.863  23.071  26.495  1.00  0.00    -0.200 F 
ATOM     78  C   UNL A   1      43.106  24.872  25.608  1.00  0.00     0.200 A 
ATOM     79  F   UNL A   1      44.351  26.695  24.772  1.00  0.00    -0.200 F 
ATOM     80  F   UNL A   1      43.502  24.111  24.579  1.00  0.00    -0.200 F 
ENDBRANCH  56  70
BRANCH  57  81
ATOM     81  C   UNL A   1      39.224  32.067  35.461  1.00  0.00     0.064 A 
ATOM     82  C   UNL A   1      39.579  33.423  35.513  1.00  0.00     0.173 A 
ATOM     83  C   UNL A   1      38.435  31.558  36.502  1.00  0.00     0.173 A 
ATOM     84  F   UNL A   1      40.352  33.949  34.552  1.00  0.00    -0.203 F 
ATOM     85  C   UNL A   1      39.171  34.234  36.569  1.00  0.00     0.198 A 
ATOM     86  C   UNL A   1      38.005  32.378  37.544  1.00  0.00     0.198 A 
ATOM     87  F   UNL A   1      38.067  30.269  36.498  1.00  0.00    -0.203 F 
ATOM     88  F   UNL A   1      39.557  35.517  36.613  1.00  0.00    -0.200 F 
ATOM     89  C   UNL A   1      38.378  33.713  37.581  1.00  0.00     0.200 A 
ATOM     90  F   UNL A   1      37.230  31.873  38.514  1.00  0.00    -0.200 F 
ATOM     91  F   UNL A   1      37.981  34.495  38.593  1.00  0.00    -0.200 F 
ENDBRANCH  57  81
BRANCH  69  92
ATOM     92  C   UNL A   1      45.016  28.403  34.211  1.00  0.00     0.064 A 
ATOM     93  C   UNL A   1      46.103  29.284  34.121  1.00  0.00     0.173 A 
ATOM     94  C   UNL A   1      45.117  27.323  35.103  1.00  0.00     0.173 A 
ATOM     95  F   UNL A   1      46.061  30.322  33.272  1.00  0.00    -0.203 F 
ATOM     96  C   UNL A   1      47.254  29.079  34.877  1.00  0.00     0.198 A 
ATOM     97  C   UNL A   1      46.257  27.139  35.879  1.00  0.00     0.198 A 
ATOM     98  F   UNL A   1      44.103  26.454  35.231  1.00  0.00    -0.203 F 
ATOM     99  F   UNL A   1      48.299  29.907  34.739  1.00  0.00    -0.200 F 
ATOM    100  C   UNL A   1      47.328  28.012  35.759  1.00  0.00     0.200 A 
ATOM    101  F   UNL A   1      46.321  26.115  36.741  1.00  0.00    -0.200 F 
ATOM    102  F   UNL A   1      48.434  27.820  36.492  1.00  0.00    -0.200 F 
ENDBRANCH  69  92
ENDBRANCH  43  44
ENDBRANCH  35  38
ENDBRANCH  33  34
ENDBRANCH   1  33
TORSDOF 15
ENDMDL
