MODEL 1
REMARK VINA RESULT:     -10.8      0.000      0.000
REMARK SMILES CCN(C(=O)N(CCOC)CC(=O)NCCCNC(=O)c1ccc(-c2c3nc(c(-c4c(F)c(F)c(F)c(F)c4F)c4ccc([nH]4)c(-c4c(F)c(F)c(F)c(F)c4F)c4nc(c(-c5c(F)c(F)c(F)c(F)c5F)c5ccc2[nH]5)C=C4)C=C3)cc1)C1CCCC1
REMARK SMILES IDX 15 1 14 2 12 3 13 4 11 6 6 7 4 8 5 9 3 10 2 11 1 12 84 13
REMARK SMILES IDX 85 14 88 15 86 16 87 17 7 18 8 19 9 20 10 21 16 22 17 23
REMARK SMILES IDX 18 24 19 25 20 27 21 28 22 29 83 30 23 31 82 32 24 33 25 34
REMARK SMILES IDX 26 35 76 36 27 37 81 38 75 39 77 40 28 41 80 42 74 43 73 44
REMARK SMILES IDX 29 46 61 47 41 48 60 49 42 50 45 51 59 52 78 53 43 54 44 55
REMARK SMILES IDX 58 57 79 58 46 59 30 60 31 61 39 62 32 63 33 64 37 65 40 66
REMARK SMILES IDX 34 67 35 68 38 69 36 70 62 71 63 72 71 73 64 74 65 75 69 76
REMARK SMILES IDX 72 77 66 78 67 79 70 80 68 81 47 82 48 83 56 84 49 85 50 86
REMARK SMILES IDX 54 87 57 88 51 89 52 90 55 91 53 92
REMARK H PARENT 14 5 18 26 77 45 45 56
REMARK Flexibility Score: inf
ROOT
ATOM      1  C   UNL A   1      36.750  20.942  25.085  1.00  0.00     0.117 C 
ENDROOT
BRANCH   1   2
ATOM      2  N   UNL A   1      35.443  20.401  25.343  1.00  0.00    -0.354 N 
ATOM      3  C   UNL A   1      34.236  20.896  24.933  1.00  0.00     0.239 C 
ATOM      4  O   UNL A   1      33.296  20.095  24.898  1.00  0.00    -0.273 OA
ATOM      5  H   UNL A   1      35.414  19.576  25.879  1.00  0.00     0.163 HD
BRANCH   3   6
ATOM      6  C   UNL A   1      34.103  22.306  24.310  1.00  0.00     0.221 C 
BRANCH   6   7
ATOM      7  N   UNL A   1      33.583  23.409  25.149  1.00  0.00    -0.313 N 
BRANCH   7   8
ATOM      8  C   UNL A   1      34.402  24.535  25.104  1.00  0.00     0.320 C 
ATOM      9  O   UNL A   1      35.624  24.369  25.213  1.00  0.00    -0.248 OA
BRANCH   8  10
ATOM     10  N   UNL A   1      33.914  25.816  24.859  1.00  0.00    -0.322 N 
BRANCH  10  11
ATOM     11  C   UNL A   1      33.711  26.452  23.556  1.00  0.00     0.118 C 
ATOM     12  C   UNL A   1      33.240  25.456  22.496  1.00  0.00     0.027 C 
ENDBRANCH  10  11
BRANCH  10  13
ATOM     13  C   UNL A   1      33.428  26.539  26.071  1.00  0.00     0.087 C 
ATOM     14  C   UNL A   1      33.935  27.991  26.183  1.00  0.00     0.025 C 
ATOM     15  C   UNL A   1      31.916  26.775  26.248  1.00  0.00     0.025 C 
ATOM     16  C   UNL A   1      33.144  28.570  27.349  1.00  0.00     0.002 C 
ATOM     17  C   UNL A   1      31.797  27.857  27.322  1.00  0.00     0.002 C 
ENDBRANCH  10  13
ENDBRANCH   8  10
ENDBRANCH   7   8
BRANCH   7  18
ATOM     18  C   UNL A   1      32.787  22.956  26.310  1.00  0.00     0.150 C 
BRANCH  18  19
ATOM     19  C   UNL A   1      31.252  23.006  26.166  1.00  0.00     0.181 C 
BRANCH  19  20
ATOM     20  O   UNL A   1      30.598  23.111  27.435  1.00  0.00    -0.383 OA
ATOM     21  C   UNL A   1      29.226  22.754  27.449  1.00  0.00     0.194 C 
ENDBRANCH  19  20
ENDBRANCH  18  19
ENDBRANCH   7  18
ENDBRANCH   6   7
ENDBRANCH   3   6
ENDBRANCH   1   2
BRANCH   1  22
ATOM     22  C   UNL A   1      37.848  19.900  24.996  1.00  0.00     0.042 C 
BRANCH  22  23
ATOM     23  C   UNL A   1      39.110  20.306  25.741  1.00  0.00     0.118 C 
BRANCH  23  24
ATOM     24  N   UNL A   1      40.087  19.223  25.841  1.00  0.00    -0.352 N 
ATOM     25  C   UNL A   1      41.443  19.253  26.076  1.00  0.00     0.251 C 
ATOM     26  H   UNL A   1      39.712  18.321  25.721  1.00  0.00     0.163 HD
ATOM     27  O   UNL A   1      42.099  18.226  25.977  1.00  0.00    -0.269 OA
BRANCH  25  28
ATOM     28  C   UNL A   1      42.114  20.528  26.411  1.00  0.00     0.039 A 
ATOM     29  C   UNL A   1      42.642  21.309  25.378  1.00  0.00     0.014 A 
ATOM     30  C   UNL A   1      42.217  20.961  27.732  1.00  0.00     0.014 A 
ATOM     31  C   UNL A   1      43.184  22.564  25.666  1.00  0.00     0.010 A 
ATOM     32  C   UNL A   1      42.652  22.251  28.005  1.00  0.00     0.010 A 
ATOM     33  C   UNL A   1      43.144  23.068  26.975  1.00  0.00    -0.014 A 
BRANCH  33  34
ATOM     34  C   UNL A   1      43.616  24.437  27.310  1.00  0.00     0.031 A 
ATOM     35  C   UNL A   1      42.638  25.456  27.827  1.00  0.00     0.074 A 
ATOM     36  C   UNL A   1      44.891  24.789  27.057  1.00  0.00     0.049 A 
ATOM     37  N   UNL A   1      42.804  26.739  28.026  1.00  0.00    -0.248 NA
ATOM     38  C   UNL A   1      41.277  24.977  28.118  1.00  0.00     0.031 C 
ATOM     39  C   UNL A   1      45.921  23.909  26.502  1.00  0.00     0.029 A 
ATOM     40  N   UNL A   1      45.534  25.992  27.212  1.00  0.00    -0.354 N 
ATOM     41  C   UNL A   1      41.568  27.219  28.438  1.00  0.00     0.074 A 
ATOM     42  C   UNL A   1      40.645  26.106  28.398  1.00  0.00     0.031 C 
ATOM     43  C   UNL A   1      47.068  24.594  26.379  1.00  0.00     0.029 A 
ATOM     44  C   UNL A   1      46.846  25.973  26.804  1.00  0.00     0.049 A 
ATOM     45  H   UNL A   1      45.096  26.793  27.580  1.00  0.00     0.167 HD
ATOM     46  C   UNL A   1      41.237  28.467  28.844  1.00  0.00     0.037 A 
ATOM     47  C   UNL A   1      47.760  26.961  26.764  1.00  0.00     0.037 A 
ATOM     48  C   UNL A   1      42.166  29.563  28.920  1.00  0.00     0.049 A 
ATOM     49  C   UNL A   1      47.373  28.336  27.238  1.00  0.00     0.074 A 
ATOM     50  C   UNL A   1      41.945  30.856  29.361  1.00  0.00     0.029 A 
ATOM     51  N   UNL A   1      43.501  29.488  28.551  1.00  0.00    -0.354 N 
ATOM     52  N   UNL A   1      46.214  28.765  27.674  1.00  0.00    -0.248 NA
ATOM     53  C   UNL A   1      48.424  29.364  27.220  1.00  0.00     0.031 C 
ATOM     54  C   UNL A   1      43.139  31.571  29.231  1.00  0.00     0.029 A 
ATOM     55  C   UNL A   1      44.115  30.714  28.751  1.00  0.00     0.049 A 
ATOM     56  H   UNL A   1      43.946  28.683  28.200  1.00  0.00     0.167 HD
ATOM     57  C   UNL A   1      46.402  30.098  28.009  1.00  0.00     0.074 A 
ATOM     58  C   UNL A   1      47.791  30.405  27.741  1.00  0.00     0.031 C 
ATOM     59  C   UNL A   1      45.504  30.991  28.494  1.00  0.00     0.037 A 
BRANCH  46  60
ATOM     60  C   UNL A   1      39.814  28.707  29.260  1.00  0.00     0.064 A 
ATOM     61  C   UNL A   1      39.391  28.493  30.582  1.00  0.00     0.173 A 
ATOM     62  C   UNL A   1      38.868  29.180  28.338  1.00  0.00     0.173 A 
ATOM     63  F   UNL A   1      40.253  28.028  31.498  1.00  0.00    -0.203 F 
ATOM     64  C   UNL A   1      38.069  28.713  30.956  1.00  0.00     0.198 A 
ATOM     65  C   UNL A   1      37.553  29.430  28.725  1.00  0.00     0.198 A 
ATOM     66  F   UNL A   1      39.219  29.406  27.063  1.00  0.00    -0.203 F 
ATOM     67  F   UNL A   1      37.678  28.449  32.211  1.00  0.00    -0.200 F 
ATOM     68  C   UNL A   1      37.154  29.188  30.031  1.00  0.00     0.200 A 
ATOM     69  F   UNL A   1      36.672  29.902  27.832  1.00  0.00    -0.200 F 
ATOM     70  F   UNL A   1      35.882  29.406  30.395  1.00  0.00    -0.200 F 
ENDBRANCH  46  60
BRANCH  47  71
ATOM     71  C   UNL A   1      49.137  26.684  26.274  1.00  0.00     0.064 A 
ATOM     72  C   UNL A   1      49.505  26.985  24.955  1.00  0.00     0.173 A 
ATOM     73  C   UNL A   1      50.107  26.104  27.105  1.00  0.00     0.173 A 
ATOM     74  F   UNL A   1      48.609  27.524  24.116  1.00  0.00    -0.203 F 
ATOM     75  C   UNL A   1      50.782  26.691  24.478  1.00  0.00     0.198 A 
ATOM     76  C   UNL A   1      51.391  25.839  26.636  1.00  0.00     0.198 A 
ATOM     77  F   UNL A   1      49.809  25.806  28.379  1.00  0.00    -0.203 F 
ATOM     78  F   UNL A   1      51.090  26.942  23.199  1.00  0.00    -0.200 F 
ATOM     79  C   UNL A   1      51.724  26.123  25.320  1.00  0.00     0.200 A 
ATOM     80  F   UNL A   1      52.305  25.305  27.458  1.00  0.00    -0.200 F 
ATOM     81  F   UNL A   1      52.952  25.841  24.863  1.00  0.00    -0.200 F 
ENDBRANCH  47  71
BRANCH  59  82
ATOM     82  C   UNL A   1      46.006  32.370  28.805  1.00  0.00     0.064 A 
ATOM     83  C   UNL A   1      46.548  32.690  30.058  1.00  0.00     0.173 A 
ATOM     84  C   UNL A   1      45.986  33.369  27.820  1.00  0.00     0.173 A 
ATOM     85  F   UNL A   1      46.575  31.772  31.036  1.00  0.00    -0.203 F 
ATOM     86  C   UNL A   1      47.034  33.968  30.320  1.00  0.00     0.198 A 
ATOM     87  C   UNL A   1      46.498  34.637  28.077  1.00  0.00     0.198 A 
ATOM     88  F   UNL A   1      45.482  33.110  26.604  1.00  0.00    -0.203 F 
ATOM     89  F   UNL A   1      47.509  34.265  31.537  1.00  0.00    -0.200 F 
ATOM     90  C   UNL A   1      47.016  34.937  29.328  1.00  0.00     0.200 A 
ATOM     91  F   UNL A   1      46.492  35.568  27.113  1.00  0.00    -0.200 F 
ATOM     92  F   UNL A   1      47.492  36.164  29.578  1.00  0.00    -0.200 F 
ENDBRANCH  59  82
ENDBRANCH  33  34
ENDBRANCH  25  28
ENDBRANCH  23  24
ENDBRANCH  22  23
ENDBRANCH   1  22
TORSDOF 18
ENDMDL
MODEL 2
REMARK VINA RESULT:     -10.8      5.537     10.969
REMARK SMILES CCN(C(=O)N(CCOC)CC(=O)NCCCNC(=O)c1ccc(-c2c3nc(c(-c4c(F)c(F)c(F)c(F)c4F)c4ccc([nH]4)c(-c4c(F)c(F)c(F)c(F)c4F)c4nc(c(-c5c(F)c(F)c(F)c(F)c5F)c5ccc2[nH]5)C=C4)C=C3)cc1)C1CCCC1
REMARK SMILES IDX 15 1 14 2 12 3 13 4 11 6 6 7 4 8 5 9 3 10 2 11 1 12 84 13
REMARK SMILES IDX 85 14 88 15 86 16 87 17 7 18 8 19 9 20 10 21 16 22 17 23
REMARK SMILES IDX 18 24 19 25 20 27 21 28 22 29 83 30 23 31 82 32 24 33 25 34
REMARK SMILES IDX 26 35 76 36 27 37 81 38 75 39 77 40 28 41 80 42 74 43 73 44
REMARK SMILES IDX 29 46 61 47 41 48 60 49 42 50 45 51 59 52 78 53 43 54 44 55
REMARK SMILES IDX 58 57 79 58 46 59 30 60 31 61 39 62 32 63 33 64 37 65 40 66
REMARK SMILES IDX 34 67 35 68 38 69 36 70 62 71 63 72 71 73 64 74 65 75 69 76
REMARK SMILES IDX 72 77 66 78 67 79 70 80 68 81 47 82 48 83 56 84 49 85 50 86
REMARK SMILES IDX 54 87 57 88 51 89 52 90 55 91 53 92
REMARK H PARENT 14 5 18 26 77 45 45 56
REMARK Flexibility Score: inf
ROOT
ATOM      1  C   UNL A   1      31.976  30.354  26.048  1.00  0.00     0.117 C 
ENDROOT
BRANCH   1   2
ATOM      2  N   UNL A   1      31.378  30.020  24.783  1.00  0.00    -0.354 N 
ATOM      3  C   UNL A   1      30.895  28.806  24.380  1.00  0.00     0.239 C 
ATOM      4  O   UNL A   1      30.073  28.821  23.457  1.00  0.00    -0.273 OA
ATOM      5  H   UNL A   1      31.310  30.754  24.130  1.00  0.00     0.163 HD
BRANCH   3   6
ATOM      6  C   UNL A   1      31.162  27.514  25.187  1.00  0.00     0.221 C 
BRANCH   6   7
ATOM      7  N   UNL A   1      32.069  26.492  24.616  1.00  0.00    -0.313 N 
BRANCH   7   8
ATOM      8  C   UNL A   1      33.157  26.234  25.446  1.00  0.00     0.320 C 
ATOM      9  O   UNL A   1      33.660  27.185  26.059  1.00  0.00    -0.248 OA
BRANCH   8  10
ATOM     10  N   UNL A   1      33.642  24.949  25.680  1.00  0.00    -0.322 N 
BRANCH  10  11
ATOM     11  C   UNL A   1      33.012  23.895  26.475  1.00  0.00     0.118 C 
ATOM     12  C   UNL A   1      31.793  23.295  25.775  1.00  0.00     0.027 C 
ENDBRANCH  10  11
BRANCH  10  13
ATOM     13  C   UNL A   1      34.871  24.599  24.907  1.00  0.00     0.087 C 
ATOM     14  C   UNL A   1      35.955  23.884  25.740  1.00  0.00     0.025 C 
ATOM     15  C   UNL A   1      34.760  23.619  23.724  1.00  0.00     0.025 C 
ATOM     16  C   UNL A   1      36.984  23.444  24.706  1.00  0.00     0.002 C 
ATOM     17  C   UNL A   1      36.192  23.170  23.433  1.00  0.00     0.002 C 
ENDBRANCH  10  13
ENDBRANCH   8  10
ENDBRANCH   7   8
BRANCH   7  18
ATOM     18  C   UNL A   1      32.070  26.450  23.138  1.00  0.00     0.150 C 
BRANCH  18  19
ATOM     19  C   UNL A   1      33.360  26.911  22.428  1.00  0.00     0.181 C 
BRANCH  19  20
ATOM     20  O   UNL A   1      33.675  26.087  21.302  1.00  0.00    -0.383 OA
ATOM     21  C   UNL A   1      32.563  25.570  20.590  1.00  0.00     0.194 C 
ENDBRANCH  19  20
ENDBRANCH  18  19
ENDBRANCH   7  18
ENDBRANCH   6   7
ENDBRANCH   3   6
ENDBRANCH   1   2
BRANCH   1  22
ATOM     22  C   UNL A   1      31.593  31.722  26.575  1.00  0.00     0.042 C 
BRANCH  22  23
ATOM     23  C   UNL A   1      32.751  32.443  27.246  1.00  0.00     0.118 C 
BRANCH  23  24
ATOM     24  N   UNL A   1      32.448  33.836  27.568  1.00  0.00    -0.352 N 
ATOM     25  C   UNL A   1      33.009  34.690  28.490  1.00  0.00     0.251 C 
ATOM     26  H   UNL A   1      31.719  34.231  27.036  1.00  0.00     0.163 HD
ATOM     27  O   UNL A   1      32.501  35.783  28.694  1.00  0.00    -0.269 OA
BRANCH  25  28
ATOM     28  C   UNL A   1      34.202  34.276  29.262  1.00  0.00     0.039 A 
ATOM     29  C   UNL A   1      34.026  33.588  30.466  1.00  0.00     0.014 A 
ATOM     30  C   UNL A   1      35.488  34.552  28.800  1.00  0.00     0.014 A 
ATOM     31  C   UNL A   1      35.139  33.098  31.153  1.00  0.00     0.010 A 
ATOM     32  C   UNL A   1      36.585  33.969  29.421  1.00  0.00     0.010 A 
ATOM     33  C   UNL A   1      36.425  33.237  30.607  1.00  0.00    -0.014 A 
BRANCH  33  34
ATOM     34  C   UNL A   1      37.625  32.643  31.251  1.00  0.00     0.031 A 
ATOM     35  C   UNL A   1      38.345  31.506  30.579  1.00  0.00     0.074 A 
ATOM     36  C   UNL A   1      38.005  33.057  32.475  1.00  0.00     0.049 A 
ATOM     37  N   UNL A   1      39.306  30.745  31.038  1.00  0.00    -0.248 NA
ATOM     38  C   UNL A   1      37.893  31.147  29.225  1.00  0.00     0.031 C 
ATOM     39  C   UNL A   1      37.355  34.111  33.256  1.00  0.00     0.029 A 
ATOM     40  N   UNL A   1      39.020  32.622  33.290  1.00  0.00    -0.354 N 
ATOM     41  C   UNL A   1      39.551  29.808  30.043  1.00  0.00     0.074 A 
ATOM     42  C   UNL A   1      38.598  30.052  28.984  1.00  0.00     0.031 C 
ATOM     43  C   UNL A   1      37.996  34.253  34.426  1.00  0.00     0.029 A 
ATOM     44  C   UNL A   1      39.074  33.272  34.500  1.00  0.00     0.049 A 
ATOM     45  H   UNL A   1      39.651  31.910  33.033  1.00  0.00     0.167 HD
ATOM     46  C   UNL A   1      40.507  28.850  30.001  1.00  0.00     0.037 A 
ATOM     47  C   UNL A   1      39.891  33.085  35.554  1.00  0.00     0.037 A 
ATOM     48  C   UNL A   1      41.480  28.634  31.039  1.00  0.00     0.049 A 
ATOM     49  C   UNL A   1      40.956  32.025  35.475  1.00  0.00     0.074 A 
ATOM     50  C   UNL A   1      42.519  27.722  31.074  1.00  0.00     0.029 A 
ATOM     51  N   UNL A   1      41.535  29.352  32.224  1.00  0.00    -0.354 N 
ATOM     52  N   UNL A   1      41.212  31.179  34.507  1.00  0.00    -0.248 NA
ATOM     53  C   UNL A   1      41.853  31.899  36.633  1.00  0.00     0.031 C 
ATOM     54  C   UNL A   1      43.185  27.867  32.295  1.00  0.00     0.029 A 
ATOM     55  C   UNL A   1      42.589  28.899  33.001  1.00  0.00     0.049 A 
ATOM     56  H   UNL A   1      40.917  30.077  32.477  1.00  0.00     0.167 HD
ATOM     57  C   UNL A   1      42.312  30.443  34.924  1.00  0.00     0.074 A 
ATOM     58  C   UNL A   1      42.686  30.951  36.227  1.00  0.00     0.031 C 
ATOM     59  C   UNL A   1      42.954  29.433  34.287  1.00  0.00     0.037 A 
BRANCH  46  60
ATOM     60  C   UNL A   1      40.560  27.977  28.780  1.00  0.00     0.064 A 
ATOM     61  C   UNL A   1      39.828  26.781  28.704  1.00  0.00     0.173 A 
ATOM     62  C   UNL A   1      41.326  28.348  27.665  1.00  0.00     0.173 A 
ATOM     63  F   UNL A   1      39.091  26.374  29.748  1.00  0.00    -0.203 F 
ATOM     64  C   UNL A   1      39.887  25.975  27.571  1.00  0.00     0.198 A 
ATOM     65  C   UNL A   1      41.356  27.555  26.520  1.00  0.00     0.198 A 
ATOM     66  F   UNL A   1      42.041  29.483  27.682  1.00  0.00    -0.203 F 
ATOM     67  F   UNL A   1      39.223  24.811  27.545  1.00  0.00    -0.200 F 
ATOM     68  C   UNL A   1      40.644  26.366  26.478  1.00  0.00     0.200 A 
ATOM     69  F   UNL A   1      42.079  27.940  25.459  1.00  0.00    -0.200 F 
ATOM     70  F   UNL A   1      40.694  25.591  25.385  1.00  0.00    -0.200 F 
ENDBRANCH  46  60
BRANCH  47  71
ATOM     71  C   UNL A   1      39.747  33.931  36.769  1.00  0.00     0.064 A 
ATOM     72  C   UNL A   1      40.399  35.169  36.865  1.00  0.00     0.173 A 
ATOM     73  C   UNL A   1      38.967  33.519  37.859  1.00  0.00     0.173 A 
ATOM     74  F   UNL A   1      41.170  35.599  35.856  1.00  0.00    -0.203 F 
ATOM     75  C   UNL A   1      40.301  35.947  38.017  1.00  0.00     0.198 A 
ATOM     76  C   UNL A   1      38.846  34.313  38.998  1.00  0.00     0.198 A 
ATOM     77  F   UNL A   1      38.314  32.348  37.814  1.00  0.00    -0.203 F 
ATOM     78  F   UNL A   1      40.977  37.101  38.101  1.00  0.00    -0.200 F 
ATOM     79  C   UNL A   1      39.521  35.521  39.079  1.00  0.00     0.200 A 
ATOM     80  F   UNL A   1      38.077  33.904  40.017  1.00  0.00    -0.200 F 
ATOM     81  F   UNL A   1      39.424  36.270  40.186  1.00  0.00    -0.200 F 
ENDBRANCH  47  71
BRANCH  59  82
ATOM     82  C   UNL A   1      44.152  28.841  34.969  1.00  0.00     0.064 A 
ATOM     83  C   UNL A   1      44.035  27.756  35.850  1.00  0.00     0.173 A 
ATOM     84  C   UNL A   1      45.437  29.336  34.699  1.00  0.00     0.173 A 
ATOM     85  F   UNL A   1      42.827  27.257  36.150  1.00  0.00    -0.203 F 
ATOM     86  C   UNL A   1      45.162  27.201  36.453  1.00  0.00     0.198 A 
ATOM     87  C   UNL A   1      46.562  28.761  35.282  1.00  0.00     0.198 A 
ATOM     88  F   UNL A   1      45.600  30.370  33.859  1.00  0.00    -0.203 F 
ATOM     89  F   UNL A   1      45.024  26.193  37.324  1.00  0.00    -0.200 F 
ATOM     90  C   UNL A   1      46.423  27.699  36.162  1.00  0.00     0.200 A 
ATOM     91  F   UNL A   1      47.781  29.236  34.990  1.00  0.00    -0.200 F 
ATOM     92  F   UNL A   1      47.506  27.159  36.736  1.00  0.00    -0.200 F 
ENDBRANCH  59  82
ENDBRANCH  33  34
ENDBRANCH  25  28
ENDBRANCH  23  24
ENDBRANCH  22  23
ENDBRANCH   1  22
TORSDOF 18
ENDMDL
MODEL 3
REMARK VINA RESULT:     -10.8      5.787     11.188
REMARK SMILES CCN(C(=O)N(CCOC)CC(=O)NCCCNC(=O)c1ccc(-c2c3nc(c(-c4c(F)c(F)c(F)c(F)c4F)c4ccc([nH]4)c(-c4c(F)c(F)c(F)c(F)c4F)c4nc(c(-c5c(F)c(F)c(F)c(F)c5F)c5ccc2[nH]5)C=C4)C=C3)cc1)C1CCCC1
REMARK SMILES IDX 15 1 14 2 12 3 13 4 11 6 6 7 4 8 5 9 3 10 2 11 1 12 84 13
REMARK SMILES IDX 85 14 88 15 86 16 87 17 7 18 8 19 9 20 10 21 16 22 17 23
REMARK SMILES IDX 18 24 19 25 20 27 21 28 22 29 83 30 23 31 82 32 24 33 25 34
REMARK SMILES IDX 26 35 76 36 27 37 81 38 75 39 77 40 28 41 80 42 74 43 73 44
REMARK SMILES IDX 29 46 61 47 41 48 60 49 42 50 45 51 59 52 78 53 43 54 44 55
REMARK SMILES IDX 58 57 79 58 46 59 30 60 31 61 39 62 32 63 33 64 37 65 40 66
REMARK SMILES IDX 34 67 35 68 38 69 36 70 62 71 63 72 71 73 64 74 65 75 69 76
REMARK SMILES IDX 72 77 66 78 67 79 70 80 68 81 47 82 48 83 56 84 49 85 50 86
REMARK SMILES IDX 54 87 57 88 51 89 52 90 55 91 53 92
REMARK H PARENT 14 5 18 26 77 45 45 56
REMARK Flexibility Score: inf
ROOT
ATOM      1  C   UNL A   1      31.780  30.595  26.427  1.00  0.00     0.117 C 
ENDROOT
BRANCH   1   2
ATOM      2  N   UNL A   1      33.100  30.164  26.801  1.00  0.00    -0.354 N 
ATOM      3  C   UNL A   1      33.539  28.884  26.995  1.00  0.00     0.239 C 
ATOM      4  O   UNL A   1      34.757  28.700  26.904  1.00  0.00    -0.273 OA
ATOM      5  H   UNL A   1      33.767  30.876  26.933  1.00  0.00     0.163 HD
BRANCH   3   6
ATOM      6  C   UNL A   1      32.558  27.690  27.075  1.00  0.00     0.221 C 
BRANCH   6   7
ATOM      7  N   UNL A   1      32.485  26.750  25.934  1.00  0.00    -0.313 N 
BRANCH   7   8
ATOM      8  C   UNL A   1      31.335  26.938  25.172  1.00  0.00     0.320 C 
ATOM      9  O   UNL A   1      30.239  26.762  25.719  1.00  0.00    -0.248 OA
BRANCH   8  10
ATOM     10  N   UNL A   1      31.365  27.395  23.856  1.00  0.00    -0.322 N 
BRANCH  10  11
ATOM     11  C   UNL A   1      32.160  26.860  22.750  1.00  0.00     0.118 C 
ATOM     12  C   UNL A   1      31.686  25.472  22.318  1.00  0.00     0.027 C 
ENDBRANCH  10  11
BRANCH  10  13
ATOM     13  C   UNL A   1      30.364  28.458  23.544  1.00  0.00     0.087 C 
ATOM     14  C   UNL A   1      30.737  29.337  22.332  1.00  0.00     0.025 C 
ATOM     15  C   UNL A   1      28.935  28.048  23.141  1.00  0.00     0.025 C 
ATOM     16  C   UNL A   1      29.489  30.175  22.086  1.00  0.00     0.002 C 
ATOM     17  C   UNL A   1      28.318  29.296  22.510  1.00  0.00     0.002 C 
ENDBRANCH  10  13
ENDBRANCH   8  10
ENDBRANCH   7   8
BRANCH   7  18
ATOM     18  C   UNL A   1      33.172  25.462  26.172  1.00  0.00     0.150 C 
BRANCH  18  19
ATOM     19  C   UNL A   1      32.318  24.183  26.053  1.00  0.00     0.181 C 
BRANCH  19  20
ATOM     20  O   UNL A   1      31.398  24.051  27.141  1.00  0.00    -0.383 OA
ATOM     21  C   UNL A   1      30.351  23.114  26.948  1.00  0.00     0.194 C 
ENDBRANCH  19  20
ENDBRANCH  18  19
ENDBRANCH   7  18
ENDBRANCH   6   7
ENDBRANCH   3   6
ENDBRANCH   1   2
BRANCH   1  22
ATOM     22  C   UNL A   1      31.489  32.050  26.742  1.00  0.00     0.042 C 
BRANCH  22  23
ATOM     23  C   UNL A   1      32.696  32.786  27.302  1.00  0.00     0.118 C 
BRANCH  23  24
ATOM     24  N   UNL A   1      32.407  34.177  27.646  1.00  0.00    -0.352 N 
ATOM     25  C   UNL A   1      32.973  35.007  28.588  1.00  0.00     0.251 C 
ATOM     26  H   UNL A   1      31.688  34.590  27.116  1.00  0.00     0.163 HD
ATOM     27  O   UNL A   1      32.476  36.103  28.807  1.00  0.00    -0.269 OA
BRANCH  25  28
ATOM     28  C   UNL A   1      34.154  34.564  29.361  1.00  0.00     0.039 A 
ATOM     29  C   UNL A   1      33.972  34.071  30.656  1.00  0.00     0.014 A 
ATOM     30  C   UNL A   1      35.434  34.622  28.812  1.00  0.00     0.014 A 
ATOM     31  C   UNL A   1      35.062  33.551  31.359  1.00  0.00     0.010 A 
ATOM     32  C   UNL A   1      36.494  34.004  29.463  1.00  0.00     0.010 A 
ATOM     33  C   UNL A   1      36.322  33.463  30.746  1.00  0.00    -0.014 A 
BRANCH  33  34
ATOM     34  C   UNL A   1      37.483  32.826  31.417  1.00  0.00     0.031 A 
ATOM     35  C   UNL A   1      38.176  31.661  30.763  1.00  0.00     0.074 A 
ATOM     36  C   UNL A   1      37.851  33.225  32.650  1.00  0.00     0.049 A 
ATOM     37  N   UNL A   1      39.097  30.866  31.244  1.00  0.00    -0.248 NA
ATOM     38  C   UNL A   1      37.742  31.319  29.398  1.00  0.00     0.031 C 
ATOM     39  C   UNL A   1      37.222  34.304  33.416  1.00  0.00     0.029 A 
ATOM     40  N   UNL A   1      38.830  32.753  33.489  1.00  0.00    -0.354 N 
ATOM     41  C   UNL A   1      39.330  29.920  30.254  1.00  0.00     0.074 A 
ATOM     42  C   UNL A   1      38.411  30.198  29.174  1.00  0.00     0.031 C 
ATOM     43  C   UNL A   1      37.841  34.422  34.601  1.00  0.00     0.029 A 
ATOM     44  C   UNL A   1      38.880  33.402  34.699  1.00  0.00     0.049 A 
ATOM     45  H   UNL A   1      39.439  32.019  33.246  1.00  0.00     0.167 HD
ATOM     46  C   UNL A   1      40.250  28.926  30.234  1.00  0.00     0.037 A 
ATOM     47  C   UNL A   1      39.664  33.185  35.772  1.00  0.00     0.037 A 
ATOM     48  C   UNL A   1      41.189  28.675  31.294  1.00  0.00     0.049 A 
ATOM     49  C   UNL A   1      40.691  32.086  35.717  1.00  0.00     0.074 A 
ATOM     50  C   UNL A   1      42.193  27.724  31.353  1.00  0.00     0.029 A 
ATOM     51  N   UNL A   1      41.244  29.391  32.480  1.00  0.00    -0.354 N 
ATOM     52  N   UNL A   1      40.937  31.230  34.756  1.00  0.00    -0.248 NA
ATOM     53  C   UNL A   1      41.556  31.927  36.896  1.00  0.00     0.031 C 
ATOM     54  C   UNL A   1      42.835  27.845  32.589  1.00  0.00     0.029 A 
ATOM     55  C   UNL A   1      42.263  28.899  33.281  1.00  0.00     0.049 A 
ATOM     56  H   UNL A   1      40.648  30.138  32.719  1.00  0.00     0.167 HD
ATOM     57  C   UNL A   1      41.999  30.454  35.198  1.00  0.00     0.074 A 
ATOM     58  C   UNL A   1      42.361  30.949  36.509  1.00  0.00     0.031 C 
ATOM     59  C   UNL A   1      42.618  29.420  34.575  1.00  0.00     0.037 A 
BRANCH  46  60
ATOM     60  C   UNL A   1      40.298  28.051  29.015  1.00  0.00     0.064 A 
ATOM     61  C   UNL A   1      41.064  28.402  27.891  1.00  0.00     0.173 A 
ATOM     62  C   UNL A   1      39.594  26.838  28.974  1.00  0.00     0.173 A 
ATOM     63  F   UNL A   1      41.745  29.558  27.874  1.00  0.00    -0.203 F 
ATOM     64  C   UNL A   1      41.099  27.587  26.764  1.00  0.00     0.198 A 
ATOM     65  C   UNL A   1      39.657  26.009  27.856  1.00  0.00     0.198 A 
ATOM     66  F   UNL A   1      38.849  26.452  30.021  1.00  0.00    -0.203 F 
ATOM     67  F   UNL A   1      41.794  27.971  25.684  1.00  0.00    -0.200 F 
ATOM     68  C   UNL A   1      40.402  26.389  26.750  1.00  0.00     0.200 A 
ATOM     69  F   UNL A   1      38.993  24.846  27.848  1.00  0.00    -0.200 F 
ATOM     70  F   UNL A   1      40.442  25.602  25.665  1.00  0.00    -0.200 F 
ENDBRANCH  46  60
BRANCH  47  71
ATOM     71  C   UNL A   1      39.524  34.037  36.983  1.00  0.00     0.064 A 
ATOM     72  C   UNL A   1      38.774  33.602  38.085  1.00  0.00     0.173 A 
ATOM     73  C   UNL A   1      40.125  35.302  37.061  1.00  0.00     0.173 A 
ATOM     74  F   UNL A   1      38.166  32.408  38.052  1.00  0.00    -0.203 F 
ATOM     75  C   UNL A   1      38.605  34.412  39.207  1.00  0.00     0.198 A 
ATOM     76  C   UNL A   1      39.980  36.098  38.196  1.00  0.00     0.198 A 
ATOM     77  F   UNL A   1      40.862  35.760  36.039  1.00  0.00    -0.203 F 
ATOM     78  F   UNL A   1      37.840  33.993  40.224  1.00  0.00    -0.200 F 
ATOM     79  C   UNL A   1      39.212  35.657  39.263  1.00  0.00     0.200 A 
ATOM     80  F   UNL A   1      40.583  37.294  38.253  1.00  0.00    -0.200 F 
ATOM     81  F   UNL A   1      39.053  36.436  40.341  1.00  0.00    -0.200 F 
ENDBRANCH  47  71
BRANCH  59  82
ATOM     82  C   UNL A   1      43.776  28.784  35.285  1.00  0.00     0.064 A 
ATOM     83  C   UNL A   1      45.095  29.204  35.063  1.00  0.00     0.173 A 
ATOM     84  C   UNL A   1      43.556  27.775  36.236  1.00  0.00     0.173 A 
ATOM     85  F   UNL A   1      45.356  30.156  34.154  1.00  0.00    -0.203 F 
ATOM     86  C   UNL A   1      46.156  28.621  35.752  1.00  0.00     0.198 A 
ATOM     87  C   UNL A   1      44.616  27.215  36.941  1.00  0.00     0.198 A 
ATOM     88  F   UNL A   1      42.311  27.343  36.487  1.00  0.00    -0.203 F 
ATOM     89  F   UNL A   1      47.412  29.008  35.493  1.00  0.00    -0.200 F 
ATOM     90  C   UNL A   1      45.914  27.634  36.695  1.00  0.00     0.200 A 
ATOM     91  F   UNL A   1      44.380  26.270  37.862  1.00  0.00    -0.200 F 
ATOM     92  F   UNL A   1      46.935  27.080  37.363  1.00  0.00    -0.200 F 
ENDBRANCH  59  82
ENDBRANCH  33  34
ENDBRANCH  25  28
ENDBRANCH  23  24
ENDBRANCH  22  23
ENDBRANCH   1  22
TORSDOF 18
ENDMDL
