MODEL 1
REMARK VINA RESULT:     -14.4      0.000      0.000
REMARK SMILES CC(=O)Nc1ccc(/C=C2/CCc3oc(C(=O)NCCCNC(=O)c4ccc(-c5c6nc(c(-c7c(F)c(F)c(F)c(F)c7F)c7ccc([nH]7)c(-c7c(F)c(F)c(F)c(F)c7F)c7nc(c(-c8c(F)c(F)c(F)c(F)c8F)c8ccc5[nH]8)C=C7)C=C6)cc4)c(C)c3C2=O)cc1
REMARK SMILES IDX 20 1 19 2 18 3 16 4 17 5 15 7 9 8 10 9 11 10 91 11 12 12
REMARK SMILES IDX 90 13 92 14 13 15 88 16 14 17 89 18 8 19 5 20 6 21 94 22
REMARK SMILES IDX 7 23 93 24 4 25 1 26 2 27 3 28 21 30 22 31 23 32 24 34 25 35
REMARK SMILES IDX 26 36 87 37 27 38 86 39 28 40 29 41 30 42 80 43 31 44 85 45
REMARK SMILES IDX 79 46 81 47 32 48 84 49 78 50 77 51 33 53 65 54 45 55 64 56
REMARK SMILES IDX 46 57 49 58 63 59 82 60 47 61 48 62 62 64 83 65 50 66 34 67
REMARK SMILES IDX 35 68 43 69 36 70 37 71 41 72 44 73 38 74 39 75 42 76 40 77
REMARK SMILES IDX 66 78 67 79 75 80 68 81 69 82 73 83 76 84 70 85 71 86 74 87
REMARK SMILES IDX 72 88 51 89 52 90 60 91 53 92 54 93 58 94 61 95 55 96 56 97
REMARK SMILES IDX 59 98 57 99
REMARK H PARENT 18 6 4 29 22 33 81 52 49 63
REMARK Flexibility Score: inf
ROOT
ATOM      1  C   UNL A   1      38.874  24.286  26.435  1.00  0.00     0.042 C 
ENDROOT
BRANCH   1   2
ATOM      2  C   UNL A   1      37.494  23.903  25.889  1.00  0.00     0.118 C 
BRANCH   2   3
ATOM      3  N   UNL A   1      37.416  22.508  25.472  1.00  0.00    -0.349 N 
ATOM      4  C   UNL A   1      36.337  21.715  25.138  1.00  0.00     0.287 C 
ATOM      5  O   UNL A   1      36.609  20.579  24.742  1.00  0.00    -0.266 OA
ATOM      6  H   UNL A   1      38.287  22.051  25.419  1.00  0.00     0.163 HD
BRANCH   4   7
ATOM      7  C   UNL A   1      34.974  22.213  25.246  1.00  0.00     0.195 A 
ATOM      8  C   UNL A   1      30.153  25.279  25.912  1.00  0.00     0.016 C 
ATOM      9  C   UNL A   1      30.817  24.111  25.804  1.00  0.00     0.001 C 
ATOM     10  C   UNL A   1      30.795  23.076  26.920  1.00  0.00     0.048 C 
ATOM     11  C   UNL A   1      31.675  23.755  24.612  1.00  0.00     0.192 C 
ATOM     12  C   UNL A   1      32.209  22.800  27.456  1.00  0.00     0.081 C 
ATOM     13  C   UNL A   1      32.915  23.117  25.011  1.00  0.00     0.067 A 
ATOM     14  O   UNL A   1      31.365  23.981  23.448  1.00  0.00    -0.289 OA
ATOM     15  C   UNL A   1      33.115  22.681  26.296  1.00  0.00     0.116 A 
ATOM     16  C   UNL A   1      34.129  22.827  24.313  1.00  0.00     0.012 A 
ATOM     17  O   UNL A   1      34.317  22.104  26.444  1.00  0.00    -0.455 OA
ATOM     18  C   UNL A   1      34.409  23.176  22.893  1.00  0.00     0.049 C 
BRANCH   8  19
ATOM     19  C   UNL A   1      30.175  26.445  25.014  1.00  0.00    -0.025 A 
ATOM     20  C   UNL A   1      30.015  28.735  23.374  1.00  0.00     0.041 A 
ATOM     21  C   UNL A   1      31.022  28.620  24.331  1.00  0.00     0.027 A 
ATOM     22  C   UNL A   1      29.110  27.687  23.212  1.00  0.00     0.027 A 
ATOM     23  C   UNL A   1      31.070  27.507  25.174  1.00  0.00     0.010 A 
ATOM     24  C   UNL A   1      29.192  26.548  24.023  1.00  0.00     0.010 A 
BRANCH  20  25
ATOM     25  N   UNL A   1      30.004  29.896  22.593  1.00  0.00    -0.326 N 
ATOM     26  C   UNL A   1      27.955  30.963  23.502  1.00  0.00     0.114 C 
ATOM     27  C   UNL A   1      29.057  30.875  22.480  1.00  0.00     0.221 C 
ATOM     28  O   UNL A   1      29.169  31.725  21.594  1.00  0.00    -0.275 OA
ATOM     29  H   UNL A   1      30.805  30.030  22.037  1.00  0.00     0.169 HD
ENDBRANCH  20  25
ENDBRANCH   8  19
ENDBRANCH   4   7
ENDBRANCH   2   3
ENDBRANCH   1   2
BRANCH   1  30
ATOM     30  C   UNL A   1      39.550  23.106  27.120  1.00  0.00     0.118 C 
BRANCH  30  31
ATOM     31  N   UNL A   1      40.815  22.714  26.482  1.00  0.00    -0.352 N 
ATOM     32  C   UNL A   1      41.855  23.520  26.051  1.00  0.00     0.251 C 
ATOM     33  H   UNL A   1      40.940  21.748  26.341  1.00  0.00     0.163 HD
ATOM     34  O   UNL A   1      42.696  23.098  25.266  1.00  0.00    -0.269 OA
BRANCH  32  35
ATOM     35  C   UNL A   1      41.931  24.904  26.548  1.00  0.00     0.039 A 
ATOM     36  C   UNL A   1      41.571  25.997  25.757  1.00  0.00     0.014 A 
ATOM     37  C   UNL A   1      42.327  25.089  27.867  1.00  0.00     0.014 A 
ATOM     38  C   UNL A   1      41.523  27.260  26.345  1.00  0.00     0.010 A 
ATOM     39  C   UNL A   1      42.067  26.277  28.492  1.00  0.00     0.010 A 
ATOM     40  C   UNL A   1      41.744  27.386  27.728  1.00  0.00    -0.014 A 
BRANCH  40  41
ATOM     41  C   UNL A   1      41.556  28.658  28.416  1.00  0.00     0.031 A 
ATOM     42  C   UNL A   1      42.611  29.669  28.142  1.00  0.00     0.074 A 
ATOM     43  C   UNL A   1      40.433  28.982  29.094  1.00  0.00     0.049 A 
ATOM     44  N   UNL A   1      43.485  30.132  28.973  1.00  0.00    -0.248 NA
ATOM     45  C   UNL A   1      42.808  30.124  26.757  1.00  0.00     0.031 C 
ATOM     46  C   UNL A   1      39.170  28.241  29.214  1.00  0.00     0.029 A 
ATOM     47  N   UNL A   1      40.159  30.128  29.772  1.00  0.00    -0.354 N 
ATOM     48  C   UNL A   1      44.230  31.073  28.271  1.00  0.00     0.074 A 
ATOM     49  C   UNL A   1      43.879  30.911  26.883  1.00  0.00     0.031 C 
ATOM     50  C   UNL A   1      38.208  29.050  29.712  1.00  0.00     0.029 A 
ATOM     51  C   UNL A   1      38.824  30.297  30.123  1.00  0.00     0.049 A 
ATOM     52  H   UNL A   1      40.853  30.790  29.998  1.00  0.00     0.167 HD
ATOM     53  C   UNL A   1      44.902  32.058  28.930  1.00  0.00     0.037 A 
ATOM     54  C   UNL A   1      38.274  31.391  30.704  1.00  0.00     0.037 A 
ATOM     55  C   UNL A   1      45.063  31.727  30.326  1.00  0.00     0.049 A 
ATOM     56  C   UNL A   1      39.384  32.146  31.337  1.00  0.00     0.074 A 
ATOM     57  C   UNL A   1      45.664  30.687  31.008  1.00  0.00     0.029 A 
ATOM     58  N   UNL A   1      44.220  32.319  31.235  1.00  0.00    -0.354 N 
ATOM     59  N   UNL A   1      40.053  31.718  32.370  1.00  0.00    -0.248 NA
ATOM     60  C   UNL A   1      40.051  33.156  30.529  1.00  0.00     0.031 C 
ATOM     61  C   UNL A   1      44.778  30.395  32.089  1.00  0.00     0.029 A 
ATOM     62  C   UNL A   1      43.737  31.323  32.046  1.00  0.00     0.049 A 
ATOM     63  H   UNL A   1      44.004  33.277  31.293  1.00  0.00     0.167 HD
ATOM     64  C   UNL A   1      41.368  32.060  32.099  1.00  0.00     0.074 A 
ATOM     65  C   UNL A   1      41.296  33.013  30.992  1.00  0.00     0.031 C 
ATOM     66  C   UNL A   1      42.404  31.324  32.597  1.00  0.00     0.037 A 
BRANCH  53  67
ATOM     67  C   UNL A   1      45.076  33.468  28.416  1.00  0.00     0.064 A 
ATOM     68  C   UNL A   1      46.378  34.005  28.324  1.00  0.00     0.173 A 
ATOM     69  C   UNL A   1      44.026  34.406  28.312  1.00  0.00     0.173 A 
ATOM     70  F   UNL A   1      47.454  33.208  28.417  1.00  0.00    -0.203 F 
ATOM     71  C   UNL A   1      46.606  35.380  28.239  1.00  0.00     0.198 A 
ATOM     72  C   UNL A   1      44.259  35.773  28.172  1.00  0.00     0.198 A 
ATOM     73  F   UNL A   1      42.742  34.061  28.452  1.00  0.00    -0.203 F 
ATOM     74  F   UNL A   1      47.859  35.850  28.295  1.00  0.00    -0.200 F 
ATOM     75  C   UNL A   1      45.545  36.265  28.173  1.00  0.00     0.200 A 
ATOM     76  F   UNL A   1      43.216  36.614  28.126  1.00  0.00    -0.200 F 
ATOM     77  F   UNL A   1      45.759  37.586  28.162  1.00  0.00    -0.200 F 
ENDBRANCH  53  67
BRANCH  54  78
ATOM     78  C   UNL A   1      36.933  31.990  30.510  1.00  0.00     0.064 A 
ATOM     79  C   UNL A   1      35.974  31.944  31.537  1.00  0.00     0.173 A 
ATOM     80  C   UNL A   1      36.677  32.887  29.456  1.00  0.00     0.173 A 
ATOM     81  F   UNL A   1      36.156  31.139  32.594  1.00  0.00    -0.203 F 
ATOM     82  C   UNL A   1      34.857  32.785  31.540  1.00  0.00     0.198 A 
ATOM     83  C   UNL A   1      35.558  33.724  29.457  1.00  0.00     0.198 A 
ATOM     84  F   UNL A   1      37.560  33.046  28.459  1.00  0.00    -0.203 F 
ATOM     85  F   UNL A   1      34.010  32.769  32.579  1.00  0.00    -0.200 F 
ATOM     86  C   UNL A   1      34.659  33.686  30.508  1.00  0.00     0.200 A 
ATOM     87  F   UNL A   1      35.395  34.617  28.471  1.00  0.00    -0.200 F 
ATOM     88  F   UNL A   1      33.633  34.548  30.547  1.00  0.00    -0.200 F 
ENDBRANCH  54  78
BRANCH  66  89
ATOM     89  C   UNL A   1      42.092  30.285  33.639  1.00  0.00     0.064 A 
ATOM     90  C   UNL A   1      41.688  28.968  33.350  1.00  0.00     0.173 A 
ATOM     91  C   UNL A   1      42.339  30.598  34.982  1.00  0.00     0.173 A 
ATOM     92  F   UNL A   1      41.526  28.556  32.088  1.00  0.00    -0.203 F 
ATOM     93  C   UNL A   1      41.497  28.028  34.363  1.00  0.00     0.198 A 
ATOM     94  C   UNL A   1      42.185  29.648  35.987  1.00  0.00     0.198 A 
ATOM     95  F   UNL A   1      42.778  31.821  35.315  1.00  0.00    -0.203 F 
ATOM     96  F   UNL A   1      41.098  26.784  34.060  1.00  0.00    -0.200 F 
ATOM     97  C   UNL A   1      41.753  28.368  35.681  1.00  0.00     0.200 A 
ATOM     98  F   UNL A   1      42.480  29.968  37.254  1.00  0.00    -0.200 F 
ATOM     99  F   UNL A   1      41.608  27.456  36.652  1.00  0.00    -0.200 F 
ENDBRANCH  66  89
ENDBRANCH  40  41
ENDBRANCH  32  35
ENDBRANCH  30  31
ENDBRANCH   1  30
TORSDOF 12
ENDMDL
MODEL 2
REMARK VINA RESULT:     -14.3      3.666      9.288
REMARK SMILES CC(=O)Nc1ccc(/C=C2/CCc3oc(C(=O)NCCCNC(=O)c4ccc(-c5c6nc(c(-c7c(F)c(F)c(F)c(F)c7F)c7ccc([nH]7)c(-c7c(F)c(F)c(F)c(F)c7F)c7nc(c(-c8c(F)c(F)c(F)c(F)c8F)c8ccc5[nH]8)C=C7)C=C6)cc4)c(C)c3C2=O)cc1
REMARK SMILES IDX 20 1 19 2 18 3 16 4 17 5 15 7 9 8 10 9 11 10 91 11 12 12
REMARK SMILES IDX 90 13 92 14 13 15 88 16 14 17 89 18 8 19 5 20 6 21 94 22
REMARK SMILES IDX 7 23 93 24 4 25 1 26 2 27 3 28 21 30 22 31 23 32 24 34 25 35
REMARK SMILES IDX 26 36 87 37 27 38 86 39 28 40 29 41 30 42 80 43 31 44 85 45
REMARK SMILES IDX 79 46 81 47 32 48 84 49 78 50 77 51 33 53 65 54 45 55 64 56
REMARK SMILES IDX 46 57 49 58 63 59 82 60 47 61 48 62 62 64 83 65 50 66 34 67
REMARK SMILES IDX 35 68 43 69 36 70 37 71 41 72 44 73 38 74 39 75 42 76 40 77
REMARK SMILES IDX 66 78 67 79 75 80 68 81 69 82 73 83 76 84 70 85 71 86 74 87
REMARK SMILES IDX 72 88 51 89 52 90 60 91 53 92 54 93 58 94 61 95 55 96 56 97
REMARK SMILES IDX 59 98 57 99
REMARK H PARENT 18 6 4 29 22 33 81 52 49 63
REMARK Flexibility Score: inf
ROOT
ATOM      1  C   UNL A   1      35.429  29.682  27.972  1.00  0.00     0.042 C 
ENDROOT
BRANCH   1   2
ATOM      2  C   UNL A   1      34.521  29.047  26.913  1.00  0.00     0.118 C 
BRANCH   2   3
ATOM      3  N   UNL A   1      33.310  29.822  26.668  1.00  0.00    -0.349 N 
ATOM      4  C   UNL A   1      32.241  29.599  25.823  1.00  0.00     0.287 C 
ATOM      5  O   UNL A   1      31.316  30.411  25.905  1.00  0.00    -0.266 OA
ATOM      6  H   UNL A   1      33.243  30.649  27.199  1.00  0.00     0.163 HD
BRANCH   4   7
ATOM      7  C   UNL A   1      32.225  28.467  24.910  1.00  0.00     0.195 A 
ATOM      8  C   UNL A   1      33.154  23.610  21.973  1.00  0.00     0.016 C 
ATOM      9  C   UNL A   1      32.575  24.816  22.127  1.00  0.00     0.001 C 
ATOM     10  C   UNL A   1      32.801  25.942  21.127  1.00  0.00     0.048 C 
ATOM     11  C   UNL A   1      31.711  25.173  23.315  1.00  0.00     0.192 C 
ATOM     12  C   UNL A   1      33.448  27.164  21.798  1.00  0.00     0.081 C 
ATOM     13  C   UNL A   1      31.991  26.509  23.804  1.00  0.00     0.067 A 
ATOM     14  O   UNL A   1      30.876  24.424  23.808  1.00  0.00    -0.289 OA
ATOM     15  C   UNL A   1      32.761  27.388  23.086  1.00  0.00     0.116 A 
ATOM     16  C   UNL A   1      31.641  27.198  25.008  1.00  0.00     0.012 A 
ATOM     17  O   UNL A   1      32.877  28.570  23.708  1.00  0.00    -0.455 OA
ATOM     18  C   UNL A   1      30.854  26.620  26.132  1.00  0.00     0.049 C 
BRANCH   8  19
ATOM     19  C   UNL A   1      33.170  22.464  22.896  1.00  0.00    -0.025 A 
ATOM     20  C   UNL A   1      33.241  20.136  24.488  1.00  0.00     0.041 A 
ATOM     21  C   UNL A   1      34.169  21.156  24.688  1.00  0.00     0.027 A 
ATOM     22  C   UNL A   1      32.255  20.295  23.516  1.00  0.00     0.027 A 
ATOM     23  C   UNL A   1      34.162  22.286  23.867  1.00  0.00     0.010 A 
ATOM     24  C   UNL A   1      32.217  21.453  22.729  1.00  0.00     0.010 A 
BRANCH  20  25
ATOM     25  N   UNL A   1      33.334  19.014  25.321  1.00  0.00    -0.326 N 
ATOM     26  C   UNL A   1      33.985  17.319  23.629  1.00  0.00     0.114 C 
ATOM     27  C   UNL A   1      33.521  17.697  25.010  1.00  0.00     0.221 C 
ATOM     28  O   UNL A   1      33.393  16.844  25.891  1.00  0.00    -0.275 OA
ATOM     29  H   UNL A   1      33.252  19.204  26.284  1.00  0.00     0.169 HD
ENDBRANCH  20  25
ENDBRANCH   8  19
ENDBRANCH   4   7
ENDBRANCH   2   3
ENDBRANCH   1   2
BRANCH   1  30
ATOM     30  C   UNL A   1      35.560  31.185  27.767  1.00  0.00     0.118 C 
BRANCH  30  31
ATOM     31  N   UNL A   1      35.190  31.965  28.957  1.00  0.00    -0.352 N 
ATOM     32  C   UNL A   1      35.615  31.808  30.265  1.00  0.00     0.251 C 
ATOM     33  H   UNL A   1      34.552  32.699  28.803  1.00  0.00     0.163 HD
ATOM     34  O   UNL A   1      34.999  32.315  31.194  1.00  0.00    -0.269 OA
BRANCH  32  35
ATOM     35  C   UNL A   1      36.825  31.009  30.524  1.00  0.00     0.039 A 
ATOM     36  C   UNL A   1      36.759  29.693  30.990  1.00  0.00     0.014 A 
ATOM     37  C   UNL A   1      38.052  31.593  30.236  1.00  0.00     0.014 A 
ATOM     38  C   UNL A   1      37.937  28.952  31.066  1.00  0.00     0.010 A 
ATOM     39  C   UNL A   1      39.161  30.806  30.099  1.00  0.00     0.010 A 
ATOM     40  C   UNL A   1      39.136  29.510  30.585  1.00  0.00    -0.014 A 
BRANCH  40  41
ATOM     41  C   UNL A   1      40.361  28.724  30.501  1.00  0.00     0.031 A 
ATOM     42  C   UNL A   1      41.048  28.512  31.802  1.00  0.00     0.074 A 
ATOM     43  C   UNL A   1      40.755  28.073  29.384  1.00  0.00     0.049 A 
ATOM     44  N   UNL A   1      42.192  28.988  32.169  1.00  0.00    -0.248 NA
ATOM     45  C   UNL A   1      40.329  27.800  32.870  1.00  0.00     0.031 C 
ATOM     46  C   UNL A   1      40.056  27.911  28.103  1.00  0.00     0.029 A 
ATOM     47  N   UNL A   1      41.875  27.324  29.197  1.00  0.00    -0.354 N 
ATOM     48  C   UNL A   1      42.430  28.491  33.446  1.00  0.00     0.074 A 
ATOM     49  C   UNL A   1      41.190  27.905  33.886  1.00  0.00     0.031 C 
ATOM     50  C   UNL A   1      40.648  26.938  27.375  1.00  0.00     0.029 A 
ATOM     51  C   UNL A   1      41.871  26.543  28.046  1.00  0.00     0.049 A 
ATOM     52  H   UNL A   1      42.630  27.332  29.828  1.00  0.00     0.167 HD
ATOM     53  C   UNL A   1      43.699  28.408  33.933  1.00  0.00     0.037 A 
ATOM     54  C   UNL A   1      42.810  25.635  27.684  1.00  0.00     0.037 A 
ATOM     55  C   UNL A   1      44.598  29.244  33.173  1.00  0.00     0.049 A 
ATOM     56  C   UNL A   1      44.043  25.966  28.440  1.00  0.00     0.074 A 
ATOM     57  C   UNL A   1      44.658  30.597  32.897  1.00  0.00     0.029 A 
ATOM     58  N   UNL A   1      45.404  28.646  32.235  1.00  0.00    -0.354 N 
ATOM     59  N   UNL A   1      44.751  27.041  28.233  1.00  0.00    -0.248 NA
ATOM     60  C   UNL A   1      44.221  25.336  29.739  1.00  0.00     0.031 C 
ATOM     61  C   UNL A   1      45.055  30.675  31.527  1.00  0.00     0.029 A 
ATOM     62  C   UNL A   1      45.289  29.375  31.078  1.00  0.00     0.049 A 
ATOM     63  H   UNL A   1      45.960  27.844  32.367  1.00  0.00     0.167 HD
ATOM     64  C   UNL A   1      45.115  27.468  29.500  1.00  0.00     0.074 A 
ATOM     65  C   UNL A   1      44.828  26.337  30.382  1.00  0.00     0.031 C 
ATOM     66  C   UNL A   1      45.336  28.789  29.761  1.00  0.00     0.037 A 
BRANCH  53  67
ATOM     67  C   UNL A   1      44.200  27.303  34.833  1.00  0.00     0.064 A 
ATOM     68  C   UNL A   1      44.040  25.963  34.422  1.00  0.00     0.173 A 
ATOM     69  C   UNL A   1      44.536  27.483  36.192  1.00  0.00     0.173 A 
ATOM     70  F   UNL A   1      43.714  25.671  33.153  1.00  0.00    -0.203 F 
ATOM     71  C   UNL A   1      44.110  24.899  35.325  1.00  0.00     0.198 A 
ATOM     72  C   UNL A   1      44.658  26.414  37.078  1.00  0.00     0.198 A 
ATOM     73  F   UNL A   1      44.649  28.694  36.747  1.00  0.00    -0.203 F 
ATOM     74  F   UNL A   1      43.813  23.659  34.914  1.00  0.00    -0.200 F 
ATOM     75  C   UNL A   1      44.409  25.127  36.655  1.00  0.00     0.200 A 
ATOM     76  F   UNL A   1      44.933  26.658  38.368  1.00  0.00    -0.200 F 
ATOM     77  F   UNL A   1      44.408  24.119  37.536  1.00  0.00    -0.200 F 
ENDBRANCH  53  67
BRANCH  54  78
ATOM     78  C   UNL A   1      42.651  24.343  26.976  1.00  0.00     0.064 A 
ATOM     79  C   UNL A   1      43.126  24.184  25.663  1.00  0.00     0.173 A 
ATOM     80  C   UNL A   1      42.329  23.162  27.672  1.00  0.00     0.173 A 
ATOM     81  F   UNL A   1      43.485  25.256  24.942  1.00  0.00    -0.203 F 
ATOM     82  C   UNL A   1      43.323  22.920  25.099  1.00  0.00     0.198 A 
ATOM     83  C   UNL A   1      42.520  21.899  27.105  1.00  0.00     0.198 A 
ATOM     84  F   UNL A   1      41.923  23.205  28.949  1.00  0.00    -0.203 F 
ATOM     85  F   UNL A   1      43.855  22.810  23.874  1.00  0.00    -0.200 F 
ATOM     86  C   UNL A   1      43.036  21.778  25.827  1.00  0.00     0.200 A 
ATOM     87  F   UNL A   1      42.273  20.800  27.832  1.00  0.00    -0.200 F 
ATOM     88  F   UNL A   1      43.297  20.566  25.319  1.00  0.00    -0.200 F 
ENDBRANCH  54  78
BRANCH  66  89
ATOM     89  C   UNL A   1      45.416  29.733  28.593  1.00  0.00     0.064 A 
ATOM     90  C   UNL A   1      44.302  30.355  27.998  1.00  0.00     0.173 A 
ATOM     91  C   UNL A   1      46.683  30.126  28.143  1.00  0.00     0.173 A 
ATOM     92  F   UNL A   1      43.061  30.113  28.434  1.00  0.00    -0.203 F 
ATOM     93  C   UNL A   1      44.453  31.287  26.972  1.00  0.00     0.198 A 
ATOM     94  C   UNL A   1      46.833  31.084  27.146  1.00  0.00     0.198 A 
ATOM     95  F   UNL A   1      47.785  29.608  28.708  1.00  0.00    -0.203 F 
ATOM     96  F   UNL A   1      43.374  31.854  26.412  1.00  0.00    -0.200 F 
ATOM     97  C   UNL A   1      45.720  31.656  26.551  1.00  0.00     0.200 A 
ATOM     98  F   UNL A   1      48.061  31.473  26.776  1.00  0.00    -0.200 F 
ATOM     99  F   UNL A   1      45.869  32.581  25.592  1.00  0.00    -0.200 F 
ENDBRANCH  66  89
ENDBRANCH  40  41
ENDBRANCH  32  35
ENDBRANCH  30  31
ENDBRANCH   1  30
TORSDOF 12
ENDMDL
MODEL 3
REMARK VINA RESULT:     -14.3      2.803      7.294
REMARK SMILES CC(=O)Nc1ccc(/C=C2/CCc3oc(C(=O)NCCCNC(=O)c4ccc(-c5c6nc(c(-c7c(F)c(F)c(F)c(F)c7F)c7ccc([nH]7)c(-c7c(F)c(F)c(F)c(F)c7F)c7nc(c(-c8c(F)c(F)c(F)c(F)c8F)c8ccc5[nH]8)C=C7)C=C6)cc4)c(C)c3C2=O)cc1
REMARK SMILES IDX 20 1 19 2 18 3 16 4 17 5 15 7 9 8 10 9 11 10 91 11 12 12
REMARK SMILES IDX 90 13 92 14 13 15 88 16 14 17 89 18 8 19 5 20 6 21 94 22
REMARK SMILES IDX 7 23 93 24 4 25 1 26 2 27 3 28 21 30 22 31 23 32 24 34 25 35
REMARK SMILES IDX 26 36 87 37 27 38 86 39 28 40 29 41 30 42 80 43 31 44 85 45
REMARK SMILES IDX 79 46 81 47 32 48 84 49 78 50 77 51 33 53 65 54 45 55 64 56
REMARK SMILES IDX 46 57 49 58 63 59 82 60 47 61 48 62 62 64 83 65 50 66 34 67
REMARK SMILES IDX 35 68 43 69 36 70 37 71 41 72 44 73 38 74 39 75 42 76 40 77
REMARK SMILES IDX 66 78 67 79 75 80 68 81 69 82 73 83 76 84 70 85 71 86 74 87
REMARK SMILES IDX 72 88 51 89 52 90 60 91 53 92 54 93 58 94 61 95 55 96 56 97
REMARK SMILES IDX 59 98 57 99
REMARK H PARENT 18 6 4 29 22 33 81 52 49 63
REMARK Flexibility Score: inf
ROOT
ATOM      1  C   UNL A   1      38.133  19.604  25.047  1.00  0.00     0.042 C 
ENDROOT
BRANCH   1   2
ATOM      2  C   UNL A   1      37.108  20.741  24.977  1.00  0.00     0.118 C 
BRANCH   2   3
ATOM      3  N   UNL A   1      37.693  22.048  25.253  1.00  0.00    -0.349 N 
ATOM      4  C   UNL A   1      37.109  23.267  25.534  1.00  0.00     0.287 C 
ATOM      5  O   UNL A   1      37.887  24.185  25.806  1.00  0.00    -0.266 OA
ATOM      6  H   UNL A   1      38.677  22.064  25.235  1.00  0.00     0.163 HD
BRANCH   4   7
ATOM      7  C   UNL A   1      35.664  23.433  25.514  1.00  0.00     0.195 A 
ATOM      8  C   UNL A   1      30.223  25.289  25.682  1.00  0.00     0.016 C 
ATOM      9  C   UNL A   1      31.146  24.309  25.667  1.00  0.00     0.001 C 
ATOM     10  C   UNL A   1      31.269  23.312  26.811  1.00  0.00     0.048 C 
ATOM     11  C   UNL A   1      32.165  24.149  24.562  1.00  0.00     0.192 C 
ATOM     12  C   UNL A   1      32.656  23.383  27.470  1.00  0.00     0.081 C 
ATOM     13  C   UNL A   1      33.480  23.825  25.082  1.00  0.00     0.067 A 
ATOM     14  O   UNL A   1      31.913  24.280  23.370  1.00  0.00    -0.289 OA
ATOM     15  C   UNL A   1      33.663  23.464  26.392  1.00  0.00     0.116 A 
ATOM     16  C   UNL A   1      34.784  23.819  24.495  1.00  0.00     0.012 A 
ATOM     17  O   UNL A   1      34.948  23.188  26.657  1.00  0.00    -0.455 OA
ATOM     18  C   UNL A   1      35.097  24.205  23.092  1.00  0.00     0.049 C 
BRANCH   8  19
ATOM     19  C   UNL A   1      30.050  26.416  24.751  1.00  0.00    -0.025 A 
ATOM     20  C   UNL A   1      29.540  28.635  23.086  1.00  0.00     0.041 A 
ATOM     21  C   UNL A   1      30.727  28.556  23.813  1.00  0.00     0.027 A 
ATOM     22  C   UNL A   1      28.625  27.587  23.164  1.00  0.00     0.027 A 
ATOM     23  C   UNL A   1      30.956  27.479  24.673  1.00  0.00     0.010 A 
ATOM     24  C   UNL A   1      28.880  26.483  23.987  1.00  0.00     0.010 A 
BRANCH  20  25
ATOM     25  N   UNL A   1      29.360  29.763  22.276  1.00  0.00    -0.326 N 
ATOM     26  C   UNL A   1      27.712  30.990  23.669  1.00  0.00     0.114 C 
ATOM     27  C   UNL A   1      28.469  30.793  22.382  1.00  0.00     0.221 C 
ATOM     28  O   UNL A   1      28.362  31.598  21.454  1.00  0.00    -0.275 OA
ATOM     29  H   UNL A   1      29.974  29.824  21.508  1.00  0.00     0.169 HD
ENDBRANCH  20  25
ENDBRANCH   8  19
ENDBRANCH   4   7
ENDBRANCH   2   3
ENDBRANCH   1   2
BRANCH   1  30
ATOM     30  C   UNL A   1      39.292  19.953  25.971  1.00  0.00     0.118 C 
BRANCH  30  31
ATOM     31  N   UNL A   1      40.501  19.160  25.707  1.00  0.00    -0.352 N 
ATOM     32  C   UNL A   1      41.824  19.566  25.717  1.00  0.00     0.251 C 
ATOM     33  H   UNL A   1      40.350  18.211  25.494  1.00  0.00     0.163 HD
ATOM     34  O   UNL A   1      42.695  18.891  25.181  1.00  0.00    -0.269 OA
BRANCH  32  35
ATOM     35  C   UNL A   1      42.171  20.834  26.380  1.00  0.00     0.039 A 
ATOM     36  C   UNL A   1      42.414  22.006  25.659  1.00  0.00     0.014 A 
ATOM     37  C   UNL A   1      42.196  20.845  27.769  1.00  0.00     0.014 A 
ATOM     38  C   UNL A   1      42.584  23.198  26.361  1.00  0.00     0.010 A 
ATOM     39  C   UNL A   1      42.140  22.034  28.439  1.00  0.00     0.010 A 
ATOM     40  C   UNL A   1      42.413  23.208  27.757  1.00  0.00    -0.014 A 
BRANCH  40  41
ATOM     41  C   UNL A   1      42.430  24.452  28.517  1.00  0.00     0.031 A 
ATOM     42  C   UNL A   1      41.238  25.317  28.311  1.00  0.00     0.074 A 
ATOM     43  C   UNL A   1      43.341  24.730  29.476  1.00  0.00     0.049 A 
ATOM     44  N   UNL A   1      41.201  26.472  27.733  1.00  0.00    -0.248 NA
ATOM     45  C   UNL A   1      39.913  24.787  28.667  1.00  0.00     0.031 C 
ATOM     46  C   UNL A   1      44.399  23.876  30.031  1.00  0.00     0.029 A 
ATOM     47  N   UNL A   1      43.451  25.853  30.234  1.00  0.00    -0.354 N 
ATOM     48  C   UNL A   1      39.881  26.904  27.810  1.00  0.00     0.074 A 
ATOM     49  C   UNL A   1      39.111  25.768  28.246  1.00  0.00     0.031 C 
ATOM     50  C   UNL A   1      44.875  24.418  31.174  1.00  0.00     0.029 A 
ATOM     51  C   UNL A   1      44.298  25.739  31.330  1.00  0.00     0.049 A 
ATOM     52  H   UNL A   1      42.967  26.685  30.023  1.00  0.00     0.167 HD
ATOM     53  C   UNL A   1      39.579  28.229  27.725  1.00  0.00     0.037 A 
ATOM     54  C   UNL A   1      44.499  26.670  32.296  1.00  0.00     0.037 A 
ATOM     55  C   UNL A   1      40.677  28.973  27.154  1.00  0.00     0.049 A 
ATOM     56  C   UNL A   1      44.064  27.973  31.734  1.00  0.00     0.074 A 
ATOM     57  C   UNL A   1      41.356  28.921  25.951  1.00  0.00     0.029 A 
ATOM     58  N   UNL A   1      41.495  29.678  28.002  1.00  0.00    -0.354 N 
ATOM     59  N   UNL A   1      44.686  28.587  30.768  1.00  0.00    -0.248 NA
ATOM     60  C   UNL A   1      42.674  28.355  31.932  1.00  0.00     0.031 C 
ATOM     61  C   UNL A   1      42.727  29.127  26.293  1.00  0.00     0.029 A 
ATOM     62  C   UNL A   1      42.789  29.370  27.665  1.00  0.00     0.049 A 
ATOM     63  H   UNL A   1      41.208  30.289  28.718  1.00  0.00     0.167 HD
ATOM     64  C   UNL A   1      43.673  29.092  29.967  1.00  0.00     0.074 A 
ATOM     65  C   UNL A   1      42.459  28.987  30.775  1.00  0.00     0.031 C 
ATOM     66  C   UNL A   1      43.860  29.274  28.628  1.00  0.00     0.037 A 
BRANCH  53  67
ATOM     67  C   UNL A   1      38.469  28.906  28.494  1.00  0.00     0.064 A 
ATOM     68  C   UNL A   1      37.652  29.845  27.829  1.00  0.00     0.173 A 
ATOM     69  C   UNL A   1      38.372  28.910  29.902  1.00  0.00     0.173 A 
ATOM     70  F   UNL A   1      37.667  29.937  26.490  1.00  0.00    -0.203 F 
ATOM     71  C   UNL A   1      36.882  30.780  28.525  1.00  0.00     0.198 A 
ATOM     72  C   UNL A   1      37.560  29.809  30.591  1.00  0.00     0.198 A 
ATOM     73  F   UNL A   1      39.135  28.129  30.674  1.00  0.00    -0.203 F 
ATOM     74  F   UNL A   1      36.235  31.741  27.853  1.00  0.00    -0.200 F 
ATOM     75  C   UNL A   1      36.845  30.767  29.907  1.00  0.00     0.200 A 
ATOM     76  F   UNL A   1      37.550  29.790  31.932  1.00  0.00    -0.200 F 
ATOM     77  F   UNL A   1      36.164  31.704  30.579  1.00  0.00    -0.200 F 
ENDBRANCH  53  67
BRANCH  54  78
ATOM     78  C   UNL A   1      44.751  26.489  33.745  1.00  0.00     0.064 A 
ATOM     79  C   UNL A   1      43.732  26.025  34.595  1.00  0.00     0.173 A 
ATOM     80  C   UNL A   1      46.061  26.455  34.261  1.00  0.00     0.173 A 
ATOM     81  F   UNL A   1      42.461  25.994  34.169  1.00  0.00    -0.203 F 
ATOM     82  C   UNL A   1      44.011  25.505  35.863  1.00  0.00     0.198 A 
ATOM     83  C   UNL A   1      46.337  25.941  35.531  1.00  0.00     0.198 A 
ATOM     84  F   UNL A   1      47.106  26.822  33.507  1.00  0.00    -0.203 F 
ATOM     85  F   UNL A   1      43.021  24.997  36.609  1.00  0.00    -0.200 F 
ATOM     86  C   UNL A   1      45.316  25.448  36.322  1.00  0.00     0.200 A 
ATOM     87  F   UNL A   1      47.607  25.858  35.951  1.00  0.00    -0.200 F 
ATOM     88  F   UNL A   1      45.594  24.879  37.503  1.00  0.00    -0.200 F 
ENDBRANCH  54  78
BRANCH  66  89
ATOM     89  C   UNL A   1      45.258  29.146  28.088  1.00  0.00     0.064 A 
ATOM     90  C   UNL A   1      45.829  27.939  27.643  1.00  0.00     0.173 A 
ATOM     91  C   UNL A   1      46.002  30.316  27.890  1.00  0.00     0.173 A 
ATOM     92  F   UNL A   1      45.148  26.789  27.703  1.00  0.00    -0.203 F 
ATOM     93  C   UNL A   1      47.102  27.904  27.073  1.00  0.00     0.198 A 
ATOM     94  C   UNL A   1      47.255  30.284  27.287  1.00  0.00     0.198 A 
ATOM     95  F   UNL A   1      45.489  31.504  28.244  1.00  0.00    -0.203 F 
ATOM     96  F   UNL A   1      47.628  26.738  26.672  1.00  0.00    -0.200 F 
ATOM     97  C   UNL A   1      47.811  29.079  26.890  1.00  0.00     0.200 A 
ATOM     98  F   UNL A   1      47.916  31.429  27.067  1.00  0.00    -0.200 F 
ATOM     99  F   UNL A   1      49.018  29.053  26.307  1.00  0.00    -0.200 F 
ENDBRANCH  66  89
ENDBRANCH  40  41
ENDBRANCH  32  35
ENDBRANCH  30  31
ENDBRANCH   1  30
TORSDOF 12
ENDMDL
