MODEL 1
REMARK VINA RESULT:     -11.1      0.000      0.000
REMARK SMILES CC[C@H]1CC[C@](O)([C@H](F)C(=O)NCCCNC(=O)c2ccc(-c3c4nc(c(-c5c(F)c(F)c(F)c(F)c5F)c5ccc([nH]5)c(-c5c(F)c(F)c(F)c(F)c5F)c5nc(c(-c6c(F)c(F)c(F)c(F)c6F)c6ccc3[nH]6)C=C5)C=C4)cc2)CC1
REMARK SMILES IDX 14 1 13 2 12 3 10 4 11 5 8 7 9 8 6 9 3 10 4 11 83 12 5 13
REMARK SMILES IDX 82 14 2 15 1 16 7 17 15 19 16 20 17 21 18 23 19 24 20 25
REMARK SMILES IDX 81 26 21 27 80 28 22 29 23 30 24 31 74 32 25 33 79 34 73 35
REMARK SMILES IDX 75 36 26 37 78 38 72 39 71 40 27 42 59 43 39 44 58 45 40 46
REMARK SMILES IDX 43 47 57 48 76 49 41 50 42 51 56 53 77 54 44 55 28 56 29 57
REMARK SMILES IDX 37 58 30 59 31 60 35 61 38 62 32 63 33 64 36 65 34 66 60 67
REMARK SMILES IDX 61 68 69 69 62 70 63 71 67 72 70 73 64 74 65 75 68 76 66 77
REMARK SMILES IDX 45 78 46 79 54 80 47 81 48 82 52 83 55 84 49 85 50 86 53 87
REMARK SMILES IDX 51 88
REMARK H PARENT 12 6 7 18 16 22 75 41 43 52
REMARK Flexibility Score: inf
ROOT
ATOM      1  C   UNL A   1      40.953  20.048  26.234  1.00  0.00     0.042 C 
ENDROOT
BRANCH   1   2
ATOM      2  C   UNL A   1      42.435  19.844  26.456  1.00  0.00     0.117 C 
BRANCH   2   3
ATOM      3  N   UNL A   1      43.085  19.198  25.327  1.00  0.00    -0.353 N 
ATOM      4  C   UNL A   1      44.275  19.556  24.754  1.00  0.00     0.257 C 
ATOM      5  O   UNL A   1      44.766  18.828  23.889  1.00  0.00    -0.272 OA
ATOM      6  H   UNL A   1      42.621  18.423  24.934  1.00  0.00     0.163 HD
BRANCH   4   7
ATOM      7  C   UNL A   1      44.956  20.839  25.210  1.00  0.00     0.286 C 
ATOM      8  F   UNL A   1      46.306  20.640  25.376  1.00  0.00    -0.234 F 
BRANCH   7   9
ATOM      9  C   UNL A   1      44.713  22.043  24.243  1.00  0.00     0.105 C 
ATOM     10  C   UNL A   1      44.863  24.402  26.094  1.00  0.00    -0.011 C 
ATOM     11  C   UNL A   1      46.124  23.671  25.596  1.00  0.00     0.006 C 
ATOM     12  C   UNL A   1      43.595  23.532  25.976  1.00  0.00     0.006 C 
ATOM     13  C   UNL A   1      45.927  22.987  24.247  1.00  0.00     0.039 C 
ATOM     14  C   UNL A   1      43.455  22.836  24.627  1.00  0.00     0.039 C 
BRANCH  10  15
ATOM     15  C   UNL A   1      44.750  25.781  25.413  1.00  0.00    -0.000 C 
ATOM     16  C   UNL A   1      45.897  26.729  25.731  1.00  0.00     0.004 C 
ENDBRANCH  10  15
BRANCH   9  17
ATOM     17  O   UNL A   1      44.528  21.616  22.882  1.00  0.00    -0.386 OA
ATOM     18  H   UNL A   1      43.656  21.901  22.569  1.00  0.00     0.211 HD
ENDBRANCH   9  17
ENDBRANCH   7   9
ENDBRANCH   4   7
ENDBRANCH   2   3
ENDBRANCH   1   2
BRANCH   1  19
ATOM     19  C   UNL A   1      40.481  21.426  26.654  1.00  0.00     0.118 C 
BRANCH  19  20
ATOM     20  N   UNL A   1      39.202  21.789  26.050  1.00  0.00    -0.352 N 
ATOM     21  C   UNL A   1      38.487  22.959  26.126  1.00  0.00     0.251 C 
ATOM     22  H   UNL A   1      38.788  21.086  25.500  1.00  0.00     0.163 HD
ATOM     23  O   UNL A   1      37.336  23.009  25.720  1.00  0.00    -0.269 OA
BRANCH  21  24
ATOM     24  C   UNL A   1      39.116  24.152  26.728  1.00  0.00     0.039 A 
ATOM     25  C   UNL A   1      39.900  24.985  25.928  1.00  0.00     0.014 A 
ATOM     26  C   UNL A   1      38.903  24.458  28.073  1.00  0.00     0.014 A 
ATOM     27  C   UNL A   1      40.405  26.169  26.463  1.00  0.00     0.010 A 
ATOM     28  C   UNL A   1      39.301  25.691  28.567  1.00  0.00     0.010 A 
ATOM     29  C   UNL A   1      40.069  26.553  27.772  1.00  0.00    -0.014 A 
BRANCH  29  30
ATOM     30  C   UNL A   1      40.522  27.846  28.343  1.00  0.00     0.031 A 
ATOM     31  C   UNL A   1      41.970  28.038  28.696  1.00  0.00     0.074 A 
ATOM     32  C   UNL A   1      39.620  28.810  28.610  1.00  0.00     0.049 A 
ATOM     33  N   UNL A   1      42.552  29.054  29.280  1.00  0.00    -0.248 NA
ATOM     34  C   UNL A   1      42.882  26.924  28.386  1.00  0.00     0.031 C 
ATOM     35  C   UNL A   1      38.180  28.714  28.364  1.00  0.00     0.029 A 
ATOM     36  N   UNL A   1      39.781  30.057  29.157  1.00  0.00    -0.354 N 
ATOM     37  C   UNL A   1      43.886  28.694  29.420  1.00  0.00     0.074 A 
ATOM     38  C   UNL A   1      44.017  27.342  28.925  1.00  0.00     0.031 C 
ATOM     39  C   UNL A   1      37.594  29.866  28.730  1.00  0.00     0.029 A 
ATOM     40  C   UNL A   1      38.607  30.761  29.279  1.00  0.00     0.049 A 
ATOM     41  H   UNL A   1      40.655  30.414  29.436  1.00  0.00     0.167 HD
ATOM     42  C   UNL A   1      44.915  29.437  29.891  1.00  0.00     0.037 A 
ATOM     43  C   UNL A   1      38.377  31.986  29.785  1.00  0.00     0.037 A 
ATOM     44  C   UNL A   1      44.781  30.792  30.354  1.00  0.00     0.049 A 
ATOM     45  C   UNL A   1      39.538  32.787  30.310  1.00  0.00     0.074 A 
ATOM     46  C   UNL A   1      45.770  31.654  30.792  1.00  0.00     0.029 A 
ATOM     47  N   UNL A   1      43.579  31.479  30.445  1.00  0.00    -0.354 N 
ATOM     48  N   UNL A   1      40.808  32.467  30.366  1.00  0.00    -0.248 NA
ATOM     49  C   UNL A   1      39.234  34.126  30.837  1.00  0.00     0.031 C 
ATOM     50  C   UNL A   1      45.159  32.845  31.200  1.00  0.00     0.029 A 
ATOM     51  C   UNL A   1      43.798  32.747  30.956  1.00  0.00     0.049 A 
ATOM     52  H   UNL A   1      42.701  31.119  30.183  1.00  0.00     0.167 HD
ATOM     53  C   UNL A   1      41.458  33.572  30.902  1.00  0.00     0.074 A 
ATOM     54  C   UNL A   1      40.442  34.576  31.139  1.00  0.00     0.031 C 
ATOM     55  C   UNL A   1      42.775  33.738  31.175  1.00  0.00     0.037 A 
BRANCH  42  56
ATOM     56  C   UNL A   1      46.276  28.801  29.920  1.00  0.00     0.064 A 
ATOM     57  C   UNL A   1      46.757  28.140  31.061  1.00  0.00     0.173 A 
ATOM     58  C   UNL A   1      47.095  28.822  28.782  1.00  0.00     0.173 A 
ATOM     59  F   UNL A   1      46.019  28.101  32.182  1.00  0.00    -0.203 F 
ATOM     60  C   UNL A   1      48.018  27.551  31.072  1.00  0.00     0.198 A 
ATOM     61  C   UNL A   1      48.342  28.202  28.785  1.00  0.00     0.198 A 
ATOM     62  F   UNL A   1      46.685  29.436  27.663  1.00  0.00    -0.203 F 
ATOM     63  F   UNL A   1      48.478  26.974  32.191  1.00  0.00    -0.200 F 
ATOM     64  C   UNL A   1      48.806  27.575  29.931  1.00  0.00     0.200 A 
ATOM     65  F   UNL A   1      49.096  28.213  27.677  1.00  0.00    -0.200 F 
ATOM     66  F   UNL A   1      50.017  26.999  29.939  1.00  0.00    -0.200 F 
ENDBRANCH  42  56
BRANCH  43  67
ATOM     67  C   UNL A   1      36.997  32.540  29.803  1.00  0.00     0.064 A 
ATOM     68  C   UNL A   1      36.494  33.256  28.707  1.00  0.00     0.173 A 
ATOM     69  C   UNL A   1      36.158  32.380  30.915  1.00  0.00     0.173 A 
ATOM     70  F   UNL A   1      37.264  33.453  27.626  1.00  0.00    -0.203 F 
ATOM     71  C   UNL A   1      35.217  33.813  28.733  1.00  0.00     0.198 A 
ATOM     72  C   UNL A   1      34.868  32.909  30.928  1.00  0.00     0.198 A 
ATOM     73  F   UNL A   1      36.587  31.698  31.988  1.00  0.00    -0.203 F 
ATOM     74  F   UNL A   1      34.784  34.539  27.694  1.00  0.00    -0.200 F 
ATOM     75  C   UNL A   1      34.403  33.635  29.842  1.00  0.00     0.200 A 
ATOM     76  F   UNL A   1      34.079  32.719  31.994  1.00  0.00    -0.200 F 
ATOM     77  F   UNL A   1      33.175  34.169  29.867  1.00  0.00    -0.200 F 
ENDBRANCH  43  67
BRANCH  55  78
ATOM     78  C   UNL A   1      43.203  35.071  31.718  1.00  0.00     0.064 A 
ATOM     79  C   UNL A   1      43.642  36.105  30.878  1.00  0.00     0.173 A 
ATOM     80  C   UNL A   1      43.131  35.330  33.095  1.00  0.00     0.173 A 
ATOM     81  F   UNL A   1      43.742  35.905  29.555  1.00  0.00    -0.203 F 
ATOM     82  C   UNL A   1      44.020  37.339  31.401  1.00  0.00     0.198 A 
ATOM     83  C   UNL A   1      43.476  36.576  33.610  1.00  0.00     0.198 A 
ATOM     84  F   UNL A   1      42.710  34.378  33.942  1.00  0.00    -0.203 F 
ATOM     85  F   UNL A   1      44.486  38.294  30.585  1.00  0.00    -0.200 F 
ATOM     86  C   UNL A   1      43.928  37.576  32.764  1.00  0.00     0.200 A 
ATOM     87  F   UNL A   1      43.369  36.808  34.926  1.00  0.00    -0.200 F 
ATOM     88  F   UNL A   1      44.283  38.768  33.263  1.00  0.00    -0.200 F 
ENDBRANCH  55  78
ENDBRANCH  29  30
ENDBRANCH  21  24
ENDBRANCH  19  20
ENDBRANCH   1  19
TORSDOF 13
ENDMDL
MODEL 2
REMARK VINA RESULT:     -11.0      0.598      1.758
REMARK SMILES CC[C@H]1CC[C@](O)([C@H](F)C(=O)NCCCNC(=O)c2ccc(-c3c4nc(c(-c5c(F)c(F)c(F)c(F)c5F)c5ccc([nH]5)c(-c5c(F)c(F)c(F)c(F)c5F)c5nc(c(-c6c(F)c(F)c(F)c(F)c6F)c6ccc3[nH]6)C=C5)C=C4)cc2)CC1
REMARK SMILES IDX 14 1 13 2 12 3 10 4 11 5 8 7 9 8 6 9 3 10 4 11 83 12 5 13
REMARK SMILES IDX 82 14 2 15 1 16 7 17 15 19 16 20 17 21 18 23 19 24 20 25
REMARK SMILES IDX 81 26 21 27 80 28 22 29 23 30 24 31 74 32 25 33 79 34 73 35
REMARK SMILES IDX 75 36 26 37 78 38 72 39 71 40 27 42 59 43 39 44 58 45 40 46
REMARK SMILES IDX 43 47 57 48 76 49 41 50 42 51 56 53 77 54 44 55 28 56 29 57
REMARK SMILES IDX 37 58 30 59 31 60 35 61 38 62 32 63 33 64 36 65 34 66 60 67
REMARK SMILES IDX 61 68 69 69 62 70 63 71 67 72 70 73 64 74 65 75 68 76 66 77
REMARK SMILES IDX 45 78 46 79 54 80 47 81 48 82 52 83 55 84 49 85 50 86 53 87
REMARK SMILES IDX 51 88
REMARK H PARENT 12 6 7 18 16 22 75 41 43 52
REMARK Flexibility Score: inf
ROOT
ATOM      1  C   UNL A   1      40.860  20.088  26.253  1.00  0.00     0.042 C 
ENDROOT
BRANCH   1   2
ATOM      2  C   UNL A   1      42.345  19.885  26.456  1.00  0.00     0.117 C 
BRANCH   2   3
ATOM      3  N   UNL A   1      42.986  19.258  25.311  1.00  0.00    -0.353 N 
ATOM      4  C   UNL A   1      44.180  19.613  24.747  1.00  0.00     0.257 C 
ATOM      5  O   UNL A   1      44.660  18.899  23.863  1.00  0.00    -0.272 OA
ATOM      6  H   UNL A   1      42.510  18.500  24.900  1.00  0.00     0.163 HD
BRANCH   4   7
ATOM      7  C   UNL A   1      44.880  20.875  25.232  1.00  0.00     0.286 C 
ATOM      8  F   UNL A   1      46.225  20.649  25.404  1.00  0.00    -0.234 F 
BRANCH   7   9
ATOM      9  C   UNL A   1      44.665  22.102  24.289  1.00  0.00     0.105 C 
ATOM     10  C   UNL A   1      44.737  24.414  26.202  1.00  0.00    -0.011 C 
ATOM     11  C   UNL A   1      46.019  23.701  25.731  1.00  0.00     0.006 C 
ATOM     12  C   UNL A   1      43.478  23.542  26.017  1.00  0.00     0.006 C 
ATOM     13  C   UNL A   1      45.873  23.050  24.359  1.00  0.00     0.039 C 
ATOM     14  C   UNL A   1      43.390  22.879  24.647  1.00  0.00     0.039 C 
BRANCH  10  15
ATOM     15  C   UNL A   1      44.641  25.809  25.552  1.00  0.00    -0.000 C 
ATOM     16  C   UNL A   1      45.727  26.779  25.995  1.00  0.00     0.004 C 
ENDBRANCH  10  15
BRANCH   9  17
ATOM     17  O   UNL A   1      44.530  21.709  22.912  1.00  0.00    -0.386 OA
ATOM     18  H   UNL A   1      45.082  20.929  22.741  1.00  0.00     0.211 HD
ENDBRANCH   9  17
ENDBRANCH   7   9
ENDBRANCH   4   7
ENDBRANCH   2   3
ENDBRANCH   1   2
BRANCH   1  19
ATOM     19  C   UNL A   1      40.392  21.466  26.679  1.00  0.00     0.118 C 
BRANCH  19  20
ATOM     20  N   UNL A   1      39.234  21.924  25.917  1.00  0.00    -0.352 N 
ATOM     21  C   UNL A   1      38.591  23.138  25.927  1.00  0.00     0.251 C 
ATOM     22  H   UNL A   1      38.855  21.260  25.298  1.00  0.00     0.163 HD
ATOM     23  O   UNL A   1      37.512  23.273  25.371  1.00  0.00    -0.269 OA
BRANCH  21  24
ATOM     24  C   UNL A   1      39.207  24.275  26.640  1.00  0.00     0.039 A 
ATOM     25  C   UNL A   1      40.004  25.173  25.929  1.00  0.00     0.014 A 
ATOM     26  C   UNL A   1      38.969  24.465  28.002  1.00  0.00     0.014 A 
ATOM     27  C   UNL A   1      40.497  26.308  26.572  1.00  0.00     0.010 A 
ATOM     28  C   UNL A   1      39.357  25.651  28.607  1.00  0.00     0.010 A 
ATOM     29  C   UNL A   1      40.137  26.578  27.903  1.00  0.00    -0.014 A 
BRANCH  29  30
ATOM     30  C   UNL A   1      40.577  27.817  28.590  1.00  0.00     0.031 A 
ATOM     31  C   UNL A   1      42.002  27.947  29.052  1.00  0.00     0.074 A 
ATOM     32  C   UNL A   1      39.680  28.784  28.863  1.00  0.00     0.049 A 
ATOM     33  N   UNL A   1      42.565  28.907  29.743  1.00  0.00    -0.248 NA
ATOM     34  C   UNL A   1      42.909  26.833  28.728  1.00  0.00     0.031 C 
ATOM     35  C   UNL A   1      38.259  28.743  28.515  1.00  0.00     0.029 A 
ATOM     36  N   UNL A   1      39.830  29.987  29.504  1.00  0.00    -0.354 N 
ATOM     37  C   UNL A   1      43.878  28.504  29.946  1.00  0.00     0.074 A 
ATOM     38  C   UNL A   1      44.013  27.185  29.369  1.00  0.00     0.031 C 
ATOM     39  C   UNL A   1      37.673  29.882  28.919  1.00  0.00     0.029 A 
ATOM     40  C   UNL A   1      38.666  30.712  29.595  1.00  0.00     0.049 A 
ATOM     41  H   UNL A   1      40.690  30.302  29.865  1.00  0.00     0.167 HD
ATOM     42  C   UNL A   1      44.887  29.186  30.534  1.00  0.00     0.037 A 
ATOM     43  C   UNL A   1      38.428  31.906  30.168  1.00  0.00     0.037 A 
ATOM     44  C   UNL A   1      44.751  30.509  31.080  1.00  0.00     0.049 A 
ATOM     45  C   UNL A   1      39.567  32.639  30.824  1.00  0.00     0.074 A 
ATOM     46  C   UNL A   1      45.726  31.315  31.642  1.00  0.00     0.029 A 
ATOM     47  N   UNL A   1      43.560  31.220  31.137  1.00  0.00    -0.354 N 
ATOM     48  N   UNL A   1      40.824  32.283  30.942  1.00  0.00    -0.248 NA
ATOM     49  C   UNL A   1      39.257  33.946  31.420  1.00  0.00     0.031 C 
ATOM     50  C   UNL A   1      45.115  32.491  32.089  1.00  0.00     0.029 A 
ATOM     51  C   UNL A   1      43.772  32.445  31.748  1.00  0.00     0.049 A 
ATOM     52  H   UNL A   1      42.695  30.901  30.793  1.00  0.00     0.167 HD
ATOM     53  C   UNL A   1      41.459  33.332  31.595  1.00  0.00     0.074 A 
ATOM     54  C   UNL A   1      40.451  34.344  31.832  1.00  0.00     0.031 C 
ATOM     55  C   UNL A   1      42.757  33.445  31.966  1.00  0.00     0.037 A 
BRANCH  42  56
ATOM     56  C   UNL A   1      46.229  28.514  30.611  1.00  0.00     0.064 A 
ATOM     57  C   UNL A   1      47.178  28.641  29.584  1.00  0.00     0.173 A 
ATOM     58  C   UNL A   1      46.585  27.764  31.741  1.00  0.00     0.173 A 
ATOM     59  F   UNL A   1      46.884  29.337  28.474  1.00  0.00    -0.203 F 
ATOM     60  C   UNL A   1      48.419  28.017  29.672  1.00  0.00     0.198 A 
ATOM     61  C   UNL A   1      47.840  27.169  31.841  1.00  0.00     0.198 A 
ATOM     62  F   UNL A   1      45.719  27.612  32.754  1.00  0.00    -0.203 F 
ATOM     63  F   UNL A   1      49.287  28.107  28.655  1.00  0.00    -0.200 F 
ATOM     64  C   UNL A   1      48.753  27.289  30.805  1.00  0.00     0.200 A 
ATOM     65  F   UNL A   1      48.166  26.480  32.943  1.00  0.00    -0.200 F 
ATOM     66  F   UNL A   1      49.952  26.697  30.893  1.00  0.00    -0.200 F 
ENDBRANCH  42  56
BRANCH  43  67
ATOM     67  C   UNL A   1      37.062  32.493  30.132  1.00  0.00     0.064 A 
ATOM     68  C   UNL A   1      36.637  33.261  29.038  1.00  0.00     0.173 A 
ATOM     69  C   UNL A   1      36.159  32.312  31.189  1.00  0.00     0.173 A 
ATOM     70  F   UNL A   1      37.471  33.479  28.010  1.00  0.00    -0.203 F 
ATOM     71  C   UNL A   1      35.374  33.849  29.016  1.00  0.00     0.198 A 
ATOM     72  C   UNL A   1      34.884  32.872  31.152  1.00  0.00     0.198 A 
ATOM     73  F   UNL A   1      36.512  31.580  32.257  1.00  0.00    -0.203 F 
ATOM     74  F   UNL A   1      35.016  34.624  27.983  1.00  0.00    -0.200 F 
ATOM     75  C   UNL A   1      34.496  33.650  30.071  1.00  0.00     0.200 A 
ATOM     76  F   UNL A   1      34.032  32.663  32.165  1.00  0.00    -0.200 F 
ATOM     77  F   UNL A   1      33.281  34.214  30.050  1.00  0.00    -0.200 F 
ENDBRANCH  43  67
BRANCH  55  78
ATOM     78  C   UNL A   1      43.176  34.727  32.627  1.00  0.00     0.064 A 
ATOM     79  C   UNL A   1      43.244  34.851  34.022  1.00  0.00     0.173 A 
ATOM     80  C   UNL A   1      43.555  35.833  31.850  1.00  0.00     0.173 A 
ATOM     81  F   UNL A   1      42.878  33.829  34.810  1.00  0.00    -0.203 F 
ATOM     82  C   UNL A   1      43.649  36.044  34.615  1.00  0.00     0.198 A 
ATOM     83  C   UNL A   1      43.994  37.012  32.446  1.00  0.00     0.198 A 
ATOM     84  F   UNL A   1      43.517  35.764  30.510  1.00  0.00    -0.203 F 
ATOM     85  F   UNL A   1      43.655  36.157  35.950  1.00  0.00    -0.200 F 
ATOM     86  C   UNL A   1      44.032  37.119  33.826  1.00  0.00     0.200 A 
ATOM     87  F   UNL A   1      44.381  38.043  31.681  1.00  0.00    -0.200 F 
ATOM     88  F   UNL A   1      44.431  38.263  34.400  1.00  0.00    -0.200 F 
ENDBRANCH  55  78
ENDBRANCH  29  30
ENDBRANCH  21  24
ENDBRANCH  19  20
ENDBRANCH   1  19
TORSDOF 13
ENDMDL
MODEL 3
REMARK VINA RESULT:     -11.0      3.636     11.426
REMARK SMILES CC[C@H]1CC[C@](O)([C@H](F)C(=O)NCCCNC(=O)c2ccc(-c3c4nc(c(-c5c(F)c(F)c(F)c(F)c5F)c5ccc([nH]5)c(-c5c(F)c(F)c(F)c(F)c5F)c5nc(c(-c6c(F)c(F)c(F)c(F)c6F)c6ccc3[nH]6)C=C5)C=C4)cc2)CC1
REMARK SMILES IDX 14 1 13 2 12 3 10 4 11 5 8 7 9 8 6 9 3 10 4 11 83 12 5 13
REMARK SMILES IDX 82 14 2 15 1 16 7 17 15 19 16 20 17 21 18 23 19 24 20 25
REMARK SMILES IDX 81 26 21 27 80 28 22 29 23 30 24 31 74 32 25 33 79 34 73 35
REMARK SMILES IDX 75 36 26 37 78 38 72 39 71 40 27 42 59 43 39 44 58 45 40 46
REMARK SMILES IDX 43 47 57 48 76 49 41 50 42 51 56 53 77 54 44 55 28 56 29 57
REMARK SMILES IDX 37 58 30 59 31 60 35 61 38 62 32 63 33 64 36 65 34 66 60 67
REMARK SMILES IDX 61 68 69 69 62 70 63 71 67 72 70 73 64 74 65 75 68 76 66 77
REMARK SMILES IDX 45 78 46 79 54 80 47 81 48 82 52 83 55 84 49 85 50 86 53 87
REMARK SMILES IDX 51 88
REMARK H PARENT 12 6 7 18 16 22 75 41 43 52
REMARK Flexibility Score: inf
ROOT
ATOM      1  C   UNL A   1      33.477  33.820  28.225  1.00  0.00     0.042 C 
ENDROOT
BRANCH   1   2
ATOM      2  C   UNL A   1      33.970  34.965  29.082  1.00  0.00     0.117 C 
BRANCH   2   3
ATOM      3  N   UNL A   1      32.940  35.483  29.968  1.00  0.00    -0.353 N 
ATOM      4  C   UNL A   1      33.065  35.737  31.306  1.00  0.00     0.257 C 
ATOM      5  O   UNL A   1      32.143  36.305  31.896  1.00  0.00    -0.272 OA
ATOM      6  H   UNL A   1      32.063  35.671  29.562  1.00  0.00     0.163 HD
BRANCH   4   7
ATOM      7  C   UNL A   1      34.341  35.315  32.021  1.00  0.00     0.286 C 
ATOM      8  F   UNL A   1      34.756  36.293  32.893  1.00  0.00    -0.234 F 
BRANCH   7   9
ATOM      9  C   UNL A   1      34.203  33.955  32.778  1.00  0.00     0.105 C 
ATOM     10  C   UNL A   1      37.003  32.876  32.689  1.00  0.00    -0.011 C 
ATOM     11  C   UNL A   1      36.583  33.985  33.674  1.00  0.00     0.006 C 
ATOM     12  C   UNL A   1      36.043  32.764  31.488  1.00  0.00     0.006 C 
ATOM     13  C   UNL A   1      35.100  33.942  34.027  1.00  0.00     0.039 C 
ATOM     14  C   UNL A   1      34.570  32.764  31.880  1.00  0.00     0.039 C 
BRANCH  10  15
ATOM     15  C   UNL A   1      37.222  31.552  33.450  1.00  0.00    -0.000 C 
ATOM     16  C   UNL A   1      38.407  31.570  34.403  1.00  0.00     0.004 C 
ENDBRANCH  10  15
BRANCH   9  17
ATOM     17  O   UNL A   1      32.859  33.723  33.235  1.00  0.00    -0.386 OA
ATOM     18  H   UNL A   1      32.482  32.966  32.761  1.00  0.00     0.211 HD
ENDBRANCH   9  17
ENDBRANCH   7   9
ENDBRANCH   4   7
ENDBRANCH   2   3
ENDBRANCH   1   2
BRANCH   1  19
ATOM     19  C   UNL A   1      34.490  32.698  28.104  1.00  0.00     0.118 C 
BRANCH  19  20
ATOM     20  N   UNL A   1      33.867  31.406  27.838  1.00  0.00    -0.352 N 
ATOM     21  C   UNL A   1      34.416  30.148  27.801  1.00  0.00     0.251 C 
ATOM     22  H   UNL A   1      32.900  31.440  27.657  1.00  0.00     0.163 HD
ATOM     23  O   UNL A   1      33.777  29.204  27.359  1.00  0.00    -0.269 OA
BRANCH  21  24
ATOM     24  C   UNL A   1      35.799  29.950  28.278  1.00  0.00     0.039 A 
ATOM     25  C   UNL A   1      36.013  29.532  29.593  1.00  0.00     0.014 A 
ATOM     26  C   UNL A   1      36.879  30.150  27.416  1.00  0.00     0.014 A 
ATOM     27  C   UNL A   1      37.308  29.238  30.015  1.00  0.00     0.010 A 
ATOM     28  C   UNL A   1      38.147  29.742  27.799  1.00  0.00     0.010 A 
ATOM     29  C   UNL A   1      38.379  29.296  29.107  1.00  0.00    -0.014 A 
BRANCH  29  30
ATOM     30  C   UNL A   1      39.755  28.911  29.503  1.00  0.00     0.031 A 
ATOM     31  C   UNL A   1      40.555  29.818  30.396  1.00  0.00     0.074 A 
ATOM     32  C   UNL A   1      40.305  27.789  29.000  1.00  0.00     0.049 A 
ATOM     33  N   UNL A   1      41.800  29.708  30.788  1.00  0.00    -0.248 NA
ATOM     34  C   UNL A   1      39.880  31.033  30.884  1.00  0.00     0.031 C 
ATOM     35  C   UNL A   1      39.646  26.861  28.079  1.00  0.00     0.029 A 
ATOM     36  N   UNL A   1      41.550  27.244  29.185  1.00  0.00    -0.354 N 
ATOM     37  C   UNL A   1      42.055  30.840  31.550  1.00  0.00     0.074 A 
ATOM     38  C   UNL A   1      40.865  31.659  31.509  1.00  0.00     0.031 C 
ATOM     39  C   UNL A   1      40.481  25.846  27.804  1.00  0.00     0.029 A 
ATOM     40  C   UNL A   1      41.748  26.075  28.491  1.00  0.00     0.049 A 
ATOM     41  H   UNL A   1      42.237  27.651  29.761  1.00  0.00     0.167 HD
ATOM     42  C   UNL A   1      43.173  31.153  32.245  1.00  0.00     0.037 A 
ATOM     43  C   UNL A   1      42.835  25.285  28.411  1.00  0.00     0.037 A 
ATOM     44  C   UNL A   1      44.343  30.318  32.303  1.00  0.00     0.049 A 
ATOM     45  C   UNL A   1      44.068  25.661  29.188  1.00  0.00     0.074 A 
ATOM     46  C   UNL A   1      45.505  30.512  33.029  1.00  0.00     0.029 A 
ATOM     47  N   UNL A   1      44.500  29.131  31.602  1.00  0.00    -0.354 N 
ATOM     48  N   UNL A   1      44.273  26.694  29.968  1.00  0.00    -0.248 NA
ATOM     49  C   UNL A   1      45.220  24.755  29.079  1.00  0.00     0.031 C 
ATOM     50  C   UNL A   1      46.387  29.470  32.724  1.00  0.00     0.029 A 
ATOM     51  C   UNL A   1      45.751  28.594  31.858  1.00  0.00     0.049 A 
ATOM     52  H   UNL A   1      43.823  28.730  31.011  1.00  0.00     0.167 HD
ATOM     53  C   UNL A   1      45.560  26.547  30.467  1.00  0.00     0.074 A 
ATOM     54  C   UNL A   1      46.083  25.316  29.913  1.00  0.00     0.031 C 
ATOM     55  C   UNL A   1      46.249  27.360  31.305  1.00  0.00     0.037 A 
BRANCH  42  56
ATOM     56  C   UNL A   1      43.180  32.449  33.005  1.00  0.00     0.064 A 
ATOM     57  C   UNL A   1      42.735  32.529  34.333  1.00  0.00     0.173 A 
ATOM     58  C   UNL A   1      43.672  33.620  32.409  1.00  0.00     0.173 A 
ATOM     59  F   UNL A   1      42.242  31.441  34.948  1.00  0.00    -0.203 F 
ATOM     60  C   UNL A   1      42.752  33.736  35.026  1.00  0.00     0.198 A 
ATOM     61  C   UNL A   1      43.720  34.818  33.115  1.00  0.00     0.198 A 
ATOM     62  F   UNL A   1      44.114  33.601  31.142  1.00  0.00    -0.203 F 
ATOM     63  F   UNL A   1      42.271  33.798  36.275  1.00  0.00    -0.200 F 
ATOM     64  C   UNL A   1      43.253  34.878  34.419  1.00  0.00     0.200 A 
ATOM     65  F   UNL A   1      44.219  35.917  32.533  1.00  0.00    -0.200 F 
ATOM     66  F   UNL A   1      43.280  36.039  35.090  1.00  0.00    -0.200 F 
ENDBRANCH  42  56
BRANCH  43  67
ATOM     67  C   UNL A   1      42.801  24.050  27.582  1.00  0.00     0.064 A 
ATOM     68  C   UNL A   1      42.441  22.816  28.142  1.00  0.00     0.173 A 
ATOM     69  C   UNL A   1      43.139  24.072  26.221  1.00  0.00     0.173 A 
ATOM     70  F   UNL A   1      42.128  22.738  29.444  1.00  0.00    -0.203 F 
ATOM     71  C   UNL A   1      42.449  21.648  27.382  1.00  0.00     0.198 A 
ATOM     72  C   UNL A   1      43.114  22.910  25.453  1.00  0.00     0.198 A 
ATOM     73  F   UNL A   1      43.484  25.228  25.633  1.00  0.00    -0.203 F 
ATOM     74  F   UNL A   1      42.154  20.475  27.957  1.00  0.00    -0.200 F 
ATOM     75  C   UNL A   1      42.780  21.697  26.036  1.00  0.00     0.200 A 
ATOM     76  F   UNL A   1      43.418  22.965  24.149  1.00  0.00    -0.200 F 
ATOM     77  F   UNL A   1      42.785  20.575  25.304  1.00  0.00    -0.200 F 
ENDBRANCH  43  67
BRANCH  55  78
ATOM     78  C   UNL A   1      47.626  26.921  31.714  1.00  0.00     0.064 A 
ATOM     79  C   UNL A   1      47.832  26.011  32.761  1.00  0.00     0.173 A 
ATOM     80  C   UNL A   1      48.752  27.386  31.017  1.00  0.00     0.173 A 
ATOM     81  F   UNL A   1      46.790  25.549  33.468  1.00  0.00    -0.203 F 
ATOM     82  C   UNL A   1      49.116  25.606  33.114  1.00  0.00     0.198 A 
ATOM     83  C   UNL A   1      50.031  26.951  31.349  1.00  0.00     0.198 A 
ATOM     84  F   UNL A   1      48.610  28.250  30.000  1.00  0.00    -0.203 F 
ATOM     85  F   UNL A   1      49.292  24.778  34.153  1.00  0.00    -0.200 F 
ATOM     86  C   UNL A   1      50.213  26.069  32.402  1.00  0.00     0.200 A 
ATOM     87  F   UNL A   1      51.088  27.385  30.648  1.00  0.00    -0.200 F 
ATOM     88  F   UNL A   1      51.447  25.668  32.737  1.00  0.00    -0.200 F 
ENDBRANCH  55  78
ENDBRANCH  29  30
ENDBRANCH  21  24
ENDBRANCH  19  20
ENDBRANCH   1  19
TORSDOF 13
ENDMDL
