MODEL 1
REMARK VINA RESULT:     -12.6      0.000      0.000
REMARK SMILES CO[C@H]1CN(C(=O)c2cn(C(C)C)cc(C(=O)NCCCNC(=O)c3ccc(-c4c5nc(c(-c6c(F)c(F)c(F)c(F)c6F)c6ccc([nH]6)c(-c6c(F)c(F)c(F)c(F)c6F)c6nc(c(-c7c(F)c(F)c(F)c(F)c7F)c7ccc4[nH]7)C=C6)C=C5)cc3)c2=O)CC[C@H]1[NH3+]
REMARK SMILES IDX 19 1 18 2 16 3 17 4 15 6 8 7 9 8 88 9 10 10 89 11 14 12 6 13
REMARK SMILES IDX 7 14 5 15 3 16 4 17 92 18 91 19 90 20 2 21 1 22 93 23 11 27
REMARK SMILES IDX 12 28 13 29 20 30 21 31 22 32 23 33 24 35 25 36 26 37 87 38
REMARK SMILES IDX 27 39 86 40 28 41 29 42 30 43 80 44 31 45 85 46 79 47 81 48
REMARK SMILES IDX 32 49 84 50 78 51 77 52 33 54 65 55 45 56 64 57 46 58 49 59
REMARK SMILES IDX 63 60 82 61 47 62 48 63 62 65 83 66 50 67 34 68 35 69 43 70
REMARK SMILES IDX 36 71 37 72 41 73 44 74 38 75 39 76 42 77 40 78 66 79 67 80
REMARK SMILES IDX 75 81 68 82 69 83 73 84 76 85 70 86 71 87 74 88 72 89 51 90
REMARK SMILES IDX 52 91 60 92 53 93 54 94 58 95 61 96 55 97 56 98 59 99 57 100
REMARK H PARENT 18 5 93 24 93 25 93 26 22 34 81 53 49 64
REMARK Flexibility Score: inf
ROOT
ATOM      1  C   UNL A   1      31.776  30.833  26.157  1.00  0.00     0.118 C 
ENDROOT
BRANCH   1   2
ATOM      2  N   UNL A   1      31.818  29.789  27.164  1.00  0.00    -0.352 N 
ATOM      3  C   UNL A   1      31.793  28.431  27.068  1.00  0.00     0.256 C 
ATOM      4  O   UNL A   1      31.854  27.803  28.129  1.00  0.00    -0.269 OA
ATOM      5  H   UNL A   1      31.875  30.124  28.089  1.00  0.00     0.163 HD
BRANCH   3   6
ATOM      6  C   UNL A   1      31.787  27.712  25.767  1.00  0.00     0.104 A 
ATOM      7  C   UNL A   1      32.619  26.077  24.017  1.00  0.00     0.104 A 
ATOM      8  C   UNL A   1      31.416  26.165  23.436  1.00  0.00     0.103 A 
ATOM      9  C   UNL A   1      32.929  27.063  25.075  1.00  0.00     0.207 A 
ATOM     10  N   UNL A   1      30.409  27.024  23.875  1.00  0.00    -0.350 N 
ATOM     11  O   UNL A   1      34.101  27.332  25.321  1.00  0.00    -0.288 OA
ATOM     12  C   UNL A   1      30.625  27.689  25.085  1.00  0.00     0.103 A 
BRANCH   7  13
ATOM     13  C   UNL A   1      33.626  25.105  23.550  1.00  0.00     0.259 C 
ATOM     14  O   UNL A   1      34.028  25.149  22.390  1.00  0.00    -0.269 OA
BRANCH  13  15
ATOM     15  N   UNL A   1      34.065  24.168  24.479  1.00  0.00    -0.335 N 
ATOM     16  C   UNL A   1      33.704  21.748  24.720  1.00  0.00     0.195 C 
ATOM     17  C   UNL A   1      33.221  23.151  25.128  1.00  0.00     0.158 C 
ATOM     18  C   UNL A   1      35.210  21.534  25.062  1.00  0.00     0.213 C 
ATOM     19  C   UNL A   1      36.028  22.666  24.405  1.00  0.00     0.089 C 
ATOM     20  C   UNL A   1      35.495  24.057  24.757  1.00  0.00     0.126 C 
BRANCH  16  21
ATOM     21  O   UNL A   1      32.831  20.683  25.100  1.00  0.00    -0.373 OA
ATOM     22  C   UNL A   1      33.125  19.385  24.614  1.00  0.00     0.195 C 
ENDBRANCH  16  21
BRANCH  18  23
ATOM     23  N   UNL A   1      35.523  21.454  26.500  1.00  0.00    -0.353 N 
ATOM     24  H   UNL A   1      34.808  20.900  26.973  1.00  0.00     0.344 HD
ATOM     25  H   UNL A   1      35.542  22.393  26.897  1.00  0.00     0.344 HD
ATOM     26  H   UNL A   1      36.433  21.012  26.627  1.00  0.00     0.344 HD
ENDBRANCH  18  23
ENDBRANCH  13  15
ENDBRANCH   7  13
BRANCH  10  27
ATOM     27  C   UNL A   1      29.162  27.252  23.106  1.00  0.00     0.080 C 
ATOM     28  C   UNL A   1      27.961  26.702  23.876  1.00  0.00     0.031 C 
ATOM     29  C   UNL A   1      28.987  28.726  22.751  1.00  0.00     0.031 C 
ENDBRANCH  10  27
ENDBRANCH   3   6
ENDBRANCH   1   2
BRANCH   1  30
ATOM     30  C   UNL A   1      31.479  32.195  26.777  1.00  0.00     0.042 C 
BRANCH  30  31
ATOM     31  C   UNL A   1      32.714  32.916  27.287  1.00  0.00     0.118 C 
BRANCH  31  32
ATOM     32  N   UNL A   1      32.440  34.286  27.696  1.00  0.00    -0.352 N 
ATOM     33  C   UNL A   1      33.016  35.039  28.694  1.00  0.00     0.251 C 
ATOM     34  H   UNL A   1      31.735  34.743  27.183  1.00  0.00     0.163 HD
ATOM     35  O   UNL A   1      32.528  36.120  28.997  1.00  0.00    -0.269 OA
BRANCH  33  36
ATOM     36  C   UNL A   1      34.202  34.531  29.421  1.00  0.00     0.039 A 
ATOM     37  C   UNL A   1      35.485  34.673  28.893  1.00  0.00     0.014 A 
ATOM     38  C   UNL A   1      34.026  33.895  30.654  1.00  0.00     0.014 A 
ATOM     39  C   UNL A   1      36.553  34.014  29.488  1.00  0.00     0.010 A 
ATOM     40  C   UNL A   1      35.124  33.332  31.313  1.00  0.00     0.010 A 
ATOM     41  C   UNL A   1      36.390  33.340  30.708  1.00  0.00    -0.014 A 
BRANCH  41  42
ATOM     42  C   UNL A   1      37.566  32.661  31.316  1.00  0.00     0.031 A 
ATOM     43  C   UNL A   1      38.029  33.011  32.705  1.00  0.00     0.074 A 
ATOM     44  C   UNL A   1      38.165  31.663  30.637  1.00  0.00     0.049 A 
ATOM     45  N   UNL A   1      38.991  32.471  33.413  1.00  0.00    -0.248 NA
ATOM     46  C   UNL A   1      37.334  34.113  33.389  1.00  0.00     0.031 C 
ATOM     47  C   UNL A   1      37.801  31.234  29.285  1.00  0.00     0.029 A 
ATOM     48  N   UNL A   1      39.171  30.802  30.998  1.00  0.00    -0.354 N 
ATOM     49  C   UNL A   1      39.021  33.170  34.612  1.00  0.00     0.074 A 
ATOM     50  C   UNL A   1      38.013  34.203  34.524  1.00  0.00     0.031 C 
ATOM     51  C   UNL A   1      38.515  30.146  28.961  1.00  0.00     0.029 A 
ATOM     52  C   UNL A   1      39.439  29.845  30.049  1.00  0.00     0.049 A 
ATOM     53  H   UNL A   1      39.653  30.864  31.854  1.00  0.00     0.167 HD
ATOM     54  C   UNL A   1      39.805  32.955  35.696  1.00  0.00     0.037 A 
ATOM     55  C   UNL A   1      40.335  28.840  30.048  1.00  0.00     0.037 A 
ATOM     56  C   UNL A   1      40.787  31.906  35.789  1.00  0.00     0.049 A 
ATOM     57  C   UNL A   1      41.223  28.653  31.246  1.00  0.00     0.074 A 
ATOM     58  C   UNL A   1      41.610  31.591  36.855  1.00  0.00     0.029 A 
ATOM     59  N   UNL A   1      41.077  31.001  34.779  1.00  0.00    -0.354 N 
ATOM     60  N   UNL A   1      41.223  29.307  32.381  1.00  0.00    -0.248 NA
ATOM     61  C   UNL A   1      42.240  27.596  31.160  1.00  0.00     0.031 C 
ATOM     62  C   UNL A   1      42.435  30.530  36.473  1.00  0.00     0.029 A 
ATOM     63  C   UNL A   1      42.088  30.145  35.188  1.00  0.00     0.049 A 
ATOM     64  H   UNL A   1      40.631  30.969  33.902  1.00  0.00     0.167 HD
ATOM     65  C   UNL A   1      42.230  28.739  33.148  1.00  0.00     0.074 A 
ATOM     66  C   UNL A   1      42.803  27.668  32.359  1.00  0.00     0.031 C 
ATOM     67  C   UNL A   1      42.646  29.082  34.391  1.00  0.00     0.037 A 
BRANCH  54  68
ATOM     68  C   UNL A   1      39.641  33.867  36.878  1.00  0.00     0.064 A 
ATOM     69  C   UNL A   1      38.854  33.507  37.982  1.00  0.00     0.173 A 
ATOM     70  C   UNL A   1      40.344  35.081  36.943  1.00  0.00     0.173 A 
ATOM     71  F   UNL A   1      38.157  32.361  37.969  1.00  0.00    -0.203 F 
ATOM     72  C   UNL A   1      38.762  34.335  39.098  1.00  0.00     0.198 A 
ATOM     73  C   UNL A   1      40.273  35.892  38.072  1.00  0.00     0.198 A 
ATOM     74  F   UNL A   1      41.119  35.469  35.918  1.00  0.00    -0.203 F 
ATOM     75  F   UNL A   1      37.978  33.986  40.127  1.00  0.00    -0.200 F 
ATOM     76  C   UNL A   1      39.480  35.521  39.147  1.00  0.00     0.200 A 
ATOM     77  F   UNL A   1      40.980  37.029  38.125  1.00  0.00    -0.200 F 
ATOM     78  F   UNL A   1      39.405  36.307  40.230  1.00  0.00    -0.200 F 
ENDBRANCH  54  68
BRANCH  55  79
ATOM     79  C   UNL A   1      40.422  27.935  28.871  1.00  0.00     0.064 A 
ATOM     80  C   UNL A   1      39.696  26.738  28.825  1.00  0.00     0.173 A 
ATOM     81  C   UNL A   1      41.206  28.265  27.755  1.00  0.00     0.173 A 
ATOM     82  F   UNL A   1      38.948  26.368  29.874  1.00  0.00    -0.203 F 
ATOM     83  C   UNL A   1      39.752  25.905  27.710  1.00  0.00     0.198 A 
ATOM     84  C   UNL A   1      41.236  27.448  26.627  1.00  0.00     0.198 A 
ATOM     85  F   UNL A   1      41.918  29.402  27.747  1.00  0.00    -0.203 F 
ATOM     86  F   UNL A   1      39.073  24.750  27.704  1.00  0.00    -0.200 F 
ATOM     87  C   UNL A   1      40.513  26.266  26.608  1.00  0.00     0.200 A 
ATOM     88  F   UNL A   1      41.957  27.812  25.559  1.00  0.00    -0.200 F 
ATOM     89  F   UNL A   1      40.551  25.473  25.528  1.00  0.00    -0.200 F 
ENDBRANCH  55  79
BRANCH  67  90
ATOM     90  C   UNL A   1      43.774  28.293  34.989  1.00  0.00     0.064 A 
ATOM     91  C   UNL A   1      45.105  28.716  34.868  1.00  0.00     0.173 A 
ATOM     92  C   UNL A   1      43.512  27.153  35.767  1.00  0.00     0.173 A 
ATOM     93  F   UNL A   1      45.406  29.791  34.124  1.00  0.00    -0.203 F 
ATOM     94  C   UNL A   1      46.135  28.024  35.499  1.00  0.00     0.198 A 
ATOM     95  C   UNL A   1      44.542  26.482  36.420  1.00  0.00     0.198 A 
ATOM     96  F   UNL A   1      42.255  26.712  35.919  1.00  0.00    -0.203 F 
ATOM     97  F   UNL A   1      47.403  28.430  35.347  1.00  0.00    -0.200 F 
ATOM     98  C   UNL A   1      45.851  26.916  36.284  1.00  0.00     0.200 A 
ATOM     99  F   UNL A   1      44.264  25.422  37.192  1.00  0.00    -0.200 F 
ATOM    100  F   UNL A   1      46.842  26.266  36.909  1.00  0.00    -0.200 F 
ENDBRANCH  67  90
ENDBRANCH  41  42
ENDBRANCH  33  36
ENDBRANCH  31  32
ENDBRANCH  30  31
ENDBRANCH   1  30
TORSDOF 15
ENDMDL
MODEL 2
REMARK VINA RESULT:     -12.6      0.908      2.268
REMARK SMILES CO[C@H]1CN(C(=O)c2cn(C(C)C)cc(C(=O)NCCCNC(=O)c3ccc(-c4c5nc(c(-c6c(F)c(F)c(F)c(F)c6F)c6ccc([nH]6)c(-c6c(F)c(F)c(F)c(F)c6F)c6nc(c(-c7c(F)c(F)c(F)c(F)c7F)c7ccc4[nH]7)C=C6)C=C5)cc3)c2=O)CC[C@H]1[NH3+]
REMARK SMILES IDX 19 1 18 2 16 3 17 4 15 6 8 7 9 8 88 9 10 10 89 11 14 12 6 13
REMARK SMILES IDX 7 14 5 15 3 16 4 17 92 18 91 19 90 20 2 21 1 22 93 23 11 27
REMARK SMILES IDX 12 28 13 29 20 30 21 31 22 32 23 33 24 35 25 36 26 37 87 38
REMARK SMILES IDX 27 39 86 40 28 41 29 42 30 43 80 44 31 45 85 46 79 47 81 48
REMARK SMILES IDX 32 49 84 50 78 51 77 52 33 54 65 55 45 56 64 57 46 58 49 59
REMARK SMILES IDX 63 60 82 61 47 62 48 63 62 65 83 66 50 67 34 68 35 69 43 70
REMARK SMILES IDX 36 71 37 72 41 73 44 74 38 75 39 76 42 77 40 78 66 79 67 80
REMARK SMILES IDX 75 81 68 82 69 83 73 84 76 85 70 86 71 87 74 88 72 89 51 90
REMARK SMILES IDX 52 91 60 92 53 93 54 94 58 95 61 96 55 97 56 98 59 99 57 100
REMARK H PARENT 18 5 93 24 93 25 93 26 22 34 81 53 49 64
REMARK Flexibility Score: inf
ROOT
ATOM      1  C   UNL A   1      31.764  30.869  26.118  1.00  0.00     0.118 C 
ENDROOT
BRANCH   1   2
ATOM      2  N   UNL A   1      31.728  29.670  26.934  1.00  0.00    -0.352 N 
ATOM      3  C   UNL A   1      31.608  28.353  26.610  1.00  0.00     0.256 C 
ATOM      4  O   UNL A   1      31.621  27.552  27.549  1.00  0.00    -0.269 OA
ATOM      5  H   UNL A   1      31.804  29.839  27.901  1.00  0.00     0.163 HD
BRANCH   3   6
ATOM      6  C   UNL A   1      31.557  27.867  25.206  1.00  0.00     0.104 A 
ATOM      7  C   UNL A   1      32.074  26.314  23.268  1.00  0.00     0.104 A 
ATOM      8  C   UNL A   1      31.047  26.871  22.615  1.00  0.00     0.103 A 
ATOM      9  C   UNL A   1      32.527  26.985  24.507  1.00  0.00     0.207 A 
ATOM     10  N   UNL A   1      30.304  27.940  23.114  1.00  0.00    -0.350 N 
ATOM     11  O   UNL A   1      33.679  26.820  24.893  1.00  0.00    -0.288 OA
ATOM     12  C   UNL A   1      30.548  28.320  24.436  1.00  0.00     0.103 A 
BRANCH   7  13
ATOM     13  C   UNL A   1      32.786  25.143  22.722  1.00  0.00     0.259 C 
ATOM     14  O   UNL A   1      33.437  25.251  21.686  1.00  0.00    -0.269 OA
BRANCH  13  15
ATOM     15  N   UNL A   1      32.666  23.954  23.433  1.00  0.00    -0.335 N 
ATOM     16  C   UNL A   1      33.437  23.246  25.658  1.00  0.00     0.195 C 
ATOM     17  C   UNL A   1      33.758  23.278  24.153  1.00  0.00     0.158 C 
ATOM     18  C   UNL A   1      32.065  22.562  25.941  1.00  0.00     0.213 C 
ATOM     19  C   UNL A   1      30.979  23.277  25.110  1.00  0.00     0.089 C 
ATOM     20  C   UNL A   1      31.341  23.370  23.626  1.00  0.00     0.126 C 
BRANCH  16  21
ATOM     21  O   UNL A   1      34.519  22.821  26.489  1.00  0.00    -0.373 OA
ATOM     22  C   UNL A   1      35.827  23.223  26.123  1.00  0.00     0.195 C 
ENDBRANCH  16  21
BRANCH  18  23
ATOM     23  N   UNL A   1      32.023  21.110  25.686  1.00  0.00    -0.353 N 
ATOM     24  H   UNL A   1      32.792  20.851  25.068  1.00  0.00     0.344 HD
ATOM     25  H   UNL A   1      31.136  20.868  25.244  1.00  0.00     0.344 HD
ATOM     26  H   UNL A   1      32.111  20.607  26.568  1.00  0.00     0.344 HD
ENDBRANCH  18  23
ENDBRANCH  13  15
ENDBRANCH   7  13
BRANCH  10  27
ATOM     27  C   UNL A   1      29.303  28.668  22.297  1.00  0.00     0.080 C 
ATOM     28  C   UNL A   1      27.953  28.689  23.013  1.00  0.00     0.031 C 
ATOM     29  C   UNL A   1      29.786  30.073  21.946  1.00  0.00     0.031 C 
ENDBRANCH  10  27
ENDBRANCH   3   6
ENDBRANCH   1   2
BRANCH   1  30
ATOM     30  C   UNL A   1      31.496  32.119  26.951  1.00  0.00     0.042 C 
BRANCH  30  31
ATOM     31  C   UNL A   1      32.742  32.933  27.250  1.00  0.00     0.118 C 
BRANCH  31  32
ATOM     32  N   UNL A   1      32.440  34.281  27.710  1.00  0.00    -0.352 N 
ATOM     33  C   UNL A   1      33.012  35.014  28.724  1.00  0.00     0.251 C 
ATOM     34  H   UNL A   1      31.718  34.737  27.221  1.00  0.00     0.163 HD
ATOM     35  O   UNL A   1      32.502  36.072  29.070  1.00  0.00    -0.269 OA
BRANCH  33  36
ATOM     36  C   UNL A   1      34.220  34.511  29.418  1.00  0.00     0.039 A 
ATOM     37  C   UNL A   1      35.492  34.705  28.879  1.00  0.00     0.014 A 
ATOM     38  C   UNL A   1      34.077  33.828  30.630  1.00  0.00     0.014 A 
ATOM     39  C   UNL A   1      36.584  34.054  29.437  1.00  0.00     0.010 A 
ATOM     40  C   UNL A   1      35.198  33.271  31.254  1.00  0.00     0.010 A 
ATOM     41  C   UNL A   1      36.455  33.333  30.635  1.00  0.00    -0.014 A 
BRANCH  41  42
ATOM     42  C   UNL A   1      37.655  32.664  31.204  1.00  0.00     0.031 A 
ATOM     43  C   UNL A   1      38.146  33.000  32.586  1.00  0.00     0.074 A 
ATOM     44  C   UNL A   1      38.254  31.687  30.494  1.00  0.00     0.049 A 
ATOM     45  N   UNL A   1      39.133  32.464  33.263  1.00  0.00    -0.248 NA
ATOM     46  C   UNL A   1      37.450  34.078  33.305  1.00  0.00     0.031 C 
ATOM     47  C   UNL A   1      37.865  31.273  29.145  1.00  0.00     0.029 A 
ATOM     48  N   UNL A   1      39.281  30.837  30.817  1.00  0.00    -0.354 N 
ATOM     49  C   UNL A   1      39.181  33.144  34.472  1.00  0.00     0.074 A 
ATOM     50  C   UNL A   1      38.154  34.162  34.425  1.00  0.00     0.031 C 
ATOM     51  C   UNL A   1      38.588  30.203  28.786  1.00  0.00     0.029 A 
ATOM     52  C   UNL A   1      39.543  29.899  29.847  1.00  0.00     0.049 A 
ATOM     53  H   UNL A   1      39.783  30.892  31.662  1.00  0.00     0.167 HD
ATOM     54  C   UNL A   1      39.994  32.924  35.533  1.00  0.00     0.037 A 
ATOM     55  C   UNL A   1      40.454  28.909  29.808  1.00  0.00     0.037 A 
ATOM     56  C   UNL A   1      40.994  31.890  35.586  1.00  0.00     0.049 A 
ATOM     57  C   UNL A   1      41.372  28.718  30.982  1.00  0.00     0.074 A 
ATOM     58  C   UNL A   1      41.848  31.572  36.627  1.00  0.00     0.029 A 
ATOM     59  N   UNL A   1      41.274  31.006  34.555  1.00  0.00    -0.354 N 
ATOM     60  N   UNL A   1      41.390  29.353  32.127  1.00  0.00    -0.248 NA
ATOM     61  C   UNL A   1      42.404  27.679  30.854  1.00  0.00     0.031 C 
ATOM     62  C   UNL A   1      42.679  30.530  36.208  1.00  0.00     0.029 A 
ATOM     63  C   UNL A   1      42.308  30.161  34.926  1.00  0.00     0.049 A 
ATOM     64  H   UNL A   1      40.808  30.981  33.688  1.00  0.00     0.167 HD
ATOM     65  C   UNL A   1      42.423  28.790  32.860  1.00  0.00     0.074 A 
ATOM     66  C   UNL A   1      42.994  27.741  32.040  1.00  0.00     0.031 C 
ATOM     67  C   UNL A   1      42.863  29.120  34.099  1.00  0.00     0.037 A 
BRANCH  54  68
ATOM     68  C   UNL A   1      39.844  33.815  36.733  1.00  0.00     0.064 A 
ATOM     69  C   UNL A   1      40.492  35.057  36.814  1.00  0.00     0.173 A 
ATOM     70  C   UNL A   1      38.979  33.459  37.781  1.00  0.00     0.173 A 
ATOM     71  F   UNL A   1      41.334  35.443  35.843  1.00  0.00    -0.203 F 
ATOM     72  C   UNL A   1      40.293  35.901  37.904  1.00  0.00     0.198 A 
ATOM     73  C   UNL A   1      38.760  34.318  38.854  1.00  0.00     0.198 A 
ATOM     74  F   UNL A   1      38.327  32.287  37.750  1.00  0.00    -0.203 F 
ATOM     75  F   UNL A   1      40.948  37.068  37.975  1.00  0.00    -0.200 F 
ATOM     76  C   UNL A   1      39.420  35.536  38.918  1.00  0.00     0.200 A 
ATOM     77  F   UNL A   1      37.904  33.971  39.825  1.00  0.00    -0.200 F 
ATOM     78  F   UNL A   1      39.216  36.357  39.957  1.00  0.00    -0.200 F 
ENDBRANCH  54  68
BRANCH  55  79
ATOM     79  C   UNL A   1      40.527  28.025  28.615  1.00  0.00     0.064 A 
ATOM     80  C   UNL A   1      41.303  28.376  27.502  1.00  0.00     0.173 A 
ATOM     81  C   UNL A   1      39.851  26.796  28.576  1.00  0.00     0.173 A 
ATOM     82  F   UNL A   1      41.951  29.550  27.481  1.00  0.00    -0.203 F 
ATOM     83  C   UNL A   1      41.396  27.534  26.396  1.00  0.00     0.198 A 
ATOM     84  C   UNL A   1      39.972  25.940  27.485  1.00  0.00     0.198 A 
ATOM     85  F   UNL A   1      39.098  26.411  29.617  1.00  0.00    -0.203 F 
ATOM     86  F   UNL A   1      42.120  27.908  25.331  1.00  0.00    -0.200 F 
ATOM     87  C   UNL A   1      40.740  26.312  26.393  1.00  0.00     0.200 A 
ATOM     88  F   UNL A   1      39.353  24.752  27.496  1.00  0.00    -0.200 F 
ATOM     89  F   UNL A   1      40.848  25.495  25.337  1.00  0.00    -0.200 F 
ENDBRANCH  55  79
BRANCH  67  90
ATOM     90  C   UNL A   1      44.018  28.340  34.657  1.00  0.00     0.064 A 
ATOM     91  C   UNL A   1      43.819  27.134  35.345  1.00  0.00     0.173 A 
ATOM     92  C   UNL A   1      45.338  28.756  34.423  1.00  0.00     0.173 A 
ATOM     93  F   UNL A   1      42.576  26.703  35.605  1.00  0.00    -0.203 F 
ATOM     94  C   UNL A   1      44.900  26.376  35.784  1.00  0.00     0.198 A 
ATOM     95  C   UNL A   1      46.416  27.979  34.838  1.00  0.00     0.198 A 
ATOM     96  F   UNL A   1      45.581  29.898  33.764  1.00  0.00    -0.203 F 
ATOM     97  F   UNL A   1      44.687  25.240  36.464  1.00  0.00    -0.200 F 
ATOM     98  C   UNL A   1      46.197  26.792  35.519  1.00  0.00     0.200 A 
ATOM     99  F   UNL A   1      47.668  28.374  34.566  1.00  0.00    -0.200 F 
ATOM    100  F   UNL A   1      47.235  26.047  35.922  1.00  0.00    -0.200 F 
ENDBRANCH  67  90
ENDBRANCH  41  42
ENDBRANCH  33  36
ENDBRANCH  31  32
ENDBRANCH  30  31
ENDBRANCH   1  30
TORSDOF 15
ENDMDL
MODEL 3
REMARK VINA RESULT:     -12.4      5.385     11.143
REMARK SMILES CO[C@H]1CN(C(=O)c2cn(C(C)C)cc(C(=O)NCCCNC(=O)c3ccc(-c4c5nc(c(-c6c(F)c(F)c(F)c(F)c6F)c6ccc([nH]6)c(-c6c(F)c(F)c(F)c(F)c6F)c6nc(c(-c7c(F)c(F)c(F)c(F)c7F)c7ccc4[nH]7)C=C6)C=C5)cc3)c2=O)CC[C@H]1[NH3+]
REMARK SMILES IDX 19 1 18 2 16 3 17 4 15 6 8 7 9 8 88 9 10 10 89 11 14 12 6 13
REMARK SMILES IDX 7 14 5 15 3 16 4 17 92 18 91 19 90 20 2 21 1 22 93 23 11 27
REMARK SMILES IDX 12 28 13 29 20 30 21 31 22 32 23 33 24 35 25 36 26 37 87 38
REMARK SMILES IDX 27 39 86 40 28 41 29 42 30 43 80 44 31 45 85 46 79 47 81 48
REMARK SMILES IDX 32 49 84 50 78 51 77 52 33 54 65 55 45 56 64 57 46 58 49 59
REMARK SMILES IDX 63 60 82 61 47 62 48 63 62 65 83 66 50 67 34 68 35 69 43 70
REMARK SMILES IDX 36 71 37 72 41 73 44 74 38 75 39 76 42 77 40 78 66 79 67 80
REMARK SMILES IDX 75 81 68 82 69 83 73 84 76 85 70 86 71 87 74 88 72 89 51 90
REMARK SMILES IDX 52 91 60 92 53 93 54 94 58 95 61 96 55 97 56 98 59 99 57 100
REMARK H PARENT 18 5 93 24 93 25 93 26 22 34 81 53 49 64
REMARK Flexibility Score: inf
ROOT
ATOM      1  C   UNL A   1      37.098  20.707  25.148  1.00  0.00     0.118 C 
ENDROOT
BRANCH   1   2
ATOM      2  N   UNL A   1      36.869  21.786  24.205  1.00  0.00    -0.352 N 
ATOM      3  C   UNL A   1      35.739  22.451  23.839  1.00  0.00     0.256 C 
ATOM      4  O   UNL A   1      35.874  23.346  23.001  1.00  0.00    -0.269 OA
ATOM      5  H   UNL A   1      37.683  22.095  23.743  1.00  0.00     0.163 HD
BRANCH   3   6
ATOM      6  C   UNL A   1      34.415  22.201  24.467  1.00  0.00     0.104 A 
ATOM      7  C   UNL A   1      32.198  22.819  25.532  1.00  0.00     0.104 A 
ATOM      8  C   UNL A   1      31.786  21.571  25.277  1.00  0.00     0.103 A 
ATOM      9  C   UNL A   1      33.641  23.099  25.360  1.00  0.00     0.207 A 
ATOM     10  N   UNL A   1      32.604  20.586  24.726  1.00  0.00    -0.350 N 
ATOM     11  O   UNL A   1      34.149  24.030  25.977  1.00  0.00    -0.288 OA
ATOM     12  C   UNL A   1      33.859  20.989  24.263  1.00  0.00     0.103 A 
BRANCH   7  13
ATOM     13  C   UNL A   1      31.271  23.840  26.057  1.00  0.00     0.259 C 
ATOM     14  O   UNL A   1      30.873  23.767  27.216  1.00  0.00    -0.269 OA
BRANCH  13  15
ATOM     15  N   UNL A   1      30.893  24.849  25.177  1.00  0.00    -0.335 N 
ATOM     16  C   UNL A   1      31.828  27.064  24.663  1.00  0.00     0.195 C 
ATOM     17  C   UNL A   1      30.807  26.281  25.508  1.00  0.00     0.158 C 
ATOM     18  C   UNL A   1      31.619  26.824  23.138  1.00  0.00     0.213 C 
ATOM     19  C   UNL A   1      31.658  25.305  22.870  1.00  0.00     0.089 C 
ATOM     20  C   UNL A   1      30.692  24.525  23.766  1.00  0.00     0.126 C 
BRANCH  16  21
ATOM     21  O   UNL A   1      32.001  28.428  25.052  1.00  0.00    -0.373 OA
ATOM     22  C   UNL A   1      33.039  29.163  24.428  1.00  0.00     0.195 C 
ENDBRANCH  16  21
BRANCH  18  23
ATOM     23  N   UNL A   1      30.387  27.405  22.572  1.00  0.00    -0.353 N 
ATOM     24  H   UNL A   1      30.051  28.148  23.186  1.00  0.00     0.344 HD
ATOM     25  H   UNL A   1      29.674  26.681  22.493  1.00  0.00     0.344 HD
ATOM     26  H   UNL A   1      30.585  27.791  21.649  1.00  0.00     0.344 HD
ENDBRANCH  18  23
ENDBRANCH  13  15
ENDBRANCH   7  13
BRANCH  10  27
ATOM     27  C   UNL A   1      32.193  19.164  24.635  1.00  0.00     0.080 C 
ATOM     28  C   UNL A   1      32.496  18.617  23.240  1.00  0.00     0.031 C 
ATOM     29  C   UNL A   1      32.842  18.325  25.732  1.00  0.00     0.031 C 
ENDBRANCH  10  27
ENDBRANCH   3   6
ENDBRANCH   1   2
BRANCH   1  30
ATOM     30  C   UNL A   1      38.425  20.004  24.881  1.00  0.00     0.042 C 
BRANCH  30  31
ATOM     31  C   UNL A   1      39.379  20.031  26.061  1.00  0.00     0.118 C 
BRANCH  31  32
ATOM     32  N   UNL A   1      40.429  19.028  25.963  1.00  0.00    -0.352 N 
ATOM     33  C   UNL A   1      41.796  19.175  26.013  1.00  0.00     0.251 C 
ATOM     34  H   UNL A   1      40.113  18.103  25.843  1.00  0.00     0.163 HD
ATOM     35  O   UNL A   1      42.520  18.227  25.739  1.00  0.00    -0.269 OA
BRANCH  33  36
ATOM     36  C   UNL A   1      42.392  20.486  26.364  1.00  0.00     0.039 A 
ATOM     37  C   UNL A   1      42.553  20.869  27.696  1.00  0.00     0.014 A 
ATOM     38  C   UNL A   1      42.794  21.349  25.340  1.00  0.00     0.014 A 
ATOM     39  C   UNL A   1      42.921  22.173  27.998  1.00  0.00     0.010 A 
ATOM     40  C   UNL A   1      43.277  22.624  25.652  1.00  0.00     0.010 A 
ATOM     41  C   UNL A   1      43.295  23.068  26.982  1.00  0.00    -0.014 A 
BRANCH  41  42
ATOM     42  C   UNL A   1      43.697  24.450  27.354  1.00  0.00     0.031 A 
ATOM     43  C   UNL A   1      45.098  24.942  27.110  1.00  0.00     0.074 A 
ATOM     44  C   UNL A   1      42.762  25.291  27.841  1.00  0.00     0.049 A 
ATOM     45  N   UNL A   1      45.598  26.137  27.309  1.00  0.00    -0.248 NA
ATOM     46  C   UNL A   1      46.069  23.972  26.580  1.00  0.00     0.031 C 
ATOM     47  C   UNL A   1      41.371  24.928  28.119  1.00  0.00     0.029 A 
ATOM     48  N   UNL A   1      42.822  26.627  28.149  1.00  0.00    -0.354 N 
ATOM     49  C   UNL A   1      46.935  26.057  26.942  1.00  0.00     0.074 A 
ATOM     50  C   UNL A   1      47.184  24.688  26.548  1.00  0.00     0.031 C 
ATOM     51  C   UNL A   1      40.692  26.026  28.479  1.00  0.00     0.029 A 
ATOM     52  C   UNL A   1      41.614  27.157  28.531  1.00  0.00     0.049 A 
ATOM     53  H   UNL A   1      43.651  27.156  28.099  1.00  0.00     0.167 HD
ATOM     54  C   UNL A   1      47.864  27.043  26.916  1.00  0.00     0.037 A 
ATOM     55  C   UNL A   1      41.281  28.410  28.893  1.00  0.00     0.037 A 
ATOM     56  C   UNL A   1      47.603  28.411  27.281  1.00  0.00     0.049 A 
ATOM     57  C   UNL A   1      42.343  29.473  28.898  1.00  0.00     0.074 A 
ATOM     58  C   UNL A   1      48.472  29.487  27.261  1.00  0.00     0.029 A 
ATOM     59  N   UNL A   1      46.382  28.891  27.730  1.00  0.00    -0.354 N 
ATOM     60  N   UNL A   1      43.596  29.388  28.526  1.00  0.00    -0.248 NA
ATOM     61  C   UNL A   1      41.949  30.803  29.382  1.00  0.00     0.031 C 
ATOM     62  C   UNL A   1      47.793  30.607  27.747  1.00  0.00     0.029 A 
ATOM     63  C   UNL A   1      46.484  30.243  28.018  1.00  0.00     0.049 A 
ATOM     64  H   UNL A   1      45.563  28.353  27.829  1.00  0.00     0.167 HD
ATOM     65  C   UNL A   1      44.139  30.649  28.720  1.00  0.00     0.074 A 
ATOM     66  C   UNL A   1      43.071  31.491  29.219  1.00  0.00     0.031 C 
ATOM     67  C   UNL A   1      45.410  31.068  28.511  1.00  0.00     0.037 A 
BRANCH  54  68
ATOM     68  C   UNL A   1      49.256  26.689  26.478  1.00  0.00     0.064 A 
ATOM     69  C   UNL A   1      49.668  26.835  25.144  1.00  0.00     0.173 A 
ATOM     70  C   UNL A   1      50.214  26.274  27.417  1.00  0.00     0.173 A 
ATOM     71  F   UNL A   1      48.791  27.221  24.206  1.00  0.00    -0.203 F 
ATOM     72  C   UNL A   1      50.981  26.563  24.765  1.00  0.00     0.198 A 
ATOM     73  C   UNL A   1      51.532  26.032  27.039  1.00  0.00     0.198 A 
ATOM     74  F   UNL A   1      49.876  26.127  28.707  1.00  0.00    -0.203 F 
ATOM     75  F   UNL A   1      51.343  26.678  23.480  1.00  0.00    -0.200 F 
ATOM     76  C   UNL A   1      51.914  26.173  25.714  1.00  0.00     0.200 A 
ATOM     77  F   UNL A   1      52.436  25.670  27.960  1.00  0.00    -0.200 F 
ATOM     78  F   UNL A   1      53.181  25.930  25.350  1.00  0.00    -0.200 F 
ENDBRANCH  54  68
BRANCH  55  79
ATOM     79  C   UNL A   1      39.876  28.717  29.271  1.00  0.00     0.064 A 
ATOM     80  C   UNL A   1      38.961  29.194  28.323  1.00  0.00     0.173 A 
ATOM     81  C   UNL A   1      39.411  28.508  30.578  1.00  0.00     0.173 A 
ATOM     82  F   UNL A   1      39.362  29.430  27.065  1.00  0.00    -0.203 F 
ATOM     83  C   UNL A   1      37.637  29.453  28.669  1.00  0.00     0.198 A 
ATOM     84  C   UNL A   1      38.079  28.735  30.915  1.00  0.00     0.198 A 
ATOM     85  F   UNL A   1      40.245  28.049  31.523  1.00  0.00    -0.203 F 
ATOM     86  F   UNL A   1      36.789  29.939  27.751  1.00  0.00    -0.200 F 
ATOM     87  C   UNL A   1      37.194  29.213  29.961  1.00  0.00     0.200 A 
ATOM     88  F   UNL A   1      37.653  28.482  32.159  1.00  0.00    -0.200 F 
ATOM     89  F   UNL A   1      35.915  29.444  30.287  1.00  0.00    -0.200 F 
ENDBRANCH  55  79
BRANCH  67  90
ATOM     90  C   UNL A   1      45.729  32.503  28.814  1.00  0.00     0.064 A 
ATOM     91  C   UNL A   1      46.246  32.889  30.060  1.00  0.00     0.173 A 
ATOM     92  C   UNL A   1      45.601  33.486  27.820  1.00  0.00     0.173 A 
ATOM     93  F   UNL A   1      46.372  31.988  31.045  1.00  0.00    -0.203 F 
ATOM     94  C   UNL A   1      46.617  34.208  30.301  1.00  0.00     0.198 A 
ATOM     95  C   UNL A   1      46.003  34.798  28.057  1.00  0.00     0.198 A 
ATOM     96  F   UNL A   1      45.119  33.167  26.610  1.00  0.00    -0.203 F 
ATOM     97  F   UNL A   1      47.083  34.560  31.508  1.00  0.00    -0.200 F 
ATOM     98  C   UNL A   1      46.508  35.158  29.296  1.00  0.00     0.200 A 
ATOM     99  F   UNL A   1      45.912  35.711  27.079  1.00  0.00    -0.200 F 
ATOM    100  F   UNL A   1      46.889  36.422  29.524  1.00  0.00    -0.200 F 
ENDBRANCH  67  90
ENDBRANCH  41  42
ENDBRANCH  33  36
ENDBRANCH  31  32
ENDBRANCH  30  31
ENDBRANCH   1  30
TORSDOF 15
ENDMDL
