MODEL 1
REMARK VINA RESULT:     -12.1      0.000      0.000
REMARK SMILES CC(C)[C@H]([NH2+]Cc1ccc(O)cn1)C(=O)NCCCNC(=O)c1ccc(-c2c3nc(c(-c4c(F)c(F)c(F)c(F)c4F)c4ccc([nH]4)c(-c4c(F)c(F)c(F)c(F)c4F)c4nc(c(-c5c(F)c(F)c(F)c(F)c5F)c5ccc2[nH]5)C=C4)C=C3)cc1
REMARK SMILES IDX 17 1 16 2 14 3 15 4 4 6 2 7 1 8 3 9 5 10 6 13 7 14 8 15
REMARK SMILES IDX 13 16 9 17 12 18 10 19 11 20 18 22 19 23 20 24 21 25 22 27
REMARK SMILES IDX 23 28 24 29 85 30 25 31 84 32 26 33 27 34 28 35 78 36 29 37
REMARK SMILES IDX 83 38 77 39 79 40 30 41 82 42 76 43 75 44 31 46 63 47 43 48
REMARK SMILES IDX 62 49 44 50 47 51 61 52 80 53 45 54 46 55 60 57 81 58 48 59
REMARK SMILES IDX 32 60 33 61 41 62 34 63 35 64 39 65 42 66 36 67 37 68 40 69
REMARK SMILES IDX 38 70 64 71 65 72 73 73 66 74 67 75 71 76 74 77 68 78 69 79
REMARK SMILES IDX 72 80 70 81 49 82 50 83 58 84 51 85 52 86 56 87 59 88 53 89
REMARK SMILES IDX 54 90 57 91 55 92
REMARK H PARENT 16 5 5 11 5 12 11 21 20 26 79 45 47 56
REMARK Flexibility Score: inf
ROOT
ATOM      1  C   UNL A   1      31.626  30.537  26.397  1.00  0.00     0.118 C 
ENDROOT
BRANCH   1   2
ATOM      2  N   UNL A   1      32.547  30.176  25.346  1.00  0.00    -0.351 N 
ATOM      3  C   UNL A   1      32.437  29.183  24.414  1.00  0.00     0.278 C 
ATOM      4  O   UNL A   1      33.307  29.125  23.541  1.00  0.00    -0.268 OA
ATOM      5  H   UNL A   1      33.366  30.719  25.293  1.00  0.00     0.163 HD
BRANCH   3   6
ATOM      6  C   UNL A   1      31.249  28.181  24.432  1.00  0.00     0.275 C 
BRANCH   6   7
ATOM      7  C   UNL A   1      31.552  26.783  25.081  1.00  0.00     0.051 C 
ATOM      8  C   UNL A   1      32.709  26.709  26.093  1.00  0.00     0.014 C 
ATOM      9  C   UNL A   1      30.319  26.088  25.673  1.00  0.00     0.014 C 
ENDBRANCH   6   7
BRANCH   6  10
ATOM     10  N   UNL A   1      30.651  28.163  23.080  1.00  0.00    -0.331 N 
ATOM     11  H   UNL A   1      30.856  27.261  22.649  1.00  0.00     0.347 HD
ATOM     12  H   UNL A   1      31.060  28.943  22.564  1.00  0.00     0.347 HD
BRANCH  10  13
ATOM     13  C   UNL A   1      29.197  28.361  23.071  1.00  0.00     0.318 C 
BRANCH  13  14
ATOM     14  C   UNL A   1      28.780  29.765  22.644  1.00  0.00     0.095 A 
ATOM     15  C   UNL A   1      28.530  30.776  23.579  1.00  0.00     0.033 A 
ATOM     16  N   UNL A   1      28.711  30.002  21.310  1.00  0.00    -0.251 NA
ATOM     17  C   UNL A   1      28.153  32.045  23.143  1.00  0.00     0.050 A 
ATOM     18  C   UNL A   1      28.350  31.247  20.912  1.00  0.00     0.157 A 
ATOM     19  C   UNL A   1      28.057  32.281  21.784  1.00  0.00     0.133 A 
BRANCH  19  20
ATOM     20  O   UNL A   1      27.688  33.495  21.293  1.00  0.00    -0.506 OA
ATOM     21  H   UNL A   1      27.206  33.550  20.492  1.00  0.00     0.293 HD
ENDBRANCH  19  20
ENDBRANCH  13  14
ENDBRANCH  10  13
ENDBRANCH   6  10
ENDBRANCH   3   6
ENDBRANCH   1   2
BRANCH   1  22
ATOM     22  C   UNL A   1      31.464  32.035  26.561  1.00  0.00     0.042 C 
BRANCH  22  23
ATOM     23  C   UNL A   1      32.641  32.683  27.268  1.00  0.00     0.118 C 
BRANCH  23  24
ATOM     24  N   UNL A   1      32.408  34.093  27.566  1.00  0.00    -0.352 N 
ATOM     25  C   UNL A   1      32.960  34.906  28.525  1.00  0.00     0.251 C 
ATOM     26  H   UNL A   1      31.747  34.534  26.984  1.00  0.00     0.163 HD
ATOM     27  O   UNL A   1      32.478  36.009  28.745  1.00  0.00    -0.269 OA
BRANCH  25  28
ATOM     28  C   UNL A   1      34.121  34.435  29.308  1.00  0.00     0.039 A 
ATOM     29  C   UNL A   1      33.905  33.804  30.534  1.00  0.00     0.014 A 
ATOM     30  C   UNL A   1      35.420  34.609  28.828  1.00  0.00     0.014 A 
ATOM     31  C   UNL A   1      34.988  33.273  31.236  1.00  0.00     0.010 A 
ATOM     32  C   UNL A   1      36.480  33.982  29.467  1.00  0.00     0.010 A 
ATOM     33  C   UNL A   1      36.278  33.316  30.684  1.00  0.00    -0.014 A 
BRANCH  33  34
ATOM     34  C   UNL A   1      37.438  32.687  31.362  1.00  0.00     0.031 A 
ATOM     35  C   UNL A   1      38.164  31.548  30.700  1.00  0.00     0.074 A 
ATOM     36  C   UNL A   1      37.789  33.092  32.599  1.00  0.00     0.049 A 
ATOM     37  N   UNL A   1      39.135  30.803  31.165  1.00  0.00    -0.248 NA
ATOM     38  C   UNL A   1      37.719  31.173  29.347  1.00  0.00     0.031 C 
ATOM     39  C   UNL A   1      37.129  34.154  33.363  1.00  0.00     0.029 A 
ATOM     40  N   UNL A   1      38.782  32.652  33.437  1.00  0.00    -0.354 N 
ATOM     41  C   UNL A   1      39.403  29.872  30.171  1.00  0.00     0.074 A 
ATOM     42  C   UNL A   1      38.452  30.096  29.108  1.00  0.00     0.031 C 
ATOM     43  C   UNL A   1      37.753  34.300  34.543  1.00  0.00     0.029 A 
ATOM     44  C   UNL A   1      38.824  33.315  34.640  1.00  0.00     0.049 A 
ATOM     45  H   UNL A   1      39.406  31.928  33.199  1.00  0.00     0.167 HD
ATOM     46  C   UNL A   1      40.379  28.933  30.135  1.00  0.00     0.037 A 
ATOM     47  C   UNL A   1      39.630  33.137  35.704  1.00  0.00     0.037 A 
ATOM     48  C   UNL A   1      41.341  28.731  31.185  1.00  0.00     0.049 A 
ATOM     49  C   UNL A   1      40.691  32.070  35.643  1.00  0.00     0.074 A 
ATOM     50  C   UNL A   1      42.397  27.839  31.227  1.00  0.00     0.029 A 
ATOM     51  N   UNL A   1      41.362  29.434  32.380  1.00  0.00    -0.354 N 
ATOM     52  N   UNL A   1      40.978  31.239  34.670  1.00  0.00    -0.248 NA
ATOM     53  C   UNL A   1      41.546  31.919  36.830  1.00  0.00     0.031 C 
ATOM     54  C   UNL A   1      43.028  27.968  32.467  1.00  0.00     0.029 A 
ATOM     55  C   UNL A   1      42.403  28.982  33.174  1.00  0.00     0.049 A 
ATOM     56  H   UNL A   1      40.731  30.149  32.627  1.00  0.00     0.167 HD
ATOM     57  C   UNL A   1      42.066  30.497  35.110  1.00  0.00     0.074 A 
ATOM     58  C   UNL A   1      42.398  30.986  36.431  1.00  0.00     0.031 C 
ATOM     59  C   UNL A   1      42.730  29.498  34.479  1.00  0.00     0.037 A 
BRANCH  46  60
ATOM     60  C   UNL A   1      40.466  28.064  28.914  1.00  0.00     0.064 A 
ATOM     61  C   UNL A   1      39.754  26.858  28.820  1.00  0.00     0.173 A 
ATOM     62  C   UNL A   1      41.224  28.465  27.803  1.00  0.00     0.173 A 
ATOM     63  F   UNL A   1      39.024  26.422  29.858  1.00  0.00    -0.203 F 
ATOM     64  C   UNL A   1      39.818  26.074  27.671  1.00  0.00     0.198 A 
ATOM     65  C   UNL A   1      41.258  27.695  26.644  1.00  0.00     0.198 A 
ATOM     66  F   UNL A   1      41.921  29.610  27.838  1.00  0.00    -0.203 F 
ATOM     67  F   UNL A   1      39.166  24.904  27.624  1.00  0.00    -0.200 F 
ATOM     68  C   UNL A   1      40.562  26.498  26.581  1.00  0.00     0.200 A 
ATOM     69  F   UNL A   1      41.967  28.113  25.585  1.00  0.00    -0.200 F 
ATOM     70  F   UNL A   1      40.609  25.750  25.470  1.00  0.00    -0.200 F 
ENDBRANCH  46  60
BRANCH  47  71
ATOM     71  C   UNL A   1      39.482  33.992  36.912  1.00  0.00     0.064 A 
ATOM     72  C   UNL A   1      40.121  35.237  36.996  1.00  0.00     0.173 A 
ATOM     73  C   UNL A   1      38.732  33.571  38.021  1.00  0.00     0.173 A 
ATOM     74  F   UNL A   1      40.864  35.678  35.969  1.00  0.00    -0.203 F 
ATOM     75  C   UNL A   1      40.047  36.011  38.153  1.00  0.00     0.198 A 
ATOM     76  C   UNL A   1      38.630  34.362  39.164  1.00  0.00     0.198 A 
ATOM     77  F   UNL A   1      38.091  32.394  37.992  1.00  0.00    -0.203 F 
ATOM     78  F   UNL A   1      40.720  37.167  38.226  1.00  0.00    -0.200 F 
ATOM     79  C   UNL A   1      39.298  35.574  39.234  1.00  0.00     0.200 A 
ATOM     80  F   UNL A   1      37.887  33.946  40.199  1.00  0.00    -0.200 F 
ATOM     81  F   UNL A   1      39.228  36.317  40.347  1.00  0.00    -0.200 F 
ENDBRANCH  47  71
BRANCH  59  82
ATOM     82  C   UNL A   1      43.915  28.903  35.184  1.00  0.00     0.064 A 
ATOM     83  C   UNL A   1      43.791  27.797  36.036  1.00  0.00     0.173 A 
ATOM     84  C   UNL A   1      45.200  29.426  34.968  1.00  0.00     0.173 A 
ATOM     85  F   UNL A   1      42.582  27.270  36.286  1.00  0.00    -0.203 F 
ATOM     86  C   UNL A   1      44.905  27.252  36.669  1.00  0.00     0.198 A 
ATOM     87  C   UNL A   1      46.316  28.857  35.575  1.00  0.00     0.198 A 
ATOM     88  F   UNL A   1      45.375  30.479  34.156  1.00  0.00    -0.203 F 
ATOM     89  F   UNL A   1      44.755  26.229  37.521  1.00  0.00    -0.200 F 
ATOM     90  C   UNL A   1      46.167  27.777  36.431  1.00  0.00     0.200 A 
ATOM     91  F   UNL A   1      47.536  29.355  35.331  1.00  0.00    -0.200 F 
ATOM     92  F   UNL A   1      47.239  27.246  37.035  1.00  0.00    -0.200 F 
ENDBRANCH  59  82
ENDBRANCH  33  34
ENDBRANCH  25  28
ENDBRANCH  23  24
ENDBRANCH  22  23
ENDBRANCH   1  22
TORSDOF 15
ENDMDL
MODEL 2
REMARK VINA RESULT:     -12.1      6.910     12.208
REMARK SMILES CC(C)[C@H]([NH2+]Cc1ccc(O)cn1)C(=O)NCCCNC(=O)c1ccc(-c2c3nc(c(-c4c(F)c(F)c(F)c(F)c4F)c4ccc([nH]4)c(-c4c(F)c(F)c(F)c(F)c4F)c4nc(c(-c5c(F)c(F)c(F)c(F)c5F)c5ccc2[nH]5)C=C4)C=C3)cc1
REMARK SMILES IDX 17 1 16 2 14 3 15 4 4 6 2 7 1 8 3 9 5 10 6 13 7 14 8 15
REMARK SMILES IDX 13 16 9 17 12 18 10 19 11 20 18 22 19 23 20 24 21 25 22 27
REMARK SMILES IDX 23 28 24 29 85 30 25 31 84 32 26 33 27 34 28 35 78 36 29 37
REMARK SMILES IDX 83 38 77 39 79 40 30 41 82 42 76 43 75 44 31 46 63 47 43 48
REMARK SMILES IDX 62 49 44 50 47 51 61 52 80 53 45 54 46 55 60 57 81 58 48 59
REMARK SMILES IDX 32 60 33 61 41 62 34 63 35 64 39 65 42 66 36 67 37 68 40 69
REMARK SMILES IDX 38 70 64 71 65 72 73 73 66 74 67 75 71 76 74 77 68 78 69 79
REMARK SMILES IDX 72 80 70 81 49 82 50 83 58 84 51 85 52 86 56 87 59 88 53 89
REMARK SMILES IDX 54 90 57 91 55 92
REMARK H PARENT 16 5 5 11 5 12 11 21 20 26 79 45 47 56
REMARK Flexibility Score: inf
ROOT
ATOM      1  C   UNL A   1      36.924  20.867  24.831  1.00  0.00     0.118 C 
ENDROOT
BRANCH   1   2
ATOM      2  N   UNL A   1      36.135  21.102  26.017  1.00  0.00    -0.351 N 
ATOM      3  C   UNL A   1      34.805  21.397  26.117  1.00  0.00     0.278 C 
ATOM      4  O   UNL A   1      34.320  21.455  27.250  1.00  0.00    -0.268 OA
ATOM      5  H   UNL A   1      36.622  21.040  26.870  1.00  0.00     0.163 HD
BRANCH   3   6
ATOM      6  C   UNL A   1      33.927  21.624  24.855  1.00  0.00     0.275 C 
BRANCH   6   7
ATOM      7  C   UNL A   1      33.701  23.124  24.448  1.00  0.00     0.051 C 
ATOM      8  C   UNL A   1      34.769  24.143  24.883  1.00  0.00     0.014 C 
ATOM      9  C   UNL A   1      33.387  23.328  22.960  1.00  0.00     0.014 C 
ENDBRANCH   6   7
BRANCH   6  10
ATOM     10  N   UNL A   1      32.714  20.790  24.992  1.00  0.00    -0.331 N 
ATOM     11  H   UNL A   1      31.904  21.407  25.047  1.00  0.00     0.347 HD
ATOM     12  H   UNL A   1      32.834  20.227  25.834  1.00  0.00     0.347 HD
BRANCH  10  13
ATOM     13  C   UNL A   1      32.509  19.854  23.879  1.00  0.00     0.318 C 
BRANCH  13  14
ATOM     14  C   UNL A   1      32.842  18.409  24.236  1.00  0.00     0.095 A 
ATOM     15  C   UNL A   1      33.712  17.639  23.455  1.00  0.00     0.033 A 
ATOM     16  N   UNL A   1      32.292  17.919  25.376  1.00  0.00    -0.251 NA
ATOM     17  C   UNL A   1      33.988  16.322  23.820  1.00  0.00     0.050 A 
ATOM     18  C   UNL A   1      32.584  16.638  25.713  1.00  0.00     0.157 A 
ATOM     19  C   UNL A   1      33.408  15.813  24.968  1.00  0.00     0.133 A 
BRANCH  19  20
ATOM     20  O   UNL A   1      33.633  14.535  25.376  1.00  0.00    -0.506 OA
ATOM     21  H   UNL A   1      33.900  13.886  24.755  1.00  0.00     0.293 HD
ENDBRANCH  19  20
ENDBRANCH  13  14
ENDBRANCH  10  13
ENDBRANCH   6  10
ENDBRANCH   3   6
ENDBRANCH   1   2
BRANCH   1  22
ATOM     22  C   UNL A   1      37.960  19.776  25.008  1.00  0.00     0.042 C 
BRANCH  22  23
ATOM     23  C   UNL A   1      39.189  20.246  25.765  1.00  0.00     0.118 C 
BRANCH  23  24
ATOM     24  N   UNL A   1      40.191  19.194  25.916  1.00  0.00    -0.352 N 
ATOM     25  C   UNL A   1      41.552  19.274  26.082  1.00  0.00     0.251 C 
ATOM     26  H   UNL A   1      39.832  18.278  25.895  1.00  0.00     0.163 HD
ATOM     27  O   UNL A   1      42.242  18.268  25.982  1.00  0.00    -0.269 OA
BRANCH  25  28
ATOM     28  C   UNL A   1      42.183  20.581  26.358  1.00  0.00     0.039 A 
ATOM     29  C   UNL A   1      42.601  21.375  25.288  1.00  0.00     0.014 A 
ATOM     30  C   UNL A   1      42.354  21.026  27.670  1.00  0.00     0.014 A 
ATOM     31  C   UNL A   1      43.113  22.649  25.535  1.00  0.00     0.010 A 
ATOM     32  C   UNL A   1      42.753  22.333  27.908  1.00  0.00     0.010 A 
ATOM     33  C   UNL A   1      43.147  23.157  26.844  1.00  0.00    -0.014 A 
BRANCH  33  34
ATOM     34  C   UNL A   1      43.605  24.538  27.133  1.00  0.00     0.031 A 
ATOM     35  C   UNL A   1      42.628  25.555  27.658  1.00  0.00     0.074 A 
ATOM     36  C   UNL A   1      44.875  24.893  26.855  1.00  0.00     0.049 A 
ATOM     37  N   UNL A   1      42.803  26.833  27.881  1.00  0.00    -0.248 NA
ATOM     38  C   UNL A   1      41.262  25.081  27.939  1.00  0.00     0.031 C 
ATOM     39  C   UNL A   1      45.900  24.008  26.297  1.00  0.00     0.029 A 
ATOM     40  N   UNL A   1      45.519  26.096  26.994  1.00  0.00    -0.354 N 
ATOM     41  C   UNL A   1      41.574  27.310  28.313  1.00  0.00     0.074 A 
ATOM     42  C   UNL A   1      40.643  26.208  28.256  1.00  0.00     0.031 C 
ATOM     43  C   UNL A   1      47.049  24.690  26.169  1.00  0.00     0.029 A 
ATOM     44  C   UNL A   1      46.832  26.070  26.589  1.00  0.00     0.049 A 
ATOM     45  H   UNL A   1      45.081  26.903  27.350  1.00  0.00     0.167 HD
ATOM     46  C   UNL A   1      41.257  28.552  28.751  1.00  0.00     0.037 A 
ATOM     47  C   UNL A   1      47.750  27.054  26.551  1.00  0.00     0.037 A 
ATOM     48  C   UNL A   1      42.194  29.641  28.831  1.00  0.00     0.049 A 
ATOM     49  C   UNL A   1      47.363  28.431  27.024  1.00  0.00     0.074 A 
ATOM     50  C   UNL A   1      41.987  30.925  29.302  1.00  0.00     0.029 A 
ATOM     51  N   UNL A   1      43.519  29.570  28.429  1.00  0.00    -0.354 N 
ATOM     52  N   UNL A   1      46.214  28.854  27.493  1.00  0.00    -0.248 NA
ATOM     53  C   UNL A   1      48.403  29.467  26.965  1.00  0.00     0.031 C 
ATOM     54  C   UNL A   1      43.173  31.645  29.141  1.00  0.00     0.029 A 
ATOM     55  C   UNL A   1      44.136  30.795  28.624  1.00  0.00     0.049 A 
ATOM     56  H   UNL A   1      43.957  28.769  28.060  1.00  0.00     0.167 HD
ATOM     57  C   UNL A   1      46.404  30.190  27.821  1.00  0.00     0.074 A 
ATOM     58  C   UNL A   1      47.783  30.503  27.511  1.00  0.00     0.031 C 
ATOM     59  C   UNL A   1      45.517  31.080  28.329  1.00  0.00     0.037 A 
BRANCH  46  60
ATOM     60  C   UNL A   1      39.843  28.797  29.193  1.00  0.00     0.064 A 
ATOM     61  C   UNL A   1      38.861  29.241  28.294  1.00  0.00     0.173 A 
ATOM     62  C   UNL A   1      39.451  28.535  30.514  1.00  0.00     0.173 A 
ATOM     63  F   UNL A   1      39.185  29.518  27.022  1.00  0.00    -0.203 F 
ATOM     64  C   UNL A   1      37.545  29.436  28.706  1.00  0.00     0.198 A 
ATOM     65  C   UNL A   1      38.128  28.699  30.915  1.00  0.00     0.198 A 
ATOM     66  F   UNL A   1      40.349  28.106  31.413  1.00  0.00    -0.203 F 
ATOM     67  F   UNL A   1      36.636  29.904  27.841  1.00  0.00    -0.200 F 
ATOM     68  C   UNL A   1      37.179  29.156  30.014  1.00  0.00     0.200 A 
ATOM     69  F   UNL A   1      37.771  28.414  32.176  1.00  0.00    -0.200 F 
ATOM     70  F   UNL A   1      35.908  29.328  30.406  1.00  0.00    -0.200 F 
ENDBRANCH  46  60
BRANCH  47  71
ATOM     71  C   UNL A   1      49.129  26.779  26.066  1.00  0.00     0.064 A 
ATOM     72  C   UNL A   1      49.484  27.016  24.730  1.00  0.00     0.173 A 
ATOM     73  C   UNL A   1      50.111  26.241  26.912  1.00  0.00     0.173 A 
ATOM     74  F   UNL A   1      48.577  27.515  23.876  1.00  0.00    -0.203 F 
ATOM     75  C   UNL A   1      50.752  26.693  24.250  1.00  0.00     0.198 A 
ATOM     76  C   UNL A   1      51.389  25.951  26.440  1.00  0.00     0.198 A 
ATOM     77  F   UNL A   1      49.831  26.003  28.202  1.00  0.00    -0.203 F 
ATOM     78  F   UNL A   1      51.041  26.872  22.954  1.00  0.00    -0.200 F 
ATOM     79  C   UNL A   1      51.705  26.164  25.107  1.00  0.00     0.200 A 
ATOM     80  F   UNL A   1      52.314  25.459  27.276  1.00  0.00    -0.200 F 
ATOM     81  F   UNL A   1      52.923  25.851  24.646  1.00  0.00    -0.200 F 
ENDBRANCH  47  71
BRANCH  59  82
ATOM     82  C   UNL A   1      46.023  32.461  28.635  1.00  0.00     0.064 A 
ATOM     83  C   UNL A   1      45.944  33.501  27.698  1.00  0.00     0.173 A 
ATOM     84  C   UNL A   1      46.555  32.754  29.901  1.00  0.00     0.173 A 
ATOM     85  F   UNL A   1      45.457  33.268  26.469  1.00  0.00    -0.203 F 
ATOM     86  C   UNL A   1      46.406  34.778  28.007  1.00  0.00     0.198 A 
ATOM     87  C   UNL A   1      46.983  34.039  30.217  1.00  0.00     0.198 A 
ATOM     88  F   UNL A   1      46.645  31.797  30.836  1.00  0.00    -0.203 F 
ATOM     89  F   UNL A   1      46.371  35.743  27.078  1.00  0.00    -0.200 F 
ATOM     90  C   UNL A   1      46.916  35.048  29.268  1.00  0.00     0.200 A 
ATOM     91  F   UNL A   1      47.460  34.303  31.442  1.00  0.00    -0.200 F 
ATOM     92  F   UNL A   1      47.352  36.280  29.566  1.00  0.00    -0.200 F 
ENDBRANCH  59  82
ENDBRANCH  33  34
ENDBRANCH  25  28
ENDBRANCH  23  24
ENDBRANCH  22  23
ENDBRANCH   1  22
TORSDOF 15
ENDMDL
MODEL 3
REMARK VINA RESULT:     -12.0      6.811     12.096
REMARK SMILES CC(C)[C@H]([NH2+]Cc1ccc(O)cn1)C(=O)NCCCNC(=O)c1ccc(-c2c3nc(c(-c4c(F)c(F)c(F)c(F)c4F)c4ccc([nH]4)c(-c4c(F)c(F)c(F)c(F)c4F)c4nc(c(-c5c(F)c(F)c(F)c(F)c5F)c5ccc2[nH]5)C=C4)C=C3)cc1
REMARK SMILES IDX 17 1 16 2 14 3 15 4 4 6 2 7 1 8 3 9 5 10 6 13 7 14 8 15
REMARK SMILES IDX 13 16 9 17 12 18 10 19 11 20 18 22 19 23 20 24 21 25 22 27
REMARK SMILES IDX 23 28 24 29 85 30 25 31 84 32 26 33 27 34 28 35 78 36 29 37
REMARK SMILES IDX 83 38 77 39 79 40 30 41 82 42 76 43 75 44 31 46 63 47 43 48
REMARK SMILES IDX 62 49 44 50 47 51 61 52 80 53 45 54 46 55 60 57 81 58 48 59
REMARK SMILES IDX 32 60 33 61 41 62 34 63 35 64 39 65 42 66 36 67 37 68 40 69
REMARK SMILES IDX 38 70 64 71 65 72 73 73 66 74 67 75 71 76 74 77 68 78 69 79
REMARK SMILES IDX 72 80 70 81 49 82 50 83 58 84 51 85 52 86 56 87 59 88 53 89
REMARK SMILES IDX 54 90 57 91 55 92
REMARK H PARENT 16 5 5 11 5 12 11 21 20 26 79 45 47 56
REMARK Flexibility Score: inf
ROOT
ATOM      1  C   UNL A   1      36.817  20.879  24.862  1.00  0.00     0.118 C 
ENDROOT
BRANCH   1   2
ATOM      2  N   UNL A   1      36.063  21.101  26.073  1.00  0.00    -0.351 N 
ATOM      3  C   UNL A   1      34.749  21.446  26.213  1.00  0.00     0.278 C 
ATOM      4  O   UNL A   1      34.290  21.481  27.359  1.00  0.00    -0.268 OA
ATOM      5  H   UNL A   1      36.564  20.988  26.913  1.00  0.00     0.163 HD
BRANCH   3   6
ATOM      6  C   UNL A   1      33.854  21.754  24.980  1.00  0.00     0.275 C 
BRANCH   6   7
ATOM      7  C   UNL A   1      33.601  23.277  24.692  1.00  0.00     0.051 C 
ATOM      8  C   UNL A   1      34.497  24.294  25.422  1.00  0.00     0.014 C 
ATOM      9  C   UNL A   1      33.549  23.631  23.200  1.00  0.00     0.014 C 
ENDBRANCH   6   7
BRANCH   6  10
ATOM     10  N   UNL A   1      32.656  20.892  25.063  1.00  0.00    -0.331 N 
ATOM     11  H   UNL A   1      31.830  21.491  25.074  1.00  0.00     0.347 HD
ATOM     12  H   UNL A   1      32.747  20.338  25.914  1.00  0.00     0.347 HD
BRANCH  10  13
ATOM     13  C   UNL A   1      32.528  19.946  23.949  1.00  0.00     0.318 C 
BRANCH  13  14
ATOM     14  C   UNL A   1      32.980  18.532  24.302  1.00  0.00     0.095 A 
ATOM     15  C   UNL A   1      34.213  18.024  23.876  1.00  0.00     0.033 A 
ATOM     16  N   UNL A   1      32.150  17.805  25.093  1.00  0.00    -0.251 NA
ATOM     17  C   UNL A   1      34.585  16.727  24.224  1.00  0.00     0.050 A 
ATOM     18  C   UNL A   1      32.540  16.549  25.424  1.00  0.00     0.157 A 
ATOM     19  C   UNL A   1      33.729  15.976  25.008  1.00  0.00     0.133 A 
BRANCH  19  20
ATOM     20  O   UNL A   1      34.030  14.701  25.378  1.00  0.00    -0.506 OA
ATOM     21  H   UNL A   1      34.765  14.537  25.936  1.00  0.00     0.293 HD
ENDBRANCH  19  20
ENDBRANCH  13  14
ENDBRANCH  10  13
ENDBRANCH   6  10
ENDBRANCH   3   6
ENDBRANCH   1   2
BRANCH   1  22
ATOM     22  C   UNL A   1      37.872  19.801  25.004  1.00  0.00     0.042 C 
BRANCH  22  23
ATOM     23  C   UNL A   1      39.101  20.274  25.759  1.00  0.00     0.118 C 
BRANCH  23  24
ATOM     24  N   UNL A   1      40.095  19.218  25.930  1.00  0.00    -0.352 N 
ATOM     25  C   UNL A   1      41.453  19.291  26.118  1.00  0.00     0.251 C 
ATOM     26  H   UNL A   1      39.732  18.303  25.906  1.00  0.00     0.163 HD
ATOM     27  O   UNL A   1      42.140  18.282  26.032  1.00  0.00    -0.269 OA
BRANCH  25  28
ATOM     28  C   UNL A   1      42.087  20.596  26.401  1.00  0.00     0.039 A 
ATOM     29  C   UNL A   1      42.487  21.404  25.334  1.00  0.00     0.014 A 
ATOM     30  C   UNL A   1      42.277  21.025  27.715  1.00  0.00     0.014 A 
ATOM     31  C   UNL A   1      43.000  22.676  25.589  1.00  0.00     0.010 A 
ATOM     32  C   UNL A   1      42.677  22.330  27.963  1.00  0.00     0.010 A 
ATOM     33  C   UNL A   1      43.053  23.167  26.903  1.00  0.00    -0.014 A 
BRANCH  33  34
ATOM     34  C   UNL A   1      43.513  24.546  27.202  1.00  0.00     0.031 A 
ATOM     35  C   UNL A   1      42.542  25.556  27.748  1.00  0.00     0.074 A 
ATOM     36  C   UNL A   1      44.781  24.904  26.914  1.00  0.00     0.049 A 
ATOM     37  N   UNL A   1      42.719  26.831  27.983  1.00  0.00    -0.248 NA
ATOM     38  C   UNL A   1      41.179  25.078  28.039  1.00  0.00     0.031 C 
ATOM     39  C   UNL A   1      45.800  24.026  26.335  1.00  0.00     0.029 A 
ATOM     40  N   UNL A   1      45.425  26.107  27.059  1.00  0.00    -0.354 N 
ATOM     41  C   UNL A   1      41.493  27.304  28.434  1.00  0.00     0.074 A 
ATOM     42  C   UNL A   1      40.562  26.201  28.375  1.00  0.00     0.031 C 
ATOM     43  C   UNL A   1      46.947  24.711  26.203  1.00  0.00     0.029 A 
ATOM     44  C   UNL A   1      46.733  26.087  26.640  1.00  0.00     0.049 A 
ATOM     45  H   UNL A   1      44.990  26.910  27.429  1.00  0.00     0.167 HD
ATOM     46  C   UNL A   1      41.181  28.540  28.889  1.00  0.00     0.037 A 
ATOM     47  C   UNL A   1      47.651  27.071  26.603  1.00  0.00     0.037 A 
ATOM     48  C   UNL A   1      42.117  29.629  28.970  1.00  0.00     0.049 A 
ATOM     49  C   UNL A   1      47.267  28.443  27.094  1.00  0.00     0.074 A 
ATOM     50  C   UNL A   1      41.914  30.907  29.458  1.00  0.00     0.029 A 
ATOM     51  N   UNL A   1      43.438  29.563  28.553  1.00  0.00    -0.354 N 
ATOM     52  N   UNL A   1      46.123  28.860  27.581  1.00  0.00    -0.248 NA
ATOM     53  C   UNL A   1      48.306  29.481  27.036  1.00  0.00     0.031 C 
ATOM     54  C   UNL A   1      43.098  31.631  29.291  1.00  0.00     0.029 A 
ATOM     55  C   UNL A   1      44.056  30.787  28.755  1.00  0.00     0.049 A 
ATOM     56  H   UNL A   1      43.872  28.767  28.170  1.00  0.00     0.167 HD
ATOM     57  C   UNL A   1      46.316  30.192  27.921  1.00  0.00     0.074 A 
ATOM     58  C   UNL A   1      47.691  30.510  27.600  1.00  0.00     0.031 C 
ATOM     59  C   UNL A   1      45.434  31.076  28.448  1.00  0.00     0.037 A 
BRANCH  46  60
ATOM     60  C   UNL A   1      39.771  28.779  29.348  1.00  0.00     0.064 A 
ATOM     61  C   UNL A   1      39.381  28.535  30.674  1.00  0.00     0.173 A 
ATOM     62  C   UNL A   1      38.813  29.308  28.470  1.00  0.00     0.173 A 
ATOM     63  F   UNL A   1      40.255  28.018  31.551  1.00  0.00    -0.203 F 
ATOM     64  C   UNL A   1      38.079  28.788  31.097  1.00  0.00     0.198 A 
ATOM     65  C   UNL A   1      37.521  29.591  28.906  1.00  0.00     0.198 A 
ATOM     66  F   UNL A   1      39.134  29.563  27.193  1.00  0.00    -0.203 F 
ATOM     67  F   UNL A   1      37.719  28.504  32.356  1.00  0.00    -0.200 F 
ATOM     68  C   UNL A   1      37.154  29.325  30.216  1.00  0.00     0.200 A 
ATOM     69  F   UNL A   1      36.631  30.124  28.056  1.00  0.00    -0.200 F 
ATOM     70  F   UNL A   1      35.905  29.583  30.629  1.00  0.00    -0.200 F 
ENDBRANCH  46  60
BRANCH  47  71
ATOM     71  C   UNL A   1      49.025  26.803  26.100  1.00  0.00     0.064 A 
ATOM     72  C   UNL A   1      49.355  27.022  24.755  1.00  0.00     0.173 A 
ATOM     73  C   UNL A   1      50.025  26.288  26.939  1.00  0.00     0.173 A 
ATOM     74  F   UNL A   1      48.429  27.498  23.908  1.00  0.00    -0.203 F 
ATOM     75  C   UNL A   1      50.618  26.705  24.260  1.00  0.00     0.198 A 
ATOM     76  C   UNL A   1      51.299  26.004  26.451  1.00  0.00     0.198 A 
ATOM     77  F   UNL A   1      49.768  26.068  28.236  1.00  0.00    -0.203 F 
ATOM     78  F   UNL A   1      50.885  26.866  22.957  1.00  0.00    -0.200 F 
ATOM     79  C   UNL A   1      51.590  26.199  25.109  1.00  0.00     0.200 A 
ATOM     80  F   UNL A   1      52.242  25.535  27.279  1.00  0.00    -0.200 F 
ATOM     81  F   UNL A   1      52.804  25.891  24.634  1.00  0.00    -0.200 F 
ENDBRANCH  47  71
BRANCH  59  82
ATOM     82  C   UNL A   1      45.941  32.454  28.763  1.00  0.00     0.064 A 
ATOM     83  C   UNL A   1      46.535  32.759  29.996  1.00  0.00     0.173 A 
ATOM     84  C   UNL A   1      45.869  33.471  27.798  1.00  0.00     0.173 A 
ATOM     85  F   UNL A   1      46.615  31.826  30.958  1.00  0.00    -0.203 F 
ATOM     86  C   UNL A   1      47.012  34.040  30.262  1.00  0.00     0.198 A 
ATOM     87  C   UNL A   1      46.379  34.740  28.055  1.00  0.00     0.198 A 
ATOM     88  F   UNL A   1      45.318  33.228  26.599  1.00  0.00    -0.203 F 
ATOM     89  F   UNL A   1      47.526  34.324  31.467  1.00  0.00    -0.200 F 
ATOM     90  C   UNL A   1      46.942  35.026  29.289  1.00  0.00     0.200 A 
ATOM     91  F   UNL A   1      46.325  35.686  27.108  1.00  0.00    -0.200 F 
ATOM     92  F   UNL A   1      47.409  36.256  29.544  1.00  0.00    -0.200 F 
ENDBRANCH  59  82
ENDBRANCH  33  34
ENDBRANCH  25  28
ENDBRANCH  23  24
ENDBRANCH  22  23
ENDBRANCH   1  22
TORSDOF 15
ENDMDL
