MODEL 1
REMARK VINA RESULT:     -11.6      0.000      0.000
REMARK SMILES CCC[C@@H](Oc1ccc(-c2ccccc2)cc1)C(=O)NCCCNC(=O)c1ccc(-c2c3nc(c(-c4c(F)c(F)c(F)c(F)c4F)c4ccc([nH]4)c(-c4c(F)c(F)c(F)c(F)c4F)c4nc(c(-c5c(F)c(F)c(F)c(F)c5F)c5ccc2[nH]5)C=C4)C=C3)cc1
REMARK SMILES IDX 21 1 20 2 18 3 19 4 4 6 3 7 2 8 1 9 5 10 6 11 7 12 17 13
REMARK SMILES IDX 8 14 16 15 9 16 10 17 11 18 15 19 12 20 14 21 13 22 22 23
REMARK SMILES IDX 23 24 24 25 25 26 26 28 27 29 28 30 89 31 29 32 88 33 30 34
REMARK SMILES IDX 31 35 32 36 82 37 33 38 87 39 81 40 83 41 34 42 86 43 80 44
REMARK SMILES IDX 79 45 35 47 67 48 47 49 66 50 48 51 51 52 65 53 84 54 49 55
REMARK SMILES IDX 50 56 64 58 85 59 52 60 36 61 37 62 45 63 38 64 39 65 43 66
REMARK SMILES IDX 46 67 40 68 41 69 44 70 42 71 68 72 69 73 77 74 70 75 71 76
REMARK SMILES IDX 75 77 78 78 72 79 73 80 76 81 74 82 53 83 54 84 62 85 55 86
REMARK SMILES IDX 56 87 60 88 63 89 57 90 58 91 61 92 59 93
REMARK H PARENT 20 5 24 27 83 46 51 57
REMARK Flexibility Score: inf
ROOT
ATOM      1  C   UNL A   1      33.651  28.120  23.104  1.00  0.00     0.118 C 
ENDROOT
BRANCH   1   2
ATOM      2  N   UNL A   1      32.849  27.547  22.031  1.00  0.00    -0.353 N 
ATOM      3  C   UNL A   1      32.014  26.461  22.048  1.00  0.00     0.261 C 
ATOM      4  O   UNL A   1      31.403  26.189  21.010  1.00  0.00    -0.271 OA
ATOM      5  H   UNL A   1      32.919  28.010  21.165  1.00  0.00     0.163 HD
BRANCH   3   6
ATOM      6  C   UNL A   1      31.911  25.564  23.296  1.00  0.00     0.261 C 
BRANCH   6   7
ATOM      7  C   UNL A   1      30.411  25.485  23.660  1.00  0.00     0.055 C 
BRANCH   7   8
ATOM      8  C   UNL A   1      29.929  26.097  24.984  1.00  0.00     0.001 C 
ATOM      9  C   UNL A   1      30.975  26.220  26.074  1.00  0.00     0.004 C 
ENDBRANCH   7   8
ENDBRANCH   6   7
BRANCH   6  10
ATOM     10  O   UNL A   1      32.587  24.363  22.889  1.00  0.00    -0.481 OA
BRANCH  10  11
ATOM     11  C   UNL A   1      33.735  24.070  23.542  1.00  0.00     0.120 A 
ATOM     12  C   UNL A   1      34.030  24.719  24.732  1.00  0.00     0.047 A 
ATOM     13  C   UNL A   1      34.679  23.256  22.937  1.00  0.00     0.047 A 
ATOM     14  C   UNL A   1      35.242  24.453  25.376  1.00  0.00     0.012 A 
ATOM     15  C   UNL A   1      35.857  22.946  23.609  1.00  0.00     0.012 A 
ATOM     16  C   UNL A   1      36.163  23.526  24.851  1.00  0.00    -0.018 A 
BRANCH  16  17
ATOM     17  C   UNL A   1      37.400  23.157  25.573  1.00  0.00    -0.018 A 
ATOM     18  C   UNL A   1      37.967  21.876  25.447  1.00  0.00     0.009 A 
ATOM     19  C   UNL A   1      38.082  24.086  26.382  1.00  0.00     0.009 A 
ATOM     20  C   UNL A   1      39.158  21.539  26.095  1.00  0.00     0.001 A 
ATOM     21  C   UNL A   1      39.282  23.758  27.019  1.00  0.00     0.001 A 
ATOM     22  C   UNL A   1      39.818  22.483  26.877  1.00  0.00     0.000 A 
ENDBRANCH  16  17
ENDBRANCH  10  11
ENDBRANCH   6  10
ENDBRANCH   3   6
ENDBRANCH   1   2
BRANCH   1  23
ATOM     23  C   UNL A   1      32.805  28.827  24.150  1.00  0.00     0.042 C 
BRANCH  23  24
ATOM     24  C   UNL A   1      33.575  29.193  25.407  1.00  0.00     0.118 C 
BRANCH  24  25
ATOM     25  N   UNL A   1      33.152  30.469  25.967  1.00  0.00    -0.352 N 
ATOM     26  C   UNL A   1      33.621  31.162  27.056  1.00  0.00     0.251 C 
ATOM     27  H   UNL A   1      32.412  30.906  25.488  1.00  0.00     0.163 HD
ATOM     28  O   UNL A   1      32.994  32.126  27.479  1.00  0.00    -0.269 OA
BRANCH  26  29
ATOM     29  C   UNL A   1      34.865  30.738  27.732  1.00  0.00     0.039 A 
ATOM     30  C   UNL A   1      35.940  31.631  27.785  1.00  0.00     0.014 A 
ATOM     31  C   UNL A   1      34.987  29.465  28.291  1.00  0.00     0.014 A 
ATOM     32  C   UNL A   1      37.108  31.270  28.457  1.00  0.00     0.010 A 
ATOM     33  C   UNL A   1      36.113  29.142  29.042  1.00  0.00     0.010 A 
ATOM     34  C   UNL A   1      37.189  30.037  29.126  1.00  0.00    -0.014 A 
BRANCH  34  35
ATOM     35  C   UNL A   1      38.390  29.663  29.913  1.00  0.00     0.031 A 
ATOM     36  C   UNL A   1      38.601  30.231  31.289  1.00  0.00     0.074 A 
ATOM     37  C   UNL A   1      39.322  28.860  29.363  1.00  0.00     0.049 A 
ATOM     38  N   UNL A   1      39.614  30.075  32.104  1.00  0.00    -0.248 NA
ATOM     39  C   UNL A   1      37.545  31.114  31.807  1.00  0.00     0.031 C 
ATOM     40  C   UNL A   1      39.251  28.277  28.023  1.00  0.00     0.029 A 
ATOM     41  N   UNL A   1      40.515  28.401  29.862  1.00  0.00    -0.354 N 
ATOM     42  C   UNL A   1      39.321  30.845  33.222  1.00  0.00     0.074 A 
ATOM     43  C   UNL A   1      38.069  31.520  32.954  1.00  0.00     0.031 C 
ATOM     44  C   UNL A   1      40.334  27.511  27.818  1.00  0.00     0.029 A 
ATOM     45  C   UNL A   1      41.197  27.586  28.993  1.00  0.00     0.049 A 
ATOM     46  H   UNL A   1      40.849  28.633  30.759  1.00  0.00     0.167 HD
ATOM     47  C   UNL A   1      40.017  30.958  34.379  1.00  0.00     0.037 A 
ATOM     48  C   UNL A   1      42.389  26.974  29.127  1.00  0.00     0.037 A 
ATOM     49  C   UNL A   1      41.257  30.276  34.645  1.00  0.00     0.049 A 
ATOM     50  C   UNL A   1      43.164  27.149  30.405  1.00  0.00     0.074 A 
ATOM     51  C   UNL A   1      42.019  30.288  35.799  1.00  0.00     0.029 A 
ATOM     52  N   UNL A   1      41.923  29.466  33.735  1.00  0.00    -0.354 N 
ATOM     53  N   UNL A   1      42.845  27.825  31.482  1.00  0.00    -0.248 NA
ATOM     54  C   UNL A   1      44.465  26.471  30.486  1.00  0.00     0.031 C 
ATOM     55  C   UNL A   1      43.174  29.532  35.570  1.00  0.00     0.029 A 
ATOM     56  C   UNL A   1      43.101  28.995  34.295  1.00  0.00     0.049 A 
ATOM     57  H   UNL A   1      41.605  29.256  32.828  1.00  0.00     0.167 HD
ATOM     58  C   UNL A   1      43.886  27.626  32.380  1.00  0.00     0.074 A 
ATOM     59  C   UNL A   1      44.839  26.755  31.725  1.00  0.00     0.031 C 
ATOM     60  C   UNL A   1      44.037  28.120  33.634  1.00  0.00     0.037 A 
BRANCH  47  61
ATOM     61  C   UNL A   1      39.450  31.857  35.442  1.00  0.00     0.064 A 
ATOM     62  C   UNL A   1      39.803  33.215  35.524  1.00  0.00     0.173 A 
ATOM     63  C   UNL A   1      38.532  31.363  36.380  1.00  0.00     0.173 A 
ATOM     64  F   UNL A   1      40.685  33.738  34.659  1.00  0.00    -0.203 F 
ATOM     65  C   UNL A   1      39.290  34.030  36.529  1.00  0.00     0.198 A 
ATOM     66  C   UNL A   1      37.992  32.192  37.362  1.00  0.00     0.198 A 
ATOM     67  F   UNL A   1      38.153  30.078  36.345  1.00  0.00    -0.203 F 
ATOM     68  F   UNL A   1      39.691  35.305  36.625  1.00  0.00    -0.200 F 
ATOM     69  C   UNL A   1      38.380  33.520  37.443  1.00  0.00     0.200 A 
ATOM     70  F   UNL A   1      37.100  31.701  38.234  1.00  0.00    -0.200 F 
ATOM     71  F   UNL A   1      37.884  34.307  38.408  1.00  0.00    -0.200 F 
ENDBRANCH  47  61
BRANCH  48  72
ATOM     72  C   UNL A   1      42.909  26.110  28.034  1.00  0.00     0.064 A 
ATOM     73  C   UNL A   1      42.689  24.725  28.047  1.00  0.00     0.173 A 
ATOM     74  C   UNL A   1      43.641  26.642  26.962  1.00  0.00     0.173 A 
ATOM     75  F   UNL A   1      42.012  24.167  29.062  1.00  0.00    -0.203 F 
ATOM     76  C   UNL A   1      43.198  23.904  27.044  1.00  0.00     0.198 A 
ATOM     77  C   UNL A   1      44.123  25.824  25.942  1.00  0.00     0.198 A 
ATOM     78  F   UNL A   1      43.877  27.961  26.897  1.00  0.00    -0.203 F 
ATOM     79  F   UNL A   1      43.013  22.579  27.109  1.00  0.00    -0.200 F 
ATOM     80  C   UNL A   1      43.909  24.455  25.990  1.00  0.00     0.200 A 
ATOM     81  F   UNL A   1      44.796  26.361  24.916  1.00  0.00    -0.200 F 
ATOM     82  F   UNL A   1      44.395  23.665  25.022  1.00  0.00    -0.200 F 
ENDBRANCH  48  72
BRANCH  60  83
ATOM     83  C   UNL A   1      45.256  27.692  34.400  1.00  0.00     0.064 A 
ATOM     84  C   UNL A   1      46.440  28.443  34.387  1.00  0.00     0.173 A 
ATOM     85  C   UNL A   1      45.226  26.530  35.187  1.00  0.00     0.173 A 
ATOM     86  F   UNL A   1      46.528  29.554  33.639  1.00  0.00    -0.203 F 
ATOM     87  C   UNL A   1      47.558  28.031  35.110  1.00  0.00     0.198 A 
ATOM     88  C   UNL A   1      46.332  26.140  35.936  1.00  0.00     0.198 A 
ATOM     89  F   UNL A   1      44.116  25.778  35.240  1.00  0.00    -0.203 F 
ATOM     90  F   UNL A   1      48.696  28.735  35.039  1.00  0.00    -0.200 F 
ATOM     91  C   UNL A   1      47.500  26.886  35.890  1.00  0.00     0.200 A 
ATOM     92  F   UNL A   1      46.269  25.042  36.701  1.00  0.00    -0.200 F 
ATOM     93  F   UNL A   1      48.573  26.496  36.591  1.00  0.00    -0.200 F 
ENDBRANCH  60  83
ENDBRANCH  34  35
ENDBRANCH  26  29
ENDBRANCH  24  25
ENDBRANCH  23  24
ENDBRANCH   1  23
TORSDOF 15
ENDMDL
MODEL 2
REMARK VINA RESULT:     -11.5      1.925      3.101
REMARK SMILES CCC[C@@H](Oc1ccc(-c2ccccc2)cc1)C(=O)NCCCNC(=O)c1ccc(-c2c3nc(c(-c4c(F)c(F)c(F)c(F)c4F)c4ccc([nH]4)c(-c4c(F)c(F)c(F)c(F)c4F)c4nc(c(-c5c(F)c(F)c(F)c(F)c5F)c5ccc2[nH]5)C=C4)C=C3)cc1
REMARK SMILES IDX 21 1 20 2 18 3 19 4 4 6 3 7 2 8 1 9 5 10 6 11 7 12 17 13
REMARK SMILES IDX 8 14 16 15 9 16 10 17 11 18 15 19 12 20 14 21 13 22 22 23
REMARK SMILES IDX 23 24 24 25 25 26 26 28 27 29 28 30 89 31 29 32 88 33 30 34
REMARK SMILES IDX 31 35 32 36 82 37 33 38 87 39 81 40 83 41 34 42 86 43 80 44
REMARK SMILES IDX 79 45 35 47 67 48 47 49 66 50 48 51 51 52 65 53 84 54 49 55
REMARK SMILES IDX 50 56 64 58 85 59 52 60 36 61 37 62 45 63 38 64 39 65 43 66
REMARK SMILES IDX 46 67 40 68 41 69 44 70 42 71 68 72 69 73 77 74 70 75 71 76
REMARK SMILES IDX 75 77 78 78 72 79 73 80 76 81 74 82 53 83 54 84 62 85 55 86
REMARK SMILES IDX 56 87 60 88 63 89 57 90 58 91 61 92 59 93
REMARK H PARENT 20 5 24 27 83 46 51 57
REMARK Flexibility Score: inf
ROOT
ATOM      1  C   UNL A   1      31.442  30.586  25.921  1.00  0.00     0.118 C 
ENDROOT
BRANCH   1   2
ATOM      2  N   UNL A   1      30.899  30.493  24.573  1.00  0.00    -0.353 N 
ATOM      3  C   UNL A   1      30.697  29.388  23.785  1.00  0.00     0.261 C 
ATOM      4  O   UNL A   1      30.179  29.559  22.678  1.00  0.00    -0.271 OA
ATOM      5  H   UNL A   1      30.638  31.351  24.166  1.00  0.00     0.163 HD
BRANCH   3   6
ATOM      6  C   UNL A   1      31.181  27.998  24.239  1.00  0.00     0.261 C 
BRANCH   6   7
ATOM      7  C   UNL A   1      30.107  26.986  23.778  1.00  0.00     0.055 C 
BRANCH   7   8
ATOM      8  C   UNL A   1      29.818  25.754  24.649  1.00  0.00     0.001 C 
ATOM      9  C   UNL A   1      30.239  25.859  26.102  1.00  0.00     0.004 C 
ENDBRANCH   7   8
ENDBRANCH   6   7
BRANCH   6  10
ATOM     10  O   UNL A   1      32.497  27.912  23.671  1.00  0.00    -0.481 OA
BRANCH  10  11
ATOM     11  C   UNL A   1      33.161  26.749  23.868  1.00  0.00     0.120 A 
ATOM     12  C   UNL A   1      33.719  26.483  25.109  1.00  0.00     0.047 A 
ATOM     13  C   UNL A   1      33.422  25.918  22.791  1.00  0.00     0.047 A 
ATOM     14  C   UNL A   1      34.450  25.306  25.294  1.00  0.00     0.012 A 
ATOM     15  C   UNL A   1      34.097  24.717  22.992  1.00  0.00     0.012 A 
ATOM     16  C   UNL A   1      34.617  24.375  24.251  1.00  0.00    -0.018 A 
BRANCH  16  17
ATOM     17  C   UNL A   1      35.298  23.078  24.459  1.00  0.00    -0.018 A 
ATOM     18  C   UNL A   1      36.700  22.974  24.430  1.00  0.00     0.009 A 
ATOM     19  C   UNL A   1      34.571  21.904  24.738  1.00  0.00     0.009 A 
ATOM     20  C   UNL A   1      37.345  21.758  24.668  1.00  0.00     0.001 A 
ATOM     21  C   UNL A   1      35.213  20.691  24.992  1.00  0.00     0.001 A 
ATOM     22  C   UNL A   1      36.601  20.618  24.954  1.00  0.00     0.000 A 
ENDBRANCH  16  17
ENDBRANCH  10  11
ENDBRANCH   6  10
ENDBRANCH   3   6
ENDBRANCH   1   2
BRANCH   1  23
ATOM     23  C   UNL A   1      31.300  31.980  26.510  1.00  0.00     0.042 C 
BRANCH  23  24
ATOM     24  C   UNL A   1      32.585  32.516  27.117  1.00  0.00     0.118 C 
BRANCH  24  25
ATOM     25  N   UNL A   1      32.468  33.908  27.529  1.00  0.00    -0.352 N 
ATOM     26  C   UNL A   1      33.126  34.602  28.514  1.00  0.00     0.251 C 
ATOM     27  H   UNL A   1      31.813  34.436  27.019  1.00  0.00     0.163 HD
ATOM     28  O   UNL A   1      32.739  35.720  28.833  1.00  0.00    -0.269 OA
BRANCH  26  29
ATOM     29  C   UNL A   1      34.286  34.001  29.205  1.00  0.00     0.039 A 
ATOM     30  C   UNL A   1      34.055  33.099  30.248  1.00  0.00     0.014 A 
ATOM     31  C   UNL A   1      35.594  34.335  28.848  1.00  0.00     0.014 A 
ATOM     32  C   UNL A   1      35.135  32.485  30.884  1.00  0.00     0.010 A 
ATOM     33  C   UNL A   1      36.665  33.653  29.417  1.00  0.00     0.010 A 
ATOM     34  C   UNL A   1      36.448  32.727  30.447  1.00  0.00    -0.014 A 
BRANCH  34  35
ATOM     35  C   UNL A   1      37.605  32.027  31.056  1.00  0.00     0.031 A 
ATOM     36  C   UNL A   1      38.069  32.392  32.438  1.00  0.00     0.074 A 
ATOM     37  C   UNL A   1      38.277  31.105  30.339  1.00  0.00     0.049 A 
ATOM     38  N   UNL A   1      39.095  31.940  33.115  1.00  0.00    -0.248 NA
ATOM     39  C   UNL A   1      37.291  33.421  33.145  1.00  0.00     0.031 C 
ATOM     40  C   UNL A   1      37.949  30.692  28.974  1.00  0.00     0.029 A 
ATOM     41  N   UNL A   1      39.380  30.352  30.657  1.00  0.00    -0.354 N 
ATOM     42  C   UNL A   1      39.090  32.635  34.317  1.00  0.00     0.074 A 
ATOM     43  C   UNL A   1      38.001  33.585  34.252  1.00  0.00     0.031 C 
ATOM     44  C   UNL A   1      38.809  29.738  28.584  1.00  0.00     0.029 A 
ATOM     45  C   UNL A   1      39.777  29.505  29.653  1.00  0.00     0.049 A 
ATOM     46  H   UNL A   1      39.842  30.415  31.524  1.00  0.00     0.167 HD
ATOM     47  C   UNL A   1      39.902  32.478  35.391  1.00  0.00     0.037 A 
ATOM     48  C   UNL A   1      40.809  28.642  29.597  1.00  0.00     0.037 A 
ATOM     49  C   UNL A   1      40.978  31.524  35.455  1.00  0.00     0.049 A 
ATOM     50  C   UNL A   1      41.722  28.516  30.786  1.00  0.00     0.074 A 
ATOM     51  C   UNL A   1      41.832  31.254  36.510  1.00  0.00     0.029 A 
ATOM     52  N   UNL A   1      41.356  30.688  34.412  1.00  0.00    -0.354 N 
ATOM     53  N   UNL A   1      41.668  29.130  31.944  1.00  0.00    -0.248 NA
ATOM     54  C   UNL A   1      42.841  27.572  30.661  1.00  0.00     0.031 C 
ATOM     55  C   UNL A   1      42.761  30.297  36.088  1.00  0.00     0.029 A 
ATOM     56  C   UNL A   1      42.448  29.922  34.791  1.00  0.00     0.049 A 
ATOM     57  H   UNL A   1      40.914  30.645  33.534  1.00  0.00     0.167 HD
ATOM     58  C   UNL A   1      42.720  28.622  32.696  1.00  0.00     0.074 A 
ATOM     59  C   UNL A   1      43.387  27.640  31.867  1.00  0.00     0.031 C 
ATOM     60  C   UNL A   1      43.097  28.940  33.959  1.00  0.00     0.037 A 
BRANCH  47  61
ATOM     61  C   UNL A   1      39.655  33.362  36.580  1.00  0.00     0.064 A 
ATOM     62  C   UNL A   1      38.767  32.991  37.604  1.00  0.00     0.173 A 
ATOM     63  C   UNL A   1      40.324  34.589  36.710  1.00  0.00     0.173 A 
ATOM     64  F   UNL A   1      38.093  31.834  37.526  1.00  0.00    -0.203 F 
ATOM     65  C   UNL A   1      38.529  33.831  38.688  1.00  0.00     0.198 A 
ATOM     66  C   UNL A   1      40.111  35.410  37.814  1.00  0.00     0.198 A 
ATOM     67  F   UNL A   1      41.189  34.991  35.767  1.00  0.00    -0.203 F 
ATOM     68  F   UNL A   1      37.629  33.483  39.618  1.00  0.00    -0.200 F 
ATOM     69  C   UNL A   1      39.205  35.037  38.796  1.00  0.00     0.200 A 
ATOM     70  F   UNL A   1      40.778  36.567  37.925  1.00  0.00    -0.200 F 
ATOM     71  F   UNL A   1      38.978  35.844  39.841  1.00  0.00    -0.200 F 
ENDBRANCH  47  61
BRANCH  48  72
ATOM     72  C   UNL A   1      41.016  27.805  28.386  1.00  0.00     0.064 A 
ATOM     73  C   UNL A   1      41.819  28.258  27.330  1.00  0.00     0.173 A 
ATOM     74  C   UNL A   1      40.413  26.545  28.252  1.00  0.00     0.173 A 
ATOM     75  F   UNL A   1      42.399  29.466  27.403  1.00  0.00    -0.203 F 
ATOM     76  C   UNL A   1      41.994  27.495  26.178  1.00  0.00     0.198 A 
ATOM     77  C   UNL A   1      40.615  25.768  27.113  1.00  0.00     0.198 A 
ATOM     78  F   UNL A   1      39.640  26.062  29.235  1.00  0.00    -0.203 F 
ATOM     79  F   UNL A   1      42.727  27.975  25.164  1.00  0.00    -0.200 F 
ATOM     80  C   UNL A   1      41.397  26.248  26.073  1.00  0.00     0.200 A 
ATOM     81  F   UNL A   1      40.049  24.557  27.022  1.00  0.00    -0.200 F 
ATOM     82  F   UNL A   1      41.569  25.512  24.966  1.00  0.00    -0.200 F 
ENDBRANCH  48  72
BRANCH  60  83
ATOM     83  C   UNL A   1      44.258  28.186  34.541  1.00  0.00     0.064 A 
ATOM     84  C   UNL A   1      45.572  28.668  34.456  1.00  0.00     0.173 A 
ATOM     85  C   UNL A   1      44.046  26.978  35.225  1.00  0.00     0.173 A 
ATOM     86  F   UNL A   1      45.832  29.810  33.800  1.00  0.00    -0.203 F 
ATOM     87  C   UNL A   1      46.634  27.956  35.008  1.00  0.00     0.198 A 
ATOM     88  C   UNL A   1      45.105  26.286  35.806  1.00  0.00     0.198 A 
ATOM     89  F   UNL A   1      42.808  26.475  35.340  1.00  0.00    -0.203 F 
ATOM     90  F   UNL A   1      47.887  28.408  34.868  1.00  0.00    -0.200 F 
ATOM     91  C   UNL A   1      46.399  26.771  35.690  1.00  0.00     0.200 A 
ATOM     92  F   UNL A   1      44.873  25.150  36.477  1.00  0.00    -0.200 F 
ATOM     93  F   UNL A   1      47.420  26.091  36.228  1.00  0.00    -0.200 F 
ENDBRANCH  60  83
ENDBRANCH  34  35
ENDBRANCH  26  29
ENDBRANCH  24  25
ENDBRANCH  23  24
ENDBRANCH   1  23
TORSDOF 15
ENDMDL
MODEL 3
REMARK VINA RESULT:     -11.5      1.880      8.474
REMARK SMILES CCC[C@@H](Oc1ccc(-c2ccccc2)cc1)C(=O)NCCCNC(=O)c1ccc(-c2c3nc(c(-c4c(F)c(F)c(F)c(F)c4F)c4ccc([nH]4)c(-c4c(F)c(F)c(F)c(F)c4F)c4nc(c(-c5c(F)c(F)c(F)c(F)c5F)c5ccc2[nH]5)C=C4)C=C3)cc1
REMARK SMILES IDX 21 1 20 2 18 3 19 4 4 6 3 7 2 8 1 9 5 10 6 11 7 12 17 13
REMARK SMILES IDX 8 14 16 15 9 16 10 17 11 18 15 19 12 20 14 21 13 22 22 23
REMARK SMILES IDX 23 24 24 25 25 26 26 28 27 29 28 30 89 31 29 32 88 33 30 34
REMARK SMILES IDX 31 35 32 36 82 37 33 38 87 39 81 40 83 41 34 42 86 43 80 44
REMARK SMILES IDX 79 45 35 47 67 48 47 49 66 50 48 51 51 52 65 53 84 54 49 55
REMARK SMILES IDX 50 56 64 58 85 59 52 60 36 61 37 62 45 63 38 64 39 65 43 66
REMARK SMILES IDX 46 67 40 68 41 69 44 70 42 71 68 72 69 73 77 74 70 75 71 76
REMARK SMILES IDX 75 77 78 78 72 79 73 80 76 81 74 82 53 83 54 84 62 85 55 86
REMARK SMILES IDX 56 87 60 88 63 89 57 90 58 91 61 92 59 93
REMARK H PARENT 20 5 24 27 83 46 51 57
REMARK Flexibility Score: inf
ROOT
ATOM      1  C   UNL A   1      32.591  26.876  26.386  1.00  0.00     0.118 C 
ENDROOT
BRANCH   1   2
ATOM      2  N   UNL A   1      31.604  25.893  26.808  1.00  0.00    -0.353 N 
ATOM      3  C   UNL A   1      31.122  24.795  26.143  1.00  0.00     0.261 C 
ATOM      4  O   UNL A   1      30.306  24.079  26.730  1.00  0.00    -0.271 OA
ATOM      5  H   UNL A   1      31.226  26.038  27.706  1.00  0.00     0.163 HD
BRANCH   3   6
ATOM      6  C   UNL A   1      31.523  24.521  24.681  1.00  0.00     0.261 C 
BRANCH   6   7
ATOM      7  C   UNL A   1      32.194  23.127  24.662  1.00  0.00     0.055 C 
BRANCH   7   8
ATOM      8  C   UNL A   1      33.582  22.957  25.296  1.00  0.00     0.001 C 
ATOM      9  C   UNL A   1      34.132  21.544  25.311  1.00  0.00     0.004 C 
ENDBRANCH   7   8
ENDBRANCH   6   7
BRANCH   6  10
ATOM     10  O   UNL A   1      30.291  24.703  23.966  1.00  0.00    -0.481 OA
BRANCH  10  11
ATOM     11  C   UNL A   1      29.966  25.977  23.645  1.00  0.00     0.120 A 
ATOM     12  C   UNL A   1      28.681  26.436  23.888  1.00  0.00     0.047 A 
ATOM     13  C   UNL A   1      30.862  26.752  22.927  1.00  0.00     0.047 A 
ATOM     14  C   UNL A   1      28.333  27.735  23.506  1.00  0.00     0.012 A 
ATOM     15  C   UNL A   1      30.535  28.065  22.602  1.00  0.00     0.012 A 
ATOM     16  C   UNL A   1      29.267  28.595  22.895  1.00  0.00    -0.018 A 
BRANCH  16  17
ATOM     17  C   UNL A   1      28.946  30.004  22.580  1.00  0.00    -0.018 A 
ATOM     18  C   UNL A   1      28.452  30.377  21.317  1.00  0.00     0.009 A 
ATOM     19  C   UNL A   1      29.082  31.020  23.544  1.00  0.00     0.009 A 
ATOM     20  C   UNL A   1      28.109  31.701  21.032  1.00  0.00     0.001 A 
ATOM     21  C   UNL A   1      28.725  32.342  23.268  1.00  0.00     0.001 A 
ATOM     22  C   UNL A   1      28.241  32.682  22.009  1.00  0.00     0.000 A 
ENDBRANCH  16  17
ENDBRANCH  10  11
ENDBRANCH   6  10
ENDBRANCH   3   6
ENDBRANCH   1   2
BRANCH   1  23
ATOM     23  C   UNL A   1      31.971  28.231  26.081  1.00  0.00     0.042 C 
BRANCH  23  24
ATOM     24  C   UNL A   1      32.976  29.265  25.607  1.00  0.00     0.118 C 
BRANCH  24  25
ATOM     25  N   UNL A   1      32.609  30.619  26.000  1.00  0.00    -0.352 N 
ATOM     26  C   UNL A   1      33.141  31.441  26.962  1.00  0.00     0.251 C 
ATOM     27  H   UNL A   1      31.860  31.007  25.494  1.00  0.00     0.163 HD
ATOM     28  O   UNL A   1      32.557  32.474  27.271  1.00  0.00    -0.269 OA
BRANCH  26  29
ATOM     29  C   UNL A   1      34.402  31.078  27.642  1.00  0.00     0.039 A 
ATOM     30  C   UNL A   1      35.343  32.081  27.897  1.00  0.00     0.014 A 
ATOM     31  C   UNL A   1      34.672  29.758  28.009  1.00  0.00     0.014 A 
ATOM     32  C   UNL A   1      36.520  31.768  28.577  1.00  0.00     0.010 A 
ATOM     33  C   UNL A   1      35.800  29.466  28.770  1.00  0.00     0.010 A 
ATOM     34  C   UNL A   1      36.740  30.466  29.055  1.00  0.00    -0.014 A 
BRANCH  34  35
ATOM     35  C   UNL A   1      37.947  30.128  29.849  1.00  0.00     0.031 A 
ATOM     36  C   UNL A   1      38.978  29.184  29.295  1.00  0.00     0.074 A 
ATOM     37  C   UNL A   1      38.084  30.624  31.094  1.00  0.00     0.049 A 
ATOM     38  N   UNL A   1      40.065  28.719  29.859  1.00  0.00    -0.248 NA
ATOM     39  C   UNL A   1      38.742  28.674  27.936  1.00  0.00     0.031 C 
ATOM     40  C   UNL A   1      37.135  31.518  31.758  1.00  0.00     0.029 A 
ATOM     41  N   UNL A   1      39.075  30.441  32.027  1.00  0.00    -0.354 N 
ATOM     42  C   UNL A   1      40.633  27.858  28.929  1.00  0.00     0.074 A 
ATOM     43  C   UNL A   1      39.739  27.812  27.793  1.00  0.00     0.031 C 
ATOM     44  C   UNL A   1      37.604  31.833  32.975  1.00  0.00     0.029 A 
ATOM     45  C   UNL A   1      38.862  31.126  33.196  1.00  0.00     0.049 A 
ATOM     46  H   UNL A   1      39.863  29.871  31.870  1.00  0.00     0.167 HD
ATOM     47  C   UNL A   1      41.808  27.186  29.004  1.00  0.00     0.037 A 
ATOM     48  C   UNL A   1      39.597  31.175  34.324  1.00  0.00     0.037 A 
ATOM     49  C   UNL A   1      42.699  27.243  30.133  1.00  0.00     0.049 A 
ATOM     50  C   UNL A   1      40.877  30.386  34.398  1.00  0.00     0.074 A 
ATOM     51  C   UNL A   1      43.932  26.637  30.291  1.00  0.00     0.029 A 
ATOM     52  N   UNL A   1      42.445  27.942  31.306  1.00  0.00    -0.354 N 
ATOM     53  N   UNL A   1      41.439  29.629  33.488  1.00  0.00    -0.248 NA
ATOM     54  C   UNL A   1      41.627  30.465  35.660  1.00  0.00     0.031 C 
ATOM     55  C   UNL A   1      44.399  26.922  31.579  1.00  0.00     0.029 A 
ATOM     56  C   UNL A   1      43.487  27.759  32.202  1.00  0.00     0.049 A 
ATOM     57  H   UNL A   1      41.643  28.488  31.475  1.00  0.00     0.167 HD
ATOM     58  C   UNL A   1      42.623  29.169  34.051  1.00  0.00     0.074 A 
ATOM     59  C   UNL A   1      42.704  29.745  35.377  1.00  0.00     0.031 C 
ATOM     60  C   UNL A   1      43.558  28.346  33.516  1.00  0.00     0.037 A 
BRANCH  47  61
ATOM     61  C   UNL A   1      42.191  26.331  27.829  1.00  0.00     0.064 A 
ATOM     62  C   UNL A   1      41.666  25.039  27.656  1.00  0.00     0.173 A 
ATOM     63  C   UNL A   1      43.080  26.810  26.856  1.00  0.00     0.173 A 
ATOM     64  F   UNL A   1      40.819  24.526  28.561  1.00  0.00    -0.203 F 
ATOM     65  C   UNL A   1      42.049  24.248  26.576  1.00  0.00     0.198 A 
ATOM     66  C   UNL A   1      43.432  26.029  25.757  1.00  0.00     0.198 A 
ATOM     67  F   UNL A   1      43.606  28.039  26.966  1.00  0.00    -0.203 F 
ATOM     68  F   UNL A   1      41.583  22.996  26.468  1.00  0.00    -0.200 F 
ATOM     69  C   UNL A   1      42.926  24.745  25.624  1.00  0.00     0.200 A 
ATOM     70  F   UNL A   1      44.267  26.518  24.830  1.00  0.00    -0.200 F 
ATOM     71  F   UNL A   1      43.291  23.984  24.584  1.00  0.00    -0.200 F 
ENDBRANCH  47  61
BRANCH  48  72
ATOM     72  C   UNL A   1      39.159  32.025  35.463  1.00  0.00     0.064 A 
ATOM     73  C   UNL A   1      38.378  31.491  36.497  1.00  0.00     0.173 A 
ATOM     74  C   UNL A   1      39.501  33.383  35.539  1.00  0.00     0.173 A 
ATOM     75  F   UNL A   1      38.009  30.201  36.458  1.00  0.00    -0.203 F 
ATOM     76  C   UNL A   1      37.938  32.286  37.552  1.00  0.00     0.198 A 
ATOM     77  C   UNL A   1      39.086  34.171  36.611  1.00  0.00     0.198 A 
ATOM     78  F   UNL A   1      40.250  33.944  34.578  1.00  0.00    -0.203 F 
ATOM     79  F   UNL A   1      37.152  31.760  38.501  1.00  0.00    -0.200 F 
ATOM     80  C   UNL A   1      38.297  33.624  37.612  1.00  0.00     0.200 A 
ATOM     81  F   UNL A   1      39.448  35.459  36.674  1.00  0.00    -0.200 F 
ATOM     82  F   UNL A   1      37.876  34.387  38.629  1.00  0.00    -0.200 F 
ENDBRANCH  48  72
BRANCH  60  83
ATOM     83  C   UNL A   1      44.775  28.054  34.348  1.00  0.00     0.064 A 
ATOM     84  C   UNL A   1      45.915  28.870  34.305  1.00  0.00     0.173 A 
ATOM     85  C   UNL A   1      44.785  26.960  35.227  1.00  0.00     0.173 A 
ATOM     86  F   UNL A   1      45.964  29.920  33.470  1.00  0.00    -0.203 F 
ATOM     87  C   UNL A   1      47.030  28.585  35.089  1.00  0.00     0.198 A 
ATOM     88  C   UNL A   1      45.887  26.698  36.035  1.00  0.00     0.198 A 
ATOM     89  F   UNL A   1      43.718  26.150  35.312  1.00  0.00    -0.203 F 
ATOM     90  F   UNL A   1      48.128  29.346  34.991  1.00  0.00    -0.200 F 
ATOM     91  C   UNL A   1      47.012  27.505  35.959  1.00  0.00     0.200 A 
ATOM     92  F   UNL A   1      45.862  25.663  36.887  1.00  0.00    -0.200 F 
ATOM     93  F   UNL A   1      48.083  27.237  36.719  1.00  0.00    -0.200 F 
ENDBRANCH  60  83
ENDBRANCH  34  35
ENDBRANCH  26  29
ENDBRANCH  24  25
ENDBRANCH  23  24
ENDBRANCH   1  23
TORSDOF 15
ENDMDL
