MODEL 1
REMARK VINA RESULT:     -12.2      0.000      0.000
REMARK SMILES O=C(CN(CC(F)(F)F)c1nc(-c2ccccc2)cs1)NCCCNC(=O)c1ccc(-c2c3nc(c(-c4c(F)c(F)c(F)c(F)c4F)c4ccc([nH]4)c(-c4c(F)c(F)c(F)c(F)c4F)c4nc(c(-c5c(F)c(F)c(F)c(F)c5F)c5ccc2[nH]5)C=C4)C=C3)cc1
REMARK SMILES IDX 22 1 21 2 1 3 2 4 3 6 4 7 5 8 6 9 7 10 8 11 9 12 10 13 11 14
REMARK SMILES IDX 20 15 12 16 19 17 13 18 14 19 18 20 15 21 17 22 16 23 23 24
REMARK SMILES IDX 24 25 25 26 26 27 27 29 28 30 29 31 90 32 30 33 89 34 31 35
REMARK SMILES IDX 32 36 33 37 83 38 34 39 88 40 82 41 84 42 35 43 87 44 81 45
REMARK SMILES IDX 80 46 36 48 68 49 48 50 67 51 49 52 52 53 66 54 85 55 50 56
REMARK SMILES IDX 51 57 65 59 86 60 53 61 37 62 38 63 46 64 39 65 40 66 44 67
REMARK SMILES IDX 47 68 41 69 42 70 45 71 43 72 69 73 70 74 78 75 71 76 72 77
REMARK SMILES IDX 76 78 79 79 73 80 74 81 77 82 75 83 54 84 55 85 63 86 56 87
REMARK SMILES IDX 57 88 61 89 64 90 58 91 59 92 62 93 60 94
REMARK H PARENT 21 5 25 28 84 47 52 58
REMARK Flexibility Score: inf
ROOT
ATOM      1  C   UNL A   1      31.748  30.512  26.676  1.00  0.00     0.117 C 
ENDROOT
BRANCH   1   2
ATOM      2  N   UNL A   1      32.099  30.134  25.323  1.00  0.00    -0.354 N 
ATOM      3  O   UNL A   1      33.910  28.841  25.891  1.00  0.00    -0.273 OA
ATOM      4  C   UNL A   1      33.108  29.232  25.046  1.00  0.00     0.239 C 
ATOM      5  H   UNL A   1      31.601  30.534  24.575  1.00  0.00     0.163 HD
BRANCH   4   6
ATOM      6  C   UNL A   1      33.234  28.844  23.561  1.00  0.00     0.219 C 
BRANCH   6   7
ATOM      7  N   UNL A   1      32.229  27.862  23.102  1.00  0.00    -0.330 N 
BRANCH   7   8
ATOM      8  C   UNL A   1      31.034  28.337  22.377  1.00  0.00     0.234 C 
BRANCH   8   9
ATOM      9  C   UNL A   1      29.748  28.599  23.177  1.00  0.00     0.406 C 
ATOM     10  F   UNL A   1      29.751  27.967  24.370  1.00  0.00    -0.169 F 
ATOM     11  F   UNL A   1      29.639  29.925  23.446  1.00  0.00    -0.169 F 
ATOM     12  F   UNL A   1      28.637  28.237  22.502  1.00  0.00    -0.169 F 
ENDBRANCH   8   9
ENDBRANCH   7   8
BRANCH   7  13
ATOM     13  C   UNL A   1      32.541  26.542  23.223  1.00  0.00     0.186 A 
ATOM     14  N   UNL A   1      33.698  26.134  23.691  1.00  0.00    -0.220 NA
ATOM     15  S   UNL A   1      31.505  25.259  22.709  1.00  0.00    -0.105 S 
ATOM     16  C   UNL A   1      33.802  24.757  23.628  1.00  0.00     0.083 A 
ATOM     17  C   UNL A   1      32.701  24.111  23.114  1.00  0.00     0.097 A 
BRANCH  16  18
ATOM     18  C   UNL A   1      34.977  24.055  24.112  1.00  0.00     0.001 A 
ATOM     19  C   UNL A   1      35.560  24.389  25.341  1.00  0.00     0.010 A 
ATOM     20  C   UNL A   1      35.551  23.045  23.331  1.00  0.00     0.010 A 
ATOM     21  C   UNL A   1      36.714  23.733  25.772  1.00  0.00     0.001 A 
ATOM     22  C   UNL A   1      36.711  22.398  23.760  1.00  0.00     0.001 A 
ATOM     23  C   UNL A   1      37.294  22.745  24.979  1.00  0.00     0.000 A 
ENDBRANCH  16  18
ENDBRANCH   7  13
ENDBRANCH   6   7
ENDBRANCH   4   6
ENDBRANCH   1   2
BRANCH   1  24
ATOM     24  C   UNL A   1      31.510  32.008  26.850  1.00  0.00     0.042 C 
BRANCH  24  25
ATOM     25  C   UNL A   1      32.755  32.815  27.210  1.00  0.00     0.118 C 
BRANCH  25  26
ATOM     26  N   UNL A   1      32.461  34.177  27.640  1.00  0.00    -0.352 N 
ATOM     27  C   UNL A   1      33.029  34.956  28.616  1.00  0.00     0.251 C 
ATOM     28  H   UNL A   1      31.729  34.612  27.145  1.00  0.00     0.163 HD
ATOM     29  O   UNL A   1      32.528  36.048  28.886  1.00  0.00    -0.269 OA
BRANCH  27  30
ATOM     30  C   UNL A   1      34.214  34.497  29.375  1.00  0.00     0.039 A 
ATOM     31  C   UNL A   1      34.015  33.869  30.609  1.00  0.00     0.014 A 
ATOM     32  C   UNL A   1      35.512  34.695  28.901  1.00  0.00     0.014 A 
ATOM     33  C   UNL A   1      35.106  33.361  31.320  1.00  0.00     0.010 A 
ATOM     34  C   UNL A   1      36.594  34.127  29.575  1.00  0.00     0.010 A 
ATOM     35  C   UNL A   1      36.400  33.440  30.783  1.00  0.00    -0.014 A 
BRANCH  35  36
ATOM     36  C   UNL A   1      37.551  32.766  31.444  1.00  0.00     0.031 A 
ATOM     37  C   UNL A   1      38.214  31.578  30.808  1.00  0.00     0.074 A 
ATOM     38  C   UNL A   1      37.949  33.183  32.662  1.00  0.00     0.049 A 
ATOM     39  N   UNL A   1      39.165  30.808  31.278  1.00  0.00    -0.248 NA
ATOM     40  C   UNL A   1      37.731  31.187  29.475  1.00  0.00     0.031 C 
ATOM     41  C   UNL A   1      37.366  34.301  33.404  1.00  0.00     0.029 A 
ATOM     42  N   UNL A   1      38.928  32.705  33.500  1.00  0.00    -0.354 N 
ATOM     43  C   UNL A   1      39.388  29.841  30.306  1.00  0.00     0.074 A 
ATOM     44  C   UNL A   1      38.440  30.091  29.241  1.00  0.00     0.031 C 
ATOM     45  C   UNL A   1      38.005  34.434  34.576  1.00  0.00     0.029 A 
ATOM     46  C   UNL A   1      39.010  33.382  34.693  1.00  0.00     0.049 A 
ATOM     47  H   UNL A   1      39.515  31.950  33.267  1.00  0.00     0.167 HD
ATOM     48  C   UNL A   1      40.309  28.848  30.297  1.00  0.00     0.037 A 
ATOM     49  C   UNL A   1      39.790  33.167  35.769  1.00  0.00     0.037 A 
ATOM     50  C   UNL A   1      41.258  28.609  31.355  1.00  0.00     0.049 A 
ATOM     51  C   UNL A   1      40.777  32.031  35.749  1.00  0.00     0.074 A 
ATOM     52  C   UNL A   1      42.267  27.662  31.410  1.00  0.00     0.029 A 
ATOM     53  N   UNL A   1      41.307  29.312  32.550  1.00  0.00    -0.354 N 
ATOM     54  N   UNL A   1      41.024  31.166  34.797  1.00  0.00    -0.248 NA
ATOM     55  C   UNL A   1      41.593  31.843  36.957  1.00  0.00     0.031 C 
ATOM     56  C   UNL A   1      42.886  27.754  32.661  1.00  0.00     0.029 A 
ATOM     57  C   UNL A   1      42.306  28.798  33.362  1.00  0.00     0.049 A 
ATOM     58  H   UNL A   1      40.720  30.066  32.786  1.00  0.00     0.167 HD
ATOM     59  C   UNL A   1      42.038  30.349  35.277  1.00  0.00     0.074 A 
ATOM     60  C   UNL A   1      42.376  30.834  36.599  1.00  0.00     0.031 C 
ATOM     61  C   UNL A   1      42.634  29.288  34.677  1.00  0.00     0.037 A 
BRANCH  48  62
ATOM     62  C   UNL A   1      40.336  27.934  29.105  1.00  0.00     0.064 A 
ATOM     63  C   UNL A   1      39.596  26.742  29.072  1.00  0.00     0.173 A 
ATOM     64  C   UNL A   1      41.075  28.277  27.961  1.00  0.00     0.173 A 
ATOM     65  F   UNL A   1      38.879  26.363  30.141  1.00  0.00    -0.203 F 
ATOM     66  C   UNL A   1      39.618  25.914  27.953  1.00  0.00     0.198 A 
ATOM     67  C   UNL A   1      41.069  27.463  26.831  1.00  0.00     0.198 A 
ATOM     68  F   UNL A   1      41.794  29.409  27.933  1.00  0.00    -0.203 F 
ATOM     69  F   UNL A   1      38.943  24.756  27.965  1.00  0.00    -0.200 F 
ATOM     70  C   UNL A   1      40.348  26.279  26.831  1.00  0.00     0.200 A 
ATOM     71  F   UNL A   1      41.760  27.824  25.742  1.00  0.00    -0.200 F 
ATOM     72  F   UNL A   1      40.361  25.484  25.751  1.00  0.00    -0.200 F 
ENDBRANCH  48  62
BRANCH  49  73
ATOM     73  C   UNL A   1      39.671  34.049  36.962  1.00  0.00     0.064 A 
ATOM     74  C   UNL A   1      38.859  33.686  38.046  1.00  0.00     0.173 A 
ATOM     75  C   UNL A   1      40.352  35.272  37.039  1.00  0.00     0.173 A 
ATOM     76  F   UNL A   1      38.168  32.537  38.011  1.00  0.00    -0.203 F 
ATOM     77  C   UNL A   1      38.715  34.524  39.151  1.00  0.00     0.198 A 
ATOM     78  C   UNL A   1      40.234  36.094  38.158  1.00  0.00     0.198 A 
ATOM     79  F   UNL A   1      41.143  35.665  36.030  1.00  0.00    -0.203 F 
ATOM     80  F   UNL A   1      37.892  34.178  40.148  1.00  0.00    -0.200 F 
ATOM     81  C   UNL A   1      39.408  35.724  39.208  1.00  0.00     0.200 A 
ATOM     82  F   UNL A   1      40.916  37.246  38.216  1.00  0.00    -0.200 F 
ATOM     83  F   UNL A   1      39.271  36.529  40.271  1.00  0.00    -0.200 F 
ENDBRANCH  49  73
BRANCH  61  84
ATOM     84  C   UNL A   1      43.732  28.596  35.434  1.00  0.00     0.064 A 
ATOM     85  C   UNL A   1      45.080  28.949  35.265  1.00  0.00     0.173 A 
ATOM     86  C   UNL A   1      43.431  27.591  36.367  1.00  0.00     0.173 A 
ATOM     87  F   UNL A   1      45.425  29.891  34.375  1.00  0.00    -0.203 F 
ATOM     88  C   UNL A   1      46.085  28.302  35.980  1.00  0.00     0.198 A 
ATOM     89  C   UNL A   1      44.435  26.970  37.104  1.00  0.00     0.198 A 
ATOM     90  F   UNL A   1      42.158  27.219  36.572  1.00  0.00    -0.203 F 
ATOM     91  F   UNL A   1      47.369  28.619  35.762  1.00  0.00    -0.200 F 
ATOM     92  C   UNL A   1      45.762  27.320  36.904  1.00  0.00     0.200 A 
ATOM     93  F   UNL A   1      44.120  26.034  38.008  1.00  0.00    -0.200 F 
ATOM     94  F   UNL A   1      46.730  26.705  37.597  1.00  0.00    -0.200 F 
ENDBRANCH  61  84
ENDBRANCH  35  36
ENDBRANCH  27  30
ENDBRANCH  25  26
ENDBRANCH  24  25
ENDBRANCH   1  24
TORSDOF 15
ENDMDL
MODEL 2
REMARK VINA RESULT:     -12.1      1.417      3.591
REMARK SMILES O=C(CN(CC(F)(F)F)c1nc(-c2ccccc2)cs1)NCCCNC(=O)c1ccc(-c2c3nc(c(-c4c(F)c(F)c(F)c(F)c4F)c4ccc([nH]4)c(-c4c(F)c(F)c(F)c(F)c4F)c4nc(c(-c5c(F)c(F)c(F)c(F)c5F)c5ccc2[nH]5)C=C4)C=C3)cc1
REMARK SMILES IDX 22 1 21 2 1 3 2 4 3 6 4 7 5 8 6 9 7 10 8 11 9 12 10 13 11 14
REMARK SMILES IDX 20 15 12 16 19 17 13 18 14 19 18 20 15 21 17 22 16 23 23 24
REMARK SMILES IDX 24 25 25 26 26 27 27 29 28 30 29 31 90 32 30 33 89 34 31 35
REMARK SMILES IDX 32 36 33 37 83 38 34 39 88 40 82 41 84 42 35 43 87 44 81 45
REMARK SMILES IDX 80 46 36 48 68 49 48 50 67 51 49 52 52 53 66 54 85 55 50 56
REMARK SMILES IDX 51 57 65 59 86 60 53 61 37 62 38 63 46 64 39 65 40 66 44 67
REMARK SMILES IDX 47 68 41 69 42 70 45 71 43 72 69 73 70 74 78 75 71 76 72 77
REMARK SMILES IDX 76 78 79 79 73 80 74 81 77 82 75 83 54 84 55 85 63 86 56 87
REMARK SMILES IDX 57 88 61 89 64 90 58 91 59 92 62 93 60 94
REMARK H PARENT 21 5 25 28 84 47 52 58
REMARK Flexibility Score: inf
ROOT
ATOM      1  C   UNL A   1      31.562  30.599  26.660  1.00  0.00     0.117 C 
ENDROOT
BRANCH   1   2
ATOM      2  N   UNL A   1      32.350  29.976  25.616  1.00  0.00    -0.354 N 
ATOM      3  O   UNL A   1      33.192  28.285  26.920  1.00  0.00    -0.273 OA
ATOM      4  C   UNL A   1      33.031  28.792  25.812  1.00  0.00     0.239 C 
ATOM      5  H   UNL A   1      32.401  30.414  24.737  1.00  0.00     0.163 HD
BRANCH   4   6
ATOM      6  C   UNL A   1      33.689  28.210  24.547  1.00  0.00     0.219 C 
BRANCH   6   7
ATOM      7  N   UNL A   1      32.855  27.225  23.827  1.00  0.00    -0.330 N 
BRANCH   7   8
ATOM      8  C   UNL A   1      33.379  25.864  23.598  1.00  0.00     0.234 C 
BRANCH   8   9
ATOM      9  C   UNL A   1      33.709  24.991  24.820  1.00  0.00     0.406 C 
ATOM     10  F   UNL A   1      33.807  23.683  24.502  1.00  0.00    -0.169 F 
ATOM     11  F   UNL A   1      34.915  25.354  25.329  1.00  0.00    -0.169 F 
ATOM     12  F   UNL A   1      32.803  25.126  25.811  1.00  0.00    -0.169 F 
ENDBRANCH   8   9
ENDBRANCH   7   8
BRANCH   7  13
ATOM     13  C   UNL A   1      31.567  27.573  23.555  1.00  0.00     0.186 A 
ATOM     14  N   UNL A   1      31.228  28.792  23.204  1.00  0.00    -0.220 NA
ATOM     15  S   UNL A   1      30.226  26.496  23.714  1.00  0.00    -0.105 S 
ATOM     16  C   UNL A   1      29.856  28.909  23.074  1.00  0.00     0.083 A 
ATOM     17  C   UNL A   1      29.146  27.756  23.319  1.00  0.00     0.097 A 
BRANCH  16  18
ATOM     18  C   UNL A   1      29.229  30.153  22.665  1.00  0.00     0.001 A 
ATOM     19  C   UNL A   1      28.765  30.329  21.355  1.00  0.00     0.010 A 
ATOM     20  C   UNL A   1      29.105  31.200  23.585  1.00  0.00     0.010 A 
ATOM     21  C   UNL A   1      28.203  31.546  20.967  1.00  0.00     0.001 A 
ATOM     22  C   UNL A   1      28.552  32.420  23.191  1.00  0.00     0.001 A 
ATOM     23  C   UNL A   1      28.105  32.593  21.881  1.00  0.00     0.000 A 
ENDBRANCH  16  18
ENDBRANCH   7  13
ENDBRANCH   6   7
ENDBRANCH   4   6
ENDBRANCH   1   2
BRANCH   1  24
ATOM     24  C   UNL A   1      31.549  32.122  26.589  1.00  0.00     0.042 C 
BRANCH  24  25
ATOM     25  C   UNL A   1      32.726  32.804  27.284  1.00  0.00     0.118 C 
BRANCH  25  26
ATOM     26  N   UNL A   1      32.445  34.175  27.691  1.00  0.00    -0.352 N 
ATOM     27  C   UNL A   1      33.032  34.970  28.643  1.00  0.00     0.251 C 
ATOM     28  H   UNL A   1      31.708  34.604  27.199  1.00  0.00     0.163 HD
ATOM     29  O   UNL A   1      32.541  36.070  28.899  1.00  0.00    -0.269 OA
BRANCH  27  30
ATOM     30  C   UNL A   1      34.226  34.519  29.393  1.00  0.00     0.039 A 
ATOM     31  C   UNL A   1      34.045  33.940  30.653  1.00  0.00     0.014 A 
ATOM     32  C   UNL A   1      35.517  34.679  28.884  1.00  0.00     0.014 A 
ATOM     33  C   UNL A   1      35.144  33.440  31.359  1.00  0.00     0.010 A 
ATOM     34  C   UNL A   1      36.605  34.118  29.555  1.00  0.00     0.010 A 
ATOM     35  C   UNL A   1      36.427  33.479  30.791  1.00  0.00    -0.014 A 
BRANCH  35  36
ATOM     36  C   UNL A   1      37.582  32.810  31.451  1.00  0.00     0.031 A 
ATOM     37  C   UNL A   1      38.266  31.641  30.802  1.00  0.00     0.074 A 
ATOM     38  C   UNL A   1      37.964  33.214  32.679  1.00  0.00     0.049 A 
ATOM     39  N   UNL A   1      39.224  30.878  31.269  1.00  0.00    -0.248 NA
ATOM     40  C   UNL A   1      37.799  31.265  29.459  1.00  0.00     0.031 C 
ATOM     41  C   UNL A   1      37.359  34.312  33.433  1.00  0.00     0.029 A 
ATOM     42  N   UNL A   1      38.943  32.737  33.517  1.00  0.00    -0.354 N 
ATOM     43  C   UNL A   1      39.468  29.929  30.284  1.00  0.00     0.074 A 
ATOM     44  C   UNL A   1      38.525  30.182  29.215  1.00  0.00     0.031 C 
ATOM     45  C   UNL A   1      37.987  34.436  34.612  1.00  0.00     0.029 A 
ATOM     46  C   UNL A   1      39.005  33.396  34.721  1.00  0.00     0.049 A 
ATOM     47  H   UNL A   1      39.541  31.993  33.278  1.00  0.00     0.167 HD
ATOM     48  C   UNL A   1      40.403  28.949  30.267  1.00  0.00     0.037 A 
ATOM     49  C   UNL A   1      39.780  33.175  35.801  1.00  0.00     0.037 A 
ATOM     50  C   UNL A   1      41.347  28.706  31.329  1.00  0.00     0.049 A 
ATOM     51  C   UNL A   1      40.782  32.053  35.771  1.00  0.00     0.074 A 
ATOM     52  C   UNL A   1      42.368  27.773  31.378  1.00  0.00     0.029 A 
ATOM     53  N   UNL A   1      41.376  29.392  32.535  1.00  0.00    -0.354 N 
ATOM     54  N   UNL A   1      41.049  31.206  34.808  1.00  0.00    -0.248 NA
ATOM     55  C   UNL A   1      41.591  31.857  36.983  1.00  0.00     0.031 C 
ATOM     56  C   UNL A   1      42.976  27.854  32.636  1.00  0.00     0.029 A 
ATOM     57  C   UNL A   1      42.375  28.878  33.347  1.00  0.00     0.049 A 
ATOM     58  H   UNL A   1      40.776  30.134  32.778  1.00  0.00     0.167 HD
ATOM     59  C   UNL A   1      42.071  30.396  35.284  1.00  0.00     0.074 A 
ATOM     60  C   UNL A   1      42.391  30.866  36.616  1.00  0.00     0.031 C 
ATOM     61  C   UNL A   1      42.685  29.353  34.673  1.00  0.00     0.037 A 
BRANCH  48  62
ATOM     62  C   UNL A   1      40.452  28.054  29.061  1.00  0.00     0.064 A 
ATOM     63  C   UNL A   1      39.714  26.862  28.996  1.00  0.00     0.173 A 
ATOM     64  C   UNL A   1      41.211  28.415  27.936  1.00  0.00     0.173 A 
ATOM     65  F   UNL A   1      38.978  26.466  30.046  1.00  0.00    -0.203 F 
ATOM     66  C   UNL A   1      39.757  26.052  27.865  1.00  0.00     0.198 A 
ATOM     67  C   UNL A   1      41.226  27.619  26.794  1.00  0.00     0.198 A 
ATOM     68  F   UNL A   1      41.930  29.548  27.940  1.00  0.00    -0.203 F 
ATOM     69  F   UNL A   1      39.083  24.894  27.846  1.00  0.00    -0.200 F 
ATOM     70  C   UNL A   1      40.507  26.435  26.762  1.00  0.00     0.200 A 
ATOM     71  F   UNL A   1      41.937  27.998  25.724  1.00  0.00    -0.200 F 
ATOM     72  F   UNL A   1      40.540  25.657  25.671  1.00  0.00    -0.200 F 
ENDBRANCH  48  62
BRANCH  49  73
ATOM     73  C   UNL A   1      39.639  34.037  37.006  1.00  0.00     0.064 A 
ATOM     74  C   UNL A   1      38.843  33.634  38.088  1.00  0.00     0.173 A 
ATOM     75  C   UNL A   1      40.283  35.279  37.097  1.00  0.00     0.173 A 
ATOM     76  F   UNL A   1      38.187  32.465  38.039  1.00  0.00    -0.203 F 
ATOM     77  C   UNL A   1      38.678  34.453  39.204  1.00  0.00     0.198 A 
ATOM     78  C   UNL A   1      40.143  36.082  38.227  1.00  0.00     0.198 A 
ATOM     79  F   UNL A   1      41.057  35.710  36.090  1.00  0.00    -0.203 F 
ATOM     80  F   UNL A   1      37.870  34.068  40.200  1.00  0.00    -0.200 F 
ATOM     81  C   UNL A   1      39.334  35.672  39.275  1.00  0.00     0.200 A 
ATOM     82  F   UNL A   1      40.791  37.253  38.298  1.00  0.00    -0.200 F 
ATOM     83  F   UNL A   1      39.177  36.458  40.350  1.00  0.00    -0.200 F 
ENDBRANCH  49  73
BRANCH  61  84
ATOM     84  C   UNL A   1      43.787  28.665  35.428  1.00  0.00     0.064 A 
ATOM     85  C   UNL A   1      43.525  27.610  36.315  1.00  0.00     0.173 A 
ATOM     86  C   UNL A   1      45.126  29.041  35.236  1.00  0.00     0.173 A 
ATOM     87  F   UNL A   1      42.263  27.220  36.548  1.00  0.00    -0.203 F 
ATOM     88  C   UNL A   1      44.559  26.977  37.001  1.00  0.00     0.198 A 
ATOM     89  C   UNL A   1      46.160  28.384  35.898  1.00  0.00     0.198 A 
ATOM     90  F   UNL A   1      45.433  30.040  34.394  1.00  0.00    -0.203 F 
ATOM     91  F   UNL A   1      44.280  26.008  37.884  1.00  0.00    -0.200 F 
ATOM     92  C   UNL A   1      45.875  27.359  36.787  1.00  0.00     0.200 A 
ATOM     93  F   UNL A   1      47.431  28.744  35.676  1.00  0.00    -0.200 F 
ATOM     94  F   UNL A   1      46.869  26.743  37.441  1.00  0.00    -0.200 F 
ENDBRANCH  61  84
ENDBRANCH  35  36
ENDBRANCH  27  30
ENDBRANCH  25  26
ENDBRANCH  24  25
ENDBRANCH   1  24
TORSDOF 15
ENDMDL
MODEL 3
REMARK VINA RESULT:     -12.0      5.986     11.396
REMARK SMILES O=C(CN(CC(F)(F)F)c1nc(-c2ccccc2)cs1)NCCCNC(=O)c1ccc(-c2c3nc(c(-c4c(F)c(F)c(F)c(F)c4F)c4ccc([nH]4)c(-c4c(F)c(F)c(F)c(F)c4F)c4nc(c(-c5c(F)c(F)c(F)c(F)c5F)c5ccc2[nH]5)C=C4)C=C3)cc1
REMARK SMILES IDX 22 1 21 2 1 3 2 4 3 6 4 7 5 8 6 9 7 10 8 11 9 12 10 13 11 14
REMARK SMILES IDX 20 15 12 16 19 17 13 18 14 19 18 20 15 21 17 22 16 23 23 24
REMARK SMILES IDX 24 25 25 26 26 27 27 29 28 30 29 31 90 32 30 33 89 34 31 35
REMARK SMILES IDX 32 36 33 37 83 38 34 39 88 40 82 41 84 42 35 43 87 44 81 45
REMARK SMILES IDX 80 46 36 48 68 49 48 50 67 51 49 52 52 53 66 54 85 55 50 56
REMARK SMILES IDX 51 57 65 59 86 60 53 61 37 62 38 63 46 64 39 65 40 66 44 67
REMARK SMILES IDX 47 68 41 69 42 70 45 71 43 72 69 73 70 74 78 75 71 76 72 77
REMARK SMILES IDX 76 78 79 79 73 80 74 81 77 82 75 83 54 84 55 85 63 86 56 87
REMARK SMILES IDX 57 88 61 89 64 90 58 91 59 92 62 93 60 94
REMARK H PARENT 21 5 25 28 84 47 52 58
REMARK Flexibility Score: inf
ROOT
ATOM      1  C   UNL A   1      37.113  20.974  24.696  1.00  0.00     0.117 C 
ENDROOT
BRANCH   1   2
ATOM      2  N   UNL A   1      35.919  20.989  25.515  1.00  0.00    -0.354 N 
ATOM      3  O   UNL A   1      36.105  23.178  26.182  1.00  0.00    -0.273 OA
ATOM      4  C   UNL A   1      35.451  22.139  26.119  1.00  0.00     0.239 C 
ATOM      5  H   UNL A   1      35.423  20.149  25.644  1.00  0.00     0.163 HD
BRANCH   4   6
ATOM      6  C   UNL A   1      34.090  21.988  26.824  1.00  0.00     0.219 C 
BRANCH   6   7
ATOM      7  N   UNL A   1      32.923  22.164  25.935  1.00  0.00    -0.330 N 
BRANCH   7   8
ATOM      8  C   UNL A   1      32.445  21.020  25.133  1.00  0.00     0.234 C 
BRANCH   8   9
ATOM      9  C   UNL A   1      32.522  21.116  23.601  1.00  0.00     0.406 C 
ATOM     10  F   UNL A   1      31.533  21.877  23.086  1.00  0.00    -0.169 F 
ATOM     11  F   UNL A   1      33.690  21.707  23.238  1.00  0.00    -0.169 F 
ATOM     12  F   UNL A   1      32.487  19.906  23.006  1.00  0.00    -0.169 F 
ENDBRANCH   8   9
ENDBRANCH   7   8
BRANCH   7  13
ATOM     13  C   UNL A   1      32.235  23.336  26.026  1.00  0.00     0.186 A 
ATOM     14  N   UNL A   1      32.838  24.493  26.177  1.00  0.00    -0.220 NA
ATOM     15  S   UNL A   1      30.512  23.442  26.038  1.00  0.00    -0.105 S 
ATOM     16  C   UNL A   1      31.920  25.515  26.335  1.00  0.00     0.083 A 
ATOM     17  C   UNL A   1      30.600  25.127  26.291  1.00  0.00     0.097 A 
BRANCH  16  18
ATOM     18  C   UNL A   1      32.333  26.898  26.491  1.00  0.00     0.001 A 
ATOM     19  C   UNL A   1      33.617  27.314  26.112  1.00  0.00     0.010 A 
ATOM     20  C   UNL A   1      31.446  27.827  27.047  1.00  0.00     0.010 A 
ATOM     21  C   UNL A   1      34.013  28.638  26.309  1.00  0.00     0.001 A 
ATOM     22  C   UNL A   1      31.849  29.149  27.251  1.00  0.00     0.001 A 
ATOM     23  C   UNL A   1      33.133  29.552  26.885  1.00  0.00     0.000 A 
ENDBRANCH  16  18
ENDBRANCH   7  13
ENDBRANCH   6   7
ENDBRANCH   4   6
ENDBRANCH   1   2
BRANCH   1  24
ATOM     24  C   UNL A   1      38.040  19.799  24.989  1.00  0.00     0.042 C 
BRANCH  24  25
ATOM     25  C   UNL A   1      39.206  20.122  25.921  1.00  0.00     0.118 C 
BRANCH  25  26
ATOM     26  N   UNL A   1      40.258  19.113  25.906  1.00  0.00    -0.352 N 
ATOM     27  C   UNL A   1      41.616  19.227  26.062  1.00  0.00     0.251 C 
ATOM     28  H   UNL A   1      39.939  18.193  25.760  1.00  0.00     0.163 HD
ATOM     29  O   UNL A   1      42.330  18.238  25.888  1.00  0.00    -0.269 OA
BRANCH  27  30
ATOM     30  C   UNL A   1      42.247  20.521  26.404  1.00  0.00     0.039 A 
ATOM     31  C   UNL A   1      42.815  21.281  25.376  1.00  0.00     0.014 A 
ATOM     32  C   UNL A   1      42.306  20.985  27.720  1.00  0.00     0.014 A 
ATOM     33  C   UNL A   1      43.357  22.540  25.651  1.00  0.00     0.010 A 
ATOM     34  C   UNL A   1      42.782  22.270  27.985  1.00  0.00     0.010 A 
ATOM     35  C   UNL A   1      43.297  23.067  26.951  1.00  0.00    -0.014 A 
BRANCH  35  36
ATOM     36  C   UNL A   1      43.720  24.465  27.235  1.00  0.00     0.031 A 
ATOM     37  C   UNL A   1      42.730  25.484  27.721  1.00  0.00     0.074 A 
ATOM     38  C   UNL A   1      44.991  24.834  26.979  1.00  0.00     0.049 A 
ATOM     39  N   UNL A   1      42.895  26.767  27.931  1.00  0.00    -0.248 NA
ATOM     40  C   UNL A   1      41.365  25.004  27.986  1.00  0.00     0.031 C 
ATOM     41  C   UNL A   1      46.041  23.952  26.471  1.00  0.00     0.029 A 
ATOM     42  N   UNL A   1      45.612  26.055  27.094  1.00  0.00    -0.354 N 
ATOM     43  C   UNL A   1      41.659  27.247  28.343  1.00  0.00     0.074 A 
ATOM     44  C   UNL A   1      40.741  26.129  28.308  1.00  0.00     0.031 C 
ATOM     45  C   UNL A   1      47.178  24.652  26.333  1.00  0.00     0.029 A 
ATOM     46  C   UNL A   1      46.927  26.043  26.695  1.00  0.00     0.049 A 
ATOM     47  H   UNL A   1      45.158  26.861  27.431  1.00  0.00     0.167 HD
ATOM     48  C   UNL A   1      41.326  28.502  28.732  1.00  0.00     0.037 A 
ATOM     49  C   UNL A   1      47.824  27.044  26.608  1.00  0.00     0.037 A 
ATOM     50  C   UNL A   1      42.245  29.611  28.776  1.00  0.00     0.049 A 
ATOM     51  C   UNL A   1      47.416  28.436  27.007  1.00  0.00     0.074 A 
ATOM     52  C   UNL A   1      42.014  30.906  29.209  1.00  0.00     0.029 A 
ATOM     53  N   UNL A   1      43.567  29.561  28.359  1.00  0.00    -0.354 N 
ATOM     54  N   UNL A   1      46.264  28.864  27.459  1.00  0.00    -0.248 NA
ATOM     55  C   UNL A   1      48.438  29.486  26.882  1.00  0.00     0.031 C 
ATOM     56  C   UNL A   1      43.178  31.653  28.998  1.00  0.00     0.029 A 
ATOM     57  C   UNL A   1      44.154  30.811  28.493  1.00  0.00     0.049 A 
ATOM     58  H   UNL A   1      44.023  28.757  28.019  1.00  0.00     0.167 HD
ATOM     59  C   UNL A   1      46.426  30.222  27.697  1.00  0.00     0.074 A 
ATOM     60  C   UNL A   1      47.796  30.544  27.358  1.00  0.00     0.031 C 
ATOM     61  C   UNL A   1      45.519  31.121  28.151  1.00  0.00     0.037 A 
BRANCH  48  62
ATOM     62  C   UNL A   1      39.901  28.750  29.138  1.00  0.00     0.064 A 
ATOM     63  C   UNL A   1      38.934  29.178  28.214  1.00  0.00     0.173 A 
ATOM     64  C   UNL A   1      39.484  28.512  30.458  1.00  0.00     0.173 A 
ATOM     65  F   UNL A   1      39.280  29.427  26.942  1.00  0.00    -0.203 F 
ATOM     66  C   UNL A   1      37.613  29.387  28.602  1.00  0.00     0.198 A 
ATOM     67  C   UNL A   1      38.156  28.691  30.835  1.00  0.00     0.198 A 
ATOM     68  F   UNL A   1      40.363  28.093  31.380  1.00  0.00    -0.203 F 
ATOM     69  F   UNL A   1      36.720  29.844  27.714  1.00  0.00    -0.200 F 
ATOM     70  C   UNL A   1      37.224  29.136  29.910  1.00  0.00     0.200 A 
ATOM     71  F   UNL A   1      37.777  28.432  32.093  1.00  0.00    -0.200 F 
ATOM     72  F   UNL A   1      35.950  29.331  30.279  1.00  0.00    -0.200 F 
ENDBRANCH  48  62
BRANCH  49  73
ATOM     73  C   UNL A   1      49.203  26.766  26.122  1.00  0.00     0.064 A 
ATOM     74  C   UNL A   1      49.550  26.987  24.781  1.00  0.00     0.173 A 
ATOM     75  C   UNL A   1      50.194  26.265  26.978  1.00  0.00     0.173 A 
ATOM     76  F   UNL A   1      48.632  27.442  23.917  1.00  0.00    -0.203 F 
ATOM     77  C   UNL A   1      50.830  26.695  24.312  1.00  0.00     0.198 A 
ATOM     78  C   UNL A   1      51.482  26.004  26.515  1.00  0.00     0.198 A 
ATOM     79  F   UNL A   1      49.915  26.038  28.270  1.00  0.00    -0.203 F 
ATOM     80  F   UNL A   1      51.120  26.864  23.015  1.00  0.00    -0.200 F 
ATOM     81  C   UNL A   1      51.796  26.210  25.180  1.00  0.00     0.200 A 
ATOM     82  F   UNL A   1      52.417  25.550  27.361  1.00  0.00    -0.200 F 
ATOM     83  F   UNL A   1      53.027  25.932  24.729  1.00  0.00    -0.200 F 
ENDBRANCH  49  73
BRANCH  61  84
ATOM     84  C   UNL A   1      45.987  32.538  28.336  1.00  0.00     0.064 A 
ATOM     85  C   UNL A   1      46.569  32.972  29.536  1.00  0.00     0.173 A 
ATOM     86  C   UNL A   1      45.883  33.464  27.286  1.00  0.00     0.173 A 
ATOM     87  F   UNL A   1      46.678  32.132  30.576  1.00  0.00    -0.203 F 
ATOM     88  C   UNL A   1      47.004  34.286  29.687  1.00  0.00     0.198 A 
ATOM     89  C   UNL A   1      46.349  34.768  27.429  1.00  0.00     0.198 A 
ATOM     90  F   UNL A   1      45.340  33.100  26.114  1.00  0.00    -0.203 F 
ATOM     91  F   UNL A   1      47.508  34.692  30.861  1.00  0.00    -0.200 F 
ATOM     92  C   UNL A   1      46.901  35.180  28.633  1.00  0.00     0.200 A 
ATOM     93  F   UNL A   1      46.264  35.625  26.404  1.00  0.00    -0.200 F 
ATOM     94  F   UNL A   1      47.328  36.442  28.778  1.00  0.00    -0.200 F 
ENDBRANCH  61  84
ENDBRANCH  35  36
ENDBRANCH  27  30
ENDBRANCH  25  26
ENDBRANCH  24  25
ENDBRANCH   1  24
TORSDOF 15
ENDMDL
