MODEL 1
REMARK VINA RESULT:     -13.0      0.000      0.000
REMARK SMILES O=C(NCCCNC(=O)[C@H]1CCCCN1c1ccnc2ccccc12)c1ccc(-c2c3nc(c(-c4c(F)c(F)c(F)c(F)c4F)c4ccc([nH]4)c(-c4c(F)c(F)c(F)c(F)c4F)c4nc(c(-c5c(F)c(F)c(F)c(F)c5F)c5ccc2[nH]5)C=C4)C=C3)cc1
REMARK SMILES IDX 4 1 3 2 1 3 2 4 26 6 27 7 88 8 28 9 87 10 29 11 30 12 31 13
REMARK SMILES IDX 81 14 32 15 86 16 80 17 82 18 33 19 85 20 79 21 78 22 34 24
REMARK SMILES IDX 66 25 46 26 65 27 47 28 50 29 64 30 83 31 48 32 49 33 63 35
REMARK SMILES IDX 84 36 51 37 35 38 36 39 44 40 37 41 38 42 42 43 45 44 39 45
REMARK SMILES IDX 40 46 43 47 41 48 67 49 68 50 76 51 69 52 70 53 74 54 77 55
REMARK SMILES IDX 71 56 72 57 75 58 73 59 52 60 53 61 61 62 54 63 55 64 59 65
REMARK SMILES IDX 62 66 56 67 57 68 60 69 58 70 5 71 6 72 7 73 8 74 9 76 10 77
REMARK SMILES IDX 11 78 15 79 12 80 14 81 13 82 16 83 17 84 25 85 18 86 20 87
REMARK SMILES IDX 24 88 19 89 21 90 23 91 22 92
REMARK H PARENT 3 5 82 23 50 34 7 75
REMARK Flexibility Score: inf
ROOT
ATOM      1  C   UNL A   1      32.648  32.638  26.876  1.00  0.00     0.118 C 
ENDROOT
BRANCH   1   2
ATOM      2  N   UNL A   1      32.463  33.960  27.444  1.00  0.00    -0.352 N 
ATOM      3  O   UNL A   1      32.559  35.639  28.923  1.00  0.00    -0.269 OA
ATOM      4  C   UNL A   1      33.031  34.573  28.534  1.00  0.00     0.251 C 
ATOM      5  H   UNL A   1      31.812  34.520  26.961  1.00  0.00     0.163 HD
BRANCH   4   6
ATOM      6  C   UNL A   1      34.186  33.989  29.265  1.00  0.00     0.039 A 
ATOM      7  C   UNL A   1      34.039  32.978  30.215  1.00  0.00     0.014 A 
ATOM      8  C   UNL A   1      35.478  34.394  28.902  1.00  0.00     0.014 A 
ATOM      9  C   UNL A   1      35.153  32.473  30.887  1.00  0.00     0.010 A 
ATOM     10  C   UNL A   1      36.603  33.813  29.502  1.00  0.00     0.010 A 
ATOM     11  C   UNL A   1      36.451  32.859  30.516  1.00  0.00    -0.014 A 
BRANCH  11  12
ATOM     12  C   UNL A   1      37.623  32.178  31.133  1.00  0.00     0.031 A 
ATOM     13  C   UNL A   1      38.082  32.512  32.525  1.00  0.00     0.074 A 
ATOM     14  C   UNL A   1      38.275  31.236  30.422  1.00  0.00     0.049 A 
ATOM     15  N   UNL A   1      39.074  31.998  33.211  1.00  0.00    -0.248 NA
ATOM     16  C   UNL A   1      37.344  33.564  33.238  1.00  0.00     0.031 C 
ATOM     17  C   UNL A   1      37.951  30.846  29.048  1.00  0.00     0.029 A 
ATOM     18  N   UNL A   1      39.333  30.427  30.753  1.00  0.00    -0.354 N 
ATOM     19  C   UNL A   1      39.091  32.675  34.423  1.00  0.00     0.074 A 
ATOM     20  C   UNL A   1      38.026  33.654  34.372  1.00  0.00     0.031 C 
ATOM     21  C   UNL A   1      38.757  29.842  28.671  1.00  0.00     0.029 A 
ATOM     22  C   UNL A   1      39.694  29.557  29.752  1.00  0.00     0.049 A 
ATOM     23  H   UNL A   1      39.790  30.465  31.624  1.00  0.00     0.167 HD
ATOM     24  C   UNL A   1      39.914  32.488  35.484  1.00  0.00     0.037 A 
ATOM     25  C   UNL A   1      40.678  28.641  29.698  1.00  0.00     0.037 A 
ATOM     26  C   UNL A   1      40.962  31.499  35.541  1.00  0.00     0.049 A 
ATOM     27  C   UNL A   1      41.574  28.457  30.889  1.00  0.00     0.074 A 
ATOM     28  C   UNL A   1      41.813  31.205  36.593  1.00  0.00     0.029 A 
ATOM     29  N   UNL A   1      41.305  30.647  34.503  1.00  0.00    -0.354 N 
ATOM     30  N   UNL A   1      41.547  29.072  32.045  1.00  0.00    -0.248 NA
ATOM     31  C   UNL A   1      42.639  27.452  30.765  1.00  0.00     0.031 C 
ATOM     32  C   UNL A   1      42.700  30.205  36.175  1.00  0.00     0.029 A 
ATOM     33  C   UNL A   1      42.369  29.842  34.880  1.00  0.00     0.049 A 
ATOM     34  H   UNL A   1      40.857  30.617  33.625  1.00  0.00     0.167 HD
ATOM     35  C   UNL A   1      42.579  28.523  32.792  1.00  0.00     0.074 A 
ATOM     36  C   UNL A   1      43.199  27.508  31.966  1.00  0.00     0.031 C 
ATOM     37  C   UNL A   1      42.979  28.838  34.047  1.00  0.00     0.037 A 
BRANCH  24  38
ATOM     38  C   UNL A   1      39.729  33.380  36.678  1.00  0.00     0.064 A 
ATOM     39  C   UNL A   1      40.399  34.607  36.791  1.00  0.00     0.173 A 
ATOM     40  C   UNL A   1      38.825  33.030  37.693  1.00  0.00     0.173 A 
ATOM     41  F   UNL A   1      41.281  34.983  35.853  1.00  0.00    -0.203 F 
ATOM     42  C   UNL A   1      40.185  35.442  37.885  1.00  0.00     0.198 A 
ATOM     43  C   UNL A   1      38.594  33.879  38.773  1.00  0.00     0.198 A 
ATOM     44  F   UNL A   1      38.152  31.871  37.629  1.00  0.00    -0.203 F 
ATOM     45  F   UNL A   1      40.863  36.593  37.990  1.00  0.00    -0.200 F 
ATOM     46  C   UNL A   1      39.278  35.082  38.871  1.00  0.00     0.200 A 
ATOM     47  F   UNL A   1      37.708  33.535  39.716  1.00  0.00    -0.200 F 
ATOM     48  F   UNL A   1      39.066  35.891  39.917  1.00  0.00    -0.200 F 
ENDBRANCH  24  38
BRANCH  25  49
ATOM     49  C   UNL A   1      40.861  27.830  28.467  1.00  0.00     0.064 A 
ATOM     50  C   UNL A   1      40.220  26.593  28.314  1.00  0.00     0.173 A 
ATOM     51  C   UNL A   1      41.669  28.282  27.412  1.00  0.00     0.173 A 
ATOM     52  F   UNL A   1      39.455  26.109  29.303  1.00  0.00    -0.203 F 
ATOM     53  C   UNL A   1      40.387  25.836  27.156  1.00  0.00     0.198 A 
ATOM     54  C   UNL A   1      41.811  27.538  26.245  1.00  0.00     0.198 A 
ATOM     55  F   UNL A   1      42.300  29.461  27.509  1.00  0.00    -0.203 F 
ATOM     56  F   UNL A   1      39.792  24.640  27.051  1.00  0.00    -0.200 F 
ATOM     57  C   UNL A   1      41.176  26.312  26.120  1.00  0.00     0.200 A 
ATOM     58  F   UNL A   1      42.560  28.010  25.239  1.00  0.00    -0.200 F 
ATOM     59  F   UNL A   1      41.327  25.588  25.003  1.00  0.00    -0.200 F 
ENDBRANCH  25  49
BRANCH  37  60
ATOM     60  C   UNL A   1      44.131  28.059  34.612  1.00  0.00     0.064 A 
ATOM     61  C   UNL A   1      45.453  28.514  34.493  1.00  0.00     0.173 A 
ATOM     62  C   UNL A   1      43.908  26.858  35.301  1.00  0.00     0.173 A 
ATOM     63  F   UNL A   1      45.718  29.648  33.827  1.00  0.00    -0.203 F 
ATOM     64  C   UNL A   1      46.512  27.780  35.021  1.00  0.00     0.198 A 
ATOM     65  C   UNL A   1      44.966  26.141  35.852  1.00  0.00     0.198 A 
ATOM     66  F   UNL A   1      42.662  26.383  35.446  1.00  0.00    -0.203 F 
ATOM     67  F   UNL A   1      47.770  28.209  34.853  1.00  0.00    -0.200 F 
ATOM     68  C   UNL A   1      46.267  26.599  35.705  1.00  0.00     0.200 A 
ATOM     69  F   UNL A   1      44.728  25.005  36.522  1.00  0.00    -0.200 F 
ATOM     70  F   UNL A   1      47.288  25.896  36.215  1.00  0.00    -0.200 F 
ENDBRANCH  37  60
ENDBRANCH  11  12
ENDBRANCH   4   6
ENDBRANCH   1   2
BRANCH   1  71
ATOM     71  C   UNL A   1      31.333  31.963  26.509  1.00  0.00     0.042 C 
BRANCH  71  72
ATOM     72  C   UNL A   1      31.408  30.446  26.386  1.00  0.00     0.117 C 
BRANCH  72  73
ATOM     73  N   UNL A   1      32.427  30.066  25.428  1.00  0.00    -0.354 N 
ATOM     74  C   UNL A   1      32.645  28.864  24.822  1.00  0.00     0.242 C 
ATOM     75  H   UNL A   1      33.055  30.783  25.178  1.00  0.00     0.163 HD
ATOM     76  O   UNL A   1      33.707  28.757  24.199  1.00  0.00    -0.273 OA
BRANCH  74  77
ATOM     77  C   UNL A   1      31.565  27.746  24.841  1.00  0.00     0.171 C 
ATOM     78  C   UNL A   1      30.453  28.077  23.822  1.00  0.00     0.035 C 
ATOM     79  N   UNL A   1      32.119  26.383  24.579  1.00  0.00    -0.359 N 
ATOM     80  C   UNL A   1      30.865  27.801  22.376  1.00  0.00     0.004 C 
ATOM     81  C   UNL A   1      32.537  26.103  23.202  1.00  0.00     0.117 C 
ATOM     82  C   UNL A   1      31.403  26.384  22.221  1.00  0.00     0.022 C 
BRANCH  79  83
ATOM     83  C   UNL A   1      31.710  25.306  25.386  1.00  0.00     0.048 A 
ATOM     84  C   UNL A   1      30.367  25.171  25.754  1.00  0.00     0.046 A 
ATOM     85  C   UNL A   1      32.633  24.356  25.928  1.00  0.00     0.024 A 
ATOM     86  C   UNL A   1      29.995  24.189  26.651  1.00  0.00     0.114 A 
ATOM     87  C   UNL A   1      32.148  23.435  26.890  1.00  0.00     0.072 A 
ATOM     88  C   UNL A   1      34.013  24.291  25.610  1.00  0.00     0.012 A 
ATOM     89  N   UNL A   1      30.859  23.348  27.238  1.00  0.00    -0.256 NA
ATOM     90  C   UNL A   1      33.038  22.587  27.537  1.00  0.00     0.029 A 
ATOM     91  C   UNL A   1      34.890  23.428  26.268  1.00  0.00     0.001 A 
ATOM     92  C   UNL A   1      34.403  22.586  27.252  1.00  0.00     0.002 A 
ENDBRANCH  79  83
ENDBRANCH  74  77
ENDBRANCH  72  73
ENDBRANCH  71  72
ENDBRANCH   1  71
TORSDOF 11
ENDMDL
MODEL 2
REMARK VINA RESULT:     -13.0      0.027      1.133
REMARK SMILES O=C(NCCCNC(=O)[C@H]1CCCCN1c1ccnc2ccccc12)c1ccc(-c2c3nc(c(-c4c(F)c(F)c(F)c(F)c4F)c4ccc([nH]4)c(-c4c(F)c(F)c(F)c(F)c4F)c4nc(c(-c5c(F)c(F)c(F)c(F)c5F)c5ccc2[nH]5)C=C4)C=C3)cc1
REMARK SMILES IDX 4 1 3 2 1 3 2 4 26 6 27 7 88 8 28 9 87 10 29 11 30 12 31 13
REMARK SMILES IDX 81 14 32 15 86 16 80 17 82 18 33 19 85 20 79 21 78 22 34 24
REMARK SMILES IDX 66 25 46 26 65 27 47 28 50 29 64 30 83 31 48 32 49 33 63 35
REMARK SMILES IDX 84 36 51 37 35 38 36 39 44 40 37 41 38 42 42 43 45 44 39 45
REMARK SMILES IDX 40 46 43 47 41 48 67 49 68 50 76 51 69 52 70 53 74 54 77 55
REMARK SMILES IDX 71 56 72 57 75 58 73 59 52 60 53 61 61 62 54 63 55 64 59 65
REMARK SMILES IDX 62 66 56 67 57 68 60 69 58 70 5 71 6 72 7 73 8 74 9 76 10 77
REMARK SMILES IDX 11 78 15 79 12 80 14 81 13 82 16 83 17 84 25 85 18 86 20 87
REMARK SMILES IDX 24 88 19 89 21 90 23 91 22 92
REMARK H PARENT 3 5 82 23 50 34 7 75
REMARK Flexibility Score: inf
ROOT
ATOM      1  C   UNL A   1      32.657  32.624  26.876  1.00  0.00     0.118 C 
ENDROOT
BRANCH   1   2
ATOM      2  N   UNL A   1      32.480  33.953  27.434  1.00  0.00    -0.352 N 
ATOM      3  O   UNL A   1      32.587  35.641  28.900  1.00  0.00    -0.269 OA
ATOM      4  C   UNL A   1      33.053  34.570  28.519  1.00  0.00     0.251 C 
ATOM      5  H   UNL A   1      31.832  34.512  26.948  1.00  0.00     0.163 HD
BRANCH   4   6
ATOM      6  C   UNL A   1      34.205  33.985  29.253  1.00  0.00     0.039 A 
ATOM      7  C   UNL A   1      34.056  32.964  30.191  1.00  0.00     0.014 A 
ATOM      8  C   UNL A   1      35.497  34.402  28.905  1.00  0.00     0.014 A 
ATOM      9  C   UNL A   1      35.167  32.458  30.867  1.00  0.00     0.010 A 
ATOM     10  C   UNL A   1      36.621  33.821  29.508  1.00  0.00     0.010 A 
ATOM     11  C   UNL A   1      36.466  32.855  30.511  1.00  0.00    -0.014 A 
BRANCH  11  12
ATOM     12  C   UNL A   1      37.637  32.174  31.130  1.00  0.00     0.031 A 
ATOM     13  C   UNL A   1      38.094  32.509  32.523  1.00  0.00     0.074 A 
ATOM     14  C   UNL A   1      38.291  31.232  30.420  1.00  0.00     0.049 A 
ATOM     15  N   UNL A   1      39.084  31.995  33.211  1.00  0.00    -0.248 NA
ATOM     16  C   UNL A   1      37.354  33.562  33.234  1.00  0.00     0.031 C 
ATOM     17  C   UNL A   1      37.969  30.842  29.046  1.00  0.00     0.029 A 
ATOM     18  N   UNL A   1      39.347  30.424  30.754  1.00  0.00    -0.354 N 
ATOM     19  C   UNL A   1      39.099  32.673  34.422  1.00  0.00     0.074 A 
ATOM     20  C   UNL A   1      38.034  33.653  34.369  1.00  0.00     0.031 C 
ATOM     21  C   UNL A   1      38.775  29.838  28.671  1.00  0.00     0.029 A 
ATOM     22  C   UNL A   1      39.711  29.553  29.754  1.00  0.00     0.049 A 
ATOM     23  H   UNL A   1      39.803  30.462  31.626  1.00  0.00     0.167 HD
ATOM     24  C   UNL A   1      39.920  32.487  35.485  1.00  0.00     0.037 A 
ATOM     25  C   UNL A   1      40.695  28.637  29.702  1.00  0.00     0.037 A 
ATOM     26  C   UNL A   1      40.968  31.498  35.545  1.00  0.00     0.049 A 
ATOM     27  C   UNL A   1      41.589  28.453  30.895  1.00  0.00     0.074 A 
ATOM     28  C   UNL A   1      41.817  31.205  36.598  1.00  0.00     0.029 A 
ATOM     29  N   UNL A   1      41.312  30.645  34.507  1.00  0.00    -0.354 N 
ATOM     30  N   UNL A   1      41.559  29.069  32.051  1.00  0.00    -0.248 NA
ATOM     31  C   UNL A   1      42.654  27.449  30.774  1.00  0.00     0.031 C 
ATOM     32  C   UNL A   1      42.705  30.205  36.182  1.00  0.00     0.029 A 
ATOM     33  C   UNL A   1      42.376  29.841  34.887  1.00  0.00     0.049 A 
ATOM     34  H   UNL A   1      40.867  30.615  33.629  1.00  0.00     0.167 HD
ATOM     35  C   UNL A   1      42.590  28.521  32.800  1.00  0.00     0.074 A 
ATOM     36  C   UNL A   1      43.212  27.505  31.975  1.00  0.00     0.031 C 
ATOM     37  C   UNL A   1      42.988  28.836  34.056  1.00  0.00     0.037 A 
BRANCH  24  38
ATOM     38  C   UNL A   1      39.733  33.380  36.678  1.00  0.00     0.064 A 
ATOM     39  C   UNL A   1      40.403  34.606  36.793  1.00  0.00     0.173 A 
ATOM     40  C   UNL A   1      38.826  33.030  37.691  1.00  0.00     0.173 A 
ATOM     41  F   UNL A   1      41.287  34.981  35.856  1.00  0.00    -0.203 F 
ATOM     42  C   UNL A   1      40.187  35.441  37.886  1.00  0.00     0.198 A 
ATOM     43  C   UNL A   1      38.594  33.880  38.770  1.00  0.00     0.198 A 
ATOM     44  F   UNL A   1      38.153  31.872  37.626  1.00  0.00    -0.203 F 
ATOM     45  F   UNL A   1      40.866  36.592  37.992  1.00  0.00    -0.200 F 
ATOM     46  C   UNL A   1      39.278  35.082  38.869  1.00  0.00     0.200 A 
ATOM     47  F   UNL A   1      37.705  33.537  39.712  1.00  0.00    -0.200 F 
ATOM     48  F   UNL A   1      39.064  35.892  39.915  1.00  0.00    -0.200 F 
ENDBRANCH  24  38
BRANCH  25  49
ATOM     49  C   UNL A   1      40.880  27.825  28.472  1.00  0.00     0.064 A 
ATOM     50  C   UNL A   1      40.236  26.591  28.317  1.00  0.00     0.173 A 
ATOM     51  C   UNL A   1      41.693  28.276  27.420  1.00  0.00     0.173 A 
ATOM     52  F   UNL A   1      39.466  26.109  29.303  1.00  0.00    -0.203 F 
ATOM     53  C   UNL A   1      40.405  25.832  27.160  1.00  0.00     0.198 A 
ATOM     54  C   UNL A   1      41.838  27.530  26.253  1.00  0.00     0.198 A 
ATOM     55  F   UNL A   1      42.328  29.453  27.519  1.00  0.00    -0.203 F 
ATOM     56  F   UNL A   1      39.807  24.638  27.052  1.00  0.00    -0.200 F 
ATOM     57  C   UNL A   1      41.199  26.306  26.126  1.00  0.00     0.200 A 
ATOM     58  F   UNL A   1      42.592  28.000  25.250  1.00  0.00    -0.200 F 
ATOM     59  F   UNL A   1      41.353  25.582  25.010  1.00  0.00    -0.200 F 
ENDBRANCH  25  49
BRANCH  37  60
ATOM     60  C   UNL A   1      44.139  28.057  34.623  1.00  0.00     0.064 A 
ATOM     61  C   UNL A   1      43.942  26.842  35.295  1.00  0.00     0.173 A 
ATOM     62  C   UNL A   1      45.454  28.520  34.470  1.00  0.00     0.173 A 
ATOM     63  F   UNL A   1      42.700  26.368  35.481  1.00  0.00    -0.203 F 
ATOM     64  C   UNL A   1      45.019  26.130  35.816  1.00  0.00     0.198 A 
ATOM     65  C   UNL A   1      46.531  27.792  34.969  1.00  0.00     0.198 A 
ATOM     66  F   UNL A   1      45.696  29.675  33.832  1.00  0.00    -0.203 F 
ATOM     67  F   UNL A   1      44.803  24.996  36.496  1.00  0.00    -0.200 F 
ATOM     68  C   UNL A   1      46.312  26.602  35.648  1.00  0.00     0.200 A 
ATOM     69  F   UNL A   1      47.781  28.244  34.796  1.00  0.00    -0.200 F 
ATOM     70  F   UNL A   1      47.347  25.914  36.148  1.00  0.00    -0.200 F 
ENDBRANCH  37  60
ENDBRANCH  11  12
ENDBRANCH   4   6
ENDBRANCH   1   2
BRANCH   1  71
ATOM     71  C   UNL A   1      31.339  31.960  26.501  1.00  0.00     0.042 C 
BRANCH  71  72
ATOM     72  C   UNL A   1      31.403  30.443  26.374  1.00  0.00     0.117 C 
BRANCH  72  73
ATOM     73  N   UNL A   1      32.418  30.060  25.412  1.00  0.00    -0.354 N 
ATOM     74  C   UNL A   1      32.632  28.855  24.808  1.00  0.00     0.242 C 
ATOM     75  H   UNL A   1      33.045  30.775  25.156  1.00  0.00     0.163 HD
ATOM     76  O   UNL A   1      33.691  28.746  24.181  1.00  0.00    -0.273 OA
BRANCH  74  77
ATOM     77  C   UNL A   1      31.551  27.738  24.837  1.00  0.00     0.171 C 
ATOM     78  C   UNL A   1      30.433  28.068  23.824  1.00  0.00     0.035 C 
ATOM     79  N   UNL A   1      32.103  26.375  24.574  1.00  0.00    -0.359 N 
ATOM     80  C   UNL A   1      30.836  27.789  22.376  1.00  0.00     0.004 C 
ATOM     81  C   UNL A   1      32.513  26.092  23.194  1.00  0.00     0.117 C 
ATOM     82  C   UNL A   1      31.372  26.371  22.220  1.00  0.00     0.022 C 
BRANCH  79  83
ATOM     83  C   UNL A   1      31.699  25.299  25.385  1.00  0.00     0.048 A 
ATOM     84  C   UNL A   1      30.357  25.162  25.757  1.00  0.00     0.046 A 
ATOM     85  C   UNL A   1      32.626  24.353  25.928  1.00  0.00     0.024 A 
ATOM     86  C   UNL A   1      29.990  24.182  26.658  1.00  0.00     0.114 A 
ATOM     87  C   UNL A   1      32.145  23.434  26.894  1.00  0.00     0.072 A 
ATOM     88  C   UNL A   1      34.005  24.290  25.607  1.00  0.00     0.012 A 
ATOM     89  N   UNL A   1      30.857  23.345  27.246  1.00  0.00    -0.256 NA
ATOM     90  C   UNL A   1      33.039  22.590  27.541  1.00  0.00     0.029 A 
ATOM     91  C   UNL A   1      34.886  23.432  26.265  1.00  0.00     0.001 A 
ATOM     92  C   UNL A   1      34.403  22.591  27.252  1.00  0.00     0.002 A 
ENDBRANCH  79  83
ENDBRANCH  74  77
ENDBRANCH  72  73
ENDBRANCH  71  72
ENDBRANCH   1  71
TORSDOF 11
ENDMDL
MODEL 3
REMARK VINA RESULT:     -12.9      0.776      7.378
REMARK SMILES O=C(NCCCNC(=O)[C@H]1CCCCN1c1ccnc2ccccc12)c1ccc(-c2c3nc(c(-c4c(F)c(F)c(F)c(F)c4F)c4ccc([nH]4)c(-c4c(F)c(F)c(F)c(F)c4F)c4nc(c(-c5c(F)c(F)c(F)c(F)c5F)c5ccc2[nH]5)C=C4)C=C3)cc1
REMARK SMILES IDX 4 1 3 2 1 3 2 4 26 6 27 7 88 8 28 9 87 10 29 11 30 12 31 13
REMARK SMILES IDX 81 14 32 15 86 16 80 17 82 18 33 19 85 20 79 21 78 22 34 24
REMARK SMILES IDX 66 25 46 26 65 27 47 28 50 29 64 30 83 31 48 32 49 33 63 35
REMARK SMILES IDX 84 36 51 37 35 38 36 39 44 40 37 41 38 42 42 43 45 44 39 45
REMARK SMILES IDX 40 46 43 47 41 48 67 49 68 50 76 51 69 52 70 53 74 54 77 55
REMARK SMILES IDX 71 56 72 57 75 58 73 59 52 60 53 61 61 62 54 63 55 64 59 65
REMARK SMILES IDX 62 66 56 67 57 68 60 69 58 70 5 71 6 72 7 73 8 74 9 76 10 77
REMARK SMILES IDX 11 78 15 79 12 80 14 81 13 82 16 83 17 84 25 85 18 86 20 87
REMARK SMILES IDX 24 88 19 89 21 90 23 91 22 92
REMARK H PARENT 3 5 82 23 50 34 7 75
REMARK Flexibility Score: inf
ROOT
ATOM      1  C   UNL A   1      32.681  32.845  27.117  1.00  0.00     0.118 C 
ENDROOT
BRANCH   1   2
ATOM      2  N   UNL A   1      32.512  34.197  27.617  1.00  0.00    -0.352 N 
ATOM      3  O   UNL A   1      32.604  35.941  29.017  1.00  0.00    -0.269 OA
ATOM      4  C   UNL A   1      33.061  34.847  28.694  1.00  0.00     0.251 C 
ATOM      5  H   UNL A   1      31.889  34.748  27.088  1.00  0.00     0.163 HD
BRANCH   4   6
ATOM      6  C   UNL A   1      34.179  34.272  29.487  1.00  0.00     0.039 A 
ATOM      7  C   UNL A   1      33.967  33.468  30.607  1.00  0.00     0.014 A 
ATOM      8  C   UNL A   1      35.489  34.457  29.024  1.00  0.00     0.014 A 
ATOM      9  C   UNL A   1      35.050  32.964  31.329  1.00  0.00     0.010 A 
ATOM     10  C   UNL A   1      36.571  33.865  29.689  1.00  0.00     0.010 A 
ATOM     11  C   UNL A   1      36.363  33.127  30.861  1.00  0.00    -0.014 A 
BRANCH  11  12
ATOM     12  C   UNL A   1      37.482  32.435  31.559  1.00  0.00     0.031 A 
ATOM     13  C   UNL A   1      38.224  31.296  30.915  1.00  0.00     0.074 A 
ATOM     14  C   UNL A   1      37.836  32.851  32.791  1.00  0.00     0.049 A 
ATOM     15  N   UNL A   1      39.232  30.600  31.383  1.00  0.00    -0.248 NA
ATOM     16  C   UNL A   1      37.774  30.874  29.581  1.00  0.00     0.031 C 
ATOM     17  C   UNL A   1      37.173  33.922  33.539  1.00  0.00     0.029 A 
ATOM     18  N   UNL A   1      38.843  32.441  33.627  1.00  0.00    -0.354 N 
ATOM     19  C   UNL A   1      39.521  29.650  30.414  1.00  0.00     0.074 A 
ATOM     20  C   UNL A   1      38.569  29.840  29.340  1.00  0.00     0.031 C 
ATOM     21  C   UNL A   1      37.818  34.117  34.699  1.00  0.00     0.029 A 
ATOM     22  C   UNL A   1      38.903  33.147  34.805  1.00  0.00     0.049 A 
ATOM     23  H   UNL A   1      39.465  31.710  33.406  1.00  0.00     0.167 HD
ATOM     24  C   UNL A   1      40.500  28.711  30.416  1.00  0.00     0.037 A 
ATOM     25  C   UNL A   1      39.726  33.024  35.863  1.00  0.00     0.037 A 
ATOM     26  C   UNL A   1      41.461  28.535  31.477  1.00  0.00     0.049 A 
ATOM     27  C   UNL A   1      40.800  31.975  35.836  1.00  0.00     0.074 A 
ATOM     28  C   UNL A   1      42.517  27.642  31.544  1.00  0.00     0.029 A 
ATOM     29  N   UNL A   1      41.479  29.261  32.658  1.00  0.00    -0.354 N 
ATOM     30  N   UNL A   1      41.091  31.115  34.892  1.00  0.00    -0.248 NA
ATOM     31  C   UNL A   1      41.658  31.878  37.025  1.00  0.00     0.031 C 
ATOM     32  C   UNL A   1      43.147  27.798  32.784  1.00  0.00     0.029 A 
ATOM     33  C   UNL A   1      42.514  28.822  33.469  1.00  0.00     0.049 A 
ATOM     34  H   UNL A   1      40.848  29.983  32.887  1.00  0.00     0.167 HD
ATOM     35  C   UNL A   1      42.172  30.384  35.363  1.00  0.00     0.074 A 
ATOM     36  C   UNL A   1      42.499  30.917  36.670  1.00  0.00     0.031 C 
ATOM     37  C   UNL A   1      42.828  29.358  34.769  1.00  0.00     0.037 A 
BRANCH  24  38
ATOM     38  C   UNL A   1      40.582  27.783  29.238  1.00  0.00     0.064 A 
ATOM     39  C   UNL A   1      39.751  26.659  29.126  1.00  0.00     0.173 A 
ATOM     40  C   UNL A   1      41.462  28.056  28.179  1.00  0.00     0.173 A 
ATOM     41  F   UNL A   1      38.899  26.349  30.116  1.00  0.00    -0.203 F 
ATOM     42  C   UNL A   1      39.811  25.832  28.007  1.00  0.00     0.198 A 
ATOM     43  C   UNL A   1      41.501  27.241  27.050  1.00  0.00     0.198 A 
ATOM     44  F   UNL A   1      42.272  29.123  28.232  1.00  0.00    -0.203 F 
ATOM     45  F   UNL A   1      39.033  24.742  27.939  1.00  0.00    -0.200 F 
ATOM     46  C   UNL A   1      40.679  26.127  26.968  1.00  0.00     0.200 A 
ATOM     47  F   UNL A   1      42.331  27.536  26.041  1.00  0.00    -0.200 F 
ATOM     48  F   UNL A   1      40.728  25.336  25.887  1.00  0.00    -0.200 F 
ENDBRANCH  24  38
BRANCH  25  49
ATOM     49  C   UNL A   1      39.560  33.923  37.033  1.00  0.00     0.064 A 
ATOM     50  C   UNL A   1      38.803  33.531  38.145  1.00  0.00     0.173 A 
ATOM     51  C   UNL A   1      40.168  35.187  37.069  1.00  0.00     0.173 A 
ATOM     52  F   UNL A   1      38.186  32.341  38.148  1.00  0.00    -0.203 F 
ATOM     53  C   UNL A   1      38.654  34.373  39.246  1.00  0.00     0.198 A 
ATOM     54  C   UNL A   1      40.042  36.015  38.181  1.00  0.00     0.198 A 
ATOM     55  F   UNL A   1      40.906  35.607  36.030  1.00  0.00    -0.203 F 
ATOM     56  F   UNL A   1      37.894  33.989  40.281  1.00  0.00    -0.200 F 
ATOM     57  C   UNL A   1      39.279  35.611  39.266  1.00  0.00     0.200 A 
ATOM     58  F   UNL A   1      40.662  37.203  38.203  1.00  0.00    -0.200 F 
ATOM     59  F   UNL A   1      39.143  36.415  40.328  1.00  0.00    -0.200 F 
ENDBRANCH  25  49
BRANCH  37  60
ATOM     60  C   UNL A   1      43.982  28.760  35.519  1.00  0.00     0.064 A 
ATOM     61  C   UNL A   1      45.291  29.233  35.348  1.00  0.00     0.173 A 
ATOM     62  C   UNL A   1      43.771  27.720  36.436  1.00  0.00     0.173 A 
ATOM     63  F   UNL A   1      45.545  30.214  34.469  1.00  0.00    -0.203 F 
ATOM     64  C   UNL A   1      46.352  28.668  36.051  1.00  0.00     0.198 A 
ATOM     65  C   UNL A   1      44.831  27.176  37.157  1.00  0.00     0.198 A 
ATOM     66  F   UNL A   1      42.537  27.236  36.638  1.00  0.00    -0.203 F 
ATOM     67  F   UNL A   1      47.602  29.103  35.836  1.00  0.00    -0.200 F 
ATOM     68  C   UNL A   1      46.121  27.645  36.958  1.00  0.00     0.200 A 
ATOM     69  F   UNL A   1      44.604  26.195  38.041  1.00  0.00    -0.200 F 
ATOM     70  F   UNL A   1      47.143  27.105  37.634  1.00  0.00    -0.200 F 
ENDBRANCH  37  60
ENDBRANCH  11  12
ENDBRANCH   4   6
ENDBRANCH   1   2
BRANCH   1  71
ATOM     71  C   UNL A   1      31.403  32.270  26.521  1.00  0.00     0.042 C 
BRANCH  71  72
ATOM     72  C   UNL A   1      31.403  30.755  26.352  1.00  0.00     0.117 C 
BRANCH  72  73
ATOM     73  N   UNL A   1      32.404  30.356  25.382  1.00  0.00    -0.354 N 
ATOM     74  C   UNL A   1      32.598  29.146  24.783  1.00  0.00     0.242 C 
ATOM     75  H   UNL A   1      33.036  31.063  25.117  1.00  0.00     0.163 HD
ATOM     76  O   UNL A   1      33.649  29.021  24.146  1.00  0.00    -0.273 OA
BRANCH  74  77
ATOM     77  C   UNL A   1      31.504  28.041  24.828  1.00  0.00     0.171 C 
ATOM     78  C   UNL A   1      30.346  28.415  23.877  1.00  0.00     0.035 C 
ATOM     79  N   UNL A   1      32.025  26.680  24.500  1.00  0.00    -0.359 N 
ATOM     80  C   UNL A   1      30.679  28.175  22.405  1.00  0.00     0.004 C 
ATOM     81  C   UNL A   1      32.368  26.434  23.095  1.00  0.00     0.117 C 
ATOM     82  C   UNL A   1      31.188  26.757  22.182  1.00  0.00     0.022 C 
BRANCH  79  83
ATOM     83  C   UNL A   1      31.644  25.586  25.296  1.00  0.00     0.048 A 
ATOM     84  C   UNL A   1      30.306  25.421  25.675  1.00  0.00     0.046 A 
ATOM     85  C   UNL A   1      32.589  24.646  25.818  1.00  0.00     0.024 A 
ATOM     86  C   UNL A   1      29.961  24.422  26.563  1.00  0.00     0.114 A 
ATOM     87  C   UNL A   1      32.129  23.704  26.773  1.00  0.00     0.072 A 
ATOM     88  C   UNL A   1      33.966  24.609  25.486  1.00  0.00     0.012 A 
ATOM     89  N   UNL A   1      30.845  23.589  27.132  1.00  0.00    -0.256 NA
ATOM     90  C   UNL A   1      33.041  22.864  27.400  1.00  0.00     0.029 A 
ATOM     91  C   UNL A   1      34.865  23.755  26.125  1.00  0.00     0.001 A 
ATOM     92  C   UNL A   1      34.402  22.892  27.102  1.00  0.00     0.002 A 
ENDBRANCH  79  83
ENDBRANCH  74  77
ENDBRANCH  72  73
ENDBRANCH  71  72
ENDBRANCH   1  71
TORSDOF 11
ENDMDL
