MODEL 1
REMARK VINA RESULT:     -13.1      0.000      0.000
REMARK SMILES C[C@@H]1CCCN(C(=O)c2ccc(=O)n([C@H](C)C(=O)NCCCNC(=O)c3ccc(-c4c5nc(c(-c6c(F)c(F)c(F)c(F)c6F)c6ccc([nH]6)c(-c6c(F)c(F)c(F)c(F)c6F)c6nc(c(-c7c(F)c(F)c(F)c(F)c7F)c7ccc4[nH]7)C=C6)C=C5)cc3)n2)C1
REMARK SMILES IDX 20 1 19 2 17 3 18 4 15 6 16 7 14 8 9 9 10 10 89 11 11 12
REMARK SMILES IDX 12 13 13 14 7 15 8 16 6 17 1 18 2 19 3 20 90 21 4 22 5 23
REMARK SMILES IDX 21 24 22 25 23 26 24 27 25 29 26 30 27 31 88 32 28 33 87 34
REMARK SMILES IDX 29 35 30 36 31 37 81 38 32 39 86 40 80 41 82 42 33 43 85 44
REMARK SMILES IDX 79 45 78 46 34 48 66 49 46 50 65 51 47 52 50 53 64 54 83 55
REMARK SMILES IDX 48 56 49 57 63 59 84 60 51 61 35 62 36 63 44 64 37 65 38 66
REMARK SMILES IDX 42 67 45 68 39 69 40 70 43 71 41 72 67 73 68 74 76 75 69 76
REMARK SMILES IDX 70 77 74 78 77 79 71 80 72 81 75 82 73 83 52 84 53 85 61 86
REMARK SMILES IDX 54 87 55 88 59 89 62 90 56 91 57 92 60 93 58 94
REMARK H PARENT 19 5 23 28 82 47 50 58
REMARK Flexibility Score: inf
ROOT
ATOM      1  C   UNL A   1      31.026  30.151  24.849  1.00  0.00     0.117 C 
ENDROOT
BRANCH   1   2
ATOM      2  N   UNL A   1      30.731  29.607  23.544  1.00  0.00    -0.354 N 
ATOM      3  C   UNL A   1      30.274  28.369  23.207  1.00  0.00     0.244 C 
ATOM      4  O   UNL A   1      30.270  28.100  22.001  1.00  0.00    -0.273 OA
ATOM      5  H   UNL A   1      30.882  30.220  22.788  1.00  0.00     0.163 HD
BRANCH   3   6
ATOM      6  C   UNL A   1      29.906  27.309  24.265  1.00  0.00     0.197 C 
ATOM      7  C   UNL A   1      28.646  26.539  23.855  1.00  0.00     0.044 C 
BRANCH   6   8
ATOM      8  N   UNL A   1      31.067  26.486  24.661  1.00  0.00    -0.217 N 
ATOM      9  C   UNL A   1      32.812  25.111  24.059  1.00  0.00     0.149 A 
ATOM     10  C   UNL A   1      33.220  24.889  25.454  1.00  0.00     0.042 A 
ATOM     11  N   UNL A   1      31.808  25.839  23.676  1.00  0.00    -0.164 NA
ATOM     12  C   UNL A   1      32.499  25.514  26.385  1.00  0.00     0.076 A 
ATOM     13  C   UNL A   1      31.353  26.377  26.021  1.00  0.00     0.267 A 
ATOM     14  O   UNL A   1      30.735  26.939  26.920  1.00  0.00    -0.268 OA
BRANCH   9  15
ATOM     15  C   UNL A   1      33.654  24.400  23.010  1.00  0.00     0.274 C 
ATOM     16  O   UNL A   1      34.033  25.071  22.056  1.00  0.00    -0.267 OA
BRANCH  15  17
ATOM     17  N   UNL A   1      33.899  23.040  23.177  1.00  0.00    -0.337 N 
ATOM     18  C   UNL A   1      36.652  21.234  25.114  1.00  0.00     0.009 C 
ATOM     19  C   UNL A   1      35.265  21.795  24.815  1.00  0.00     0.005 C 
ATOM     20  C   UNL A   1      34.226  20.663  24.783  1.00  0.00     0.007 C 
ATOM     21  C   UNL A   1      35.251  22.581  23.493  1.00  0.00     0.123 C 
ATOM     22  C   UNL A   1      32.852  21.207  24.405  1.00  0.00     0.022 C 
ATOM     23  C   UNL A   1      32.893  21.987  23.097  1.00  0.00     0.120 C 
ENDBRANCH  15  17
ENDBRANCH   9  15
ENDBRANCH   6   8
ENDBRANCH   3   6
ENDBRANCH   1   2
BRANCH   1  24
ATOM     24  C   UNL A   1      32.395  29.726  25.354  1.00  0.00     0.042 C 
BRANCH  24  25
ATOM     25  C   UNL A   1      32.652  30.129  26.797  1.00  0.00     0.118 C 
BRANCH  25  26
ATOM     26  N   UNL A   1      32.648  31.578  27.001  1.00  0.00    -0.352 N 
ATOM     27  C   UNL A   1      33.531  32.424  27.631  1.00  0.00     0.251 C 
ATOM     28  H   UNL A   1      31.867  32.033  26.613  1.00  0.00     0.163 HD
ATOM     29  O   UNL A   1      33.198  33.590  27.839  1.00  0.00    -0.269 OA
BRANCH  27  30
ATOM     30  C   UNL A   1      34.849  31.946  28.102  1.00  0.00     0.039 A 
ATOM     31  C   UNL A   1      35.044  30.612  28.441  1.00  0.00     0.014 A 
ATOM     32  C   UNL A   1      35.922  32.840  28.198  1.00  0.00     0.014 A 
ATOM     33  C   UNL A   1      36.193  30.233  29.116  1.00  0.00     0.010 A 
ATOM     34  C   UNL A   1      37.143  32.416  28.740  1.00  0.00     0.010 A 
ATOM     35  C   UNL A   1      37.266  31.125  29.272  1.00  0.00    -0.014 A 
BRANCH  35  36
ATOM     36  C   UNL A   1      38.478  30.651  29.995  1.00  0.00     0.031 A 
ATOM     37  C   UNL A   1      38.709  30.988  31.443  1.00  0.00     0.074 A 
ATOM     38  C   UNL A   1      39.322  29.811  29.360  1.00  0.00     0.049 A 
ATOM     39  N   UNL A   1      39.638  30.543  32.252  1.00  0.00    -0.248 NA
ATOM     40  C   UNL A   1      37.793  31.956  32.066  1.00  0.00     0.031 C 
ATOM     41  C   UNL A   1      39.217  29.425  27.950  1.00  0.00     0.029 A 
ATOM     42  N   UNL A   1      40.392  29.086  29.820  1.00  0.00    -0.354 N 
ATOM     43  C   UNL A   1      39.434  31.193  33.463  1.00  0.00     0.074 A 
ATOM     44  C   UNL A   1      38.313  32.087  33.278  1.00  0.00     0.031 C 
ATOM     45  C   UNL A   1      40.113  28.466  27.688  1.00  0.00     0.029 A 
ATOM     46  C   UNL A   1      40.911  28.223  28.885  1.00  0.00     0.049 A 
ATOM     47  H   UNL A   1      40.754  29.176  30.731  1.00  0.00     0.167 HD
ATOM     48  C   UNL A   1      40.113  31.045  34.625  1.00  0.00     0.037 A 
ATOM     49  C   UNL A   1      41.915  27.330  28.973  1.00  0.00     0.037 A 
ATOM     50  C   UNL A   1      41.197  30.120  34.819  1.00  0.00     0.049 A 
ATOM     51  C   UNL A   1      42.647  27.181  30.276  1.00  0.00     0.074 A 
ATOM     52  C   UNL A   1      41.901  29.852  35.980  1.00  0.00     0.029 A 
ATOM     53  N   UNL A   1      41.734  29.310  33.828  1.00  0.00    -0.354 N 
ATOM     54  N   UNL A   1      42.416  27.774  31.420  1.00  0.00    -0.248 NA
ATOM     55  C   UNL A   1      43.786  26.254  30.295  1.00  0.00     0.031 C 
ATOM     56  C   UNL A   1      42.898  28.919  35.680  1.00  0.00     0.029 A 
ATOM     57  C   UNL A   1      42.784  28.568  34.344  1.00  0.00     0.049 A 
ATOM     58  H   UNL A   1      41.416  29.269  32.898  1.00  0.00     0.167 HD
ATOM     59  C   UNL A   1      43.379  27.298  32.298  1.00  0.00     0.074 A 
ATOM     60  C   UNL A   1      44.182  26.344  31.559  1.00  0.00     0.031 C 
ATOM     61  C   UNL A   1      43.582  27.631  33.594  1.00  0.00     0.037 A 
BRANCH  48  62
ATOM     62  C   UNL A   1      39.714  31.909  35.788  1.00  0.00     0.064 A 
ATOM     63  C   UNL A   1      40.348  33.131  36.054  1.00  0.00     0.173 A 
ATOM     64  C   UNL A   1      38.636  31.536  36.607  1.00  0.00     0.173 A 
ATOM     65  F   UNL A   1      41.389  33.528  35.307  1.00  0.00    -0.203 F 
ATOM     66  C   UNL A   1      39.931  33.939  37.110  1.00  0.00     0.198 A 
ATOM     67  C   UNL A   1      38.205  32.360  37.644  1.00  0.00     0.198 A 
ATOM     68  F   UNL A   1      37.990  30.381  36.391  1.00  0.00    -0.203 F 
ATOM     69  F   UNL A   1      40.575  35.085  37.369  1.00  0.00    -0.200 F 
ATOM     70  C   UNL A   1      38.854  33.558  37.897  1.00  0.00     0.200 A 
ATOM     71  F   UNL A   1      37.157  31.996  38.395  1.00  0.00    -0.200 F 
ATOM     72  F   UNL A   1      38.447  34.343  38.904  1.00  0.00    -0.200 F 
ENDBRANCH  48  62
BRANCH  49  73
ATOM     73  C   UNL A   1      42.265  26.515  27.782  1.00  0.00     0.064 A 
ATOM     74  C   UNL A   1      43.281  26.914  26.905  1.00  0.00     0.173 A 
ATOM     75  C   UNL A   1      41.639  25.282  27.540  1.00  0.00     0.173 A 
ATOM     76  F   UNL A   1      43.898  28.092  27.086  1.00  0.00    -0.203 F 
ATOM     77  C   UNL A   1      43.666  26.107  25.836  1.00  0.00     0.198 A 
ATOM     78  C   UNL A   1      42.044  24.463  26.490  1.00  0.00     0.198 A 
ATOM     79  F   UNL A   1      40.665  24.854  28.356  1.00  0.00    -0.203 F 
ATOM     80  F   UNL A   1      44.633  26.516  25.003  1.00  0.00    -0.200 F 
ATOM     81  C   UNL A   1      43.056  24.876  25.637  1.00  0.00     0.200 A 
ATOM     82  F   UNL A   1      41.467  23.266  26.316  1.00  0.00    -0.200 F 
ATOM     83  F   UNL A   1      43.447  24.087  24.627  1.00  0.00    -0.200 F 
ENDBRANCH  49  73
BRANCH  61  84
ATOM     84  C   UNL A   1      44.724  26.975  34.309  1.00  0.00     0.064 A 
ATOM     85  C   UNL A   1      44.570  25.725  34.927  1.00  0.00     0.173 A 
ATOM     86  C   UNL A   1      46.003  27.550  34.294  1.00  0.00     0.173 A 
ATOM     87  F   UNL A   1      43.363  25.141  34.978  1.00  0.00    -0.203 F 
ATOM     88  C   UNL A   1      45.657  25.076  35.505  1.00  0.00     0.198 A 
ATOM     89  C   UNL A   1      47.091  26.888  34.850  1.00  0.00     0.198 A 
ATOM     90  F   UNL A   1      46.200  28.741  33.708  1.00  0.00    -0.203 F 
ATOM     91  F   UNL A   1      45.485  23.892  36.107  1.00  0.00    -0.200 F 
ATOM     92  C   UNL A   1      46.919  25.652  35.456  1.00  0.00     0.200 A 
ATOM     93  F   UNL A   1      48.313  27.438  34.789  1.00  0.00    -0.200 F 
ATOM     94  F   UNL A   1      47.968  25.014  35.991  1.00  0.00    -0.200 F 
ENDBRANCH  61  84
ENDBRANCH  35  36
ENDBRANCH  27  30
ENDBRANCH  25  26
ENDBRANCH  24  25
ENDBRANCH   1  24
TORSDOF 13
ENDMDL
MODEL 2
REMARK VINA RESULT:     -12.9      1.878      3.047
REMARK SMILES C[C@@H]1CCCN(C(=O)c2ccc(=O)n([C@H](C)C(=O)NCCCNC(=O)c3ccc(-c4c5nc(c(-c6c(F)c(F)c(F)c(F)c6F)c6ccc([nH]6)c(-c6c(F)c(F)c(F)c(F)c6F)c6nc(c(-c7c(F)c(F)c(F)c(F)c7F)c7ccc4[nH]7)C=C6)C=C5)cc3)n2)C1
REMARK SMILES IDX 20 1 19 2 17 3 18 4 15 6 16 7 14 8 9 9 10 10 89 11 11 12
REMARK SMILES IDX 12 13 13 14 7 15 8 16 6 17 1 18 2 19 3 20 90 21 4 22 5 23
REMARK SMILES IDX 21 24 22 25 23 26 24 27 25 29 26 30 27 31 88 32 28 33 87 34
REMARK SMILES IDX 29 35 30 36 31 37 81 38 32 39 86 40 80 41 82 42 33 43 85 44
REMARK SMILES IDX 79 45 78 46 34 48 66 49 46 50 65 51 47 52 50 53 64 54 83 55
REMARK SMILES IDX 48 56 49 57 63 59 84 60 51 61 35 62 36 63 44 64 37 65 38 66
REMARK SMILES IDX 42 67 45 68 39 69 40 70 43 71 41 72 67 73 68 74 76 75 69 76
REMARK SMILES IDX 70 77 74 78 77 79 71 80 72 81 75 82 73 83 52 84 53 85 61 86
REMARK SMILES IDX 54 87 55 88 59 89 62 90 56 91 57 92 60 93 58 94
REMARK H PARENT 19 5 23 28 82 47 50 58
REMARK Flexibility Score: inf
ROOT
ATOM      1  C   UNL A   1      31.412  30.669  26.524  1.00  0.00     0.117 C 
ENDROOT
BRANCH   1   2
ATOM      2  N   UNL A   1      32.741  30.119  26.641  1.00  0.00    -0.354 N 
ATOM      3  C   UNL A   1      33.412  29.290  25.792  1.00  0.00     0.244 C 
ATOM      4  O   UNL A   1      34.476  28.825  26.213  1.00  0.00    -0.273 OA
ATOM      5  H   UNL A   1      33.235  30.379  27.452  1.00  0.00     0.163 HD
BRANCH   3   6
ATOM      6  C   UNL A   1      32.824  28.846  24.437  1.00  0.00     0.197 C 
ATOM      7  C   UNL A   1      33.937  28.580  23.418  1.00  0.00     0.044 C 
BRANCH   6   8
ATOM      8  N   UNL A   1      31.816  27.777  24.587  1.00  0.00    -0.217 N 
ATOM      9  C   UNL A   1      31.248  25.693  25.382  1.00  0.00     0.149 A 
ATOM     10  C   UNL A   1      29.899  25.753  24.798  1.00  0.00     0.042 A 
ATOM     11  N   UNL A   1      32.152  26.619  25.282  1.00  0.00    -0.164 NA
ATOM     12  C   UNL A   1      29.594  26.868  24.134  1.00  0.00     0.076 A 
ATOM     13  C   UNL A   1      30.567  27.974  23.998  1.00  0.00     0.267 A 
ATOM     14  O   UNL A   1      30.225  28.983  23.389  1.00  0.00    -0.268 OA
BRANCH   9  15
ATOM     15  C   UNL A   1      31.574  24.419  26.146  1.00  0.00     0.274 C 
ATOM     16  O   UNL A   1      31.054  24.285  27.248  1.00  0.00    -0.267 OA
BRANCH  15  17
ATOM     17  N   UNL A   1      32.466  23.518  25.570  1.00  0.00    -0.337 N 
ATOM     18  C   UNL A   1      32.156  21.397  22.408  1.00  0.00     0.009 C 
ATOM     19  C   UNL A   1      32.604  22.549  23.302  1.00  0.00     0.005 C 
ATOM     20  C   UNL A   1      34.137  22.576  23.411  1.00  0.00     0.007 C 
ATOM     21  C   UNL A   1      31.963  22.458  24.697  1.00  0.00     0.123 C 
ATOM     22  C   UNL A   1      34.586  23.675  24.369  1.00  0.00     0.022 C 
ATOM     23  C   UNL A   1      33.915  23.549  25.731  1.00  0.00     0.120 C 
ENDBRANCH  15  17
ENDBRANCH   9  15
ENDBRANCH   6   8
ENDBRANCH   3   6
ENDBRANCH   1   2
BRANCH   1  24
ATOM     24  C   UNL A   1      31.417  32.189  26.503  1.00  0.00     0.042 C 
BRANCH  24  25
ATOM     25  C   UNL A   1      32.583  32.793  27.268  1.00  0.00     0.118 C 
BRANCH  25  26
ATOM     26  N   UNL A   1      32.375  34.197  27.623  1.00  0.00    -0.352 N 
ATOM     27  C   UNL A   1      32.965  35.009  28.564  1.00  0.00     0.251 C 
ATOM     28  H   UNL A   1      31.682  34.645  27.087  1.00  0.00     0.163 HD
ATOM     29  O   UNL A   1      32.469  36.110  28.801  1.00  0.00    -0.269 OA
BRANCH  27  30
ATOM     30  C   UNL A   1      34.153  34.565  29.324  1.00  0.00     0.039 A 
ATOM     31  C   UNL A   1      35.436  34.793  28.840  1.00  0.00     0.014 A 
ATOM     32  C   UNL A   1      33.991  33.915  30.554  1.00  0.00     0.014 A 
ATOM     33  C   UNL A   1      36.517  34.153  29.425  1.00  0.00     0.010 A 
ATOM     34  C   UNL A   1      35.107  33.401  31.229  1.00  0.00     0.010 A 
ATOM     35  C   UNL A   1      36.374  33.451  30.632  1.00  0.00    -0.014 A 
BRANCH  35  36
ATOM     36  C   UNL A   1      37.579  32.799  31.215  1.00  0.00     0.031 A 
ATOM     37  C   UNL A   1      38.023  33.093  32.623  1.00  0.00     0.074 A 
ATOM     38  C   UNL A   1      38.211  31.848  30.498  1.00  0.00     0.049 A 
ATOM     39  N   UNL A   1      38.963  32.512  33.326  1.00  0.00    -0.248 NA
ATOM     40  C   UNL A   1      37.337  34.182  33.335  1.00  0.00     0.031 C 
ATOM     41  C   UNL A   1      37.887  31.488  29.116  1.00  0.00     0.029 A 
ATOM     42  N   UNL A   1      39.209  30.970  30.842  1.00  0.00    -0.354 N 
ATOM     43  C   UNL A   1      38.999  33.179  34.544  1.00  0.00     0.074 A 
ATOM     44  C   UNL A   1      38.008  34.230  34.478  1.00  0.00     0.031 C 
ATOM     45  C   UNL A   1      38.597  30.408  28.764  1.00  0.00     0.029 A 
ATOM     46  C   UNL A   1      39.483  30.044  29.865  1.00  0.00     0.049 A 
ATOM     47  H   UNL A   1      39.683  31.002  31.704  1.00  0.00     0.167 HD
ATOM     48  C   UNL A   1      39.778  32.927  35.622  1.00  0.00     0.037 A 
ATOM     49  C   UNL A   1      40.348  29.012  29.848  1.00  0.00     0.037 A 
ATOM     50  C   UNL A   1      40.730  31.851  35.702  1.00  0.00     0.049 A 
ATOM     51  C   UNL A   1      41.195  28.751  31.059  1.00  0.00     0.074 A 
ATOM     52  C   UNL A   1      41.516  31.477  36.777  1.00  0.00     0.029 A 
ATOM     53  N   UNL A   1      41.023  30.975  34.666  1.00  0.00    -0.354 N 
ATOM     54  N   UNL A   1      41.188  29.366  32.215  1.00  0.00    -0.248 NA
ATOM     55  C   UNL A   1      42.180  27.665  30.959  1.00  0.00     0.031 C 
ATOM     56  C   UNL A   1      42.323  30.408  36.377  1.00  0.00     0.029 A 
ATOM     57  C   UNL A   1      42.005  30.084  35.067  1.00  0.00     0.049 A 
ATOM     58  H   UNL A   1      40.597  30.986  33.779  1.00  0.00     0.167 HD
ATOM     59  C   UNL A   1      42.165  28.749  32.982  1.00  0.00     0.074 A 
ATOM     60  C   UNL A   1      42.728  27.690  32.168  1.00  0.00     0.031 C 
ATOM     61  C   UNL A   1      42.564  29.042  34.242  1.00  0.00     0.037 A 
BRANCH  48  62
ATOM     62  C   UNL A   1      39.648  33.835  36.812  1.00  0.00     0.064 A 
ATOM     63  C   UNL A   1      40.295  35.078  36.869  1.00  0.00     0.173 A 
ATOM     64  C   UNL A   1      38.810  33.482  37.881  1.00  0.00     0.173 A 
ATOM     65  F   UNL A   1      41.115  35.458  35.878  1.00  0.00    -0.203 F 
ATOM     66  C   UNL A   1      40.123  35.925  37.962  1.00  0.00     0.198 A 
ATOM     67  C   UNL A   1      38.619  34.343  38.959  1.00  0.00     0.198 A 
ATOM     68  F   UNL A   1      38.161  32.308  37.873  1.00  0.00    -0.203 F 
ATOM     69  F   UNL A   1      40.780  37.092  38.012  1.00  0.00    -0.200 F 
ATOM     70  C   UNL A   1      39.278  35.562  39.000  1.00  0.00     0.200 A 
ATOM     71  F   UNL A   1      37.792  33.996  39.954  1.00  0.00    -0.200 F 
ATOM     72  F   UNL A   1      39.105  36.384  40.044  1.00  0.00    -0.200 F 
ENDBRANCH  48  62
BRANCH  49  73
ATOM     73  C   UNL A   1      40.434  28.159  28.635  1.00  0.00     0.064 A 
ATOM     74  C   UNL A   1      41.257  28.513  27.558  1.00  0.00     0.173 A 
ATOM     75  C   UNL A   1      39.750  26.936  28.560  1.00  0.00     0.173 A 
ATOM     76  F   UNL A   1      41.918  29.681  27.576  1.00  0.00    -0.203 F 
ATOM     77  C   UNL A   1      41.401  27.671  26.458  1.00  0.00     0.198 A 
ATOM     78  C   UNL A   1      39.918  26.082  27.474  1.00  0.00     0.198 A 
ATOM     79  F   UNL A   1      38.956  26.550  29.569  1.00  0.00    -0.203 F 
ATOM     80  F   UNL A   1      42.185  28.037  25.434  1.00  0.00    -0.200 F 
ATOM     81  C   UNL A   1      40.743  26.450  26.423  1.00  0.00     0.200 A 
ATOM     82  F   UNL A   1      39.297  24.894  27.457  1.00  0.00    -0.200 F 
ATOM     83  F   UNL A   1      40.906  25.627  25.378  1.00  0.00    -0.200 F 
ENDBRANCH  49  73
BRANCH  61  84
ATOM     84  C   UNL A   1      43.672  28.222  34.829  1.00  0.00     0.064 A 
ATOM     85  C   UNL A   1      45.005  28.653  34.766  1.00  0.00     0.173 A 
ATOM     86  C   UNL A   1      43.391  27.049  35.545  1.00  0.00     0.173 A 
ATOM     87  F   UNL A   1      45.324  29.762  34.081  1.00  0.00    -0.203 F 
ATOM     88  C   UNL A   1      46.017  27.937  35.397  1.00  0.00     0.198 A 
ATOM     89  C   UNL A   1      44.402  26.349  36.196  1.00  0.00     0.198 A 
ATOM     90  F   UNL A   1      42.130  26.601  35.640  1.00  0.00    -0.203 F 
ATOM     91  F   UNL A   1      47.287  28.355  35.308  1.00  0.00    -0.200 F 
ATOM     92  C   UNL A   1      45.714  26.792  36.121  1.00  0.00     0.200 A 
ATOM     93  F   UNL A   1      44.105  25.252  36.907  1.00  0.00    -0.200 F 
ATOM     94  F   UNL A   1      46.687  26.118  36.748  1.00  0.00    -0.200 F 
ENDBRANCH  61  84
ENDBRANCH  35  36
ENDBRANCH  27  30
ENDBRANCH  25  26
ENDBRANCH  24  25
ENDBRANCH   1  24
TORSDOF 13
ENDMDL
MODEL 3
REMARK VINA RESULT:     -12.8      1.906      7.676
REMARK SMILES C[C@@H]1CCCN(C(=O)c2ccc(=O)n([C@H](C)C(=O)NCCCNC(=O)c3ccc(-c4c5nc(c(-c6c(F)c(F)c(F)c(F)c6F)c6ccc([nH]6)c(-c6c(F)c(F)c(F)c(F)c6F)c6nc(c(-c7c(F)c(F)c(F)c(F)c7F)c7ccc4[nH]7)C=C6)C=C5)cc3)n2)C1
REMARK SMILES IDX 20 1 19 2 17 3 18 4 15 6 16 7 14 8 9 9 10 10 89 11 11 12
REMARK SMILES IDX 12 13 13 14 7 15 8 16 6 17 1 18 2 19 3 20 90 21 4 22 5 23
REMARK SMILES IDX 21 24 22 25 23 26 24 27 25 29 26 30 27 31 88 32 28 33 87 34
REMARK SMILES IDX 29 35 30 36 31 37 81 38 32 39 86 40 80 41 82 42 33 43 85 44
REMARK SMILES IDX 79 45 78 46 34 48 66 49 46 50 65 51 47 52 50 53 64 54 83 55
REMARK SMILES IDX 48 56 49 57 63 59 84 60 51 61 35 62 36 63 44 64 37 65 38 66
REMARK SMILES IDX 42 67 45 68 39 69 40 70 43 71 41 72 67 73 68 74 76 75 69 76
REMARK SMILES IDX 70 77 74 78 77 79 71 80 72 81 75 82 73 83 52 84 53 85 61 86
REMARK SMILES IDX 54 87 55 88 59 89 62 90 56 91 57 92 60 93 58 94
REMARK H PARENT 19 5 23 28 82 47 50 58
REMARK Flexibility Score: inf
ROOT
ATOM      1  C   UNL A   1      31.395  30.937  26.250  1.00  0.00     0.117 C 
ENDROOT
BRANCH   1   2
ATOM      2  N   UNL A   1      32.703  30.373  26.487  1.00  0.00    -0.354 N 
ATOM      3  C   UNL A   1      33.402  29.470  25.744  1.00  0.00     0.244 C 
ATOM      4  O   UNL A   1      34.430  29.019  26.262  1.00  0.00    -0.273 OA
ATOM      5  H   UNL A   1      33.155  30.686  27.304  1.00  0.00     0.163 HD
BRANCH   3   6
ATOM      6  C   UNL A   1      32.884  28.934  24.394  1.00  0.00     0.197 C 
ATOM      7  C   UNL A   1      34.047  28.621  23.446  1.00  0.00     0.044 C 
BRANCH   6   8
ATOM      8  N   UNL A   1      31.882  27.861  24.565  1.00  0.00    -0.217 N 
ATOM      9  C   UNL A   1      31.334  25.780  25.380  1.00  0.00     0.149 A 
ATOM     10  C   UNL A   1      29.977  25.831  24.814  1.00  0.00     0.042 A 
ATOM     11  N   UNL A   1      32.233  26.709  25.263  1.00  0.00    -0.164 NA
ATOM     12  C   UNL A   1      29.658  26.940  24.147  1.00  0.00     0.076 A 
ATOM     13  C   UNL A   1      30.625  28.050  23.991  1.00  0.00     0.267 A 
ATOM     14  O   UNL A   1      30.270  29.053  23.380  1.00  0.00    -0.268 OA
BRANCH   9  15
ATOM     15  C   UNL A   1      31.675  24.512  26.148  1.00  0.00     0.274 C 
ATOM     16  O   UNL A   1      31.181  24.389  27.263  1.00  0.00    -0.267 OA
BRANCH  15  17
ATOM     17  N   UNL A   1      32.553  23.605  25.560  1.00  0.00    -0.337 N 
ATOM     18  C   UNL A   1      32.159  21.440  22.438  1.00  0.00     0.009 C 
ATOM     19  C   UNL A   1      32.629  22.605  23.303  1.00  0.00     0.005 C 
ATOM     20  C   UNL A   1      34.164  22.636  23.368  1.00  0.00     0.007 C 
ATOM     21  C   UNL A   1      32.028  22.532  24.716  1.00  0.00     0.123 C 
ATOM     22  C   UNL A   1      34.639  23.749  24.298  1.00  0.00     0.022 C 
ATOM     23  C   UNL A   1      34.006  23.640  25.680  1.00  0.00     0.120 C 
ENDBRANCH  15  17
ENDBRANCH   9  15
ENDBRANCH   6   8
ENDBRANCH   3   6
ENDBRANCH   1   2
BRANCH   1  24
ATOM     24  C   UNL A   1      31.356  32.433  26.515  1.00  0.00     0.042 C 
BRANCH  24  25
ATOM     25  C   UNL A   1      32.574  32.939  27.271  1.00  0.00     0.118 C 
BRANCH  25  26
ATOM     26  N   UNL A   1      32.465  34.342  27.668  1.00  0.00    -0.352 N 
ATOM     27  C   UNL A   1      33.047  35.062  28.685  1.00  0.00     0.251 C 
ATOM     28  H   UNL A   1      31.861  34.872  27.099  1.00  0.00     0.163 HD
ATOM     29  O   UNL A   1      32.636  36.196  28.929  1.00  0.00    -0.269 OA
BRANCH  27  30
ATOM     30  C   UNL A   1      34.125  34.482  29.516  1.00  0.00     0.039 A 
ATOM     31  C   UNL A   1      35.451  34.540  29.105  1.00  0.00     0.014 A 
ATOM     32  C   UNL A   1      33.813  33.876  30.739  1.00  0.00     0.014 A 
ATOM     33  C   UNL A   1      36.408  33.777  29.756  1.00  0.00     0.010 A 
ATOM     34  C   UNL A   1      34.815  33.235  31.481  1.00  0.00     0.010 A 
ATOM     35  C   UNL A   1      36.110  33.116  30.957  1.00  0.00    -0.014 A 
BRANCH  35  36
ATOM     36  C   UNL A   1      37.188  32.326  31.614  1.00  0.00     0.031 A 
ATOM     37  C   UNL A   1      37.926  31.243  30.874  1.00  0.00     0.074 A 
ATOM     38  C   UNL A   1      37.576  32.671  32.859  1.00  0.00     0.049 A 
ATOM     39  N   UNL A   1      38.976  30.559  31.253  1.00  0.00    -0.248 NA
ATOM     40  C   UNL A   1      37.420  30.867  29.545  1.00  0.00     0.031 C 
ATOM     41  C   UNL A   1      36.926  33.690  33.687  1.00  0.00     0.029 A 
ATOM     42  N   UNL A   1      38.637  32.255  33.623  1.00  0.00    -0.354 N 
ATOM     43  C   UNL A   1      39.238  29.659  30.228  1.00  0.00     0.074 A 
ATOM     44  C   UNL A   1      38.220  29.860  29.220  1.00  0.00     0.031 C 
ATOM     45  C   UNL A   1      37.654  33.890  34.793  1.00  0.00     0.029 A 
ATOM     46  C   UNL A   1      38.779  32.960  34.793  1.00  0.00     0.049 A 
ATOM     47  H   UNL A   1      39.238  31.521  33.359  1.00  0.00     0.167 HD
ATOM     48  C   UNL A   1      40.245  28.759  30.130  1.00  0.00     0.037 A 
ATOM     49  C   UNL A   1      39.708  32.876  35.765  1.00  0.00     0.037 A 
ATOM     50  C   UNL A   1      41.283  28.594  31.112  1.00  0.00     0.049 A 
ATOM     51  C   UNL A   1      40.817  31.874  35.629  1.00  0.00     0.074 A 
ATOM     52  C   UNL A   1      42.382  27.754  31.068  1.00  0.00     0.029 A 
ATOM     53  N   UNL A   1      41.353  29.284  32.314  1.00  0.00    -0.354 N 
ATOM     54  N   UNL A   1      41.072  31.060  34.635  1.00  0.00    -0.248 NA
ATOM     55  C   UNL A   1      41.756  31.767  36.753  1.00  0.00     0.031 C 
ATOM     56  C   UNL A   1      43.089  27.896  32.266  1.00  0.00     0.029 A 
ATOM     57  C   UNL A   1      42.458  28.861  33.036  1.00  0.00     0.049 A 
ATOM     58  H   UNL A   1      40.713  29.970  32.610  1.00  0.00     0.167 HD
ATOM     59  C   UNL A   1      42.196  30.341  35.010  1.00  0.00     0.074 A 
ATOM     60  C   UNL A   1      42.593  30.834  36.314  1.00  0.00     0.031 C 
ATOM     61  C   UNL A   1      42.834  29.354  34.337  1.00  0.00     0.037 A 
BRANCH  48  62
ATOM     62  C   UNL A   1      40.276  27.866  28.922  1.00  0.00     0.064 A 
ATOM     63  C   UNL A   1      41.009  28.199  27.774  1.00  0.00     0.173 A 
ATOM     64  C   UNL A   1      39.615  26.628  28.942  1.00  0.00     0.173 A 
ATOM     65  F   UNL A   1      41.651  29.375  27.700  1.00  0.00    -0.203 F 
ATOM     66  C   UNL A   1      41.063  27.335  26.683  1.00  0.00     0.198 A 
ATOM     67  C   UNL A   1      39.693  25.754  27.860  1.00  0.00     0.198 A 
ATOM     68  F   UNL A   1      38.906  26.257  30.019  1.00  0.00    -0.203 F 
ATOM     69  F   UNL A   1      41.739  27.690  25.582  1.00  0.00    -0.200 F 
ATOM     70  C   UNL A   1      40.413  26.110  26.730  1.00  0.00     0.200 A 
ATOM     71  F   UNL A   1      39.076  24.567  27.914  1.00  0.00    -0.200 F 
ATOM     72  F   UNL A   1      40.476  25.275  25.684  1.00  0.00    -0.200 F 
ENDBRANCH  48  62
BRANCH  49  73
ATOM     73  C   UNL A   1      39.612  33.782  36.938  1.00  0.00     0.064 A 
ATOM     74  C   UNL A   1      40.212  35.048  36.926  1.00  0.00     0.173 A 
ATOM     75  C   UNL A   1      38.854  33.430  38.065  1.00  0.00     0.173 A 
ATOM     76  F   UNL A   1      40.960  35.424  35.877  1.00  0.00    -0.203 F 
ATOM     77  C   UNL A   1      40.050  35.930  37.992  1.00  0.00     0.198 A 
ATOM     78  C   UNL A   1      38.668  34.322  39.117  1.00  0.00     0.198 A 
ATOM     79  F   UNL A   1      38.254  32.232  38.121  1.00  0.00    -0.203 F 
ATOM     80  F   UNL A   1      40.645  37.131  37.963  1.00  0.00    -0.200 F 
ATOM     81  C   UNL A   1      39.268  35.572  39.081  1.00  0.00     0.200 A 
ATOM     82  F   UNL A   1      37.893  33.979  40.155  1.00  0.00    -0.200 F 
ATOM     83  F   UNL A   1      39.088  36.432  40.092  1.00  0.00    -0.200 F 
ENDBRANCH  49  73
BRANCH  61  84
ATOM     84  C   UNL A   1      44.024  28.722  34.992  1.00  0.00     0.064 A 
ATOM     85  C   UNL A   1      43.886  27.593  35.813  1.00  0.00     0.173 A 
ATOM     86  C   UNL A   1      45.320  29.186  34.721  1.00  0.00     0.173 A 
ATOM     87  F   UNL A   1      42.666  27.121  36.111  1.00  0.00    -0.203 F 
ATOM     88  C   UNL A   1      45.003  26.952  36.340  1.00  0.00     0.198 A 
ATOM     89  C   UNL A   1      46.435  28.528  35.229  1.00  0.00     0.198 A 
ATOM     90  F   UNL A   1      45.503  30.258  33.936  1.00  0.00    -0.203 F 
ATOM     91  F   UNL A   1      44.848  25.887  37.137  1.00  0.00    -0.200 F 
ATOM     92  C   UNL A   1      46.277  27.413  36.039  1.00  0.00     0.200 A 
ATOM     93  F   UNL A   1      47.666  28.966  34.925  1.00  0.00    -0.200 F 
ATOM     94  F   UNL A   1      47.352  26.780  36.527  1.00  0.00    -0.200 F 
ENDBRANCH  61  84
ENDBRANCH  35  36
ENDBRANCH  27  30
ENDBRANCH  25  26
ENDBRANCH  24  25
ENDBRANCH   1  24
TORSDOF 13
ENDMDL
