MODEL 1
REMARK VINA RESULT:     -13.4      0.000      0.000
REMARK SMILES Cc1c(CC(=O)NCCCNC(=O)c2ccc(-c3c4nc(c(-c5c(F)c(F)c(F)c(F)c5F)c5ccc([nH]5)c(-c5c(F)c(F)c(F)c(F)c5F)c5nc(c(-c6c(F)c(F)c(F)c(F)c6F)c6ccc3[nH]6)C=C5)C=C4)cc2)c(=O)oc2cc(OCc3c(F)cccc3Cl)ccc12
REMARK SMILES IDX 8 1 7 2 5 3 6 4 4 6 3 7 1 8 2 9 95 10 77 11 80 12 94 13
REMARK SMILES IDX 78 14 79 15 81 16 93 17 82 18 83 19 84 20 85 21 86 22 91 23
REMARK SMILES IDX 87 24 88 25 90 26 92 27 89 28 9 29 10 30 11 31 12 32 13 34
REMARK SMILES IDX 14 35 15 36 76 37 16 38 75 39 17 40 18 41 19 42 69 43 20 44
REMARK SMILES IDX 74 45 68 46 70 47 21 48 73 49 67 50 66 51 22 53 54 54 34 55
REMARK SMILES IDX 53 56 35 57 38 58 52 59 71 60 36 61 37 62 51 64 72 65 39 66
REMARK SMILES IDX 23 67 24 68 32 69 25 70 26 71 30 72 33 73 27 74 28 75 31 76
REMARK SMILES IDX 29 77 55 78 56 79 64 80 57 81 58 82 62 83 65 84 59 85 60 86
REMARK SMILES IDX 63 87 61 88 40 89 41 90 49 91 42 92 43 93 47 94 50 95 44 96
REMARK SMILES IDX 45 97 48 98 46 99
REMARK H PARENT 7 5 11 33 70 52 38 63
REMARK Flexibility Score: inf
ROOT
ATOM      1  C   UNL A   1      31.531  30.011  25.756  1.00  0.00     0.117 C 
ENDROOT
BRANCH   1   2
ATOM      2  N   UNL A   1      32.434  30.038  24.622  1.00  0.00    -0.356 N 
ATOM      3  C   UNL A   1      32.728  29.067  23.716  1.00  0.00     0.224 C 
ATOM      4  O   UNL A   1      33.558  29.333  22.843  1.00  0.00    -0.275 OA
ATOM      5  H   UNL A   1      32.908  30.891  24.487  1.00  0.00     0.163 HD
BRANCH   3   6
ATOM      6  C   UNL A   1      32.032  27.708  23.762  1.00  0.00     0.143 C 
BRANCH   6   7
ATOM      7  C   UNL A   1      32.985  26.532  23.818  1.00  0.00     0.051 A 
ATOM      8  C   UNL A   1      33.476  26.748  26.284  1.00  0.00     0.046 C 
ATOM      9  C   UNL A   1      33.606  26.088  24.934  1.00  0.00    -0.029 A 
ATOM     10  C   UNL A   1      34.426  24.863  24.860  1.00  0.00     0.021 A 
ATOM     11  C   UNL A   1      33.230  25.888  22.495  1.00  0.00     0.340 A 
ATOM     12  C   UNL A   1      34.580  24.222  23.634  1.00  0.00     0.142 A 
ATOM     13  C   UNL A   1      35.013  24.254  25.975  1.00  0.00     0.016 A 
ATOM     14  O   UNL A   1      32.736  26.325  21.460  1.00  0.00    -0.246 OA
ATOM     15  O   UNL A   1      34.025  24.760  22.464  1.00  0.00    -0.422 OA
ATOM     16  C   UNL A   1      35.231  22.992  23.493  1.00  0.00     0.094 A 
ATOM     17  C   UNL A   1      35.652  23.015  25.857  1.00  0.00     0.047 A 
ATOM     18  C   UNL A   1      35.710  22.353  24.629  1.00  0.00     0.123 A 
BRANCH  18  19
ATOM     19  O   UNL A   1      36.140  21.061  24.716  1.00  0.00    -0.489 OA
BRANCH  19  20
ATOM     20  C   UNL A   1      35.333  20.084  25.376  1.00  0.00     0.270 C 
BRANCH  20  21
ATOM     21  C   UNL A   1      34.265  19.329  24.606  1.00  0.00     0.044 A 
ATOM     22  C   UNL A   1      34.595  18.009  24.251  1.00  0.00     0.131 A 
ATOM     23  C   UNL A   1      32.996  19.785  24.225  1.00  0.00     0.050 A 
ATOM     24  F   UNL A   1      35.760  17.488  24.667  1.00  0.00    -0.207 F 
ATOM     25  C   UNL A   1      33.761  17.205  23.478  1.00  0.00     0.040 A 
ATOM     26  C   UNL A   1      32.175  19.000  23.397  1.00  0.00     0.021 A 
ATOM     27  Cl  UNL A   1      32.299  21.273  24.754  1.00  0.00    -0.084 Cl
ATOM     28  C   UNL A   1      32.558  17.715  23.017  1.00  0.00     0.005 A 
ENDBRANCH  20  21
ENDBRANCH  19  20
ENDBRANCH  18  19
ENDBRANCH   6   7
ENDBRANCH   3   6
ENDBRANCH   1   2
BRANCH   1  29
ATOM     29  C   UNL A   1      31.329  31.401  26.356  1.00  0.00     0.042 C 
BRANCH  29  30
ATOM     30  C   UNL A   1      32.613  32.048  26.875  1.00  0.00     0.118 C 
BRANCH  30  31
ATOM     31  N   UNL A   1      32.430  33.444  27.250  1.00  0.00    -0.352 N 
ATOM     32  C   UNL A   1      33.051  34.200  28.212  1.00  0.00     0.251 C 
ATOM     33  H   UNL A   1      31.750  33.924  26.725  1.00  0.00     0.163 HD
ATOM     34  O   UNL A   1      32.613  35.314  28.481  1.00  0.00    -0.269 OA
BRANCH  32  35
ATOM     35  C   UNL A   1      34.229  33.684  28.943  1.00  0.00     0.039 A 
ATOM     36  C   UNL A   1      34.023  32.770  29.982  1.00  0.00     0.014 A 
ATOM     37  C   UNL A   1      35.520  34.125  28.648  1.00  0.00     0.014 A 
ATOM     38  C   UNL A   1      35.117  32.253  30.681  1.00  0.00     0.010 A 
ATOM     39  C   UNL A   1      36.614  33.555  29.297  1.00  0.00     0.010 A 
ATOM     40  C   UNL A   1      36.423  32.615  30.321  1.00  0.00    -0.014 A 
BRANCH  40  41
ATOM     41  C   UNL A   1      37.603  32.013  30.996  1.00  0.00     0.031 A 
ATOM     42  C   UNL A   1      38.409  30.946  30.310  1.00  0.00     0.074 A 
ATOM     43  C   UNL A   1      37.904  32.379  32.257  1.00  0.00     0.049 A 
ATOM     44  N   UNL A   1      39.419  30.249  30.767  1.00  0.00    -0.248 NA
ATOM     45  C   UNL A   1      38.016  30.601  28.935  1.00  0.00     0.031 C 
ATOM     46  C   UNL A   1      37.177  33.377  33.040  1.00  0.00     0.029 A 
ATOM     47  N   UNL A   1      38.888  31.944  33.108  1.00  0.00    -0.354 N 
ATOM     48  C   UNL A   1      39.766  29.373  29.747  1.00  0.00     0.074 A 
ATOM     49  C   UNL A   1      38.834  29.595  28.663  1.00  0.00     0.031 C 
ATOM     50  C   UNL A   1      37.743  33.487  34.252  1.00  0.00     0.029 A 
ATOM     51  C   UNL A   1      38.853  32.544  34.343  1.00  0.00     0.049 A 
ATOM     52  H   UNL A   1      39.558  31.267  32.857  1.00  0.00     0.167 HD
ATOM     53  C   UNL A   1      40.784  28.480  29.713  1.00  0.00     0.037 A 
ATOM     54  C   UNL A   1      39.623  32.350  35.430  1.00  0.00     0.037 A 
ATOM     55  C   UNL A   1      41.726  28.282  30.784  1.00  0.00     0.049 A 
ATOM     56  C   UNL A   1      40.740  31.343  35.368  1.00  0.00     0.074 A 
ATOM     57  C   UNL A   1      42.832  27.452  30.818  1.00  0.00     0.029 A 
ATOM     58  N   UNL A   1      41.669  28.920  32.014  1.00  0.00    -0.354 N 
ATOM     59  N   UNL A   1      41.107  30.577  34.370  1.00  0.00    -0.248 NA
ATOM     60  C   UNL A   1      41.554  31.181  36.579  1.00  0.00     0.031 C 
ATOM     61  C   UNL A   1      43.415  27.548  32.086  1.00  0.00     0.029 A 
ATOM     62  C   UNL A   1      42.705  28.481  32.824  1.00  0.00     0.049 A 
ATOM     63  H   UNL A   1      40.992  29.587  32.275  1.00  0.00     0.167 HD
ATOM     64  C   UNL A   1      42.212  29.866  34.821  1.00  0.00     0.074 A 
ATOM     65  C   UNL A   1      42.464  30.305  36.178  1.00  0.00     0.031 C 
ATOM     66  C   UNL A   1      42.951  28.936  34.169  1.00  0.00     0.037 A 
BRANCH  53  67
ATOM     67  C   UNL A   1      40.935  27.641  28.476  1.00  0.00     0.064 A 
ATOM     68  C   UNL A   1      40.248  26.428  28.318  1.00  0.00     0.173 A 
ATOM     69  C   UNL A   1      41.741  28.080  27.414  1.00  0.00     0.173 A 
ATOM     70  F   UNL A   1      39.470  25.959  29.307  1.00  0.00    -0.203 F 
ATOM     71  C   UNL A   1      40.383  25.673  27.157  1.00  0.00     0.198 A 
ATOM     72  C   UNL A   1      41.850  27.337  26.242  1.00  0.00     0.198 A 
ATOM     73  F   UNL A   1      42.415  29.236  27.509  1.00  0.00    -0.203 F 
ATOM     74  F   UNL A   1      39.753  24.494  27.049  1.00  0.00    -0.200 F 
ATOM     75  C   UNL A   1      41.177  26.131  26.116  1.00  0.00     0.200 A 
ATOM     76  F   UNL A   1      42.606  27.789  25.232  1.00  0.00    -0.200 F 
ATOM     77  F   UNL A   1      41.298  25.407  24.995  1.00  0.00    -0.200 F 
ENDBRANCH  53  67
BRANCH  54  78
ATOM     78  C   UNL A   1      39.386  33.148  36.662  1.00  0.00     0.064 A 
ATOM     79  C   UNL A   1      38.493  32.701  37.646  1.00  0.00     0.173 A 
ATOM     80  C   UNL A   1      40.039  34.371  36.882  1.00  0.00     0.173 A 
ATOM     81  F   UNL A   1      37.835  31.545  37.476  1.00  0.00    -0.203 F 
ATOM     82  C   UNL A   1      38.242  33.457  38.788  1.00  0.00     0.198 A 
ATOM     83  C   UNL A   1      39.809  35.111  38.040  1.00  0.00     0.198 A 
ATOM     84  F   UNL A   1      40.911  34.840  35.978  1.00  0.00    -0.203 F 
ATOM     85  F   UNL A   1      37.346  33.027  39.689  1.00  0.00    -0.200 F 
ATOM     86  C   UNL A   1      38.902  34.659  38.987  1.00  0.00     0.200 A 
ATOM     87  F   UNL A   1      40.464  36.264  38.237  1.00  0.00    -0.200 F 
ATOM     88  F   UNL A   1      38.661  35.384  40.088  1.00  0.00    -0.200 F 
ENDBRANCH  54  78
BRANCH  66  89
ATOM     89  C   UNL A   1      44.129  28.357  34.897  1.00  0.00     0.064 A 
ATOM     90  C   UNL A   1      44.030  27.171  35.638  1.00  0.00     0.173 A 
ATOM     91  C   UNL A   1      45.386  28.978  34.817  1.00  0.00     0.173 A 
ATOM     92  F   UNL A   1      42.848  26.547  35.759  1.00  0.00    -0.203 F 
ATOM     93  C   UNL A   1      45.139  26.641  36.292  1.00  0.00     0.198 A 
ATOM     94  C   UNL A   1      46.499  28.428  35.445  1.00  0.00     0.198 A 
ATOM     95  F   UNL A   1      45.536  30.112  34.115  1.00  0.00    -0.203 F 
ATOM     96  F   UNL A   1      45.010  25.532  37.034  1.00  0.00    -0.200 F 
ATOM     97  C   UNL A   1      46.373  27.264  36.189  1.00  0.00     0.200 A 
ATOM     98  F   UNL A   1      47.694  29.025  35.332  1.00  0.00    -0.200 F 
ATOM     99  F   UNL A   1      47.442  26.748  36.812  1.00  0.00    -0.200 F 
ENDBRANCH  66  89
ENDBRANCH  40  41
ENDBRANCH  32  35
ENDBRANCH  30  31
ENDBRANCH  29  30
ENDBRANCH   1  29
TORSDOF 14
ENDMDL
MODEL 2
REMARK VINA RESULT:     -13.3      5.376     11.023
REMARK SMILES Cc1c(CC(=O)NCCCNC(=O)c2ccc(-c3c4nc(c(-c5c(F)c(F)c(F)c(F)c5F)c5ccc([nH]5)c(-c5c(F)c(F)c(F)c(F)c5F)c5nc(c(-c6c(F)c(F)c(F)c(F)c6F)c6ccc3[nH]6)C=C5)C=C4)cc2)c(=O)oc2cc(OCc3c(F)cccc3Cl)ccc12
REMARK SMILES IDX 8 1 7 2 5 3 6 4 4 6 3 7 1 8 2 9 95 10 77 11 80 12 94 13
REMARK SMILES IDX 78 14 79 15 81 16 93 17 82 18 83 19 84 20 85 21 86 22 91 23
REMARK SMILES IDX 87 24 88 25 90 26 92 27 89 28 9 29 10 30 11 31 12 32 13 34
REMARK SMILES IDX 14 35 15 36 76 37 16 38 75 39 17 40 18 41 19 42 69 43 20 44
REMARK SMILES IDX 74 45 68 46 70 47 21 48 73 49 67 50 66 51 22 53 54 54 34 55
REMARK SMILES IDX 53 56 35 57 38 58 52 59 71 60 36 61 37 62 51 64 72 65 39 66
REMARK SMILES IDX 23 67 24 68 32 69 25 70 26 71 30 72 33 73 27 74 28 75 31 76
REMARK SMILES IDX 29 77 55 78 56 79 64 80 57 81 58 82 62 83 65 84 59 85 60 86
REMARK SMILES IDX 63 87 61 88 40 89 41 90 49 91 42 92 43 93 47 94 50 95 44 96
REMARK SMILES IDX 45 97 48 98 46 99
REMARK H PARENT 7 5 11 33 70 52 38 63
REMARK Flexibility Score: inf
ROOT
ATOM      1  C   UNL A   1      36.616  20.683  24.762  1.00  0.00     0.117 C 
ENDROOT
BRANCH   1   2
ATOM      2  N   UNL A   1      35.578  20.480  25.753  1.00  0.00    -0.356 N 
ATOM      3  C   UNL A   1      34.308  20.967  25.800  1.00  0.00     0.224 C 
ATOM      4  O   UNL A   1      33.616  20.660  26.774  1.00  0.00    -0.275 OA
ATOM      5  H   UNL A   1      35.831  19.900  26.508  1.00  0.00     0.163 HD
BRANCH   3   6
ATOM      6  C   UNL A   1      33.753  21.835  24.673  1.00  0.00     0.143 C 
BRANCH   6   7
ATOM      7  C   UNL A   1      33.242  23.184  25.133  1.00  0.00     0.051 A 
ATOM      8  C   UNL A   1      35.507  24.297  25.157  1.00  0.00     0.046 C 
ATOM      9  C   UNL A   1      34.008  24.282  25.325  1.00  0.00    -0.029 A 
ATOM     10  C   UNL A   1      33.357  25.560  25.672  1.00  0.00     0.021 A 
ATOM     11  C   UNL A   1      31.776  23.214  25.406  1.00  0.00     0.340 A 
ATOM     12  C   UNL A   1      31.975  25.594  25.842  1.00  0.00     0.142 A 
ATOM     13  C   UNL A   1      34.041  26.776  25.776  1.00  0.00     0.016 A 
ATOM     14  O   UNL A   1      31.078  22.209  25.312  1.00  0.00    -0.246 OA
ATOM     15  O   UNL A   1      31.209  24.424  25.755  1.00  0.00    -0.422 OA
ATOM     16  C   UNL A   1      31.262  26.780  26.047  1.00  0.00     0.094 A 
ATOM     17  C   UNL A   1      33.343  27.974  25.962  1.00  0.00     0.047 A 
ATOM     18  C   UNL A   1      31.949  27.986  26.037  1.00  0.00     0.123 A 
BRANCH  18  19
ATOM     19  O   UNL A   1      31.402  29.234  25.972  1.00  0.00    -0.489 OA
BRANCH  19  20
ATOM     20  C   UNL A   1      31.374  29.936  24.728  1.00  0.00     0.270 C 
BRANCH  20  21
ATOM     21  C   UNL A   1      30.129  29.902  23.859  1.00  0.00     0.044 A 
ATOM     22  C   UNL A   1      29.329  31.057  23.905  1.00  0.00     0.131 A 
ATOM     23  C   UNL A   1      29.698  28.869  23.015  1.00  0.00     0.050 A 
ATOM     24  F   UNL A   1      29.737  32.112  24.626  1.00  0.00    -0.207 F 
ATOM     25  C   UNL A   1      28.114  31.160  23.230  1.00  0.00     0.040 A 
ATOM     26  C   UNL A   1      28.448  28.945  22.378  1.00  0.00     0.021 A 
ATOM     27  Cl  UNL A   1      30.638  27.475  22.629  1.00  0.00    -0.084 Cl
ATOM     28  C   UNL A   1      27.652  30.083  22.489  1.00  0.00     0.005 A 
ENDBRANCH  20  21
ENDBRANCH  19  20
ENDBRANCH  18  19
ENDBRANCH   6   7
ENDBRANCH   3   6
ENDBRANCH   1   2
BRANCH   1  29
ATOM     29  C   UNL A   1      37.757  19.680  24.918  1.00  0.00     0.042 C 
BRANCH  29  30
ATOM     30  C   UNL A   1      38.930  20.195  25.751  1.00  0.00     0.118 C 
BRANCH  30  31
ATOM     31  N   UNL A   1      40.000  19.215  25.888  1.00  0.00    -0.352 N 
ATOM     32  C   UNL A   1      41.345  19.382  26.097  1.00  0.00     0.251 C 
ATOM     33  H   UNL A   1      39.708  18.278  25.819  1.00  0.00     0.163 HD
ATOM     34  O   UNL A   1      42.097  18.418  26.000  1.00  0.00    -0.269 OA
BRANCH  32  35
ATOM     35  C   UNL A   1      41.905  20.713  26.422  1.00  0.00     0.039 A 
ATOM     36  C   UNL A   1      42.144  21.611  25.376  1.00  0.00     0.014 A 
ATOM     37  C   UNL A   1      42.238  21.064  27.731  1.00  0.00     0.014 A 
ATOM     38  C   UNL A   1      42.658  22.880  25.651  1.00  0.00     0.010 A 
ATOM     39  C   UNL A   1      42.682  22.355  28.012  1.00  0.00     0.010 A 
ATOM     40  C   UNL A   1      42.898  23.275  26.975  1.00  0.00    -0.014 A 
BRANCH  40  41
ATOM     41  C   UNL A   1      43.365  24.650  27.297  1.00  0.00     0.031 A 
ATOM     42  C   UNL A   1      42.401  25.677  27.820  1.00  0.00     0.074 A 
ATOM     43  C   UNL A   1      44.644  24.990  27.049  1.00  0.00     0.049 A 
ATOM     44  N   UNL A   1      42.603  26.944  28.081  1.00  0.00    -0.248 NA
ATOM     45  C   UNL A   1      41.022  25.227  28.063  1.00  0.00     0.031 C 
ATOM     46  C   UNL A   1      45.665  24.093  26.510  1.00  0.00     0.029 A 
ATOM     47  N   UNL A   1      45.302  26.185  27.200  1.00  0.00    -0.354 N 
ATOM     48  C   UNL A   1      41.376  27.444  28.497  1.00  0.00     0.074 A 
ATOM     49  C   UNL A   1      40.426  26.357  28.414  1.00  0.00     0.031 C 
ATOM     50  C   UNL A   1      46.821  24.763  26.385  1.00  0.00     0.029 A 
ATOM     51  C   UNL A   1      46.616  26.145  26.804  1.00  0.00     0.049 A 
ATOM     52  H   UNL A   1      44.872  26.995  27.562  1.00  0.00     0.167 HD
ATOM     53  C   UNL A   1      41.077  28.693  28.929  1.00  0.00     0.037 A 
ATOM     54  C   UNL A   1      47.549  27.115  26.773  1.00  0.00     0.037 A 
ATOM     55  C   UNL A   1      42.033  29.765  29.036  1.00  0.00     0.049 A 
ATOM     56  C   UNL A   1      47.186  28.497  27.248  1.00  0.00     0.074 A 
ATOM     57  C   UNL A   1      41.843  31.045  29.527  1.00  0.00     0.029 A 
ATOM     58  N   UNL A   1      43.360  29.682  28.640  1.00  0.00    -0.354 N 
ATOM     59  N   UNL A   1      46.043  28.937  27.713  1.00  0.00    -0.248 NA
ATOM     60  C   UNL A   1      48.245  29.513  27.201  1.00  0.00     0.031 C 
ATOM     61  C   UNL A   1      43.041  31.753  29.380  1.00  0.00     0.029 A 
ATOM     62  C   UNL A   1      43.993  30.898  28.850  1.00  0.00     0.049 A 
ATOM     63  H   UNL A   1      43.789  28.879  28.264  1.00  0.00     0.167 HD
ATOM     64  C   UNL A   1      46.252  30.270  28.044  1.00  0.00     0.074 A 
ATOM     65  C   UNL A   1      47.638  30.561  27.740  1.00  0.00     0.031 C 
ATOM     66  C   UNL A   1      45.377  31.169  28.554  1.00  0.00     0.037 A 
BRANCH  53  67
ATOM     67  C   UNL A   1      39.654  28.975  29.317  1.00  0.00     0.064 A 
ATOM     68  C   UNL A   1      39.194  28.782  30.628  1.00  0.00     0.173 A 
ATOM     69  C   UNL A   1      38.749  29.491  28.376  1.00  0.00     0.173 A 
ATOM     70  F   UNL A   1      40.016  28.282  31.565  1.00  0.00    -0.203 F 
ATOM     71  C   UNL A   1      37.877  29.067  30.976  1.00  0.00     0.198 A 
ATOM     72  C   UNL A   1      37.442  29.805  28.735  1.00  0.00     0.198 A 
ATOM     73  F   UNL A   1      39.137  29.702  27.109  1.00  0.00    -0.203 F 
ATOM     74  F   UNL A   1      37.449  28.830  32.224  1.00  0.00    -0.200 F 
ATOM     75  C   UNL A   1      37.003  29.586  30.032  1.00  0.00     0.200 A 
ATOM     76  F   UNL A   1      36.603  30.320  27.824  1.00  0.00    -0.200 F 
ATOM     77  F   UNL A   1      35.738  29.869  30.371  1.00  0.00    -0.200 F 
ENDBRANCH  53  67
BRANCH  54  78
ATOM     78  C   UNL A   1      48.926  26.809  26.303  1.00  0.00     0.064 A 
ATOM     79  C   UNL A   1      49.287  27.006  24.963  1.00  0.00     0.173 A 
ATOM     80  C   UNL A   1      49.905  26.313  27.177  1.00  0.00     0.173 A 
ATOM     81  F   UNL A   1      48.382  27.466  24.087  1.00  0.00    -0.203 F 
ATOM     82  C   UNL A   1      50.566  26.692  24.508  1.00  0.00     0.198 A 
ATOM     83  C   UNL A   1      51.193  26.028  26.727  1.00  0.00     0.198 A 
ATOM     84  F   UNL A   1      49.616  26.116  28.471  1.00  0.00    -0.203 F 
ATOM     85  F   UNL A   1      50.868  26.844  23.211  1.00  0.00    -0.200 F 
ATOM     86  C   UNL A   1      51.519  26.208  25.390  1.00  0.00     0.200 A 
ATOM     87  F   UNL A   1      52.117  25.578  27.586  1.00  0.00    -0.200 F 
ATOM     88  F   UNL A   1      52.749  25.909  24.952  1.00  0.00    -0.200 F 
ENDBRANCH  54  78
BRANCH  66  89
ATOM     89  C   UNL A   1      45.899  32.544  28.858  1.00  0.00     0.064 A 
ATOM     90  C   UNL A   1      46.424  32.873  30.116  1.00  0.00     0.173 A 
ATOM     91  C   UNL A   1      45.913  33.532  27.861  1.00  0.00     0.173 A 
ATOM     92  F   UNL A   1      46.420  31.970  31.108  1.00  0.00    -0.203 F 
ATOM     93  C   UNL A   1      46.918  34.149  30.372  1.00  0.00     0.198 A 
ATOM     94  C   UNL A   1      46.438  34.796  28.111  1.00  0.00     0.198 A 
ATOM     95  F   UNL A   1      45.428  33.266  26.638  1.00  0.00    -0.203 F 
ATOM     96  F   UNL A   1      47.371  34.457  31.596  1.00  0.00    -0.200 F 
ATOM     97  C   UNL A   1      46.933  35.107  29.369  1.00  0.00     0.200 A 
ATOM     98  F   UNL A   1      46.464  35.715  27.136  1.00  0.00    -0.200 F 
ATOM     99  F   UNL A   1      47.418  36.332  29.615  1.00  0.00    -0.200 F 
ENDBRANCH  66  89
ENDBRANCH  40  41
ENDBRANCH  32  35
ENDBRANCH  30  31
ENDBRANCH  29  30
ENDBRANCH   1  29
TORSDOF 14
ENDMDL
MODEL 3
REMARK VINA RESULT:     -13.2      5.257     10.447
REMARK SMILES Cc1c(CC(=O)NCCCNC(=O)c2ccc(-c3c4nc(c(-c5c(F)c(F)c(F)c(F)c5F)c5ccc([nH]5)c(-c5c(F)c(F)c(F)c(F)c5F)c5nc(c(-c6c(F)c(F)c(F)c(F)c6F)c6ccc3[nH]6)C=C5)C=C4)cc2)c(=O)oc2cc(OCc3c(F)cccc3Cl)ccc12
REMARK SMILES IDX 8 1 7 2 5 3 6 4 4 6 3 7 1 8 2 9 95 10 77 11 80 12 94 13
REMARK SMILES IDX 78 14 79 15 81 16 93 17 82 18 83 19 84 20 85 21 86 22 91 23
REMARK SMILES IDX 87 24 88 25 90 26 92 27 89 28 9 29 10 30 11 31 12 32 13 34
REMARK SMILES IDX 14 35 15 36 76 37 16 38 75 39 17 40 18 41 19 42 69 43 20 44
REMARK SMILES IDX 74 45 68 46 70 47 21 48 73 49 67 50 66 51 22 53 54 54 34 55
REMARK SMILES IDX 53 56 35 57 38 58 52 59 71 60 36 61 37 62 51 64 72 65 39 66
REMARK SMILES IDX 23 67 24 68 32 69 25 70 26 71 30 72 33 73 27 74 28 75 31 76
REMARK SMILES IDX 29 77 55 78 56 79 64 80 57 81 58 82 62 83 65 84 59 85 60 86
REMARK SMILES IDX 63 87 61 88 40 89 41 90 49 91 42 92 43 93 47 94 50 95 44 96
REMARK SMILES IDX 45 97 48 98 46 99
REMARK H PARENT 7 5 11 33 70 52 38 63
REMARK Flexibility Score: inf
ROOT
ATOM      1  C   UNL A   1      37.942  21.435  25.084  1.00  0.00     0.117 C 
ENDROOT
BRANCH   1   2
ATOM      2  N   UNL A   1      36.884  21.530  26.071  1.00  0.00    -0.356 N 
ATOM      3  C   UNL A   1      35.537  21.410  25.922  1.00  0.00     0.224 C 
ATOM      4  O   UNL A   1      34.837  21.555  26.927  1.00  0.00    -0.275 OA
ATOM      5  H   UNL A   1      37.188  21.709  26.991  1.00  0.00     0.163 HD
BRANCH   3   6
ATOM      6  C   UNL A   1      34.920  21.079  24.565  1.00  0.00     0.143 C 
BRANCH   6   7
ATOM      7  C   UNL A   1      34.092  22.202  23.976  1.00  0.00     0.051 A 
ATOM      8  C   UNL A   1      31.912  21.445  24.998  1.00  0.00     0.046 C 
ATOM      9  C   UNL A   1      32.768  22.383  24.184  1.00  0.00    -0.029 A 
ATOM     10  C   UNL A   1      32.112  23.584  23.631  1.00  0.00     0.021 A 
ATOM     11  C   UNL A   1      34.861  23.117  23.084  1.00  0.00     0.340 A 
ATOM     12  C   UNL A   1      32.861  24.477  22.869  1.00  0.00     0.142 A 
ATOM     13  C   UNL A   1      30.780  23.927  23.885  1.00  0.00     0.016 A 
ATOM     14  O   UNL A   1      36.044  22.924  22.823  1.00  0.00    -0.246 OA
ATOM     15  O   UNL A   1      34.204  24.215  22.565  1.00  0.00    -0.422 OA
ATOM     16  C   UNL A   1      32.357  25.699  22.412  1.00  0.00     0.094 A 
ATOM     17  C   UNL A   1      30.264  25.153  23.454  1.00  0.00     0.047 A 
ATOM     18  C   UNL A   1      31.067  26.067  22.769  1.00  0.00     0.123 A 
BRANCH  18  19
ATOM     19  O   UNL A   1      30.505  27.303  22.632  1.00  0.00    -0.489 OA
BRANCH  19  20
ATOM     20  C   UNL A   1      30.552  28.233  23.716  1.00  0.00     0.270 C 
BRANCH  20  21
ATOM     21  C   UNL A   1      31.727  28.228  24.677  1.00  0.00     0.044 A 
ATOM     22  C   UNL A   1      31.473  27.659  25.938  1.00  0.00     0.131 A 
ATOM     23  C   UNL A   1      33.025  28.706  24.451  1.00  0.00     0.050 A 
ATOM     24  F   UNL A   1      30.276  27.104  26.180  1.00  0.00    -0.207 F 
ATOM     25  C   UNL A   1      32.417  27.644  26.962  1.00  0.00     0.040 A 
ATOM     26  C   UNL A   1      33.962  28.746  25.498  1.00  0.00     0.021 A 
ATOM     27  Cl  UNL A   1      33.616  29.223  22.915  1.00  0.00    -0.084 Cl
ATOM     28  C   UNL A   1      33.659  28.224  26.754  1.00  0.00     0.005 A 
ENDBRANCH  20  21
ENDBRANCH  19  20
ENDBRANCH  18  19
ENDBRANCH   6   7
ENDBRANCH   3   6
ENDBRANCH   1   2
BRANCH   1  29
ATOM     29  C   UNL A   1      38.636  20.076  25.123  1.00  0.00     0.042 C 
BRANCH  29  30
ATOM     30  C   UNL A   1      39.596  19.900  26.300  1.00  0.00     0.118 C 
BRANCH  30  31
ATOM     31  N   UNL A   1      40.776  19.117  25.954  1.00  0.00    -0.352 N 
ATOM     32  C   UNL A   1      42.099  19.474  25.891  1.00  0.00     0.251 C 
ATOM     33  H   UNL A   1      40.593  18.177  25.729  1.00  0.00     0.163 HD
ATOM     34  O   UNL A   1      42.912  18.698  25.399  1.00  0.00    -0.269 OA
BRANCH  32  35
ATOM     35  C   UNL A   1      42.557  20.789  26.391  1.00  0.00     0.039 A 
ATOM     36  C   UNL A   1      43.023  21.731  25.468  1.00  0.00     0.014 A 
ATOM     37  C   UNL A   1      42.577  21.083  27.756  1.00  0.00     0.014 A 
ATOM     38  C   UNL A   1      43.448  22.987  25.907  1.00  0.00     0.010 A 
ATOM     39  C   UNL A   1      42.933  22.360  28.186  1.00  0.00     0.010 A 
ATOM     40  C   UNL A   1      43.373  23.324  27.267  1.00  0.00    -0.014 A 
BRANCH  40  41
ATOM     41  C   UNL A   1      43.741  24.683  27.745  1.00  0.00     0.031 A 
ATOM     42  C   UNL A   1      42.674  25.687  28.076  1.00  0.00     0.074 A 
ATOM     43  C   UNL A   1      45.040  25.033  27.811  1.00  0.00     0.049 A 
ATOM     44  N   UNL A   1      42.799  26.942  28.430  1.00  0.00    -0.248 NA
ATOM     45  C   UNL A   1      41.280  25.228  27.977  1.00  0.00     0.031 C 
ATOM     46  C   UNL A   1      46.166  24.159  27.482  1.00  0.00     0.029 A 
ATOM     47  N   UNL A   1      45.634  26.220  28.160  1.00  0.00    -0.354 N 
ATOM     48  C   UNL A   1      41.505  27.424  28.575  1.00  0.00     0.074 A 
ATOM     49  C   UNL A   1      40.609  26.342  28.230  1.00  0.00     0.031 C 
ATOM     50  C   UNL A   1      47.314  24.833  27.654  1.00  0.00     0.029 A 
ATOM     51  C   UNL A   1      47.005  26.196  28.073  1.00  0.00     0.049 A 
ATOM     52  H   UNL A   1      45.126  27.013  28.447  1.00  0.00     0.167 HD
ATOM     53  C   UNL A   1      41.103  28.653  28.979  1.00  0.00     0.037 A 
ATOM     54  C   UNL A   1      47.911  27.166  28.298  1.00  0.00     0.037 A 
ATOM     55  C   UNL A   1      42.000  29.718  29.348  1.00  0.00     0.049 A 
ATOM     56  C   UNL A   1      47.436  28.526  28.735  1.00  0.00     0.074 A 
ATOM     57  C   UNL A   1      41.691  30.975  29.836  1.00  0.00     0.029 A 
ATOM     58  N   UNL A   1      43.383  29.652  29.263  1.00  0.00    -0.354 N 
ATOM     59  N   UNL A   1      46.213  28.946  28.945  1.00  0.00    -0.248 NA
ATOM     60  C   UNL A   1      48.469  29.542  28.976  1.00  0.00     0.031 C 
ATOM     61  C   UNL A   1      42.883  31.689  29.998  1.00  0.00     0.029 A 
ATOM     62  C   UNL A   1      43.939  30.857  29.665  1.00  0.00     0.049 A 
ATOM     63  H   UNL A   1      43.894  28.866  28.962  1.00  0.00     0.167 HD
ATOM     64  C   UNL A   1      46.329  30.263  29.371  1.00  0.00     0.074 A 
ATOM     65  C   UNL A   1      47.745  30.566  29.406  1.00  0.00     0.031 C 
ATOM     66  C   UNL A   1      45.351  31.139  29.706  1.00  0.00     0.037 A 
BRANCH  53  67
ATOM     67  C   UNL A   1      39.626  28.919  29.043  1.00  0.00     0.064 A 
ATOM     68  C   UNL A   1      38.909  28.814  30.244  1.00  0.00     0.173 A 
ATOM     69  C   UNL A   1      38.928  29.329  27.896  1.00  0.00     0.173 A 
ATOM     70  F   UNL A   1      39.527  28.417  31.367  1.00  0.00    -0.203 F 
ATOM     71  C   UNL A   1      37.544  29.084  30.290  1.00  0.00     0.198 A 
ATOM     72  C   UNL A   1      37.570  29.628  27.953  1.00  0.00     0.198 A 
ATOM     73  F   UNL A   1      39.566  29.452  26.723  1.00  0.00    -0.203 F 
ATOM     74  F   UNL A   1      36.870  28.932  31.439  1.00  0.00    -0.200 F 
ATOM     75  C   UNL A   1      36.876  29.498  29.146  1.00  0.00     0.200 A 
ATOM     76  F   UNL A   1      36.930  30.042  26.850  1.00  0.00    -0.200 F 
ATOM     77  F   UNL A   1      35.564  29.767  29.194  1.00  0.00    -0.200 F 
ENDBRANCH  53  67
BRANCH  54  78
ATOM     78  C   UNL A   1      49.362  26.880  28.144  1.00  0.00     0.064 A 
ATOM     79  C   UNL A   1      49.978  26.955  26.887  1.00  0.00     0.173 A 
ATOM     80  C   UNL A   1      50.160  26.523  29.241  1.00  0.00     0.173 A 
ATOM     81  F   UNL A   1      49.255  27.279  25.805  1.00  0.00    -0.203 F 
ATOM     82  C   UNL A   1      51.330  26.658  26.729  1.00  0.00     0.198 A 
ATOM     83  C   UNL A   1      51.519  26.256  29.086  1.00  0.00     0.198 A 
ATOM     84  F   UNL A   1      49.623  26.446  30.468  1.00  0.00    -0.203 F 
ATOM     85  F   UNL A   1      51.881  26.691  25.507  1.00  0.00    -0.200 F 
ATOM     86  C   UNL A   1      52.100  26.313  27.828  1.00  0.00     0.200 A 
ATOM     87  F   UNL A   1      52.264  25.941  30.154  1.00  0.00    -0.200 F 
ATOM     88  F   UNL A   1      53.401  26.030  27.674  1.00  0.00    -0.200 F 
ENDBRANCH  54  78
BRANCH  66  89
ATOM     89  C   UNL A   1      45.777  32.499  30.179  1.00  0.00     0.064 A 
ATOM     90  C   UNL A   1      45.921  33.578  29.294  1.00  0.00     0.173 A 
ATOM     91  C   UNL A   1      46.004  32.736  31.544  1.00  0.00     0.173 A 
ATOM     92  F   UNL A   1      45.731  33.401  27.977  1.00  0.00    -0.203 F 
ATOM     93  C   UNL A   1      46.300  34.836  29.755  1.00  0.00     0.198 A 
ATOM     94  C   UNL A   1      46.352  34.002  32.005  1.00  0.00     0.198 A 
ATOM     95  F   UNL A   1      45.874  31.739  32.433  1.00  0.00    -0.203 F 
ATOM     96  F   UNL A   1      46.479  35.840  28.885  1.00  0.00    -0.200 F 
ATOM     97  C   UNL A   1      46.508  35.049  31.109  1.00  0.00     0.200 A 
ATOM     98  F   UNL A   1      46.537  34.209  33.316  1.00  0.00    -0.200 F 
ATOM     99  F   UNL A   1      46.864  36.263  31.552  1.00  0.00    -0.200 F 
ENDBRANCH  66  89
ENDBRANCH  40  41
ENDBRANCH  32  35
ENDBRANCH  30  31
ENDBRANCH  29  30
ENDBRANCH   1  29
TORSDOF 14
ENDMDL
