MODEL 1
REMARK VINA RESULT:     -14.2      0.000      0.000
REMARK SMILES [NH2+]=C1S[C@@H](C(=O)Nc2ccc(C(=O)NCCCNC(=O)c3ccc(-c4c5nc(c(-c6c(F)c(F)c(F)c(F)c6F)c6ccc([nH]6)c(-c6c(F)c(F)c(F)c(F)c6F)c6nc(c(-c7c(F)c(F)c(F)c(F)c7F)c7ccc4[nH]7)C=C6)C=C5)cc3)cc2)CC(=O)N1/N=C/c1ccc(Cl)cc1
REMARK SMILES IDX 15 1 14 2 12 3 13 4 11 6 8 7 9 8 85 9 10 10 84 11 7 12 5 13
REMARK SMILES IDX 6 14 4 16 1 17 2 18 3 21 89 22 87 23 86 24 88 25 90 26 91 27
REMARK SMILES IDX 92 28 93 29 98 30 94 31 97 32 95 33 96 34 16 35 17 36 18 37
REMARK SMILES IDX 19 38 20 40 21 41 22 42 83 43 23 44 82 45 24 46 25 47 26 48
REMARK SMILES IDX 76 49 27 50 81 51 75 52 77 53 28 54 80 55 74 56 73 57 29 59
REMARK SMILES IDX 61 60 41 61 60 62 42 63 45 64 59 65 78 66 43 67 44 68 58 70
REMARK SMILES IDX 79 71 46 72 30 73 31 74 39 75 32 76 33 77 37 78 40 79 34 80
REMARK SMILES IDX 35 81 38 82 36 83 62 84 63 85 71 86 64 87 65 88 69 89 72 90
REMARK SMILES IDX 66 91 67 92 70 93 68 94 47 95 48 96 56 97 49 98 50 99 54 100
REMARK SMILES IDX 57 101 51 102 52 103 55 104 53 105
REMARK H PARENT 14 5 7 15 1 19 1 20 18 39 77 58 45 69
REMARK Flexibility Score: inf
ROOT
ATOM      1  C   UNL A   1      31.903  30.552  26.647  1.00  0.00     0.118 C 
ENDROOT
BRANCH   1   2
ATOM      2  N   UNL A   1      32.591  30.240  25.397  1.00  0.00    -0.352 N 
ATOM      3  C   UNL A   1      32.649  29.067  24.688  1.00  0.00     0.251 C 
ATOM      4  O   UNL A   1      33.087  29.081  23.540  1.00  0.00    -0.269 OA
ATOM      5  H   UNL A   1      33.091  30.990  25.000  1.00  0.00     0.163 HD
BRANCH   3   6
ATOM      6  C   UNL A   1      32.108  27.811  25.246  1.00  0.00     0.039 A 
ATOM      7  C   UNL A   1      31.265  25.315  26.134  1.00  0.00     0.041 A 
ATOM      8  C   UNL A   1      32.482  25.828  26.581  1.00  0.00     0.027 A 
ATOM      9  C   UNL A   1      30.403  26.109  25.380  1.00  0.00     0.027 A 
ATOM     10  C   UNL A   1      32.918  27.066  26.111  1.00  0.00     0.016 A 
ATOM     11  C   UNL A   1      30.818  27.367  24.946  1.00  0.00     0.016 A 
BRANCH   7  12
ATOM     12  N   UNL A   1      30.900  24.034  26.531  1.00  0.00    -0.325 N 
ATOM     13  C   UNL A   1      30.782  22.886  25.806  1.00  0.00     0.238 C 
ATOM     14  O   UNL A   1      30.064  21.997  26.280  1.00  0.00    -0.273 OA
ATOM     15  H   UNL A   1      30.691  23.942  27.489  1.00  0.00     0.169 HD
BRANCH  13  16
ATOM     16  C   UNL A   1      31.663  22.569  24.581  1.00  0.00     0.160 C 
ATOM     17  N   UNL A   1      33.538  19.825  26.326  1.00  0.00    -0.279 N 
ATOM     18  C   UNL A   1      33.475  20.789  25.474  1.00  0.00     0.338 C 
ATOM     19  H   UNL A   1      32.789  19.192  26.408  1.00  0.00     0.302 HD
ATOM     20  H   UNL A   1      34.334  19.722  26.895  1.00  0.00     0.302 HD
ATOM     21  S   UNL A   1      32.040  20.810  24.502  1.00  0.00    -0.022 SA
ATOM     22  N   UNL A   1      34.456  21.756  25.251  1.00  0.00    -0.057 N 
ATOM     23  C   UNL A   1      34.256  22.940  24.521  1.00  0.00     0.337 C 
ATOM     24  C   UNL A   1      32.848  23.406  24.191  1.00  0.00     0.155 C 
ATOM     25  O   UNL A   1      35.180  23.660  24.117  1.00  0.00    -0.244 OA
BRANCH  22  26
ATOM     26  N   UNL A   1      35.798  21.614  25.681  1.00  0.00    -0.082 NA
ATOM     27  C   UNL A   1      36.667  20.892  25.057  1.00  0.00     0.167 C 
BRANCH  27  28
ATOM     28  C   UNL A   1      38.081  20.886  25.487  1.00  0.00    -0.003 A 
ATOM     29  C   UNL A   1      38.777  19.675  25.444  1.00  0.00     0.011 A 
ATOM     30  C   UNL A   1      38.698  22.038  25.976  1.00  0.00     0.011 A 
ATOM     31  C   UNL A   1      40.110  19.628  25.863  1.00  0.00     0.021 A 
ATOM     32  C   UNL A   1      40.037  21.993  26.376  1.00  0.00     0.021 A 
ATOM     33  C   UNL A   1      40.737  20.787  26.318  1.00  0.00     0.041 A 
ATOM     34  Cl  UNL A   1      42.380  20.727  26.824  1.00  0.00    -0.084 Cl
ENDBRANCH  27  28
ENDBRANCH  22  26
ENDBRANCH  13  16
ENDBRANCH   7  12
ENDBRANCH   3   6
ENDBRANCH   1   2
BRANCH   1  35
ATOM     35  C   UNL A   1      31.610  32.039  26.755  1.00  0.00     0.042 C 
BRANCH  35  36
ATOM     36  C   UNL A   1      32.785  32.811  27.339  1.00  0.00     0.118 C 
BRANCH  36  37
ATOM     37  N   UNL A   1      32.452  34.194  27.655  1.00  0.00    -0.352 N 
ATOM     38  C   UNL A   1      32.993  35.017  28.615  1.00  0.00     0.251 C 
ATOM     39  H   UNL A   1      31.740  34.594  27.104  1.00  0.00     0.163 HD
ATOM     40  O   UNL A   1      32.494  36.113  28.851  1.00  0.00    -0.269 OA
BRANCH  38  41
ATOM     41  C   UNL A   1      34.162  34.557  29.398  1.00  0.00     0.039 A 
ATOM     42  C   UNL A   1      33.954  34.014  30.668  1.00  0.00     0.014 A 
ATOM     43  C   UNL A   1      35.453  34.624  28.868  1.00  0.00     0.014 A 
ATOM     44  C   UNL A   1      35.030  33.463  31.369  1.00  0.00     0.010 A 
ATOM     45  C   UNL A   1      36.504  33.991  29.524  1.00  0.00     0.010 A 
ATOM     46  C   UNL A   1      36.306  33.403  30.783  1.00  0.00    -0.014 A 
BRANCH  46  47
ATOM     47  C   UNL A   1      37.442  32.732  31.468  1.00  0.00     0.031 A 
ATOM     48  C   UNL A   1      38.127  31.558  30.821  1.00  0.00     0.074 A 
ATOM     49  C   UNL A   1      37.818  33.135  32.697  1.00  0.00     0.049 A 
ATOM     50  N   UNL A   1      39.083  30.795  31.288  1.00  0.00    -0.248 NA
ATOM     51  C   UNL A   1      37.655  31.172  29.481  1.00  0.00     0.031 C 
ATOM     52  C   UNL A   1      37.206  34.228  33.455  1.00  0.00     0.029 A 
ATOM     53  N   UNL A   1      38.801  32.664  33.535  1.00  0.00    -0.354 N 
ATOM     54  C   UNL A   1      39.315  29.838  30.308  1.00  0.00     0.074 A 
ATOM     55  C   UNL A   1      38.360  30.076  29.249  1.00  0.00     0.031 C 
ATOM     56  C   UNL A   1      37.842  34.360  34.630  1.00  0.00     0.029 A 
ATOM     57  C   UNL A   1      38.876  33.336  34.731  1.00  0.00     0.049 A 
ATOM     58  H   UNL A   1      39.395  31.915  33.299  1.00  0.00     0.167 HD
ATOM     59  C   UNL A   1      40.257  28.865  30.282  1.00  0.00     0.037 A 
ATOM     60  C   UNL A   1      39.682  33.141  35.794  1.00  0.00     0.037 A 
ATOM     61  C   UNL A   1      41.221  28.643  31.327  1.00  0.00     0.049 A 
ATOM     62  C   UNL A   1      40.707  32.039  35.746  1.00  0.00     0.074 A 
ATOM     63  C   UNL A   1      42.250  27.718  31.369  1.00  0.00     0.029 A 
ATOM     64  N   UNL A   1      41.273  29.353  32.517  1.00  0.00    -0.354 N 
ATOM     65  N   UNL A   1      40.962  31.186  34.784  1.00  0.00    -0.248 NA
ATOM     66  C   UNL A   1      41.559  31.876  36.931  1.00  0.00     0.031 C 
ATOM     67  C   UNL A   1      42.891  27.831  32.606  1.00  0.00     0.029 A 
ATOM     68  C   UNL A   1      42.303  28.869  33.311  1.00  0.00     0.049 A 
ATOM     69  H   UNL A   1      40.670  30.091  32.762  1.00  0.00     0.167 HD
ATOM     70  C   UNL A   1      42.024  30.411  35.232  1.00  0.00     0.074 A 
ATOM     71  C   UNL A   1      42.375  30.905  36.546  1.00  0.00     0.031 C 
ATOM     72  C   UNL A   1      42.651  29.381  34.611  1.00  0.00     0.037 A 
BRANCH  59  73
ATOM     73  C   UNL A   1      40.298  27.967  29.078  1.00  0.00     0.064 A 
ATOM     74  C   UNL A   1      39.563  26.772  29.027  1.00  0.00     0.173 A 
ATOM     75  C   UNL A   1      41.040  28.327  27.944  1.00  0.00     0.173 A 
ATOM     76  F   UNL A   1      38.844  26.375  30.088  1.00  0.00    -0.203 F 
ATOM     77  C   UNL A   1      39.593  25.958  27.898  1.00  0.00     0.198 A 
ATOM     78  C   UNL A   1      41.041  27.527  26.804  1.00  0.00     0.198 A 
ATOM     79  F   UNL A   1      41.755  29.462  27.936  1.00  0.00    -0.203 F 
ATOM     80  F   UNL A   1      38.923  24.798  27.892  1.00  0.00    -0.200 F 
ATOM     81  C   UNL A   1      40.325  26.340  26.784  1.00  0.00     0.200 A 
ATOM     82  F   UNL A   1      41.736  27.907  25.722  1.00  0.00    -0.200 F 
ATOM     83  F   UNL A   1      40.343  25.563  25.693  1.00  0.00    -0.200 F 
ENDBRANCH  59  73
BRANCH  60  84
ATOM     84  C   UNL A   1      39.567  34.015  36.991  1.00  0.00     0.064 A 
ATOM     85  C   UNL A   1      38.802  33.623  38.100  1.00  0.00     0.173 A 
ATOM     86  C   UNL A   1      40.193  35.269  37.045  1.00  0.00     0.173 A 
ATOM     87  F   UNL A   1      38.165  32.444  38.090  1.00  0.00    -0.203 F 
ATOM     88  C   UNL A   1      38.643  34.464  39.200  1.00  0.00     0.198 A 
ATOM     89  C   UNL A   1      40.061  36.095  38.160  1.00  0.00     0.198 A 
ATOM     90  F   UNL A   1      40.941  35.691  36.015  1.00  0.00    -0.203 F 
ATOM     91  F   UNL A   1      37.857  34.089  40.219  1.00  0.00    -0.200 F 
ATOM     92  C   UNL A   1      39.276  35.698  39.232  1.00  0.00     0.200 A 
ATOM     93  F   UNL A   1      40.689  37.278  38.193  1.00  0.00    -0.200 F 
ATOM     94  F   UNL A   1      39.122  36.505  40.289  1.00  0.00    -0.200 F 
ENDBRANCH  60  84
BRANCH  72  95
ATOM     95  C   UNL A   1      43.814  28.750  35.322  1.00  0.00     0.064 A 
ATOM     96  C   UNL A   1      45.132  29.177  35.109  1.00  0.00     0.173 A 
ATOM     97  C   UNL A   1      43.599  27.728  36.261  1.00  0.00     0.173 A 
ATOM     98  F   UNL A   1      45.394  30.141  34.212  1.00  0.00    -0.203 F 
ATOM     99  C   UNL A   1      46.195  28.586  35.786  1.00  0.00     0.198 A 
ATOM    100  C   UNL A   1      44.661  27.163  36.962  1.00  0.00     0.198 A 
ATOM    101  F   UNL A   1      42.357  27.287  36.509  1.00  0.00    -0.203 F 
ATOM    102  F   UNL A   1      47.451  28.973  35.527  1.00  0.00    -0.200 F 
ATOM    103  C   UNL A   1      45.958  27.586  36.718  1.00  0.00     0.200 A 
ATOM    104  F   UNL A   1      44.427  26.209  37.873  1.00  0.00    -0.200 F 
ATOM    105  F   UNL A   1      46.982  27.024  37.376  1.00  0.00    -0.200 F 
ENDBRANCH  72  95
ENDBRANCH  46  47
ENDBRANCH  38  41
ENDBRANCH  36  37
ENDBRANCH  35  36
ENDBRANCH   1  35
TORSDOF 14
ENDMDL
MODEL 2
REMARK VINA RESULT:     -13.9      0.494      2.046
REMARK SMILES [NH2+]=C1S[C@@H](C(=O)Nc2ccc(C(=O)NCCCNC(=O)c3ccc(-c4c5nc(c(-c6c(F)c(F)c(F)c(F)c6F)c6ccc([nH]6)c(-c6c(F)c(F)c(F)c(F)c6F)c6nc(c(-c7c(F)c(F)c(F)c(F)c7F)c7ccc4[nH]7)C=C6)C=C5)cc3)cc2)CC(=O)N1/N=C/c1ccc(Cl)cc1
REMARK SMILES IDX 15 1 14 2 12 3 13 4 11 6 8 7 9 8 85 9 10 10 84 11 7 12 5 13
REMARK SMILES IDX 6 14 4 16 1 17 2 18 3 21 89 22 87 23 86 24 88 25 90 26 91 27
REMARK SMILES IDX 92 28 93 29 98 30 94 31 97 32 95 33 96 34 16 35 17 36 18 37
REMARK SMILES IDX 19 38 20 40 21 41 22 42 83 43 23 44 82 45 24 46 25 47 26 48
REMARK SMILES IDX 76 49 27 50 81 51 75 52 77 53 28 54 80 55 74 56 73 57 29 59
REMARK SMILES IDX 61 60 41 61 60 62 42 63 45 64 59 65 78 66 43 67 44 68 58 70
REMARK SMILES IDX 79 71 46 72 30 73 31 74 39 75 32 76 33 77 37 78 40 79 34 80
REMARK SMILES IDX 35 81 38 82 36 83 62 84 63 85 71 86 64 87 65 88 69 89 72 90
REMARK SMILES IDX 66 91 67 92 70 93 68 94 47 95 48 96 56 97 49 98 50 99 54 100
REMARK SMILES IDX 57 101 51 102 52 103 55 104 53 105
REMARK H PARENT 14 5 7 15 1 19 1 20 18 39 77 58 45 69
REMARK Flexibility Score: inf
ROOT
ATOM      1  C   UNL A   1      31.794  30.674  26.194  1.00  0.00     0.118 C 
ENDROOT
BRANCH   1   2
ATOM      2  N   UNL A   1      31.212  30.599  24.857  1.00  0.00    -0.352 N 
ATOM      3  C   UNL A   1      30.689  29.527  24.179  1.00  0.00     0.251 C 
ATOM      4  O   UNL A   1      30.035  29.724  23.157  1.00  0.00    -0.269 OA
ATOM      5  H   UNL A   1      31.189  31.452  24.365  1.00  0.00     0.163 HD
BRANCH   3   6
ATOM      6  C   UNL A   1      30.820  28.154  24.706  1.00  0.00     0.039 A 
ATOM      7  C   UNL A   1      30.834  25.613  25.836  1.00  0.00     0.041 A 
ATOM      8  C   UNL A   1      29.955  25.896  24.791  1.00  0.00     0.027 A 
ATOM      9  C   UNL A   1      31.807  26.540  26.203  1.00  0.00     0.027 A 
ATOM     10  C   UNL A   1      29.927  27.179  24.246  1.00  0.00     0.016 A 
ATOM     11  C   UNL A   1      31.812  27.810  25.627  1.00  0.00     0.016 A 
BRANCH   7  12
ATOM     12  N   UNL A   1      30.771  24.361  26.436  1.00  0.00    -0.325 N 
ATOM     13  C   UNL A   1      30.874  23.117  25.892  1.00  0.00     0.238 C 
ATOM     14  O   UNL A   1      30.386  22.182  26.539  1.00  0.00    -0.273 OA
ATOM     15  H   UNL A   1      30.627  24.377  27.411  1.00  0.00     0.169 HD
BRANCH  13  16
ATOM     16  C   UNL A   1      31.751  22.804  24.664  1.00  0.00     0.160 C 
ATOM     17  N   UNL A   1      33.442  19.881  26.301  1.00  0.00    -0.279 N 
ATOM     18  C   UNL A   1      33.446  20.884  25.493  1.00  0.00     0.338 C 
ATOM     19  H   UNL A   1      32.658  19.289  26.347  1.00  0.00     0.302 HD
ATOM     20  H   UNL A   1      34.224  19.706  26.873  1.00  0.00     0.302 HD
ATOM     21  S   UNL A   1      32.028  21.032  24.508  1.00  0.00    -0.022 SA
ATOM     22  N   UNL A   1      34.484  21.801  25.325  1.00  0.00    -0.057 N 
ATOM     23  C   UNL A   1      34.362  23.027  24.647  1.00  0.00     0.337 C 
ATOM     24  C   UNL A   1      32.987  23.587  24.324  1.00  0.00     0.155 C 
ATOM     25  O   UNL A   1      35.331  23.709  24.286  1.00  0.00    -0.244 OA
BRANCH  22  26
ATOM     26  N   UNL A   1      35.810  21.563  25.762  1.00  0.00    -0.082 NA
ATOM     27  C   UNL A   1      36.699  20.978  25.032  1.00  0.00     0.167 C 
BRANCH  27  28
ATOM     28  C   UNL A   1      38.098  20.872  25.500  1.00  0.00    -0.003 A 
ATOM     29  C   UNL A   1      38.727  22.030  25.963  1.00  0.00     0.011 A 
ATOM     30  C   UNL A   1      38.798  19.667  25.434  1.00  0.00     0.011 A 
ATOM     31  C   UNL A   1      40.055  21.972  26.393  1.00  0.00     0.021 A 
ATOM     32  C   UNL A   1      40.121  19.606  25.883  1.00  0.00     0.021 A 
ATOM     33  C   UNL A   1      40.744  20.759  26.361  1.00  0.00     0.041 A 
ATOM     34  Cl  UNL A   1      42.376  20.689  26.900  1.00  0.00    -0.084 Cl
ENDBRANCH  27  28
ENDBRANCH  22  26
ENDBRANCH  13  16
ENDBRANCH   7  12
ENDBRANCH   3   6
ENDBRANCH   1   2
BRANCH   1  35
ATOM     35  C   UNL A   1      31.408  31.970  26.888  1.00  0.00     0.042 C 
BRANCH  35  36
ATOM     36  C   UNL A   1      32.627  32.754  27.352  1.00  0.00     0.118 C 
BRANCH  36  37
ATOM     37  N   UNL A   1      32.330  34.155  27.620  1.00  0.00    -0.352 N 
ATOM     38  C   UNL A   1      32.911  35.004  28.533  1.00  0.00     0.251 C 
ATOM     39  H   UNL A   1      31.613  34.548  27.072  1.00  0.00     0.163 HD
ATOM     40  O   UNL A   1      32.441  36.119  28.737  1.00  0.00    -0.269 OA
BRANCH  38  41
ATOM     41  C   UNL A   1      34.091  34.551  29.305  1.00  0.00     0.039 A 
ATOM     42  C   UNL A   1      33.900  34.030  30.587  1.00  0.00     0.014 A 
ATOM     43  C   UNL A   1      35.373  34.602  28.754  1.00  0.00     0.014 A 
ATOM     44  C   UNL A   1      34.984  33.485  31.280  1.00  0.00     0.010 A 
ATOM     45  C   UNL A   1      36.431  33.975  29.404  1.00  0.00     0.010 A 
ATOM     46  C   UNL A   1      36.250  33.409  30.675  1.00  0.00    -0.014 A 
BRANCH  46  47
ATOM     47  C   UNL A   1      37.394  32.743  31.353  1.00  0.00     0.031 A 
ATOM     48  C   UNL A   1      38.073  31.565  30.707  1.00  0.00     0.074 A 
ATOM     49  C   UNL A   1      37.782  33.154  32.576  1.00  0.00     0.049 A 
ATOM     50  N   UNL A   1      39.034  30.806  31.169  1.00  0.00    -0.248 NA
ATOM     51  C   UNL A   1      37.588  31.170  29.375  1.00  0.00     0.031 C 
ATOM     52  C   UNL A   1      37.176  34.251  33.333  1.00  0.00     0.029 A 
ATOM     53  N   UNL A   1      38.773  32.689  33.407  1.00  0.00    -0.354 N 
ATOM     54  C   UNL A   1      39.257  29.843  30.194  1.00  0.00     0.074 A 
ATOM     55  C   UNL A   1      38.291  30.073  29.143  1.00  0.00     0.031 C 
ATOM     56  C   UNL A   1      37.824  34.392  34.501  1.00  0.00     0.029 A 
ATOM     57  C   UNL A   1      38.860  33.369  34.598  1.00  0.00     0.049 A 
ATOM     58  H   UNL A   1      39.366  31.939  33.170  1.00  0.00     0.167 HD
ATOM     59  C   UNL A   1      40.200  28.870  30.164  1.00  0.00     0.037 A 
ATOM     60  C   UNL A   1      39.676  33.181  35.654  1.00  0.00     0.037 A 
ATOM     61  C   UNL A   1      41.174  28.656  31.201  1.00  0.00     0.049 A 
ATOM     62  C   UNL A   1      40.701  32.080  35.603  1.00  0.00     0.074 A 
ATOM     63  C   UNL A   1      42.204  27.732  31.239  1.00  0.00     0.029 A 
ATOM     64  N   UNL A   1      41.238  29.374  32.386  1.00  0.00    -0.354 N 
ATOM     65  N   UNL A   1      40.948  31.221  34.644  1.00  0.00    -0.248 NA
ATOM     66  C   UNL A   1      41.566  31.925  36.781  1.00  0.00     0.031 C 
ATOM     67  C   UNL A   1      42.857  27.854  32.469  1.00  0.00     0.029 A 
ATOM     68  C   UNL A   1      42.275  28.896  33.173  1.00  0.00     0.049 A 
ATOM     69  H   UNL A   1      40.636  30.113  32.632  1.00  0.00     0.167 HD
ATOM     70  C   UNL A   1      42.015  30.450  35.087  1.00  0.00     0.074 A 
ATOM     71  C   UNL A   1      42.379  30.953  36.394  1.00  0.00     0.031 C 
ATOM     72  C   UNL A   1      42.636  29.417  34.467  1.00  0.00     0.037 A 
BRANCH  59  73
ATOM     73  C   UNL A   1      40.229  27.964  28.967  1.00  0.00     0.064 A 
ATOM     74  C   UNL A   1      40.971  28.286  27.819  1.00  0.00     0.173 A 
ATOM     75  C   UNL A   1      39.549  26.738  28.983  1.00  0.00     0.173 A 
ATOM     76  F   UNL A   1      41.632  29.451  27.747  1.00  0.00    -0.203 F 
ATOM     77  C   UNL A   1      41.007  27.428  26.723  1.00  0.00     0.198 A 
ATOM     78  C   UNL A   1      39.614  25.867  27.898  1.00  0.00     0.198 A 
ATOM     79  F   UNL A   1      38.830  26.376  30.057  1.00  0.00    -0.203 F 
ATOM     80  F   UNL A   1      41.681  27.780  25.621  1.00  0.00    -0.200 F 
ATOM     81  C   UNL A   1      40.335  26.215  26.767  1.00  0.00     0.200 A 
ATOM     82  F   UNL A   1      38.978  24.687  27.948  1.00  0.00    -0.200 F 
ATOM     83  F   UNL A   1      40.382  25.385  25.717  1.00  0.00    -0.200 F 
ENDBRANCH  59  73
BRANCH  60  84
ATOM     84  C   UNL A   1      39.572  34.064  36.847  1.00  0.00     0.064 A 
ATOM     85  C   UNL A   1      40.269  35.280  36.907  1.00  0.00     0.173 A 
ATOM     86  C   UNL A   1      38.801  33.701  37.962  1.00  0.00     0.173 A 
ATOM     87  F   UNL A   1      41.037  35.662  35.877  1.00  0.00    -0.203 F 
ATOM     88  C   UNL A   1      40.223  36.082  38.046  1.00  0.00     0.198 A 
ATOM     89  C   UNL A   1      38.729  34.521  39.086  1.00  0.00     0.198 A 
ATOM     90  F   UNL A   1      38.111  32.552  37.956  1.00  0.00    -0.203 F 
ATOM     91  F   UNL A   1      40.946  37.209  38.098  1.00  0.00    -0.200 F 
ATOM     92  C   UNL A   1      39.449  35.705  39.133  1.00  0.00     0.200 A 
ATOM     93  F   UNL A   1      37.967  34.159  40.128  1.00  0.00    -0.200 F 
ATOM     94  F   UNL A   1      39.406  36.476  40.227  1.00  0.00    -0.200 F 
ENDBRANCH  60  84
BRANCH  72  95
ATOM     95  C   UNL A   1      43.806  28.790  35.170  1.00  0.00     0.064 A 
ATOM     96  C   UNL A   1      43.651  27.699  36.037  1.00  0.00     0.173 A 
ATOM     97  C   UNL A   1      45.107  29.266  34.941  1.00  0.00     0.173 A 
ATOM     98  F   UNL A   1      42.427  27.215  36.302  1.00  0.00    -0.203 F 
ATOM     99  C   UNL A   1      44.750  27.126  36.671  1.00  0.00     0.198 A 
ATOM    100  C   UNL A   1      46.207  28.668  35.550  1.00  0.00     0.198 A 
ATOM    101  F   UNL A   1      45.313  30.303  34.115  1.00  0.00    -0.203 F 
ATOM    102  F   UNL A   1      44.572  26.119  37.537  1.00  0.00    -0.200 F 
ATOM    103  C   UNL A   1      46.028  27.605  36.420  1.00  0.00     0.200 A 
ATOM    104  F   UNL A   1      47.441  29.123  35.293  1.00  0.00    -0.200 F 
ATOM    105  F   UNL A   1      47.085  27.046  37.025  1.00  0.00    -0.200 F 
ENDBRANCH  72  95
ENDBRANCH  46  47
ENDBRANCH  38  41
ENDBRANCH  36  37
ENDBRANCH  35  36
ENDBRANCH   1  35
TORSDOF 14
ENDMDL
MODEL 3
REMARK VINA RESULT:     -13.6      0.909      6.970
REMARK SMILES [NH2+]=C1S[C@@H](C(=O)Nc2ccc(C(=O)NCCCNC(=O)c3ccc(-c4c5nc(c(-c6c(F)c(F)c(F)c(F)c6F)c6ccc([nH]6)c(-c6c(F)c(F)c(F)c(F)c6F)c6nc(c(-c7c(F)c(F)c(F)c(F)c7F)c7ccc4[nH]7)C=C6)C=C5)cc3)cc2)CC(=O)N1/N=C/c1ccc(Cl)cc1
REMARK SMILES IDX 15 1 14 2 12 3 13 4 11 6 8 7 9 8 85 9 10 10 84 11 7 12 5 13
REMARK SMILES IDX 6 14 4 16 1 17 2 18 3 21 89 22 87 23 86 24 88 25 90 26 91 27
REMARK SMILES IDX 92 28 93 29 98 30 94 31 97 32 95 33 96 34 16 35 17 36 18 37
REMARK SMILES IDX 19 38 20 40 21 41 22 42 83 43 23 44 82 45 24 46 25 47 26 48
REMARK SMILES IDX 76 49 27 50 81 51 75 52 77 53 28 54 80 55 74 56 73 57 29 59
REMARK SMILES IDX 61 60 41 61 60 62 42 63 45 64 59 65 78 66 43 67 44 68 58 70
REMARK SMILES IDX 79 71 46 72 30 73 31 74 39 75 32 76 33 77 37 78 40 79 34 80
REMARK SMILES IDX 35 81 38 82 36 83 62 84 63 85 71 86 64 87 65 88 69 89 72 90
REMARK SMILES IDX 66 91 67 92 70 93 68 94 47 95 48 96 56 97 49 98 50 99 54 100
REMARK SMILES IDX 57 101 51 102 52 103 55 104 53 105
REMARK H PARENT 14 5 7 15 1 19 1 20 18 39 77 58 45 69
REMARK Flexibility Score: inf
ROOT
ATOM      1  C   UNL A   1      31.724  30.501  25.975  1.00  0.00     0.118 C 
ENDROOT
BRANCH   1   2
ATOM      2  N   UNL A   1      31.144  30.453  24.636  1.00  0.00    -0.352 N 
ATOM      3  C   UNL A   1      30.635  29.393  23.929  1.00  0.00     0.251 C 
ATOM      4  O   UNL A   1      29.979  29.608  22.912  1.00  0.00    -0.269 OA
ATOM      5  H   UNL A   1      31.112  31.318  24.166  1.00  0.00     0.163 HD
BRANCH   3   6
ATOM      6  C   UNL A   1      30.782  28.008  24.421  1.00  0.00     0.039 A 
ATOM      7  C   UNL A   1      30.833  25.444  25.494  1.00  0.00     0.041 A 
ATOM      8  C   UNL A   1      29.910  25.753  24.495  1.00  0.00     0.027 A 
ATOM      9  C   UNL A   1      31.826  26.359  25.838  1.00  0.00     0.027 A 
ATOM     10  C   UNL A   1      29.865  27.047  23.979  1.00  0.00     0.016 A 
ATOM     11  C   UNL A   1      31.811  27.640  25.290  1.00  0.00     0.016 A 
BRANCH   7  12
ATOM     12  N   UNL A   1      30.790  24.180  26.070  1.00  0.00    -0.325 N 
ATOM     13  C   UNL A   1      30.947  22.949  25.506  1.00  0.00     0.238 C 
ATOM     14  O   UNL A   1      30.467  21.988  26.122  1.00  0.00    -0.273 OA
ATOM     15  H   UNL A   1      30.617  24.173  27.039  1.00  0.00     0.169 HD
BRANCH  13  16
ATOM     16  C   UNL A   1      31.868  22.686  24.300  1.00  0.00     0.160 C 
ATOM     17  N   UNL A   1      33.516  19.711  25.888  1.00  0.00    -0.279 N 
ATOM     18  C   UNL A   1      33.543  20.744  25.118  1.00  0.00     0.338 C 
ATOM     19  H   UNL A   1      32.734  19.115  25.884  1.00  0.00     0.302 HD
ATOM     20  H   UNL A   1      34.278  19.519  26.481  1.00  0.00     0.302 HD
ATOM     21  S   UNL A   1      32.160  20.922  24.089  1.00  0.00    -0.022 SA
ATOM     22  N   UNL A   1      34.581  21.671  25.020  1.00  0.00    -0.057 N 
ATOM     23  C   UNL A   1      34.476  22.920  24.385  1.00  0.00     0.337 C 
ATOM     24  C   UNL A   1      33.111  23.486  24.034  1.00  0.00     0.155 C 
ATOM     25  O   UNL A   1      35.454  23.620  24.083  1.00  0.00    -0.244 OA
BRANCH  22  26
ATOM     26  N   UNL A   1      35.892  21.422  25.495  1.00  0.00    -0.082 NA
ATOM     27  C   UNL A   1      36.738  20.671  24.874  1.00  0.00     0.167 C 
BRANCH  27  28
ATOM     28  C   UNL A   1      38.129  20.553  25.358  1.00  0.00    -0.003 A 
ATOM     29  C   UNL A   1      38.791  21.719  25.750  1.00  0.00     0.011 A 
ATOM     30  C   UNL A   1      38.792  19.325  25.375  1.00  0.00     0.011 A 
ATOM     31  C   UNL A   1      40.115  21.648  26.193  1.00  0.00     0.021 A 
ATOM     32  C   UNL A   1      40.110  19.253  25.838  1.00  0.00     0.021 A 
ATOM     33  C   UNL A   1      40.766  20.415  26.244  1.00  0.00     0.041 A 
ATOM     34  Cl  UNL A   1      42.392  20.330  26.799  1.00  0.00    -0.084 Cl
ENDBRANCH  27  28
ENDBRANCH  22  26
ENDBRANCH  13  16
ENDBRANCH   7  12
ENDBRANCH   3   6
ENDBRANCH   1   2
BRANCH   1  35
ATOM     35  C   UNL A   1      31.404  31.817  26.664  1.00  0.00     0.042 C 
BRANCH  35  36
ATOM     36  C   UNL A   1      32.655  32.503  27.194  1.00  0.00     0.118 C 
BRANCH  36  37
ATOM     37  N   UNL A   1      32.433  33.904  27.528  1.00  0.00    -0.352 N 
ATOM     38  C   UNL A   1      33.057  34.675  28.481  1.00  0.00     0.251 C 
ATOM     39  H   UNL A   1      31.740  34.361  26.999  1.00  0.00     0.163 HD
ATOM     40  O   UNL A   1      32.647  35.803  28.738  1.00  0.00    -0.269 OA
BRANCH  38  41
ATOM     41  C   UNL A   1      34.207  34.122  29.232  1.00  0.00     0.039 A 
ATOM     42  C   UNL A   1      33.963  33.277  30.317  1.00  0.00     0.014 A 
ATOM     43  C   UNL A   1      35.519  34.403  28.845  1.00  0.00     0.014 A 
ATOM     44  C   UNL A   1      35.033  32.650  30.960  1.00  0.00     0.010 A 
ATOM     45  C   UNL A   1      36.575  33.705  29.422  1.00  0.00     0.010 A 
ATOM     46  C   UNL A   1      36.346  32.820  30.487  1.00  0.00    -0.014 A 
BRANCH  46  47
ATOM     47  C   UNL A   1      37.489  32.084  31.090  1.00  0.00     0.031 A 
ATOM     48  C   UNL A   1      37.963  32.430  32.475  1.00  0.00     0.074 A 
ATOM     49  C   UNL A   1      38.141  31.150  30.370  1.00  0.00     0.049 A 
ATOM     50  N   UNL A   1      38.984  31.957  33.144  1.00  0.00    -0.248 NA
ATOM     51  C   UNL A   1      37.205  33.465  33.195  1.00  0.00     0.031 C 
ATOM     52  C   UNL A   1      37.813  30.756  28.998  1.00  0.00     0.029 A 
ATOM     53  N   UNL A   1      39.226  30.369  30.687  1.00  0.00    -0.354 N 
ATOM     54  C   UNL A   1      38.996  32.644  34.351  1.00  0.00     0.074 A 
ATOM     55  C   UNL A   1      37.921  33.609  34.300  1.00  0.00     0.031 C 
ATOM     56  C   UNL A   1      38.659  29.790  28.603  1.00  0.00     0.029 A 
ATOM     57  C   UNL A   1      39.617  29.528  29.672  1.00  0.00     0.049 A 
ATOM     58  H   UNL A   1      39.680  30.407  31.559  1.00  0.00     0.167 HD
ATOM     59  C   UNL A   1      39.813  32.468  35.418  1.00  0.00     0.037 A 
ATOM     60  C   UNL A   1      40.639  28.652  29.608  1.00  0.00     0.037 A 
ATOM     61  C   UNL A   1      40.869  31.492  35.476  1.00  0.00     0.049 A 
ATOM     62  C   UNL A   1      41.544  28.491  30.800  1.00  0.00     0.074 A 
ATOM     63  C   UNL A   1      41.716  31.200  36.531  1.00  0.00     0.029 A 
ATOM     64  N   UNL A   1      41.225  30.650  34.433  1.00  0.00    -0.354 N 
ATOM     65  N   UNL A   1      41.501  29.097  31.962  1.00  0.00    -0.248 NA
ATOM     66  C   UNL A   1      42.638  27.519  30.674  1.00  0.00     0.031 C 
ATOM     67  C   UNL A   1      42.620  30.220  36.109  1.00  0.00     0.029 A 
ATOM     68  C   UNL A   1      42.296  29.855  34.812  1.00  0.00     0.049 A 
ATOM     69  H   UNL A   1      40.783  30.621  33.554  1.00  0.00     0.167 HD
ATOM     70  C   UNL A   1      42.535  28.556  32.714  1.00  0.00     0.074 A 
ATOM     71  C   UNL A   1      43.179  27.562  31.883  1.00  0.00     0.031 C 
ATOM     72  C   UNL A   1      42.918  28.858  33.979  1.00  0.00     0.037 A 
BRANCH  59  73
ATOM     73  C   UNL A   1      39.593  33.346  36.616  1.00  0.00     0.064 A 
ATOM     74  C   UNL A   1      38.700  32.987  37.638  1.00  0.00     0.173 A 
ATOM     75  C   UNL A   1      40.319  34.536  36.771  1.00  0.00     0.173 A 
ATOM     76  F   UNL A   1      37.973  31.864  37.535  1.00  0.00    -0.203 F 
ATOM     77  C   UNL A   1      38.521  33.800  38.754  1.00  0.00     0.198 A 
ATOM     78  C   UNL A   1      40.162  35.330  37.905  1.00  0.00     0.198 A 
ATOM     79  F   UNL A   1      41.192  34.925  35.829  1.00  0.00    -0.203 F 
ATOM     80  F   UNL A   1      37.626  33.460  39.691  1.00  0.00    -0.200 F 
ATOM     81  C   UNL A   1      39.258  34.966  38.891  1.00  0.00     0.200 A 
ATOM     82  F   UNL A   1      40.888  36.449  38.043  1.00  0.00    -0.200 F 
ATOM     83  F   UNL A   1      39.094  35.741  39.971  1.00  0.00    -0.200 F 
ENDBRANCH  59  73
BRANCH  60  84
ATOM     84  C   UNL A   1      40.858  27.845  28.378  1.00  0.00     0.064 A 
ATOM     85  C   UNL A   1      40.224  26.605  28.207  1.00  0.00     0.173 A 
ATOM     86  C   UNL A   1      41.722  28.278  27.361  1.00  0.00     0.173 A 
ATOM     87  F   UNL A   1      39.405  26.136  29.158  1.00  0.00    -0.203 F 
ATOM     88  C   UNL A   1      40.471  25.817  27.084  1.00  0.00     0.198 A 
ATOM     89  C   UNL A   1      41.943  27.505  26.223  1.00  0.00     0.198 A 
ATOM     90  F   UNL A   1      42.350  29.458  27.471  1.00  0.00    -0.203 F 
ATOM     91  F   UNL A   1      39.899  24.610  26.976  1.00  0.00    -0.200 F 
ATOM     92  C   UNL A   1      41.327  26.270  26.090  1.00  0.00     0.200 A 
ATOM     93  F   UNL A   1      42.757  27.954  25.259  1.00  0.00    -0.200 F 
ATOM     94  F   UNL A   1      41.564  25.512  25.012  1.00  0.00    -0.200 F 
ENDBRANCH  60  84
BRANCH  72  95
ATOM     95  C   UNL A   1      44.057  28.071  34.563  1.00  0.00     0.064 A 
ATOM     96  C   UNL A   1      45.387  28.502  34.453  1.00  0.00     0.173 A 
ATOM     97  C   UNL A   1      43.807  26.889  35.277  1.00  0.00     0.173 A 
ATOM     98  F   UNL A   1      45.682  29.618  33.769  1.00  0.00    -0.203 F 
ATOM     99  C   UNL A   1      46.427  27.763  35.011  1.00  0.00     0.198 A 
ATOM    100  C   UNL A   1      44.846  26.172  35.864  1.00  0.00     0.198 A 
ATOM    101  F   UNL A   1      42.552  26.436  35.419  1.00  0.00    -0.203 F 
ATOM    102  F   UNL A   1      47.695  28.165  34.848  1.00  0.00    -0.200 F 
ATOM    103  C   UNL A   1      46.155  26.604  35.724  1.00  0.00     0.200 A 
ATOM    104  F   UNL A   1      44.579  25.061  36.565  1.00  0.00    -0.200 F 
ATOM    105  F   UNL A   1      47.157  25.899  36.267  1.00  0.00    -0.200 F 
ENDBRANCH  72  95
ENDBRANCH  46  47
ENDBRANCH  38  41
ENDBRANCH  36  37
ENDBRANCH  35  36
ENDBRANCH   1  35
TORSDOF 14
ENDMDL
