MODEL 1
REMARK VINA RESULT:     -14.1      0.000      0.000
REMARK SMILES COc1cc(Cl)c(C)cc1N1C(=O)C[C@H](Nc2cc(C(=O)NCCCNC(=O)c3ccc(-c4c5nc(c(-c6c(F)c(F)c(F)c(F)c6F)c6ccc([nH]6)c(-c6c(F)c(F)c(F)c(F)c6F)c6nc(c(-c7c(F)c(F)c(F)c(F)c7F)c7ccc4[nH]7)C=C6)C=C5)cc3)ccc2C)C1=O
REMARK SMILES IDX 23 1 22 2 20 3 21 4 19 6 17 7 18 8 94 9 93 10 95 11 92 12
REMARK SMILES IDX 16 13 15 15 11 16 12 17 96 18 13 19 14 20 97 21 10 22 3 23
REMARK SMILES IDX 4 24 5 25 9 26 6 27 7 28 8 29 2 30 1 31 24 32 25 33 26 34
REMARK SMILES IDX 27 35 28 37 29 38 30 39 91 40 31 41 90 42 32 43 33 44 34 45
REMARK SMILES IDX 84 46 35 47 89 48 83 49 85 50 36 51 88 52 82 53 81 54 37 56
REMARK SMILES IDX 69 57 49 58 68 59 50 60 53 61 67 62 86 63 51 64 52 65 66 67
REMARK SMILES IDX 87 68 54 69 38 70 39 71 47 72 40 73 41 74 45 75 48 76 42 77
REMARK SMILES IDX 43 78 46 79 44 80 70 81 71 82 79 83 72 84 73 85 77 86 80 87
REMARK SMILES IDX 74 88 75 89 78 90 76 91 55 92 56 93 64 94 57 95 58 96 62 97
REMARK SMILES IDX 65 98 59 99 60 100 63 101 61 102
REMARK H PARENT 22 5 16 14 26 36 85 55 53 66
REMARK Flexibility Score: inf
ROOT
ATOM      1  C   UNL A   1      32.006  29.658  26.199  1.00  0.00     0.118 C 
ENDROOT
BRANCH   1   2
ATOM      2  N   UNL A   1      31.182  30.157  25.113  1.00  0.00    -0.352 N 
ATOM      3  C   UNL A   1      30.558  29.531  24.060  1.00  0.00     0.251 C 
ATOM      4  O   UNL A   1      29.907  30.248  23.298  1.00  0.00    -0.269 OA
ATOM      5  H   UNL A   1      31.045  31.131  25.134  1.00  0.00     0.163 HD
BRANCH   3   6
ATOM      6  C   UNL A   1      30.589  28.057  23.819  1.00  0.00     0.041 A 
ATOM      7  C   UNL A   1      31.706  25.933  23.289  1.00  0.00     0.038 A 
ATOM      8  C   UNL A   1      31.708  27.332  23.404  1.00  0.00     0.039 A 
ATOM      9  C   UNL A   1      30.492  25.252  23.439  1.00  0.00    -0.028 A 
ATOM     10  C   UNL A   1      29.341  25.972  23.796  1.00  0.00     0.006 A 
ATOM     11  C   UNL A   1      30.370  23.766  23.247  1.00  0.00     0.046 C 
ATOM     12  C   UNL A   1      29.394  27.353  24.003  1.00  0.00     0.014 A 
BRANCH   7  13
ATOM     13  N   UNL A   1      32.867  25.261  22.907  1.00  0.00    -0.373 N 
ATOM     14  H   UNL A   1      32.933  24.834  22.023  1.00  0.00     0.161 HD
BRANCH  13  15
ATOM     15  C   UNL A   1      33.989  25.204  23.853  1.00  0.00     0.179 C 
ATOM     16  N   UNL A   1      35.132  23.404  24.815  1.00  0.00    -0.245 N 
ATOM     17  C   UNL A   1      34.272  23.831  25.790  1.00  0.00     0.236 C 
ATOM     18  C   UNL A   1      34.902  24.017  23.615  1.00  0.00     0.256 C 
ATOM     19  O   UNL A   1      34.154  23.396  26.925  1.00  0.00    -0.274 OA
ATOM     20  C   UNL A   1      33.478  24.991  25.268  1.00  0.00     0.136 C 
ATOM     21  O   UNL A   1      35.280  23.642  22.508  1.00  0.00    -0.272 OA
BRANCH  16  22
ATOM     22  C   UNL A   1      36.075  22.372  24.988  1.00  0.00     0.094 A 
ATOM     23  C   UNL A   1      35.722  21.030  24.776  1.00  0.00     0.144 A 
ATOM     24  C   UNL A   1      36.663  20.015  24.967  1.00  0.00     0.069 A 
ATOM     25  C   UNL A   1      37.960  20.335  25.380  1.00  0.00     0.047 A 
ATOM     26  C   UNL A   1      37.384  22.682  25.381  1.00  0.00     0.035 A 
ATOM     27  Cl  UNL A   1      39.089  19.042  25.582  1.00  0.00    -0.084 Cl
ATOM     28  C   UNL A   1      38.328  21.668  25.616  1.00  0.00    -0.030 A 
ATOM     29  C   UNL A   1      39.689  22.039  26.139  1.00  0.00     0.046 C 
BRANCH  23  30
ATOM     30  O   UNL A   1      34.462  20.647  24.383  1.00  0.00    -0.495 OA
ATOM     31  C   UNL A   1      33.778  19.934  25.415  1.00  0.00     0.278 C 
ENDBRANCH  23  30
ENDBRANCH  16  22
ENDBRANCH  13  15
ENDBRANCH   7  13
ENDBRANCH   3   6
ENDBRANCH   1   2
BRANCH   1  32
ATOM     32  C   UNL A   1      32.874  30.769  26.776  1.00  0.00     0.042 C 
BRANCH  32  33
ATOM     33  C   UNL A   1      34.225  30.287  27.239  1.00  0.00     0.118 C 
BRANCH  33  34
ATOM     34  N   UNL A   1      35.116  31.372  27.635  1.00  0.00    -0.352 N 
ATOM     35  C   UNL A   1      36.337  31.346  28.282  1.00  0.00     0.251 C 
ATOM     36  H   UNL A   1      34.794  32.274  27.404  1.00  0.00     0.163 HD
ATOM     37  O   UNL A   1      36.854  32.403  28.633  1.00  0.00    -0.269 OA
BRANCH  35  38
ATOM     38  C   UNL A   1      37.107  30.084  28.379  1.00  0.00     0.039 A 
ATOM     39  C   UNL A   1      37.052  29.383  29.595  1.00  0.00     0.014 A 
ATOM     40  C   UNL A   1      38.112  29.808  27.470  1.00  0.00     0.014 A 
ATOM     41  C   UNL A   1      38.161  28.663  30.012  1.00  0.00     0.010 A 
ATOM     42  C   UNL A   1      39.282  29.314  27.964  1.00  0.00     0.010 A 
ATOM     43  C   UNL A   1      39.311  28.769  29.250  1.00  0.00    -0.014 A 
BRANCH  43  44
ATOM     44  C   UNL A   1      40.611  28.239  29.582  1.00  0.00     0.031 A 
ATOM     45  C   UNL A   1      40.920  26.910  29.022  1.00  0.00     0.074 A 
ATOM     46  C   UNL A   1      41.544  29.121  30.005  1.00  0.00     0.049 A 
ATOM     47  N   UNL A   1      42.037  26.307  29.181  1.00  0.00    -0.248 NA
ATOM     48  C   UNL A   1      39.971  26.136  28.219  1.00  0.00     0.031 C 
ATOM     49  C   UNL A   1      42.994  29.031  29.868  1.00  0.00     0.029 A 
ATOM     50  N   UNL A   1      41.350  30.246  30.826  1.00  0.00    -0.354 N 
ATOM     51  C   UNL A   1      42.077  25.242  28.309  1.00  0.00     0.074 A 
ATOM     52  C   UNL A   1      40.737  25.128  27.796  1.00  0.00     0.031 C 
ATOM     53  C   UNL A   1      43.570  29.814  30.795  1.00  0.00     0.029 A 
ATOM     54  C   UNL A   1      42.501  30.290  31.655  1.00  0.00     0.049 A 
ATOM     55  H   UNL A   1      40.585  30.866  30.826  1.00  0.00     0.167 HD
ATOM     56  C   UNL A   1      43.296  24.684  28.073  1.00  0.00     0.037 A 
ATOM     57  C   UNL A   1      42.404  30.006  32.990  1.00  0.00     0.037 A 
ATOM     58  C   UNL A   1      44.265  25.254  29.005  1.00  0.00     0.049 A 
ATOM     59  C   UNL A   1      43.213  28.792  33.383  1.00  0.00     0.074 A 
ATOM     60  C   UNL A   1      45.202  26.268  28.894  1.00  0.00     0.029 A 
ATOM     61  N   UNL A   1      44.082  25.020  30.361  1.00  0.00    -0.354 N 
ATOM     62  N   UNL A   1      43.481  27.803  32.572  1.00  0.00    -0.248 NA
ATOM     63  C   UNL A   1      43.836  28.627  34.691  1.00  0.00     0.031 C 
ATOM     64  C   UNL A   1      45.539  26.683  30.211  1.00  0.00     0.029 A 
ATOM     65  C   UNL A   1      44.830  25.901  31.110  1.00  0.00     0.049 A 
ATOM     66  H   UNL A   1      43.498  24.322  30.735  1.00  0.00     0.167 HD
ATOM     67  C   UNL A   1      44.323  26.916  33.197  1.00  0.00     0.074 A 
ATOM     68  C   UNL A   1      44.503  27.472  34.525  1.00  0.00     0.031 C 
ATOM     69  C   UNL A   1      44.824  25.814  32.561  1.00  0.00     0.037 A 
BRANCH  56  70
ATOM     70  C   UNL A   1      43.710  23.771  26.942  1.00  0.00     0.064 A 
ATOM     71  C   UNL A   1      43.259  22.429  26.937  1.00  0.00     0.173 A 
ATOM     72  C   UNL A   1      44.588  24.092  25.890  1.00  0.00     0.173 A 
ATOM     73  F   UNL A   1      42.392  21.977  27.854  1.00  0.00    -0.203 F 
ATOM     74  C   UNL A   1      43.688  21.488  25.997  1.00  0.00     0.198 A 
ATOM     75  C   UNL A   1      45.006  23.153  24.941  1.00  0.00     0.198 A 
ATOM     76  F   UNL A   1      45.089  25.316  25.725  1.00  0.00    -0.203 F 
ATOM     77  F   UNL A   1      43.247  20.225  26.074  1.00  0.00    -0.200 F 
ATOM     78  C   UNL A   1      44.566  21.849  25.000  1.00  0.00     0.200 A 
ATOM     79  F   UNL A   1      45.853  23.527  23.970  1.00  0.00    -0.200 F 
ATOM     80  F   UNL A   1      44.983  20.949  24.101  1.00  0.00    -0.200 F 
ENDBRANCH  56  70
BRANCH  57  81
ATOM     81  C   UNL A   1      41.079  30.413  33.542  1.00  0.00     0.064 A 
ATOM     82  C   UNL A   1      40.846  31.800  33.666  1.00  0.00     0.173 A 
ATOM     83  C   UNL A   1      39.958  29.580  33.425  1.00  0.00     0.173 A 
ATOM     84  F   UNL A   1      41.885  32.639  33.809  1.00  0.00    -0.203 F 
ATOM     85  C   UNL A   1      39.578  32.340  33.465  1.00  0.00     0.198 A 
ATOM     86  C   UNL A   1      38.682  30.128  33.265  1.00  0.00     0.198 A 
ATOM     87  F   UNL A   1      40.107  28.252  33.319  1.00  0.00    -0.203 F 
ATOM     88  F   UNL A   1      39.421  33.672  33.407  1.00  0.00    -0.200 F 
ATOM     89  C   UNL A   1      38.504  31.504  33.221  1.00  0.00     0.200 A 
ATOM     90  F   UNL A   1      37.633  29.323  33.041  1.00  0.00    -0.200 F 
ATOM     91  F   UNL A   1      37.309  32.021  32.901  1.00  0.00    -0.200 F 
ENDBRANCH  57  81
BRANCH  69  92
ATOM     92  C   UNL A   1      45.434  24.580  33.201  1.00  0.00     0.064 A 
ATOM     93  C   UNL A   1      46.753  24.505  33.674  1.00  0.00     0.173 A 
ATOM     94  C   UNL A   1      44.624  23.454  33.520  1.00  0.00     0.173 A 
ATOM     95  F   UNL A   1      47.598  25.537  33.566  1.00  0.00    -0.203 F 
ATOM     96  C   UNL A   1      47.240  23.378  34.345  1.00  0.00     0.198 A 
ATOM     97  C   UNL A   1      45.090  22.370  34.259  1.00  0.00     0.198 A 
ATOM     98  F   UNL A   1      43.335  23.377  33.160  1.00  0.00    -0.203 F 
ATOM     99  F   UNL A   1      48.525  23.343  34.725  1.00  0.00    -0.200 F 
ATOM    100  C   UNL A   1      46.408  22.321  34.652  1.00  0.00     0.200 A 
ATOM    101  F   UNL A   1      44.245  21.388  34.606  1.00  0.00    -0.200 F 
ATOM    102  F   UNL A   1      46.866  21.271  35.344  1.00  0.00    -0.200 F 
ENDBRANCH  69  92
ENDBRANCH  43  44
ENDBRANCH  35  38
ENDBRANCH  33  34
ENDBRANCH  32  33
ENDBRANCH   1  32
TORSDOF 14
ENDMDL
MODEL 2
REMARK VINA RESULT:     -14.0      2.133      3.467
REMARK SMILES COc1cc(Cl)c(C)cc1N1C(=O)C[C@H](Nc2cc(C(=O)NCCCNC(=O)c3ccc(-c4c5nc(c(-c6c(F)c(F)c(F)c(F)c6F)c6ccc([nH]6)c(-c6c(F)c(F)c(F)c(F)c6F)c6nc(c(-c7c(F)c(F)c(F)c(F)c7F)c7ccc4[nH]7)C=C6)C=C5)cc3)ccc2C)C1=O
REMARK SMILES IDX 23 1 22 2 20 3 21 4 19 6 17 7 18 8 94 9 93 10 95 11 92 12
REMARK SMILES IDX 16 13 15 15 11 16 12 17 96 18 13 19 14 20 97 21 10 22 3 23
REMARK SMILES IDX 4 24 5 25 9 26 6 27 7 28 8 29 2 30 1 31 24 32 25 33 26 34
REMARK SMILES IDX 27 35 28 37 29 38 30 39 91 40 31 41 90 42 32 43 33 44 34 45
REMARK SMILES IDX 84 46 35 47 89 48 83 49 85 50 36 51 88 52 82 53 81 54 37 56
REMARK SMILES IDX 69 57 49 58 68 59 50 60 53 61 67 62 86 63 51 64 52 65 66 67
REMARK SMILES IDX 87 68 54 69 38 70 39 71 47 72 40 73 41 74 45 75 48 76 42 77
REMARK SMILES IDX 43 78 46 79 44 80 70 81 71 82 79 83 72 84 73 85 77 86 80 87
REMARK SMILES IDX 74 88 75 89 78 90 76 91 55 92 56 93 64 94 57 95 58 96 62 97
REMARK SMILES IDX 65 98 59 99 60 100 63 101 61 102
REMARK H PARENT 22 5 16 14 26 36 85 55 53 66
REMARK Flexibility Score: inf
ROOT
ATOM      1  C   UNL A   1      33.128  30.018  26.183  1.00  0.00     0.118 C 
ENDROOT
BRANCH   1   2
ATOM      2  N   UNL A   1      33.641  29.700  24.862  1.00  0.00    -0.352 N 
ATOM      3  C   UNL A   1      33.154  28.919  23.842  1.00  0.00     0.251 C 
ATOM      4  O   UNL A   1      33.835  28.860  22.817  1.00  0.00    -0.269 OA
ATOM      5  H   UNL A   1      34.505  30.127  24.659  1.00  0.00     0.163 HD
BRANCH   3   6
ATOM      6  C   UNL A   1      31.852  28.187  23.890  1.00  0.00     0.041 A 
ATOM      7  C   UNL A   1      30.358  26.395  24.660  1.00  0.00     0.038 A 
ATOM      8  C   UNL A   1      31.628  26.986  24.566  1.00  0.00     0.039 A 
ATOM      9  C   UNL A   1      29.309  26.942  23.912  1.00  0.00    -0.028 A 
ATOM     10  C   UNL A   1      29.531  28.116  23.175  1.00  0.00     0.006 A 
ATOM     11  C   UNL A   1      27.936  26.328  23.876  1.00  0.00     0.046 C 
ATOM     12  C   UNL A   1      30.781  28.741  23.181  1.00  0.00     0.014 A 
BRANCH   7  13
ATOM     13  N   UNL A   1      30.189  25.214  25.382  1.00  0.00    -0.373 N 
ATOM     14  H   UNL A   1      29.680  25.208  26.225  1.00  0.00     0.161 HD
BRANCH  13  15
ATOM     15  C   UNL A   1      30.788  23.978  24.859  1.00  0.00     0.179 C 
ATOM     16  N   UNL A   1      33.014  23.335  24.541  1.00  0.00    -0.245 N 
ATOM     17  C   UNL A   1      32.578  23.704  23.298  1.00  0.00     0.236 C 
ATOM     18  C   UNL A   1      32.110  23.637  25.520  1.00  0.00     0.256 C 
ATOM     19  O   UNL A   1      33.199  23.668  22.247  1.00  0.00    -0.274 OA
ATOM     20  C   UNL A   1      31.149  24.145  23.393  1.00  0.00     0.136 C 
ATOM     21  O   UNL A   1      32.324  23.717  26.727  1.00  0.00    -0.272 OA
BRANCH  16  22
ATOM     22  C   UNL A   1      34.292  22.805  24.807  1.00  0.00     0.094 A 
ATOM     23  C   UNL A   1      34.547  21.431  24.669  1.00  0.00     0.144 A 
ATOM     24  C   UNL A   1      35.815  20.918  24.952  1.00  0.00     0.069 A 
ATOM     25  C   UNL A   1      36.834  21.772  25.383  1.00  0.00     0.047 A 
ATOM     26  C   UNL A   1      35.327  23.655  25.221  1.00  0.00     0.035 A 
ATOM     27  Cl  UNL A   1      38.388  21.087  25.700  1.00  0.00    -0.084 Cl
ATOM     28  C   UNL A   1      36.595  23.146  25.547  1.00  0.00    -0.030 A 
ATOM     29  C   UNL A   1      37.645  24.078  26.088  1.00  0.00     0.046 C 
BRANCH  23  30
ATOM     30  O   UNL A   1      33.587  20.536  24.262  1.00  0.00    -0.495 OA
ATOM     31  C   UNL A   1      32.959  19.891  25.371  1.00  0.00     0.278 C 
ENDBRANCH  23  30
ENDBRANCH  16  22
ENDBRANCH  13  15
ENDBRANCH   7  13
ENDBRANCH   3   6
ENDBRANCH   1   2
BRANCH   1  32
ATOM     32  C   UNL A   1      34.098  29.561  27.266  1.00  0.00     0.042 C 
BRANCH  32  33
ATOM     33  C   UNL A   1      34.982  30.671  27.775  1.00  0.00     0.118 C 
BRANCH  33  34
ATOM     34  N   UNL A   1      34.258  31.915  28.019  1.00  0.00    -0.352 N 
ATOM     35  C   UNL A   1      34.493  32.931  28.924  1.00  0.00     0.251 C 
ATOM     36  H   UNL A   1      33.471  32.052  27.444  1.00  0.00     0.163 HD
ATOM     37  O   UNL A   1      33.668  33.833  29.044  1.00  0.00    -0.269 OA
BRANCH  35  38
ATOM     38  C   UNL A   1      35.806  33.043  29.603  1.00  0.00     0.039 A 
ATOM     39  C   UNL A   1      36.902  33.456  28.829  1.00  0.00     0.014 A 
ATOM     40  C   UNL A   1      36.017  32.420  30.820  1.00  0.00     0.014 A 
ATOM     41  C   UNL A   1      38.165  32.965  29.126  1.00  0.00     0.010 A 
ATOM     42  C   UNL A   1      37.190  31.744  30.980  1.00  0.00     0.010 A 
ATOM     43  C   UNL A   1      38.254  31.996  30.110  1.00  0.00    -0.014 A 
BRANCH  43  44
ATOM     44  C   UNL A   1      39.431  31.242  30.466  1.00  0.00     0.031 A 
ATOM     45  C   UNL A   1      39.524  29.891  29.882  1.00  0.00     0.074 A 
ATOM     46  C   UNL A   1      40.487  31.939  30.939  1.00  0.00     0.049 A 
ATOM     47  N   UNL A   1      40.513  29.099  30.058  1.00  0.00    -0.248 NA
ATOM     48  C   UNL A   1      38.483  29.310  29.031  1.00  0.00     0.031 C 
ATOM     49  C   UNL A   1      41.904  31.601  30.843  1.00  0.00     0.029 A 
ATOM     50  N   UNL A   1      40.464  33.064  31.783  1.00  0.00    -0.354 N 
ATOM     51  C   UNL A   1      40.398  28.062  29.160  1.00  0.00     0.074 A 
ATOM     52  C   UNL A   1      39.077  28.192  28.605  1.00  0.00     0.031 C 
ATOM     53  C   UNL A   1      42.575  32.254  31.807  1.00  0.00     0.029 A 
ATOM     54  C   UNL A   1      41.577  32.891  32.646  1.00  0.00     0.049 A 
ATOM     55  H   UNL A   1      39.818  33.808  31.776  1.00  0.00     0.167 HD
ATOM     56  C   UNL A   1      41.509  27.305  28.946  1.00  0.00     0.037 A 
ATOM     57  C   UNL A   1      41.387  32.601  33.970  1.00  0.00     0.037 A 
ATOM     58  C   UNL A   1      42.531  27.679  29.921  1.00  0.00     0.049 A 
ATOM     59  C   UNL A   1      41.960  31.256  34.356  1.00  0.00     0.074 A 
ATOM     60  C   UNL A   1      43.632  28.516  29.865  1.00  0.00     0.029 A 
ATOM     61  N   UNL A   1      42.264  27.453  31.265  1.00  0.00    -0.354 N 
ATOM     62  N   UNL A   1      42.080  30.252  33.528  1.00  0.00    -0.248 NA
ATOM     63  C   UNL A   1      42.501  30.960  35.677  1.00  0.00     0.031 C 
ATOM     64  C   UNL A   1      43.991  28.840  31.201  1.00  0.00     0.029 A 
ATOM     65  C   UNL A   1      43.127  28.175  32.058  1.00  0.00     0.049 A 
ATOM     66  H   UNL A   1      41.556  26.859  31.603  1.00  0.00     0.167 HD
ATOM     67  C   UNL A   1      42.734  29.220  34.155  1.00  0.00     0.074 A 
ATOM     68  C   UNL A   1      42.963  29.710  35.501  1.00  0.00     0.031 C 
ATOM     69  C   UNL A   1      43.057  28.061  33.505  1.00  0.00     0.037 A 
BRANCH  56  70
ATOM     70  C   UNL A   1      41.796  26.357  27.805  1.00  0.00     0.064 A 
ATOM     71  C   UNL A   1      41.109  25.120  27.744  1.00  0.00     0.173 A 
ATOM     72  C   UNL A   1      42.761  26.535  26.796  1.00  0.00     0.173 A 
ATOM     73  F   UNL A   1      40.137  24.815  28.615  1.00  0.00    -0.203 F 
ATOM     74  C   UNL A   1      41.398  24.138  26.793  1.00  0.00     0.198 A 
ATOM     75  C   UNL A   1      43.041  25.557  25.836  1.00  0.00     0.198 A 
ATOM     76  F   UNL A   1      43.483  27.650  26.686  1.00  0.00    -0.203 F 
ATOM     77  F   UNL A   1      40.732  22.976  26.817  1.00  0.00    -0.200 F 
ATOM     78  C   UNL A   1      42.368  24.354  25.840  1.00  0.00     0.200 A 
ATOM     79  F   UNL A   1      43.980  25.790  24.908  1.00  0.00    -0.200 F 
ATOM     80  F   UNL A   1      42.651  23.413  24.931  1.00  0.00    -0.200 F 
ENDBRANCH  56  70
BRANCH  57  81
ATOM     81  C   UNL A   1      40.135  33.221  34.493  1.00  0.00     0.064 A 
ATOM     82  C   UNL A   1      39.096  32.336  34.855  1.00  0.00     0.173 A 
ATOM     83  C   UNL A   1      40.152  34.481  35.108  1.00  0.00     0.173 A 
ATOM     84  F   UNL A   1      39.019  31.128  34.275  1.00  0.00    -0.203 F 
ATOM     85  C   UNL A   1      38.253  32.613  35.928  1.00  0.00     0.198 A 
ATOM     86  C   UNL A   1      39.274  34.768  36.157  1.00  0.00     0.198 A 
ATOM     87  F   UNL A   1      41.102  35.374  34.798  1.00  0.00    -0.203 F 
ATOM     88  F   UNL A   1      37.397  31.677  36.364  1.00  0.00    -0.200 F 
ATOM     89  C   UNL A   1      38.372  33.813  36.606  1.00  0.00     0.200 A 
ATOM     90  F   UNL A   1      39.375  35.934  36.812  1.00  0.00    -0.200 F 
ATOM     91  F   UNL A   1      37.652  34.032  37.716  1.00  0.00    -0.200 F 
ENDBRANCH  57  81
BRANCH  69  92
ATOM     92  C   UNL A   1      43.423  26.727  34.131  1.00  0.00     0.064 A 
ATOM     93  C   UNL A   1      42.504  25.866  34.751  1.00  0.00     0.173 A 
ATOM     94  C   UNL A   1      44.728  26.183  33.966  1.00  0.00     0.173 A 
ATOM     95  F   UNL A   1      41.208  26.183  34.862  1.00  0.00    -0.203 F 
ATOM     96  C   UNL A   1      42.871  24.603  35.226  1.00  0.00     0.198 A 
ATOM     97  C   UNL A   1      45.068  24.894  34.367  1.00  0.00     0.198 A 
ATOM     98  F   UNL A   1      45.716  26.868  33.374  1.00  0.00    -0.203 F 
ATOM     99  F   UNL A   1      41.962  23.847  35.859  1.00  0.00    -0.200 F 
ATOM    100  C   UNL A   1      44.144  24.110  35.020  1.00  0.00     0.200 A 
ATOM    101  F   UNL A   1      46.288  24.411  34.093  1.00  0.00    -0.200 F 
ATOM    102  F   UNL A   1      44.473  22.878  35.427  1.00  0.00    -0.200 F 
ENDBRANCH  69  92
ENDBRANCH  43  44
ENDBRANCH  35  38
ENDBRANCH  33  34
ENDBRANCH  32  33
ENDBRANCH   1  32
TORSDOF 14
ENDMDL
MODEL 3
REMARK VINA RESULT:     -13.8      1.342      1.791
REMARK SMILES COc1cc(Cl)c(C)cc1N1C(=O)C[C@H](Nc2cc(C(=O)NCCCNC(=O)c3ccc(-c4c5nc(c(-c6c(F)c(F)c(F)c(F)c6F)c6ccc([nH]6)c(-c6c(F)c(F)c(F)c(F)c6F)c6nc(c(-c7c(F)c(F)c(F)c(F)c7F)c7ccc4[nH]7)C=C6)C=C5)cc3)ccc2C)C1=O
REMARK SMILES IDX 23 1 22 2 20 3 21 4 19 6 17 7 18 8 94 9 93 10 95 11 92 12
REMARK SMILES IDX 16 13 15 15 11 16 12 17 96 18 13 19 14 20 97 21 10 22 3 23
REMARK SMILES IDX 4 24 5 25 9 26 6 27 7 28 8 29 2 30 1 31 24 32 25 33 26 34
REMARK SMILES IDX 27 35 28 37 29 38 30 39 91 40 31 41 90 42 32 43 33 44 34 45
REMARK SMILES IDX 84 46 35 47 89 48 83 49 85 50 36 51 88 52 82 53 81 54 37 56
REMARK SMILES IDX 69 57 49 58 68 59 50 60 53 61 67 62 86 63 51 64 52 65 66 67
REMARK SMILES IDX 87 68 54 69 38 70 39 71 47 72 40 73 41 74 45 75 48 76 42 77
REMARK SMILES IDX 43 78 46 79 44 80 70 81 71 82 79 83 72 84 73 85 77 86 80 87
REMARK SMILES IDX 74 88 75 89 78 90 76 91 55 92 56 93 64 94 57 95 58 96 62 97
REMARK SMILES IDX 65 98 59 99 60 100 63 101 61 102
REMARK H PARENT 22 5 16 14 26 36 85 55 53 66
REMARK Flexibility Score: inf
ROOT
ATOM      1  C   UNL A   1      33.954  28.556  26.775  1.00  0.00     0.118 C 
ENDROOT
BRANCH   1   2
ATOM      2  N   UNL A   1      34.207  28.892  25.385  1.00  0.00    -0.352 N 
ATOM      3  C   UNL A   1      33.480  28.691  24.236  1.00  0.00     0.251 C 
ATOM      4  O   UNL A   1      33.972  29.113  23.188  1.00  0.00    -0.269 OA
ATOM      5  H   UNL A   1      35.064  29.352  25.237  1.00  0.00     0.163 HD
BRANCH   3   6
ATOM      6  C   UNL A   1      32.135  28.041  24.194  1.00  0.00     0.041 A 
ATOM      7  C   UNL A   1      30.485  26.346  24.858  1.00  0.00     0.038 A 
ATOM      8  C   UNL A   1      31.792  26.858  24.851  1.00  0.00     0.039 A 
ATOM      9  C   UNL A   1      29.524  26.954  24.042  1.00  0.00    -0.028 A 
ATOM     10  C   UNL A   1      29.867  28.111  23.323  1.00  0.00     0.006 A 
ATOM     11  C   UNL A   1      28.122  26.427  23.911  1.00  0.00     0.046 C 
ATOM     12  C   UNL A   1      31.150  28.657  23.415  1.00  0.00     0.014 A 
BRANCH   7  13
ATOM     13  N   UNL A   1      30.194  25.179  25.565  1.00  0.00    -0.373 N 
ATOM     14  H   UNL A   1      29.653  25.210  26.386  1.00  0.00     0.161 HD
BRANCH  13  15
ATOM     15  C   UNL A   1      30.715  23.902  25.058  1.00  0.00     0.179 C 
ATOM     16  N   UNL A   1      32.890  23.176  24.598  1.00  0.00    -0.245 N 
ATOM     17  C   UNL A   1      32.366  23.499  23.376  1.00  0.00     0.236 C 
ATOM     18  C   UNL A   1      32.076  23.552  25.628  1.00  0.00     0.256 C 
ATOM     19  O   UNL A   1      32.899  23.394  22.282  1.00  0.00    -0.274 OA
ATOM     20  C   UNL A   1      30.961  23.988  23.561  1.00  0.00     0.136 C 
ATOM     21  O   UNL A   1      32.389  23.682  26.809  1.00  0.00    -0.272 OA
BRANCH  16  22
ATOM     22  C   UNL A   1      34.171  22.620  24.787  1.00  0.00     0.094 A 
ATOM     23  C   UNL A   1      34.381  21.236  24.671  1.00  0.00     0.144 A 
ATOM     24  C   UNL A   1      35.653  20.697  24.878  1.00  0.00     0.069 A 
ATOM     25  C   UNL A   1      36.721  21.536  25.212  1.00  0.00     0.047 A 
ATOM     26  C   UNL A   1      35.253  23.453  25.102  1.00  0.00     0.035 A 
ATOM     27  Cl  UNL A   1      38.276  20.818  25.437  1.00  0.00    -0.084 Cl
ATOM     28  C   UNL A   1      36.528  22.919  25.352  1.00  0.00    -0.030 A 
ATOM     29  C   UNL A   1      37.637  23.837  25.789  1.00  0.00     0.046 C 
BRANCH  23  30
ATOM     30  O   UNL A   1      33.373  20.357  24.359  1.00  0.00    -0.495 OA
ATOM     31  C   UNL A   1      33.063  19.494  25.456  1.00  0.00     0.278 C 
ENDBRANCH  23  30
ENDBRANCH  16  22
ENDBRANCH  13  15
ENDBRANCH   7  13
ENDBRANCH   3   6
ENDBRANCH   1   2
BRANCH   1  32
ATOM     32  C   UNL A   1      33.404  29.759  27.531  1.00  0.00     0.042 C 
BRANCH  32  33
ATOM     33  C   UNL A   1      33.850  31.078  26.952  1.00  0.00     0.118 C 
BRANCH  33  34
ATOM     34  N   UNL A   1      34.430  31.973  27.948  1.00  0.00    -0.352 N 
ATOM     35  C   UNL A   1      35.405  31.751  28.901  1.00  0.00     0.251 C 
ATOM     36  H   UNL A   1      34.066  32.888  27.940  1.00  0.00     0.163 HD
ATOM     37  O   UNL A   1      35.648  32.626  29.729  1.00  0.00    -0.269 OA
BRANCH  35  38
ATOM     38  C   UNL A   1      36.282  30.560  28.813  1.00  0.00     0.039 A 
ATOM     39  C   UNL A   1      36.274  29.667  29.897  1.00  0.00     0.014 A 
ATOM     40  C   UNL A   1      37.320  30.525  27.898  1.00  0.00     0.014 A 
ATOM     41  C   UNL A   1      37.438  28.985  30.221  1.00  0.00     0.010 A 
ATOM     42  C   UNL A   1      38.523  30.058  28.336  1.00  0.00     0.010 A 
ATOM     43  C   UNL A   1      38.583  29.313  29.518  1.00  0.00    -0.014 A 
BRANCH  43  44
ATOM     44  C   UNL A   1      39.921  28.849  29.794  1.00  0.00     0.031 A 
ATOM     45  C   UNL A   1      40.239  27.493  29.307  1.00  0.00     0.074 A 
ATOM     46  C   UNL A   1      40.848  29.787  30.088  1.00  0.00     0.049 A 
ATOM     47  N   UNL A   1      41.385  26.937  29.430  1.00  0.00    -0.248 NA
ATOM     48  C   UNL A   1      39.266  26.635  28.628  1.00  0.00     0.031 C 
ATOM     49  C   UNL A   1      42.288  29.732  29.857  1.00  0.00     0.029 A 
ATOM     50  N   UNL A   1      40.670  30.962  30.840  1.00  0.00    -0.354 N 
ATOM     51  C   UNL A   1      41.404  25.815  28.632  1.00  0.00     0.074 A 
ATOM     52  C   UNL A   1      40.038  25.623  28.223  1.00  0.00     0.031 C 
ATOM     53  C   UNL A   1      42.897  30.598  30.685  1.00  0.00     0.029 A 
ATOM     54  C   UNL A   1      41.872  31.101  31.581  1.00  0.00     0.049 A 
ATOM     55  H   UNL A   1      39.885  31.556  30.851  1.00  0.00     0.167 HD
ATOM     56  C   UNL A   1      42.624  25.279  28.351  1.00  0.00     0.037 A 
ATOM     57  C   UNL A   1      41.876  30.910  32.937  1.00  0.00     0.037 A 
ATOM     58  C   UNL A   1      43.632  25.944  29.171  1.00  0.00     0.049 A 
ATOM     59  C   UNL A   1      42.752  29.753  33.356  1.00  0.00     0.074 A 
ATOM     60  C   UNL A   1      44.522  26.976  28.925  1.00  0.00     0.029 A 
ATOM     61  N   UNL A   1      43.549  25.803  30.550  1.00  0.00    -0.354 N 
ATOM     62  N   UNL A   1      43.000  28.717  32.599  1.00  0.00    -0.248 NA
ATOM     63  C   UNL A   1      43.468  29.702  34.625  1.00  0.00     0.031 C 
ATOM     64  C   UNL A   1      44.933  27.495  30.184  1.00  0.00     0.029 A 
ATOM     65  C   UNL A   1      44.314  26.758  31.181  1.00  0.00     0.049 A 
ATOM     66  H   UNL A   1      43.018  25.115  31.012  1.00  0.00     0.167 HD
ATOM     67  C   UNL A   1      43.914  27.904  33.224  1.00  0.00     0.074 A 
ATOM     68  C   UNL A   1      44.163  28.559  34.494  1.00  0.00     0.031 C 
ATOM     69  C   UNL A   1      44.409  26.775  32.632  1.00  0.00     0.037 A 
BRANCH  56  70
ATOM     70  C   UNL A   1      42.992  24.300  27.261  1.00  0.00     0.064 A 
ATOM     71  C   UNL A   1      42.610  22.943  27.391  1.00  0.00     0.173 A 
ATOM     72  C   UNL A   1      43.768  24.578  26.119  1.00  0.00     0.173 A 
ATOM     73  F   UNL A   1      41.842  22.526  28.407  1.00  0.00    -0.203 F 
ATOM     74  C   UNL A   1      43.010  21.953  26.491  1.00  0.00     0.198 A 
ATOM     75  C   UNL A   1      44.156  23.587  25.210  1.00  0.00     0.198 A 
ATOM     76  F   UNL A   1      44.192  25.806  25.824  1.00  0.00    -0.203 F 
ATOM     77  F   UNL A   1      42.641  20.681  26.697  1.00  0.00    -0.200 F 
ATOM     78  C   UNL A   1      43.788  22.274  25.401  1.00  0.00     0.200 A 
ATOM     79  F   UNL A   1      44.904  23.922  24.148  1.00  0.00    -0.200 F 
ATOM     80  F   UNL A   1      44.177  21.326  24.539  1.00  0.00    -0.200 F 
ENDBRANCH  56  70
BRANCH  57  81
ATOM     81  C   UNL A   1      40.577  31.315  33.551  1.00  0.00     0.064 A 
ATOM     82  C   UNL A   1      40.359  32.701  33.709  1.00  0.00     0.173 A 
ATOM     83  C   UNL A   1      39.447  30.490  33.465  1.00  0.00     0.173 A 
ATOM     84  F   UNL A   1      41.408  33.531  33.823  1.00  0.00    -0.203 F 
ATOM     85  C   UNL A   1      39.087  33.252  33.570  1.00  0.00     0.198 A 
ATOM     86  C   UNL A   1      38.169  31.048  33.368  1.00  0.00     0.198 A 
ATOM     87  F   UNL A   1      39.584  29.164  33.329  1.00  0.00    -0.203 F 
ATOM     88  F   UNL A   1      38.936  34.585  33.543  1.00  0.00    -0.200 F 
ATOM     89  C   UNL A   1      37.998  32.426  33.356  1.00  0.00     0.200 A 
ATOM     90  F   UNL A   1      37.106  30.253  33.173  1.00  0.00    -0.200 F 
ATOM     91  F   UNL A   1      36.794  32.956  33.095  1.00  0.00    -0.200 F 
ENDBRANCH  57  81
BRANCH  69  92
ATOM     92  C   UNL A   1      45.105  25.609  33.312  1.00  0.00     0.064 A 
ATOM     93  C   UNL A   1      46.490  25.388  33.279  1.00  0.00     0.173 A 
ATOM     94  C   UNL A   1      44.387  24.749  34.189  1.00  0.00     0.173 A 
ATOM     95  F   UNL A   1      47.316  26.196  32.603  1.00  0.00    -0.203 F 
ATOM     96  C   UNL A   1      47.097  24.355  34.003  1.00  0.00     0.198 A 
ATOM     97  C   UNL A   1      45.004  23.775  34.969  1.00  0.00     0.198 A 
ATOM     98  F   UNL A   1      43.059  24.843  34.352  1.00  0.00    -0.203 F 
ATOM     99  F   UNL A   1      48.417  24.158  33.889  1.00  0.00    -0.200 F 
ATOM    100  C   UNL A   1      46.359  23.561  34.858  1.00  0.00     0.200 A 
ATOM    101  F   UNL A   1      44.278  23.065  35.845  1.00  0.00    -0.200 F 
ATOM    102  F   UNL A   1      46.954  22.612  35.591  1.00  0.00    -0.200 F 
ENDBRANCH  69  92
ENDBRANCH  43  44
ENDBRANCH  35  38
ENDBRANCH  33  34
ENDBRANCH  32  33
ENDBRANCH   1  32
TORSDOF 14
ENDMDL
