MODEL 1
REMARK VINA RESULT:     -12.0      0.000      0.000
REMARK SMILES O=C(Cc1ccccc1Nc1c(Cl)cccc1Cl)NCCCNC(=O)c1ccc(-c2c3nc(c(-c4c(F)c(F)c(F)c(F)c4F)c4ccc([nH]4)c(-c4c(F)c(F)c(F)c(F)c4F)c4nc(c(-c5c(F)c(F)c(F)c(F)c5F)c5ccc2[nH]5)C=C4)C=C3)cc1
REMARK SMILES IDX 20 1 19 2 1 3 2 4 3 6 4 7 5 8 9 9 6 10 8 11 7 12 10 13 11 15
REMARK SMILES IDX 12 16 17 17 13 18 14 19 16 20 18 21 15 22 21 23 22 24 23 25
REMARK SMILES IDX 24 26 25 28 26 29 27 30 88 31 28 32 87 33 29 34 30 35 31 36
REMARK SMILES IDX 81 37 32 38 86 39 80 40 82 41 33 42 85 43 79 44 78 45 34 47
REMARK SMILES IDX 66 48 46 49 65 50 47 51 50 52 64 53 83 54 48 55 49 56 63 58
REMARK SMILES IDX 84 59 51 60 35 61 36 62 44 63 37 64 38 65 42 66 45 67 39 68
REMARK SMILES IDX 40 69 43 70 41 71 67 72 68 73 76 74 69 75 70 76 74 77 77 78
REMARK SMILES IDX 71 79 72 80 75 81 73 82 52 83 53 84 61 85 54 86 55 87 59 88
REMARK SMILES IDX 62 89 56 90 57 91 60 92 58 93
REMARK H PARENT 19 5 10 14 23 27 82 46 50 57
REMARK Flexibility Score: inf
ROOT
ATOM      1  C   UNL A   1      36.497  20.343  25.088  1.00  0.00     0.117 C 
ENDROOT
BRANCH   1   2
ATOM      2  N   UNL A   1      35.941  21.289  26.034  1.00  0.00    -0.356 N 
ATOM      3  O   UNL A   1      34.814  22.553  24.482  1.00  0.00    -0.275 OA
ATOM      4  C   UNL A   1      35.068  22.288  25.653  1.00  0.00     0.224 C 
ATOM      5  H   UNL A   1      36.195  21.217  26.983  1.00  0.00     0.163 HD
BRANCH   4   6
ATOM      6  C   UNL A   1      34.433  23.035  26.813  1.00  0.00     0.137 C 
BRANCH   6   7
ATOM      7  C   UNL A   1      32.989  23.476  26.620  1.00  0.00    -0.015 A 
ATOM      8  C   UNL A   1      31.912  22.678  27.060  1.00  0.00     0.006 A 
ATOM      9  C   UNL A   1      32.705  24.715  25.993  1.00  0.00     0.042 A 
ATOM     10  C   UNL A   1      30.590  23.104  26.934  1.00  0.00     0.000 A 
ATOM     11  C   UNL A   1      31.361  25.113  25.864  1.00  0.00     0.026 A 
ATOM     12  C   UNL A   1      30.315  24.322  26.337  1.00  0.00     0.002 A 
BRANCH   9  13
ATOM     13  N   UNL A   1      33.760  25.548  25.546  1.00  0.00    -0.353 N 
ATOM     14  H   UNL A   1      34.662  25.265  25.823  1.00  0.00     0.167 HD
BRANCH  13  15
ATOM     15  C   UNL A   1      33.714  26.728  24.758  1.00  0.00     0.076 A 
ATOM     16  C   UNL A   1      33.627  26.608  23.352  1.00  0.00     0.066 A 
ATOM     17  C   UNL A   1      33.664  28.028  25.299  1.00  0.00     0.066 A 
ATOM     18  Cl  UNL A   1      33.725  25.055  22.592  1.00  0.00    -0.082 Cl
ATOM     19  C   UNL A   1      33.455  27.726  22.530  1.00  0.00     0.023 A 
ATOM     20  C   UNL A   1      33.484  29.147  24.473  1.00  0.00     0.023 A 
ATOM     21  Cl  UNL A   1      33.919  28.339  26.984  1.00  0.00    -0.082 Cl
ATOM     22  C   UNL A   1      33.369  28.995  23.093  1.00  0.00     0.003 A 
ENDBRANCH  13  15
ENDBRANCH   9  13
ENDBRANCH   6   7
ENDBRANCH   4   6
ENDBRANCH   1   2
BRANCH   1  23
ATOM     23  C   UNL A   1      37.939  20.657  24.720  1.00  0.00     0.042 C 
BRANCH  23  24
ATOM     24  C   UNL A   1      38.912  20.613  25.892  1.00  0.00     0.118 C 
BRANCH  24  25
ATOM     25  N   UNL A   1      39.837  19.489  25.844  1.00  0.00    -0.352 N 
ATOM     26  C   UNL A   1      41.193  19.463  26.074  1.00  0.00     0.251 C 
ATOM     27  H   UNL A   1      39.433  18.621  25.614  1.00  0.00     0.163 HD
ATOM     28  O   UNL A   1      41.834  18.434  25.880  1.00  0.00    -0.269 OA
BRANCH  26  29
ATOM     29  C   UNL A   1      41.888  20.689  26.517  1.00  0.00     0.039 A 
ATOM     30  C   UNL A   1      42.338  21.597  25.554  1.00  0.00     0.014 A 
ATOM     31  C   UNL A   1      42.068  20.960  27.876  1.00  0.00     0.014 A 
ATOM     32  C   UNL A   1      42.882  22.820  25.955  1.00  0.00     0.010 A 
ATOM     33  C   UNL A   1      42.544  22.205  28.273  1.00  0.00     0.010 A 
ATOM     34  C   UNL A   1      42.942  23.154  27.317  1.00  0.00    -0.014 A 
BRANCH  34  35
ATOM     35  C   UNL A   1      43.392  24.494  27.775  1.00  0.00     0.031 A 
ATOM     36  C   UNL A   1      42.380  25.549  28.119  1.00  0.00     0.074 A 
ATOM     37  C   UNL A   1      44.706  24.791  27.779  1.00  0.00     0.049 A 
ATOM     38  N   UNL A   1      42.564  26.818  28.386  1.00  0.00    -0.248 NA
ATOM     39  C   UNL A   1      40.971  25.128  28.136  1.00  0.00     0.031 C 
ATOM     40  C   UNL A   1      45.785  23.866  27.431  1.00  0.00     0.029 A 
ATOM     41  N   UNL A   1      45.357  25.967  28.065  1.00  0.00    -0.354 N 
ATOM     42  C   UNL A   1      41.295  27.349  28.579  1.00  0.00     0.074 A 
ATOM     43  C   UNL A   1      40.349  26.276  28.358  1.00  0.00     0.031 C 
ATOM     44  C   UNL A   1      46.962  24.505  27.532  1.00  0.00     0.029 A 
ATOM     45  C   UNL A   1      46.719  25.894  27.905  1.00  0.00     0.049 A 
ATOM     46  H   UNL A   1      44.891  26.784  28.355  1.00  0.00     0.167 HD
ATOM     47  C   UNL A   1      40.955  28.613  28.924  1.00  0.00     0.037 A 
ATOM     48  C   UNL A   1      47.664  26.847  28.026  1.00  0.00     0.037 A 
ATOM     49  C   UNL A   1      41.900  29.669  29.172  1.00  0.00     0.049 A 
ATOM     50  C   UNL A   1      47.258  28.246  28.400  1.00  0.00     0.074 A 
ATOM     51  C   UNL A   1      41.654  30.967  29.585  1.00  0.00     0.029 A 
ATOM     52  N   UNL A   1      43.274  29.547  29.030  1.00  0.00    -0.354 N 
ATOM     53  N   UNL A   1      46.060  28.725  28.632  1.00  0.00    -0.248 NA
ATOM     54  C   UNL A   1      48.335  29.239  28.531  1.00  0.00     0.031 C 
ATOM     55  C   UNL A   1      42.876  31.642  29.654  1.00  0.00     0.029 A 
ATOM     56  C   UNL A   1      43.887  30.753  29.330  1.00  0.00     0.049 A 
ATOM     57  H   UNL A   1      43.744  28.727  28.757  1.00  0.00     0.167 HD
ATOM     58  C   UNL A   1      46.240  30.059  28.967  1.00  0.00     0.074 A 
ATOM     59  C   UNL A   1      47.664  30.317  28.913  1.00  0.00     0.031 C 
ATOM     60  C   UNL A   1      45.309  30.988  29.292  1.00  0.00     0.037 A 
BRANCH  47  61
ATOM     61  C   UNL A   1      39.493  28.926  29.054  1.00  0.00     0.064 A 
ATOM     62  C   UNL A   1      38.831  28.845  30.288  1.00  0.00     0.173 A 
ATOM     63  C   UNL A   1      38.754  29.353  27.941  1.00  0.00     0.173 A 
ATOM     64  F   UNL A   1      39.490  28.432  31.382  1.00  0.00    -0.203 F 
ATOM     65  C   UNL A   1      37.478  29.153  30.397  1.00  0.00     0.198 A 
ATOM     66  C   UNL A   1      37.409  29.688  28.059  1.00  0.00     0.198 A 
ATOM     67  F   UNL A   1      39.341  29.454  26.738  1.00  0.00    -0.203 F 
ATOM     68  F   UNL A   1      36.855  29.023  31.577  1.00  0.00    -0.200 F 
ATOM     69  C   UNL A   1      36.770  29.581  29.284  1.00  0.00     0.200 A 
ATOM     70  F   UNL A   1      36.728  30.114  26.985  1.00  0.00    -0.200 F 
ATOM     71  F   UNL A   1      35.469  29.884  29.392  1.00  0.00    -0.200 F 
ENDBRANCH  47  61
BRANCH  48  72
ATOM     72  C   UNL A   1      49.094  26.505  27.803  1.00  0.00     0.064 A 
ATOM     73  C   UNL A   1      49.962  26.312  28.886  1.00  0.00     0.173 A 
ATOM     74  C   UNL A   1      49.620  26.368  26.510  1.00  0.00     0.173 A 
ATOM     75  F   UNL A   1      49.508  26.455  30.140  1.00  0.00    -0.203 F 
ATOM     76  C   UNL A   1      51.307  26.010  28.685  1.00  0.00     0.198 A 
ATOM     77  C   UNL A   1      50.959  26.040  26.311  1.00  0.00     0.198 A 
ATOM     78  F   UNL A   1      48.830  26.540  25.441  1.00  0.00    -0.203 F 
ATOM     79  F   UNL A   1      52.125  25.872  29.737  1.00  0.00    -0.200 F 
ATOM     80  C   UNL A   1      51.804  25.869  27.398  1.00  0.00     0.200 A 
ATOM     81  F   UNL A   1      51.433  25.893  25.066  1.00  0.00    -0.200 F 
ATOM     82  F   UNL A   1      53.097  25.576  27.205  1.00  0.00    -0.200 F 
ENDBRANCH  48  72
BRANCH  60  83
ATOM     83  C   UNL A   1      45.794  32.356  29.666  1.00  0.00     0.064 A 
ATOM     84  C   UNL A   1      45.902  33.383  28.719  1.00  0.00     0.173 A 
ATOM     85  C   UNL A   1      46.092  32.659  31.005  1.00  0.00     0.173 A 
ATOM     86  F   UNL A   1      45.643  33.140  27.426  1.00  0.00    -0.203 F 
ATOM     87  C   UNL A   1      46.304  34.662  29.096  1.00  0.00     0.198 A 
ATOM     88  C   UNL A   1      46.468  33.944  31.381  1.00  0.00     0.198 A 
ATOM     89  F   UNL A   1      45.999  31.710  31.949  1.00  0.00    -0.203 F 
ATOM     90  F   UNL A   1      46.433  35.622  28.169  1.00  0.00    -0.200 F 
ATOM     91  C   UNL A   1      46.577  34.944  30.426  1.00  0.00     0.200 A 
ATOM     92  F   UNL A   1      46.719  34.217  32.669  1.00  0.00    -0.200 F 
ATOM     93  F   UNL A   1      46.951  36.179  30.789  1.00  0.00    -0.200 F 
ENDBRANCH  60  83
ENDBRANCH  34  35
ENDBRANCH  26  29
ENDBRANCH  24  25
ENDBRANCH  23  24
ENDBRANCH   1  23
TORSDOF 13
ENDMDL
MODEL 2
REMARK VINA RESULT:     -12.0      5.720     10.716
REMARK SMILES O=C(Cc1ccccc1Nc1c(Cl)cccc1Cl)NCCCNC(=O)c1ccc(-c2c3nc(c(-c4c(F)c(F)c(F)c(F)c4F)c4ccc([nH]4)c(-c4c(F)c(F)c(F)c(F)c4F)c4nc(c(-c5c(F)c(F)c(F)c(F)c5F)c5ccc2[nH]5)C=C4)C=C3)cc1
REMARK SMILES IDX 20 1 19 2 1 3 2 4 3 6 4 7 5 8 9 9 6 10 8 11 7 12 10 13 11 15
REMARK SMILES IDX 12 16 17 17 13 18 14 19 16 20 18 21 15 22 21 23 22 24 23 25
REMARK SMILES IDX 24 26 25 28 26 29 27 30 88 31 28 32 87 33 29 34 30 35 31 36
REMARK SMILES IDX 81 37 32 38 86 39 80 40 82 41 33 42 85 43 79 44 78 45 34 47
REMARK SMILES IDX 66 48 46 49 65 50 47 51 50 52 64 53 83 54 48 55 49 56 63 58
REMARK SMILES IDX 84 59 51 60 35 61 36 62 44 63 37 64 38 65 42 66 45 67 39 68
REMARK SMILES IDX 40 69 43 70 41 71 67 72 68 73 76 74 69 75 70 76 74 77 77 78
REMARK SMILES IDX 71 79 72 80 75 81 73 82 52 83 53 84 61 85 54 86 55 87 59 88
REMARK SMILES IDX 62 89 56 90 57 91 60 92 58 93
REMARK H PARENT 19 5 10 14 23 27 82 46 50 57
REMARK Flexibility Score: inf
ROOT
ATOM      1  C   UNL A   1      32.150  30.415  26.427  1.00  0.00     0.117 C 
ENDROOT
BRANCH   1   2
ATOM      2  N   UNL A   1      31.676  30.020  25.117  1.00  0.00    -0.356 N 
ATOM      3  O   UNL A   1      33.648  29.066  24.422  1.00  0.00    -0.275 OA
ATOM      4  C   UNL A   1      32.456  29.297  24.237  1.00  0.00     0.224 C 
ATOM      5  H   UNL A   1      30.765  30.275  24.845  1.00  0.00     0.163 HD
BRANCH   4   6
ATOM      6  C   UNL A   1      31.711  28.796  23.012  1.00  0.00     0.137 C 
BRANCH   6   7
ATOM      7  C   UNL A   1      30.347  28.168  23.263  1.00  0.00    -0.015 A 
ATOM      8  C   UNL A   1      29.154  28.851  22.948  1.00  0.00     0.006 A 
ATOM      9  C   UNL A   1      30.259  26.867  23.818  1.00  0.00     0.042 A 
ATOM     10  C   UNL A   1      27.905  28.258  23.126  1.00  0.00     0.000 A 
ATOM     11  C   UNL A   1      28.985  26.298  24.002  1.00  0.00     0.026 A 
ATOM     12  C   UNL A   1      27.820  26.980  23.652  1.00  0.00     0.002 A 
BRANCH   9  13
ATOM     13  N   UNL A   1      31.435  26.145  24.139  1.00  0.00    -0.353 N 
ATOM     14  H   UNL A   1      32.118  26.658  24.629  1.00  0.00     0.167 HD
BRANCH  13  15
ATOM     15  C   UNL A   1      31.776  24.795  23.863  1.00  0.00     0.076 A 
ATOM     16  C   UNL A   1      32.431  24.490  22.648  1.00  0.00     0.066 A 
ATOM     17  C   UNL A   1      31.578  23.737  24.773  1.00  0.00     0.066 A 
ATOM     18  Cl  UNL A   1      32.680  25.715  21.449  1.00  0.00    -0.082 Cl
ATOM     19  C   UNL A   1      32.902  23.203  22.372  1.00  0.00     0.023 A 
ATOM     20  C   UNL A   1      32.059  22.449  24.497  1.00  0.00     0.023 A 
ATOM     21  Cl  UNL A   1      30.652  23.927  26.225  1.00  0.00    -0.082 Cl
ATOM     22  C   UNL A   1      32.729  22.185  23.305  1.00  0.00     0.003 A 
ENDBRANCH  13  15
ENDBRANCH   9  13
ENDBRANCH   6   7
ENDBRANCH   4   6
ENDBRANCH   1   2
BRANCH   1  23
ATOM     23  C   UNL A   1      31.761  31.840  26.789  1.00  0.00     0.042 C 
BRANCH  23  24
ATOM     24  C   UNL A   1      32.911  32.695  27.310  1.00  0.00     0.118 C 
BRANCH  24  25
ATOM     25  N   UNL A   1      32.527  34.065  27.626  1.00  0.00    -0.352 N 
ATOM     26  C   UNL A   1      33.054  34.927  28.558  1.00  0.00     0.251 C 
ATOM     27  H   UNL A   1      31.780  34.425  27.094  1.00  0.00     0.163 HD
ATOM     28  O   UNL A   1      32.527  36.016  28.761  1.00  0.00    -0.269 OA
BRANCH  26  29
ATOM     29  C   UNL A   1      34.236  34.524  29.348  1.00  0.00     0.039 A 
ATOM     30  C   UNL A   1      34.045  33.973  30.619  1.00  0.00     0.014 A 
ATOM     31  C   UNL A   1      35.526  34.657  28.827  1.00  0.00     0.014 A 
ATOM     32  C   UNL A   1      35.138  33.469  31.327  1.00  0.00     0.010 A 
ATOM     33  C   UNL A   1      36.603  34.091  29.502  1.00  0.00     0.010 A 
ATOM     34  C   UNL A   1      36.419  33.479  30.751  1.00  0.00    -0.014 A 
BRANCH  34  35
ATOM     35  C   UNL A   1      37.580  32.835  31.418  1.00  0.00     0.031 A 
ATOM     36  C   UNL A   1      38.263  31.664  30.772  1.00  0.00     0.074 A 
ATOM     37  C   UNL A   1      37.952  33.239  32.648  1.00  0.00     0.049 A 
ATOM     38  N   UNL A   1      39.185  30.871  31.257  1.00  0.00    -0.248 NA
ATOM     39  C   UNL A   1      37.829  31.319  29.410  1.00  0.00     0.031 C 
ATOM     40  C   UNL A   1      37.346  34.341  33.397  1.00  0.00     0.029 A 
ATOM     41  N   UNL A   1      38.916  32.752  33.498  1.00  0.00    -0.354 N 
ATOM     42  C   UNL A   1      39.423  29.923  30.271  1.00  0.00     0.074 A 
ATOM     43  C   UNL A   1      38.521  30.214  29.177  1.00  0.00     0.031 C 
ATOM     44  C   UNL A   1      37.956  34.450  34.589  1.00  0.00     0.029 A 
ATOM     45  C   UNL A   1      38.963  33.401  34.707  1.00  0.00     0.049 A 
ATOM     46  H   UNL A   1      39.515  32.007  33.262  1.00  0.00     0.167 HD
ATOM     47  C   UNL A   1      40.324  28.913  30.274  1.00  0.00     0.037 A 
ATOM     48  C   UNL A   1      39.718  33.163  35.797  1.00  0.00     0.037 A 
ATOM     49  C   UNL A   1      41.241  28.646  31.350  1.00  0.00     0.049 A 
ATOM     50  C   UNL A   1      40.705  32.028  35.777  1.00  0.00     0.074 A 
ATOM     51  C   UNL A   1      42.231  27.681  31.420  1.00  0.00     0.029 A 
ATOM     52  N   UNL A   1      41.279  29.346  32.546  1.00  0.00    -0.354 N 
ATOM     53  N   UNL A   1      40.959  31.171  34.819  1.00  0.00    -0.248 NA
ATOM     54  C   UNL A   1      41.511  31.827  36.990  1.00  0.00     0.031 C 
ATOM     55  C   UNL A   1      42.843  27.773  32.674  1.00  0.00     0.029 A 
ATOM     56  C   UNL A   1      42.265  28.823  33.367  1.00  0.00     0.049 A 
ATOM     57  H   UNL A   1      40.693  30.102  32.777  1.00  0.00     0.167 HD
ATOM     58  C   UNL A   1      41.973  30.352  35.298  1.00  0.00     0.074 A 
ATOM     59  C   UNL A   1      42.292  30.817  36.631  1.00  0.00     0.031 C 
ATOM     60  C   UNL A   1      42.585  29.310  34.685  1.00  0.00     0.037 A 
BRANCH  47  61
ATOM     61  C   UNL A   1      40.364  28.016  29.071  1.00  0.00     0.064 A 
ATOM     62  C   UNL A   1      39.628  26.823  29.019  1.00  0.00     0.173 A 
ATOM     63  C   UNL A   1      41.113  28.373  27.941  1.00  0.00     0.173 A 
ATOM     64  F   UNL A   1      38.903  26.431  30.078  1.00  0.00    -0.203 F 
ATOM     65  C   UNL A   1      39.662  26.008  27.891  1.00  0.00     0.198 A 
ATOM     66  C   UNL A   1      41.123  27.571  26.804  1.00  0.00     0.198 A 
ATOM     67  F   UNL A   1      41.831  29.507  27.935  1.00  0.00    -0.203 F 
ATOM     68  F   UNL A   1      38.988  24.850  27.882  1.00  0.00    -0.200 F 
ATOM     69  C   UNL A   1      40.403  26.386  26.781  1.00  0.00     0.200 A 
ATOM     70  F   UNL A   1      41.829  27.944  25.727  1.00  0.00    -0.200 F 
ATOM     71  F   UNL A   1      40.430  25.604  25.693  1.00  0.00    -0.200 F 
ENDBRANCH  47  61
BRANCH  48  72
ATOM     72  C   UNL A   1      39.581  34.030  36.997  1.00  0.00     0.064 A 
ATOM     73  C   UNL A   1      38.757  33.649  38.065  1.00  0.00     0.173 A 
ATOM     74  C   UNL A   1      40.264  35.250  37.101  1.00  0.00     0.173 A 
ATOM     75  F   UNL A   1      38.066  32.501  38.000  1.00  0.00    -0.203 F 
ATOM     76  C   UNL A   1      38.608  34.465  39.185  1.00  0.00     0.198 A 
ATOM     77  C   UNL A   1      40.135  36.052  38.232  1.00  0.00     0.198 A 
ATOM     78  F   UNL A   1      41.067  35.657  36.107  1.00  0.00    -0.203 F 
ATOM     79  F   UNL A   1      37.780  34.098  40.173  1.00  0.00    -0.200 F 
ATOM     80  C   UNL A   1      39.301  35.663  39.270  1.00  0.00     0.200 A 
ATOM     81  F   UNL A   1      40.815  37.203  38.317  1.00  0.00    -0.200 F 
ATOM     82  F   UNL A   1      39.160  36.446  40.348  1.00  0.00    -0.200 F 
ENDBRANCH  48  72
BRANCH  60  83
ATOM     83  C   UNL A   1      43.698  28.628  35.423  1.00  0.00     0.064 A 
ATOM     84  C   UNL A   1      43.462  27.524  36.254  1.00  0.00     0.173 A 
ATOM     85  C   UNL A   1      45.026  29.048  35.244  1.00  0.00     0.173 A 
ATOM     86  F   UNL A   1      42.210  27.095  36.468  1.00  0.00    -0.203 F 
ATOM     87  C   UNL A   1      44.517  26.872  36.889  1.00  0.00     0.198 A 
ATOM     88  C   UNL A   1      46.078  28.378  35.860  1.00  0.00     0.198 A 
ATOM     89  F   UNL A   1      45.302  30.098  34.455  1.00  0.00    -0.203 F 
ATOM     90  F   UNL A   1      44.267  25.837  37.704  1.00  0.00    -0.200 F 
ATOM     91  C   UNL A   1      45.822  27.292  36.684  1.00  0.00     0.200 A 
ATOM     92  F   UNL A   1      47.340  28.777  35.650  1.00  0.00    -0.200 F 
ATOM     93  F   UNL A   1      46.835  26.654  37.285  1.00  0.00    -0.200 F 
ENDBRANCH  60  83
ENDBRANCH  34  35
ENDBRANCH  26  29
ENDBRANCH  24  25
ENDBRANCH  23  24
ENDBRANCH   1  23
TORSDOF 13
ENDMDL
MODEL 3
REMARK VINA RESULT:     -12.0      5.662     10.720
REMARK SMILES O=C(Cc1ccccc1Nc1c(Cl)cccc1Cl)NCCCNC(=O)c1ccc(-c2c3nc(c(-c4c(F)c(F)c(F)c(F)c4F)c4ccc([nH]4)c(-c4c(F)c(F)c(F)c(F)c4F)c4nc(c(-c5c(F)c(F)c(F)c(F)c5F)c5ccc2[nH]5)C=C4)C=C3)cc1
REMARK SMILES IDX 20 1 19 2 1 3 2 4 3 6 4 7 5 8 9 9 6 10 8 11 7 12 10 13 11 15
REMARK SMILES IDX 12 16 17 17 13 18 14 19 16 20 18 21 15 22 21 23 22 24 23 25
REMARK SMILES IDX 24 26 25 28 26 29 27 30 88 31 28 32 87 33 29 34 30 35 31 36
REMARK SMILES IDX 81 37 32 38 86 39 80 40 82 41 33 42 85 43 79 44 78 45 34 47
REMARK SMILES IDX 66 48 46 49 65 50 47 51 50 52 64 53 83 54 48 55 49 56 63 58
REMARK SMILES IDX 84 59 51 60 35 61 36 62 44 63 37 64 38 65 42 66 45 67 39 68
REMARK SMILES IDX 40 69 43 70 41 71 67 72 68 73 76 74 69 75 70 76 74 77 77 78
REMARK SMILES IDX 71 79 72 80 75 81 73 82 52 83 53 84 61 85 54 86 55 87 59 88
REMARK SMILES IDX 62 89 56 90 57 91 60 92 58 93
REMARK H PARENT 19 5 10 14 23 27 82 46 50 57
REMARK Flexibility Score: inf
ROOT
ATOM      1  C   UNL A   1      32.161  30.507  26.567  1.00  0.00     0.117 C 
ENDROOT
BRANCH   1   2
ATOM      2  N   UNL A   1      31.744  30.067  25.252  1.00  0.00    -0.356 N 
ATOM      3  O   UNL A   1      33.713  29.009  24.716  1.00  0.00    -0.275 OA
ATOM      4  C   UNL A   1      32.543  29.274  24.452  1.00  0.00     0.224 C 
ATOM      5  H   UNL A   1      30.861  30.342  24.916  1.00  0.00     0.163 HD
BRANCH   4   6
ATOM      6  C   UNL A   1      31.848  28.743  23.211  1.00  0.00     0.137 C 
BRANCH   6   7
ATOM      7  C   UNL A   1      30.510  28.052  23.432  1.00  0.00    -0.015 A 
ATOM      8  C   UNL A   1      29.295  28.667  23.062  1.00  0.00     0.006 A 
ATOM      9  C   UNL A   1      30.467  26.761  24.014  1.00  0.00     0.042 A 
ATOM     10  C   UNL A   1      28.072  28.015  23.213  1.00  0.00     0.000 A 
ATOM     11  C   UNL A   1      29.218  26.132  24.170  1.00  0.00     0.026 A 
ATOM     12  C   UNL A   1      28.033  26.747  23.766  1.00  0.00     0.002 A 
BRANCH   9  13
ATOM     13  N   UNL A   1      31.666  26.106  24.391  1.00  0.00    -0.353 N 
ATOM     14  H   UNL A   1      32.254  26.623  24.989  1.00  0.00     0.167 HD
BRANCH  13  15
ATOM     15  C   UNL A   1      32.148  24.819  24.038  1.00  0.00     0.076 A 
ATOM     16  C   UNL A   1      32.085  23.779  24.993  1.00  0.00     0.066 A 
ATOM     17  C   UNL A   1      32.614  24.484  22.751  1.00  0.00     0.066 A 
ATOM     18  Cl  UNL A   1      31.567  24.103  26.615  1.00  0.00    -0.082 Cl
ATOM     19  C   UNL A   1      32.428  22.463  24.670  1.00  0.00     0.023 A 
ATOM     20  C   UNL A   1      32.950  23.162  22.427  1.00  0.00     0.023 A 
ATOM     21  Cl  UNL A   1      32.896  25.680  21.529  1.00  0.00    -0.082 Cl
ATOM     22  C   UNL A   1      32.847  22.152  23.380  1.00  0.00     0.003 A 
ENDBRANCH  13  15
ENDBRANCH   9  13
ENDBRANCH   6   7
ENDBRANCH   4   6
ENDBRANCH   1   2
BRANCH   1  23
ATOM     23  C   UNL A   1      31.769  31.948  26.857  1.00  0.00     0.042 C 
BRANCH  23  24
ATOM     24  C   UNL A   1      32.921  32.835  27.316  1.00  0.00     0.118 C 
BRANCH  24  25
ATOM     25  N   UNL A   1      32.510  34.182  27.691  1.00  0.00    -0.352 N 
ATOM     26  C   UNL A   1      33.028  35.016  28.654  1.00  0.00     0.251 C 
ATOM     27  H   UNL A   1      31.752  34.548  27.180  1.00  0.00     0.163 HD
ATOM     28  O   UNL A   1      32.479  36.085  28.906  1.00  0.00    -0.269 OA
BRANCH  26  29
ATOM     29  C   UNL A   1      34.224  34.606  29.418  1.00  0.00     0.039 A 
ATOM     30  C   UNL A   1      34.058  34.044  30.687  1.00  0.00     0.014 A 
ATOM     31  C   UNL A   1      35.503  34.745  28.874  1.00  0.00     0.014 A 
ATOM     32  C   UNL A   1      35.164  33.534  31.370  1.00  0.00     0.010 A 
ATOM     33  C   UNL A   1      36.594  34.174  29.522  1.00  0.00     0.010 A 
ATOM     34  C   UNL A   1      36.433  33.550  30.770  1.00  0.00    -0.014 A 
BRANCH  34  35
ATOM     35  C   UNL A   1      37.608  32.901  31.408  1.00  0.00     0.031 A 
ATOM     36  C   UNL A   1      38.275  31.732  30.741  1.00  0.00     0.074 A 
ATOM     37  C   UNL A   1      38.006  33.297  32.632  1.00  0.00     0.049 A 
ATOM     38  N   UNL A   1      39.206  30.935  31.203  1.00  0.00    -0.248 NA
ATOM     39  C   UNL A   1      37.811  31.395  29.387  1.00  0.00     0.031 C 
ATOM     40  C   UNL A   1      37.418  34.396  33.400  1.00  0.00     0.029 A 
ATOM     41  N   UNL A   1      38.987  32.804  33.458  1.00  0.00    -0.354 N 
ATOM     42  C   UNL A   1      39.421  29.992  30.206  1.00  0.00     0.074 A 
ATOM     43  C   UNL A   1      38.496  30.290  29.133  1.00  0.00     0.031 C 
ATOM     44  C   UNL A   1      38.054  34.498  34.579  1.00  0.00     0.029 A 
ATOM     45  C   UNL A   1      39.060  33.446  34.670  1.00  0.00     0.049 A 
ATOM     46  H   UNL A   1      39.579  32.059  33.206  1.00  0.00     0.167 HD
ATOM     47  C   UNL A   1      40.321  28.980  30.184  1.00  0.00     0.037 A 
ATOM     48  C   UNL A   1      39.838  33.201  35.742  1.00  0.00     0.037 A 
ATOM     49  C   UNL A   1      41.259  28.706  31.240  1.00  0.00     0.049 A 
ATOM     50  C   UNL A   1      40.822  32.064  35.695  1.00  0.00     0.074 A 
ATOM     51  C   UNL A   1      42.249  27.739  31.283  1.00  0.00     0.029 A 
ATOM     52  N   UNL A   1      41.324  29.399  32.438  1.00  0.00    -0.354 N 
ATOM     53  N   UNL A   1      41.055  31.212  34.728  1.00  0.00    -0.248 NA
ATOM     54  C   UNL A   1      41.654  31.856  36.890  1.00  0.00     0.031 C 
ATOM     55  C   UNL A   1      42.887  27.823  32.525  1.00  0.00     0.029 A 
ATOM     56  C   UNL A   1      42.326  28.871  33.236  1.00  0.00     0.049 A 
ATOM     57  H   UNL A   1      40.744  30.155  32.686  1.00  0.00     0.167 HD
ATOM     58  C   UNL A   1      42.077  30.389  35.180  1.00  0.00     0.074 A 
ATOM     59  C   UNL A   1      42.425  30.846  36.509  1.00  0.00     0.031 C 
ATOM     60  C   UNL A   1      42.674  29.350  34.549  1.00  0.00     0.037 A 
BRANCH  47  61
ATOM     61  C   UNL A   1      40.333  28.090  28.976  1.00  0.00     0.064 A 
ATOM     62  C   UNL A   1      41.084  28.410  27.835  1.00  0.00     0.173 A 
ATOM     63  C   UNL A   1      39.621  26.882  28.974  1.00  0.00     0.173 A 
ATOM     64  F   UNL A   1      41.775  29.559  27.783  1.00  0.00    -0.203 F 
ATOM     65  C   UNL A   1      41.098  27.567  26.727  1.00  0.00     0.198 A 
ATOM     66  C   UNL A   1      39.660  26.028  27.877  1.00  0.00     0.198 A 
ATOM     67  F   UNL A   1      38.891  26.525  30.043  1.00  0.00    -0.203 F 
ATOM     68  F   UNL A   1      41.785  27.917  25.631  1.00  0.00    -0.200 F 
ATOM     69  C   UNL A   1      40.393  26.374  26.751  1.00  0.00     0.200 A 
ATOM     70  F   UNL A   1      38.988  24.868  27.906  1.00  0.00    -0.200 F 
ATOM     71  F   UNL A   1      40.413  25.560  25.686  1.00  0.00    -0.200 F 
ENDBRANCH  47  61
BRANCH  48  72
ATOM     72  C   UNL A   1      39.728  34.061  36.950  1.00  0.00     0.064 A 
ATOM     73  C   UNL A   1      38.916  33.682  38.028  1.00  0.00     0.173 A 
ATOM     74  C   UNL A   1      40.424  35.274  37.051  1.00  0.00     0.173 A 
ATOM     75  F   UNL A   1      38.214  32.541  37.967  1.00  0.00    -0.203 F 
ATOM     76  C   UNL A   1      38.793  34.492  39.155  1.00  0.00     0.198 A 
ATOM     77  C   UNL A   1      40.320  36.070  38.189  1.00  0.00     0.198 A 
ATOM     78  F   UNL A   1      41.216  35.680  36.047  1.00  0.00    -0.203 F 
ATOM     79  F   UNL A   1      37.977  34.126  40.153  1.00  0.00    -0.200 F 
ATOM     80  C   UNL A   1      39.498  35.682  39.237  1.00  0.00     0.200 A 
ATOM     81  F   UNL A   1      41.013  37.214  38.271  1.00  0.00    -0.200 F 
ATOM     82  F   UNL A   1      39.381  36.460  40.323  1.00  0.00    -0.200 F 
ENDBRANCH  48  72
BRANCH  60  83
ATOM     83  C   UNL A   1      43.802  28.662  35.260  1.00  0.00     0.064 A 
ATOM     84  C   UNL A   1      43.576  27.586  36.129  1.00  0.00     0.173 A 
ATOM     85  C   UNL A   1      45.130  29.047  35.016  1.00  0.00     0.173 A 
ATOM     86  F   UNL A   1      42.325  27.191  36.405  1.00  0.00    -0.203 F 
ATOM     87  C   UNL A   1      44.641  26.926  36.738  1.00  0.00     0.198 A 
ATOM     88  C   UNL A   1      46.192  28.369  35.606  1.00  0.00     0.198 A 
ATOM     89  F   UNL A   1      45.396  30.069  34.188  1.00  0.00    -0.203 F 
ATOM     90  F   UNL A   1      44.403  25.919  37.591  1.00  0.00    -0.200 F 
ATOM     91  C   UNL A   1      45.946  27.311  36.469  1.00  0.00     0.200 A 
ATOM     92  F   UNL A   1      47.452  28.734  35.336  1.00  0.00    -0.200 F 
ATOM     93  F   UNL A   1      46.969  26.666  37.046  1.00  0.00    -0.200 F 
ENDBRANCH  60  83
ENDBRANCH  34  35
ENDBRANCH  26  29
ENDBRANCH  24  25
ENDBRANCH  23  24
ENDBRANCH   1  23
TORSDOF 13
ENDMDL
