MODEL 1
REMARK VINA RESULT:     -13.6      0.000      0.000
REMARK SMILES O=C(NCCCNC(=O)[C@H]1CC2(CCN(C(=O)c3cccc(O)c3)CC2)CN1C(=O)C1CC1)c1ccc(-c2c3nc(c(-c4c(F)c(F)c(F)c(F)c4F)c4ccc([nH]4)c(-c4c(F)c(F)c(F)c(F)c4F)c4nc(c(-c5c(F)c(F)c(F)c(F)c5F)c5ccc2[nH]5)C=C4)C=C3)cc1
REMARK SMILES IDX 5 1 4 2 3 3 1 4 2 5 34 7 35 8 96 9 36 10 95 11 37 12 38 13
REMARK SMILES IDX 39 14 89 15 40 16 94 17 88 18 90 19 41 20 93 21 87 22 86 23
REMARK SMILES IDX 42 25 74 26 54 27 73 28 55 29 58 30 72 31 91 32 56 33 57 34
REMARK SMILES IDX 71 36 92 37 59 38 43 39 44 40 52 41 45 42 46 43 50 44 53 45
REMARK SMILES IDX 47 46 48 47 51 48 49 49 75 50 76 51 84 52 77 53 78 54 82 55
REMARK SMILES IDX 85 56 79 57 80 58 83 59 81 60 60 61 61 62 69 63 62 64 63 65
REMARK SMILES IDX 67 66 70 67 64 68 65 69 68 70 66 71 6 72 7 73 8 74 9 76
REMARK SMILES IDX 10 77 11 78 28 79 12 80 27 81 13 82 26 83 14 84 25 85 15 86
REMARK SMILES IDX 16 87 17 88 29 89 30 90 31 91 32 92 33 93 18 94 19 95 24 96
REMARK SMILES IDX 20 97 22 98 21 99 23 100
REMARK H PARENT 3 6 90 24 58 35 7 75 23 101
REMARK Flexibility Score: inf
ROOT
ATOM      1  C   UNL A   1      31.850  32.095  26.505  1.00  0.00     0.042 C 
ENDROOT
BRANCH   1   2
ATOM      2  C   UNL A   1      32.927  32.963  27.143  1.00  0.00     0.118 C 
BRANCH   2   3
ATOM      3  N   UNL A   1      32.470  34.239  27.661  1.00  0.00    -0.352 N 
ATOM      4  O   UNL A   1      32.503  36.077  28.968  1.00  0.00    -0.269 OA
ATOM      5  C   UNL A   1      33.013  35.008  28.667  1.00  0.00     0.251 C 
ATOM      6  H   UNL A   1      31.661  34.605  27.235  1.00  0.00     0.163 HD
BRANCH   5   7
ATOM      7  C   UNL A   1      34.183  34.511  29.431  1.00  0.00     0.039 A 
ATOM      8  C   UNL A   1      35.490  34.656  28.956  1.00  0.00     0.014 A 
ATOM      9  C   UNL A   1      33.951  33.867  30.650  1.00  0.00     0.014 A 
ATOM     10  C   UNL A   1      36.545  34.036  29.629  1.00  0.00     0.010 A 
ATOM     11  C   UNL A   1      35.016  33.294  31.352  1.00  0.00     0.010 A 
ATOM     12  C   UNL A   1      36.316  33.333  30.825  1.00  0.00    -0.014 A 
BRANCH  12  13
ATOM     13  C   UNL A   1      37.436  32.634  31.510  1.00  0.00     0.031 A 
ATOM     14  C   UNL A   1      38.149  31.486  30.843  1.00  0.00     0.074 A 
ATOM     15  C   UNL A   1      37.820  33.032  32.736  1.00  0.00     0.049 A 
ATOM     16  N   UNL A   1      39.145  30.757  31.287  1.00  0.00    -0.248 NA
ATOM     17  C   UNL A   1      37.674  31.096  29.508  1.00  0.00     0.031 C 
ATOM     18  C   UNL A   1      37.207  34.119  33.499  1.00  0.00     0.029 A 
ATOM     19  N   UNL A   1      38.822  32.573  33.555  1.00  0.00    -0.354 N 
ATOM     20  C   UNL A   1      39.402  29.817  30.297  1.00  0.00     0.074 A 
ATOM     21  C   UNL A   1      38.440  30.047  29.241  1.00  0.00     0.031 C 
ATOM     22  C   UNL A   1      37.861  34.261  34.662  1.00  0.00     0.029 A 
ATOM     23  C   UNL A   1      38.914  33.252  34.745  1.00  0.00     0.049 A 
ATOM     24  H   UNL A   1      39.417  31.827  33.313  1.00  0.00     0.167 HD
ATOM     25  C   UNL A   1      40.358  28.856  30.268  1.00  0.00     0.037 A 
ATOM     26  C   UNL A   1      39.746  33.079  35.788  1.00  0.00     0.037 A 
ATOM     27  C   UNL A   1      41.334  28.641  31.306  1.00  0.00     0.049 A 
ATOM     28  C   UNL A   1      40.794  32.001  35.731  1.00  0.00     0.074 A 
ATOM     29  C   UNL A   1      42.372  27.724  31.339  1.00  0.00     0.029 A 
ATOM     30  N   UNL A   1      41.391  29.348  32.498  1.00  0.00    -0.354 N 
ATOM     31  N   UNL A   1      41.059  31.153  34.769  1.00  0.00    -0.248 NA
ATOM     32  C   UNL A   1      41.664  31.864  36.908  1.00  0.00     0.031 C 
ATOM     33  C   UNL A   1      43.029  27.847  32.569  1.00  0.00     0.029 A 
ATOM     34  C   UNL A   1      42.433  28.875  33.281  1.00  0.00     0.049 A 
ATOM     35  H   UNL A   1      40.782  30.079  32.751  1.00  0.00     0.167 HD
ATOM     36  C   UNL A   1      42.141  30.403  35.208  1.00  0.00     0.074 A 
ATOM     37  C   UNL A   1      42.494  30.906  36.519  1.00  0.00     0.031 C 
ATOM     38  C   UNL A   1      42.785  29.390  34.579  1.00  0.00     0.037 A 
BRANCH  25  39
ATOM     39  C   UNL A   1      40.396  27.945  29.073  1.00  0.00     0.064 A 
ATOM     40  C   UNL A   1      41.206  28.218  27.962  1.00  0.00     0.173 A 
ATOM     41  C   UNL A   1      39.650  26.756  29.066  1.00  0.00     0.173 A 
ATOM     42  F   UNL A   1      41.933  29.344  27.916  1.00  0.00    -0.203 F 
ATOM     43  C   UNL A   1      41.248  27.346  26.876  1.00  0.00     0.198 A 
ATOM     44  C   UNL A   1      39.717  25.874  27.991  1.00  0.00     0.198 A 
ATOM     45  F   UNL A   1      38.866  26.443  30.108  1.00  0.00    -0.203 F 
ATOM     46  F   UNL A   1      41.999  27.647  25.807  1.00  0.00    -0.200 F 
ATOM     47  C   UNL A   1      40.510  26.172  26.894  1.00  0.00     0.200 A 
ATOM     48  F   UNL A   1      39.013  24.733  28.017  1.00  0.00    -0.200 F 
ATOM     49  F   UNL A   1      40.561  25.331  25.852  1.00  0.00    -0.200 F 
ENDBRANCH  25  39
BRANCH  26  50
ATOM     50  C   UNL A   1      39.639  33.969  36.973  1.00  0.00     0.064 A 
ATOM     51  C   UNL A   1      38.877  33.593  38.088  1.00  0.00     0.173 A 
ATOM     52  C   UNL A   1      40.292  35.209  37.014  1.00  0.00     0.173 A 
ATOM     53  F   UNL A   1      38.217  32.426  38.084  1.00  0.00    -0.203 F 
ATOM     54  C   UNL A   1      38.759  34.432  39.193  1.00  0.00     0.198 A 
ATOM     55  C   UNL A   1      40.196  36.035  38.131  1.00  0.00     0.198 A 
ATOM     56  F   UNL A   1      41.035  35.612  35.973  1.00  0.00    -0.203 F 
ATOM     57  F   UNL A   1      37.989  34.067  40.227  1.00  0.00    -0.200 F 
ATOM     58  C   UNL A   1      39.424  35.649  39.217  1.00  0.00     0.200 A 
ATOM     59  F   UNL A   1      40.851  37.203  38.157  1.00  0.00    -0.200 F 
ATOM     60  F   UNL A   1      39.314  36.453  40.283  1.00  0.00    -0.200 F 
ENDBRANCH  26  50
BRANCH  38  61
ATOM     61  C   UNL A   1      43.969  28.788  35.281  1.00  0.00     0.064 A 
ATOM     62  C   UNL A   1      43.833  27.709  36.167  1.00  0.00     0.173 A 
ATOM     63  C   UNL A   1      45.259  29.287  35.046  1.00  0.00     0.173 A 
ATOM     64  F   UNL A   1      42.619  27.206  36.437  1.00  0.00    -0.203 F 
ATOM     65  C   UNL A   1      44.942  27.173  36.817  1.00  0.00     0.198 A 
ATOM     66  C   UNL A   1      46.369  28.730  35.675  1.00  0.00     0.198 A 
ATOM     67  F   UNL A   1      45.444  30.313  34.202  1.00  0.00    -0.203 F 
ATOM     68  F   UNL A   1      44.783  26.179  37.701  1.00  0.00    -0.200 F 
ATOM     69  C   UNL A   1      46.209  27.680  36.567  1.00  0.00     0.200 A 
ATOM     70  F   UNL A   1      47.593  29.213  35.424  1.00  0.00    -0.200 F 
ATOM     71  F   UNL A   1      47.274  27.163  37.194  1.00  0.00    -0.200 F 
ENDBRANCH  38  61
ENDBRANCH  12  13
ENDBRANCH   5   7
ENDBRANCH   2   3
ENDBRANCH   1   2
BRANCH   1  72
ATOM     72  C   UNL A   1      32.163  30.612  26.327  1.00  0.00     0.117 C 
BRANCH  72  73
ATOM     73  N   UNL A   1      31.554  29.722  27.303  1.00  0.00    -0.354 N 
ATOM     74  C   UNL A   1      31.533  28.353  27.365  1.00  0.00     0.242 C 
ATOM     75  H   UNL A   1      31.081  30.176  28.037  1.00  0.00     0.163 HD
ATOM     76  O   UNL A   1      31.155  27.827  28.413  1.00  0.00    -0.273 OA
BRANCH  74  77
ATOM     77  C   UNL A   1      32.060  27.520  26.196  1.00  0.00     0.175 C 
ATOM     78  C   UNL A   1      31.997  26.001  26.291  1.00  0.00     0.044 C 
ATOM     79  N   UNL A   1      31.741  27.759  24.796  1.00  0.00    -0.330 N 
ATOM     80  C   UNL A   1      32.682  25.549  24.961  1.00  0.00    -0.006 C 
ATOM     81  C   UNL A   1      32.514  26.789  24.022  1.00  0.00     0.127 C 
ATOM     82  C   UNL A   1      31.992  24.301  24.363  1.00  0.00     0.030 C 
ATOM     83  C   UNL A   1      34.185  25.239  25.166  1.00  0.00     0.030 C 
ATOM     84  C   UNL A   1      32.271  23.033  25.171  1.00  0.00     0.120 C 
ATOM     85  C   UNL A   1      34.433  23.939  25.931  1.00  0.00     0.120 C 
ATOM     86  N   UNL A   1      33.711  22.828  25.325  1.00  0.00    -0.339 N 
ATOM     87  C   UNL A   1      34.390  21.622  25.141  1.00  0.00     0.253 C 
ATOM     88  O   UNL A   1      35.547  21.436  25.512  1.00  0.00    -0.269 OA
BRANCH  79  89
ATOM     89  C   UNL A   1      30.643  28.288  24.131  1.00  0.00     0.226 C 
ATOM     90  O   UNL A   1      30.553  29.514  24.035  1.00  0.00    -0.275 OA
BRANCH  89  91
ATOM     91  C   UNL A   1      29.583  27.526  23.413  1.00  0.00     0.079 C 
ATOM     92  C   UNL A   1      28.805  26.361  23.954  1.00  0.00     0.014 C 
ATOM     93  C   UNL A   1      28.095  27.620  23.545  1.00  0.00     0.014 C 
ENDBRANCH  89  91
ENDBRANCH  79  89
BRANCH  87  94
ATOM     94  C   UNL A   1      33.714  20.497  24.461  1.00  0.00     0.043 A 
ATOM     95  C   UNL A   1      32.751  20.732  23.472  1.00  0.00     0.014 A 
ATOM     96  C   UNL A   1      34.126  19.194  24.750  1.00  0.00     0.060 A 
ATOM     97  C   UNL A   1      32.165  19.653  22.807  1.00  0.00     0.005 A 
ATOM     98  C   UNL A   1      33.537  18.129  24.077  1.00  0.00     0.116 A 
ATOM     99  C   UNL A   1      32.555  18.347  23.113  1.00  0.00     0.046 A 
BRANCH  98 100
ATOM    100  O   UNL A   1      33.957  16.870  24.388  1.00  0.00    -0.508 OA
ATOM    101  H   UNL A   1      34.833  16.730  24.689  1.00  0.00     0.293 HD
ENDBRANCH  98 100
ENDBRANCH  87  94
ENDBRANCH  74  77
ENDBRANCH  72  73
ENDBRANCH   1  72
TORSDOF 14
ENDMDL
MODEL 2
REMARK VINA RESULT:     -13.6      0.519      2.002
REMARK SMILES O=C(NCCCNC(=O)[C@H]1CC2(CCN(C(=O)c3cccc(O)c3)CC2)CN1C(=O)C1CC1)c1ccc(-c2c3nc(c(-c4c(F)c(F)c(F)c(F)c4F)c4ccc([nH]4)c(-c4c(F)c(F)c(F)c(F)c4F)c4nc(c(-c5c(F)c(F)c(F)c(F)c5F)c5ccc2[nH]5)C=C4)C=C3)cc1
REMARK SMILES IDX 5 1 4 2 3 3 1 4 2 5 34 7 35 8 96 9 36 10 95 11 37 12 38 13
REMARK SMILES IDX 39 14 89 15 40 16 94 17 88 18 90 19 41 20 93 21 87 22 86 23
REMARK SMILES IDX 42 25 74 26 54 27 73 28 55 29 58 30 72 31 91 32 56 33 57 34
REMARK SMILES IDX 71 36 92 37 59 38 43 39 44 40 52 41 45 42 46 43 50 44 53 45
REMARK SMILES IDX 47 46 48 47 51 48 49 49 75 50 76 51 84 52 77 53 78 54 82 55
REMARK SMILES IDX 85 56 79 57 80 58 83 59 81 60 60 61 61 62 69 63 62 64 63 65
REMARK SMILES IDX 67 66 70 67 64 68 65 69 68 70 66 71 6 72 7 73 8 74 9 76
REMARK SMILES IDX 10 77 11 78 28 79 12 80 27 81 13 82 26 83 14 84 25 85 15 86
REMARK SMILES IDX 16 87 17 88 29 89 30 90 31 91 32 92 33 93 18 94 19 95 24 96
REMARK SMILES IDX 20 97 22 98 21 99 23 100
REMARK H PARENT 3 6 90 24 58 35 7 75 23 101
REMARK Flexibility Score: inf
ROOT
ATOM      1  C   UNL A   1      31.869  32.147  26.494  1.00  0.00     0.042 C 
ENDROOT
BRANCH   1   2
ATOM      2  C   UNL A   1      32.933  32.973  27.208  1.00  0.00     0.118 C 
BRANCH   2   3
ATOM      3  N   UNL A   1      32.488  34.261  27.706  1.00  0.00    -0.352 N 
ATOM      4  O   UNL A   1      32.539  36.118  28.985  1.00  0.00    -0.269 OA
ATOM      5  C   UNL A   1      33.039  35.039  28.700  1.00  0.00     0.251 C 
ATOM      6  H   UNL A   1      31.682  34.628  27.275  1.00  0.00     0.163 HD
BRANCH   5   7
ATOM      7  C   UNL A   1      34.205  34.543  29.471  1.00  0.00     0.039 A 
ATOM      8  C   UNL A   1      35.516  34.719  29.020  1.00  0.00     0.014 A 
ATOM      9  C   UNL A   1      33.964  33.868  30.671  1.00  0.00     0.014 A 
ATOM     10  C   UNL A   1      36.570  34.100  29.695  1.00  0.00     0.010 A 
ATOM     11  C   UNL A   1      35.026  33.295  31.376  1.00  0.00     0.010 A 
ATOM     12  C   UNL A   1      36.334  33.366  30.871  1.00  0.00    -0.014 A 
BRANCH  12  13
ATOM     13  C   UNL A   1      37.454  32.669  31.557  1.00  0.00     0.031 A 
ATOM     14  C   UNL A   1      38.169  31.521  30.892  1.00  0.00     0.074 A 
ATOM     15  C   UNL A   1      37.837  33.069  32.784  1.00  0.00     0.049 A 
ATOM     16  N   UNL A   1      39.165  30.794  31.338  1.00  0.00    -0.248 NA
ATOM     17  C   UNL A   1      37.696  31.130  29.557  1.00  0.00     0.031 C 
ATOM     18  C   UNL A   1      37.221  34.155  33.546  1.00  0.00     0.029 A 
ATOM     19  N   UNL A   1      38.838  32.611  33.604  1.00  0.00    -0.354 N 
ATOM     20  C   UNL A   1      39.425  29.853  30.349  1.00  0.00     0.074 A 
ATOM     21  C   UNL A   1      38.464  30.082  29.291  1.00  0.00     0.031 C 
ATOM     22  C   UNL A   1      37.874  34.298  34.709  1.00  0.00     0.029 A 
ATOM     23  C   UNL A   1      38.928  33.291  34.794  1.00  0.00     0.049 A 
ATOM     24  H   UNL A   1      39.435  31.865  33.363  1.00  0.00     0.167 HD
ATOM     25  C   UNL A   1      40.382  28.894  30.321  1.00  0.00     0.037 A 
ATOM     26  C   UNL A   1      39.760  33.119  35.838  1.00  0.00     0.037 A 
ATOM     27  C   UNL A   1      41.357  28.681  31.360  1.00  0.00     0.049 A 
ATOM     28  C   UNL A   1      40.809  32.043  35.782  1.00  0.00     0.074 A 
ATOM     29  C   UNL A   1      42.396  27.765  31.394  1.00  0.00     0.029 A 
ATOM     30  N   UNL A   1      41.412  29.389  32.551  1.00  0.00    -0.354 N 
ATOM     31  N   UNL A   1      41.075  31.194  34.821  1.00  0.00    -0.248 NA
ATOM     32  C   UNL A   1      41.678  31.907  36.960  1.00  0.00     0.031 C 
ATOM     33  C   UNL A   1      43.052  27.889  32.625  1.00  0.00     0.029 A 
ATOM     34  C   UNL A   1      42.454  28.917  33.335  1.00  0.00     0.049 A 
ATOM     35  H   UNL A   1      40.802  30.119  32.803  1.00  0.00     0.167 HD
ATOM     36  C   UNL A   1      42.158  30.445  35.262  1.00  0.00     0.074 A 
ATOM     37  C   UNL A   1      42.509  30.950  36.573  1.00  0.00     0.031 C 
ATOM     38  C   UNL A   1      42.804  29.432  34.634  1.00  0.00     0.037 A 
BRANCH  25  39
ATOM     39  C   UNL A   1      40.422  27.983  29.126  1.00  0.00     0.064 A 
ATOM     40  C   UNL A   1      39.646  26.816  29.062  1.00  0.00     0.173 A 
ATOM     41  C   UNL A   1      41.207  28.312  28.010  1.00  0.00     0.173 A 
ATOM     42  F   UNL A   1      38.885  26.453  30.105  1.00  0.00    -0.203 F 
ATOM     43  C   UNL A   1      39.675  25.999  27.934  1.00  0.00     0.198 A 
ATOM     44  C   UNL A   1      41.211  27.507  26.873  1.00  0.00     0.198 A 
ATOM     45  F   UNL A   1      41.960  29.421  28.016  1.00  0.00    -0.203 F 
ATOM     46  F   UNL A   1      38.957  24.867  27.910  1.00  0.00    -0.200 F 
ATOM     47  C   UNL A   1      40.450  26.348  26.839  1.00  0.00     0.200 A 
ATOM     48  F   UNL A   1      41.951  27.854  25.811  1.00  0.00    -0.200 F 
ATOM     49  F   UNL A   1      40.469  25.565  25.751  1.00  0.00    -0.200 F 
ENDBRANCH  25  39
BRANCH  26  50
ATOM     50  C   UNL A   1      39.650  34.010  37.022  1.00  0.00     0.064 A 
ATOM     51  C   UNL A   1      40.334  35.232  37.068  1.00  0.00     0.173 A 
ATOM     52  C   UNL A   1      38.863  33.657  38.128  1.00  0.00     0.173 A 
ATOM     53  F   UNL A   1      41.117  35.599  36.043  1.00  0.00    -0.203 F 
ATOM     54  C   UNL A   1      40.249  36.062  38.183  1.00  0.00     0.198 A 
ATOM     55  C   UNL A   1      38.756  34.501  39.231  1.00  0.00     0.198 A 
ATOM     56  F   UNL A   1      38.188  32.499  38.131  1.00  0.00    -0.203 F 
ATOM     57  F   UNL A   1      40.947  37.205  38.218  1.00  0.00    -0.200 F 
ATOM     58  C   UNL A   1      39.454  35.699  39.260  1.00  0.00     0.200 A 
ATOM     59  F   UNL A   1      37.978  34.154  40.264  1.00  0.00    -0.200 F 
ATOM     60  F   UNL A   1      39.369  36.501  40.331  1.00  0.00    -0.200 F 
ENDBRANCH  26  50
BRANCH  38  61
ATOM     61  C   UNL A   1      43.988  28.832  35.337  1.00  0.00     0.064 A 
ATOM     62  C   UNL A   1      45.292  29.298  35.118  1.00  0.00     0.173 A 
ATOM     63  C   UNL A   1      43.809  27.788  36.257  1.00  0.00     0.173 A 
ATOM     64  F   UNL A   1      45.518  30.284  34.236  1.00  0.00    -0.203 F 
ATOM     65  C   UNL A   1      46.378  28.720  35.771  1.00  0.00     0.198 A 
ATOM     66  C   UNL A   1      44.893  27.232  36.930  1.00  0.00     0.198 A 
ATOM     67  F   UNL A   1      42.581  27.310  36.508  1.00  0.00    -0.203 F 
ATOM     68  F   UNL A   1      47.621  29.145  35.506  1.00  0.00    -0.200 F 
ATOM     69  C   UNL A   1      46.177  27.692  36.680  1.00  0.00     0.200 A 
ATOM     70  F   UNL A   1      44.696  26.245  37.816  1.00  0.00    -0.200 F 
ATOM     71  F   UNL A   1      47.223  27.136  37.307  1.00  0.00    -0.200 F 
ENDBRANCH  38  61
ENDBRANCH  12  13
ENDBRANCH   5   7
ENDBRANCH   2   3
ENDBRANCH   1   2
BRANCH   1  72
ATOM     72  C   UNL A   1      32.142  30.656  26.323  1.00  0.00     0.117 C 
BRANCH  72  73
ATOM     73  N   UNL A   1      31.498  29.785  27.293  1.00  0.00    -0.354 N 
ATOM     74  C   UNL A   1      31.463  28.418  27.375  1.00  0.00     0.242 C 
ATOM     75  H   UNL A   1      31.008  30.254  28.007  1.00  0.00     0.163 HD
ATOM     76  O   UNL A   1      31.051  27.910  28.420  1.00  0.00    -0.273 OA
BRANCH  74  77
ATOM     77  C   UNL A   1      32.016  27.563  26.234  1.00  0.00     0.175 C 
ATOM     78  C   UNL A   1      31.912  26.047  26.336  1.00  0.00     0.044 C 
ATOM     79  N   UNL A   1      31.760  27.799  24.820  1.00  0.00    -0.330 N 
ATOM     80  C   UNL A   1      32.639  25.568  25.039  1.00  0.00    -0.006 C 
ATOM     81  C   UNL A   1      32.539  26.804  24.086  1.00  0.00     0.127 C 
ATOM     82  C   UNL A   1      31.944  24.333  24.421  1.00  0.00     0.030 C 
ATOM     83  C   UNL A   1      34.125  25.224  25.306  1.00  0.00     0.030 C 
ATOM     84  C   UNL A   1      32.159  23.065  25.248  1.00  0.00     0.120 C 
ATOM     85  C   UNL A   1      34.310  23.924  26.090  1.00  0.00     0.120 C 
ATOM     86  N   UNL A   1      33.585  22.826  25.463  1.00  0.00    -0.339 N 
ATOM     87  C   UNL A   1      34.241  21.603  25.314  1.00  0.00     0.253 C 
ATOM     88  O   UNL A   1      35.378  21.392  25.733  1.00  0.00    -0.269 OA
BRANCH  79  89
ATOM     89  C   UNL A   1      30.703  28.349  24.108  1.00  0.00     0.226 C 
ATOM     90  O   UNL A   1      30.655  29.575  23.987  1.00  0.00    -0.275 OA
BRANCH  89  91
ATOM     91  C   UNL A   1      29.644  27.607  23.368  1.00  0.00     0.079 C 
ATOM     92  C   UNL A   1      28.830  26.461  23.893  1.00  0.00     0.014 C 
ATOM     93  C   UNL A   1      28.156  27.733  23.464  1.00  0.00     0.014 C 
ENDBRANCH  89  91
ENDBRANCH  79  89
BRANCH  87  94
ATOM     94  C   UNL A   1      33.566  20.489  24.615  1.00  0.00     0.043 A 
ATOM     95  C   UNL A   1      33.385  19.252  25.246  1.00  0.00     0.014 A 
ATOM     96  C   UNL A   1      33.022  20.723  23.349  1.00  0.00     0.060 A 
ATOM     97  C   UNL A   1      32.699  18.232  24.583  1.00  0.00     0.005 A 
ATOM     98  C   UNL A   1      32.338  19.700  22.704  1.00  0.00     0.116 A 
ATOM     99  C   UNL A   1      32.177  18.454  23.307  1.00  0.00     0.046 A 
BRANCH  98 100
ATOM    100  O   UNL A   1      31.825  19.959  21.467  1.00  0.00    -0.508 OA
ATOM    101  H   UNL A   1      31.982  20.788  21.060  1.00  0.00     0.293 HD
ENDBRANCH  98 100
ENDBRANCH  87  94
ENDBRANCH  74  77
ENDBRANCH  72  73
ENDBRANCH   1  72
TORSDOF 14
ENDMDL
MODEL 3
REMARK VINA RESULT:     -13.5      0.564      7.126
REMARK SMILES O=C(NCCCNC(=O)[C@H]1CC2(CCN(C(=O)c3cccc(O)c3)CC2)CN1C(=O)C1CC1)c1ccc(-c2c3nc(c(-c4c(F)c(F)c(F)c(F)c4F)c4ccc([nH]4)c(-c4c(F)c(F)c(F)c(F)c4F)c4nc(c(-c5c(F)c(F)c(F)c(F)c5F)c5ccc2[nH]5)C=C4)C=C3)cc1
REMARK SMILES IDX 5 1 4 2 3 3 1 4 2 5 34 7 35 8 96 9 36 10 95 11 37 12 38 13
REMARK SMILES IDX 39 14 89 15 40 16 94 17 88 18 90 19 41 20 93 21 87 22 86 23
REMARK SMILES IDX 42 25 74 26 54 27 73 28 55 29 58 30 72 31 91 32 56 33 57 34
REMARK SMILES IDX 71 36 92 37 59 38 43 39 44 40 52 41 45 42 46 43 50 44 53 45
REMARK SMILES IDX 47 46 48 47 51 48 49 49 75 50 76 51 84 52 77 53 78 54 82 55
REMARK SMILES IDX 85 56 79 57 80 58 83 59 81 60 60 61 61 62 69 63 62 64 63 65
REMARK SMILES IDX 67 66 70 67 64 68 65 69 68 70 66 71 6 72 7 73 8 74 9 76
REMARK SMILES IDX 10 77 11 78 28 79 12 80 27 81 13 82 26 83 14 84 25 85 15 86
REMARK SMILES IDX 16 87 17 88 29 89 30 90 31 91 32 92 33 93 18 94 19 95 24 96
REMARK SMILES IDX 20 97 22 98 21 99 23 100
REMARK H PARENT 3 6 90 24 58 35 7 75 23 101
REMARK Flexibility Score: inf
ROOT
ATOM      1  C   UNL A   1      31.770  32.101  26.499  1.00  0.00     0.042 C 
ENDROOT
BRANCH   1   2
ATOM      2  C   UNL A   1      32.879  32.916  27.152  1.00  0.00     0.118 C 
BRANCH   2   3
ATOM      3  N   UNL A   1      32.465  34.184  27.720  1.00  0.00    -0.352 N 
ATOM      4  O   UNL A   1      32.587  35.991  29.066  1.00  0.00    -0.269 OA
ATOM      5  C   UNL A   1      33.068  34.922  28.716  1.00  0.00     0.251 C 
ATOM      6  H   UNL A   1      31.641  34.570  27.344  1.00  0.00     0.163 HD
BRANCH   5   7
ATOM      7  C   UNL A   1      34.268  34.394  29.409  1.00  0.00     0.039 A 
ATOM      8  C   UNL A   1      35.562  34.678  28.963  1.00  0.00     0.014 A 
ATOM      9  C   UNL A   1      34.078  33.576  30.527  1.00  0.00     0.014 A 
ATOM     10  C   UNL A   1      36.653  34.033  29.548  1.00  0.00     0.010 A 
ATOM     11  C   UNL A   1      35.177  32.975  31.147  1.00  0.00     0.010 A 
ATOM     12  C   UNL A   1      36.470  33.161  30.636  1.00  0.00    -0.014 A 
BRANCH  12  13
ATOM     13  C   UNL A   1      37.632  32.440  31.222  1.00  0.00     0.031 A 
ATOM     14  C   UNL A   1      38.129  32.777  32.604  1.00  0.00     0.074 A 
ATOM     15  C   UNL A   1      38.243  31.473  30.513  1.00  0.00     0.049 A 
ATOM     16  N   UNL A   1      39.127  32.256  33.277  1.00  0.00    -0.248 NA
ATOM     17  C   UNL A   1      37.422  33.848  33.320  1.00  0.00     0.031 C 
ATOM     18  C   UNL A   1      37.872  31.058  29.161  1.00  0.00     0.029 A 
ATOM     19  N   UNL A   1      39.302  30.660  30.834  1.00  0.00    -0.354 N 
ATOM     20  C   UNL A   1      39.177  32.945  34.482  1.00  0.00     0.074 A 
ATOM     21  C   UNL A   1      38.129  33.941  34.439  1.00  0.00     0.031 C 
ATOM     22  C   UNL A   1      38.672  30.051  28.777  1.00  0.00     0.029 A 
ATOM     23  C   UNL A   1      39.636  29.774  29.839  1.00  0.00     0.049 A 
ATOM     24  H   UNL A   1      39.778  30.708  31.695  1.00  0.00     0.167 HD
ATOM     25  C   UNL A   1      40.014  32.758  35.532  1.00  0.00     0.037 A 
ATOM     26  C   UNL A   1      40.612  28.849  29.784  1.00  0.00     0.037 A 
ATOM     27  C   UNL A   1      41.042  31.750  35.589  1.00  0.00     0.049 A 
ATOM     28  C   UNL A   1      41.530  28.667  30.961  1.00  0.00     0.074 A 
ATOM     29  C   UNL A   1      41.904  31.454  36.633  1.00  0.00     0.029 A 
ATOM     30  N   UNL A   1      41.350  30.875  34.559  1.00  0.00    -0.354 N 
ATOM     31  N   UNL A   1      41.534  29.291  32.113  1.00  0.00    -0.248 NA
ATOM     32  C   UNL A   1      42.577  27.644  30.829  1.00  0.00     0.031 C 
ATOM     33  C   UNL A   1      42.763  30.430  36.217  1.00  0.00     0.029 A 
ATOM     34  C   UNL A   1      42.403  30.053  34.934  1.00  0.00     0.049 A 
ATOM     35  H   UNL A   1      40.891  30.841  33.689  1.00  0.00     0.167 HD
ATOM     36  C   UNL A   1      42.559  28.718  32.854  1.00  0.00     0.074 A 
ATOM     37  C   UNL A   1      43.147  27.686  32.025  1.00  0.00     0.031 C 
ATOM     38  C   UNL A   1      42.974  29.020  34.108  1.00  0.00     0.037 A 
BRANCH  25  39
ATOM     39  C   UNL A   1      39.865  33.674  36.715  1.00  0.00     0.064 A 
ATOM     40  C   UNL A   1      40.587  34.872  36.816  1.00  0.00     0.173 A 
ATOM     41  C   UNL A   1      38.948  33.372  37.733  1.00  0.00     0.173 A 
ATOM     42  F   UNL A   1      41.481  35.203  35.873  1.00  0.00    -0.203 F 
ATOM     43  C   UNL A   1      40.414  35.721  37.906  1.00  0.00     0.198 A 
ATOM     44  C   UNL A   1      38.757  34.238  38.807  1.00  0.00     0.198 A 
ATOM     45  F   UNL A   1      38.225  32.243  37.681  1.00  0.00    -0.203 F 
ATOM     46  F   UNL A   1      41.144  36.842  38.003  1.00  0.00    -0.200 F 
ATOM     47  C   UNL A   1      39.495  35.408  38.896  1.00  0.00     0.200 A 
ATOM     48  F   UNL A   1      37.858  33.939  39.756  1.00  0.00    -0.200 F 
ATOM     49  F   UNL A   1      39.323  36.232  39.939  1.00  0.00    -0.200 F 
ENDBRANCH  25  39
BRANCH  26  50
ATOM     50  C   UNL A   1      40.756  28.002  28.573  1.00  0.00     0.064 A 
ATOM     51  C   UNL A   1      41.540  28.422  27.489  1.00  0.00     0.173 A 
ATOM     52  C   UNL A   1      40.115  26.759  28.473  1.00  0.00     0.173 A 
ATOM     53  F   UNL A   1      42.153  29.614  27.531  1.00  0.00    -0.203 F 
ATOM     54  C   UNL A   1      41.663  27.639  26.345  1.00  0.00     0.198 A 
ATOM     55  C   UNL A   1      40.262  25.963  27.339  1.00  0.00     0.198 A 
ATOM     56  F   UNL A   1      39.356  26.311  29.484  1.00  0.00    -0.203 F 
ATOM     57  F   UNL A   1      42.384  28.085  25.306  1.00  0.00    -0.200 F 
ATOM     58  C   UNL A   1      41.031  26.407  26.273  1.00  0.00     0.200 A 
ATOM     59  F   UNL A   1      39.661  24.768  27.279  1.00  0.00    -0.200 F 
ATOM     60  F   UNL A   1      41.154  25.652  25.173  1.00  0.00    -0.200 F 
ENDBRANCH  26  50
BRANCH  38  61
ATOM     61  C   UNL A   1      44.088  28.192  34.681  1.00  0.00     0.064 A 
ATOM     62  C   UNL A   1      45.429  28.590  34.586  1.00  0.00     0.173 A 
ATOM     63  C   UNL A   1      43.805  26.993  35.353  1.00  0.00     0.173 A 
ATOM     64  F   UNL A   1      45.754  29.720  33.939  1.00  0.00    -0.203 F 
ATOM     65  C   UNL A   1      46.449  27.802  35.113  1.00  0.00     0.198 A 
ATOM     66  C   UNL A   1      44.824  26.222  35.905  1.00  0.00     0.198 A 
ATOM     67  F   UNL A   1      42.538  26.571  35.479  1.00  0.00    -0.203 F 
ATOM     68  F   UNL A   1      47.728  28.174  34.962  1.00  0.00    -0.200 F 
ATOM     69  C   UNL A   1      46.146  26.622  35.777  1.00  0.00     0.200 A 
ATOM     70  F   UNL A   1      44.528  25.088  36.555  1.00  0.00    -0.200 F 
ATOM     71  F   UNL A   1      47.129  25.865  36.283  1.00  0.00    -0.200 F 
ENDBRANCH  38  61
ENDBRANCH  12  13
ENDBRANCH   5   7
ENDBRANCH   2   3
ENDBRANCH   1   2
BRANCH   1  72
ATOM     72  C   UNL A   1      32.034  30.615  26.274  1.00  0.00     0.117 C 
BRANCH  72  73
ATOM     73  N   UNL A   1      31.465  29.719  27.269  1.00  0.00    -0.354 N 
ATOM     74  C   UNL A   1      31.482  28.352  27.347  1.00  0.00     0.242 C 
ATOM     75  H   UNL A   1      30.990  30.170  28.005  1.00  0.00     0.163 HD
ATOM     76  O   UNL A   1      31.134  27.827  28.406  1.00  0.00    -0.273 OA
BRANCH  74  77
ATOM     77  C   UNL A   1      32.013  27.520  26.179  1.00  0.00     0.175 C 
ATOM     78  C   UNL A   1      31.963  26.001  26.278  1.00  0.00     0.044 C 
ATOM     79  N   UNL A   1      31.690  27.753  24.779  1.00  0.00    -0.330 N 
ATOM     80  C   UNL A   1      32.649  25.551  24.948  1.00  0.00    -0.006 C 
ATOM     81  C   UNL A   1      32.470  26.787  24.006  1.00  0.00     0.127 C 
ATOM     82  C   UNL A   1      31.969  24.296  24.354  1.00  0.00     0.030 C 
ATOM     83  C   UNL A   1      34.155  25.254  25.151  1.00  0.00     0.030 C 
ATOM     84  C   UNL A   1      32.259  23.032  25.165  1.00  0.00     0.120 C 
ATOM     85  C   UNL A   1      34.415  23.957  25.920  1.00  0.00     0.120 C 
ATOM     86  N   UNL A   1      33.700  22.839  25.318  1.00  0.00    -0.339 N 
ATOM     87  C   UNL A   1      34.388  21.638  25.135  1.00  0.00     0.253 C 
ATOM     88  O   UNL A   1      35.548  21.462  25.505  1.00  0.00    -0.269 OA
BRANCH  79  89
ATOM     89  C   UNL A   1      30.587  28.271  24.114  1.00  0.00     0.226 C 
ATOM     90  O   UNL A   1      30.499  29.496  23.996  1.00  0.00    -0.275 OA
BRANCH  89  91
ATOM     91  C   UNL A   1      29.519  27.498  23.421  1.00  0.00     0.079 C 
ATOM     92  C   UNL A   1      28.772  26.320  23.976  1.00  0.00     0.014 C 
ATOM     93  C   UNL A   1      28.034  27.571  23.592  1.00  0.00     0.014 C 
ENDBRANCH  89  91
ENDBRANCH  79  89
BRANCH  87  94
ATOM     94  C   UNL A   1      33.721  20.506  24.459  1.00  0.00     0.043 A 
ATOM     95  C   UNL A   1      32.765  20.731  23.462  1.00  0.00     0.014 A 
ATOM     96  C   UNL A   1      34.135  19.206  24.761  1.00  0.00     0.060 A 
ATOM     97  C   UNL A   1      32.186  19.645  22.801  1.00  0.00     0.005 A 
ATOM     98  C   UNL A   1      33.554  18.135  24.092  1.00  0.00     0.116 A 
ATOM     99  C   UNL A   1      32.577  18.343  23.119  1.00  0.00     0.046 A 
BRANCH  98 100
ATOM    100  O   UNL A   1      33.975  16.879  24.416  1.00  0.00    -0.508 OA
ATOM    101  H   UNL A   1      34.316  16.706  25.270  1.00  0.00     0.293 HD
ENDBRANCH  98 100
ENDBRANCH  87  94
ENDBRANCH  74  77
ENDBRANCH  72  73
ENDBRANCH   1  72
TORSDOF 14
ENDMDL
