MODEL 1
REMARK VINA RESULT:     -11.5      0.000      0.000
REMARK SMILES CCOc1cc(OCC)cc(-c2ccc([C@@H](C)C(=O)NCCCNC(=O)c3ccc(-c4c5nc(c(-c6c(F)c(F)c(F)c(F)c6F)c6ccc([nH]6)c(-c6c(F)c(F)c(F)c(F)c6F)c6nc(c(-c7c(F)c(F)c(F)c(F)c7F)c7ccc4[nH]7)C=C6)C=C5)cc3)cc2)c1
REMARK SMILES IDX 21 1 20 2 18 3 19 4 16 6 17 7 15 8 12 9 13 10 91 11 14 12
REMARK SMILES IDX 90 13 11 14 4 15 5 16 92 17 6 18 10 19 3 20 2 21 1 22 7 23
REMARK SMILES IDX 8 24 9 25 22 26 23 27 24 28 25 29 26 31 27 32 28 33 89 34
REMARK SMILES IDX 29 35 88 36 30 37 31 38 32 39 82 40 33 41 87 42 81 43 83 44
REMARK SMILES IDX 34 45 86 46 80 47 79 48 35 50 67 51 47 52 66 53 48 54 51 55
REMARK SMILES IDX 65 56 84 57 49 58 50 59 64 61 85 62 52 63 36 64 37 65 45 66
REMARK SMILES IDX 38 67 39 68 43 69 46 70 40 71 41 72 44 73 42 74 68 75 69 76
REMARK SMILES IDX 77 77 70 78 71 79 75 80 78 81 72 82 73 83 76 84 74 85 53 86
REMARK SMILES IDX 54 87 62 88 55 89 56 90 60 91 63 92 57 93 58 94 61 95 59 96
REMARK H PARENT 20 5 24 30 83 49 51 60
REMARK Flexibility Score: inf
ROOT
ATOM      1  C   UNL A   1      31.141  28.676  25.274  1.00  0.00     0.117 C 
ENDROOT
BRANCH   1   2
ATOM      2  N   UNL A   1      30.767  28.935  23.898  1.00  0.00    -0.356 N 
ATOM      3  C   UNL A   1      30.178  28.160  22.946  1.00  0.00     0.227 C 
ATOM      4  O   UNL A   1      30.040  28.682  21.832  1.00  0.00    -0.274 OA
ATOM      5  H   UNL A   1      30.977  29.847  23.593  1.00  0.00     0.163 HD
BRANCH   3   6
ATOM      6  C   UNL A   1      29.701  26.717  23.175  1.00  0.00     0.105 C 
ATOM      7  C   UNL A   1      28.417  26.588  23.995  1.00  0.00     0.023 C 
BRANCH   6   8
ATOM      8  C   UNL A   1      30.826  25.776  23.567  1.00  0.00    -0.036 A 
ATOM      9  C   UNL A   1      32.808  23.837  24.240  1.00  0.00    -0.018 A 
ATOM     10  C   UNL A   1      32.931  24.662  23.110  1.00  0.00     0.009 A 
ATOM     11  C   UNL A   1      31.682  24.035  25.051  1.00  0.00     0.009 A 
ATOM     12  C   UNL A   1      31.983  25.638  22.801  1.00  0.00     0.005 A 
ATOM     13  C   UNL A   1      30.696  24.972  24.709  1.00  0.00     0.005 A 
BRANCH   9  14
ATOM     14  C   UNL A   1      33.820  22.794  24.519  1.00  0.00    -0.011 A 
ATOM     15  C   UNL A   1      35.992  22.101  25.371  1.00  0.00     0.123 A 
ATOM     16  C   UNL A   1      35.649  20.759  25.210  1.00  0.00     0.092 A 
ATOM     17  C   UNL A   1      35.093  23.107  25.016  1.00  0.00     0.055 A 
ATOM     18  C   UNL A   1      34.402  20.416  24.689  1.00  0.00     0.123 A 
ATOM     19  C   UNL A   1      33.515  21.433  24.331  1.00  0.00     0.055 A 
BRANCH  15  20
ATOM     20  O   UNL A   1      37.267  22.400  25.766  1.00  0.00    -0.494 OA
BRANCH  20  21
ATOM     21  C   UNL A   1      37.455  23.774  26.128  1.00  0.00     0.226 C 
ATOM     22  C   UNL A   1      38.901  24.072  26.495  1.00  0.00     0.049 C 
ENDBRANCH  20  21
ENDBRANCH  15  20
BRANCH  18  23
ATOM     23  O   UNL A   1      34.139  19.076  24.599  1.00  0.00    -0.494 OA
BRANCH  23  24
ATOM     24  C   UNL A   1      32.798  18.669  24.308  1.00  0.00     0.226 C 
ATOM     25  C   UNL A   1      32.693  17.999  22.945  1.00  0.00     0.049 C 
ENDBRANCH  23  24
ENDBRANCH  18  23
ENDBRANCH   9  14
ENDBRANCH   6   8
ENDBRANCH   3   6
ENDBRANCH   1   2
BRANCH   1  26
ATOM     26  C   UNL A   1      32.568  28.145  25.405  1.00  0.00     0.042 C 
BRANCH  26  27
ATOM     27  C   UNL A   1      33.645  29.225  25.379  1.00  0.00     0.118 C 
BRANCH  27  28
ATOM     28  N   UNL A   1      33.181  30.485  25.942  1.00  0.00    -0.352 N 
ATOM     29  C   UNL A   1      33.603  31.199  27.035  1.00  0.00     0.251 C 
ATOM     30  H   UNL A   1      32.432  30.896  25.452  1.00  0.00     0.163 HD
ATOM     31  O   UNL A   1      32.915  32.139  27.425  1.00  0.00    -0.269 OA
BRANCH  29  32
ATOM     32  C   UNL A   1      34.855  30.869  27.757  1.00  0.00     0.039 A 
ATOM     33  C   UNL A   1      34.941  29.625  28.396  1.00  0.00     0.014 A 
ATOM     34  C   UNL A   1      35.906  31.780  27.889  1.00  0.00     0.014 A 
ATOM     35  C   UNL A   1      36.085  29.284  29.122  1.00  0.00     0.010 A 
ATOM     36  C   UNL A   1      37.079  31.410  28.548  1.00  0.00     0.010 A 
ATOM     37  C   UNL A   1      37.177  30.164  29.184  1.00  0.00    -0.014 A 
BRANCH  37  38
ATOM     38  C   UNL A   1      38.413  29.794  29.921  1.00  0.00     0.031 A 
ATOM     39  C   UNL A   1      38.691  30.364  31.285  1.00  0.00     0.074 A 
ATOM     40  C   UNL A   1      39.310  28.973  29.342  1.00  0.00     0.049 A 
ATOM     41  N   UNL A   1      39.728  30.181  32.065  1.00  0.00    -0.248 NA
ATOM     42  C   UNL A   1      37.684  31.283  31.836  1.00  0.00     0.031 C 
ATOM     43  C   UNL A   1      39.185  28.397  28.002  1.00  0.00     0.029 A 
ATOM     44  N   UNL A   1      40.507  28.483  29.803  1.00  0.00    -0.354 N 
ATOM     45  C   UNL A   1      39.503  30.967  33.187  1.00  0.00     0.074 A 
ATOM     46  C   UNL A   1      38.258  31.671  32.965  1.00  0.00     0.031 C 
ATOM     47  C   UNL A   1      40.250  27.617  27.757  1.00  0.00     0.029 A 
ATOM     48  C   UNL A   1      41.145  27.659  28.909  1.00  0.00     0.049 A 
ATOM     49  H   UNL A   1      40.873  28.703  30.690  1.00  0.00     0.167 HD
ATOM     50  C   UNL A   1      40.252  31.075  34.311  1.00  0.00     0.037 A 
ATOM     51  C   UNL A   1      42.319  27.008  29.008  1.00  0.00     0.037 A 
ATOM     52  C   UNL A   1      41.478  30.357  34.542  1.00  0.00     0.049 A 
ATOM     53  C   UNL A   1      43.122  27.125  30.275  1.00  0.00     0.074 A 
ATOM     54  C   UNL A   1      42.283  30.357  35.669  1.00  0.00     0.029 A 
ATOM     55  N   UNL A   1      42.078  29.505  33.625  1.00  0.00    -0.354 N 
ATOM     56  N   UNL A   1      42.865  27.822  31.356  1.00  0.00    -0.248 NA
ATOM     57  C   UNL A   1      44.371  26.355  30.340  1.00  0.00     0.031 C 
ATOM     58  C   UNL A   1      43.388  29.535  35.419  1.00  0.00     0.029 A 
ATOM     59  C   UNL A   1      43.249  28.987  34.154  1.00  0.00     0.049 A 
ATOM     60  H   UNL A   1      41.724  29.299  32.730  1.00  0.00     0.167 HD
ATOM     61  C   UNL A   1      43.907  27.561  32.234  1.00  0.00     0.074 A 
ATOM     62  C   UNL A   1      44.788  26.623  31.569  1.00  0.00     0.031 C 
ATOM     63  C   UNL A   1      44.118  28.058  33.478  1.00  0.00     0.037 A 
BRANCH  50  64
ATOM     64  C   UNL A   1      39.760  32.003  35.385  1.00  0.00     0.064 A 
ATOM     65  C   UNL A   1      38.846  31.578  36.361  1.00  0.00     0.173 A 
ATOM     66  C   UNL A   1      40.229  33.324  35.458  1.00  0.00     0.173 A 
ATOM     67  F   UNL A   1      38.358  30.328  36.329  1.00  0.00    -0.203 F 
ATOM     68  C   UNL A   1      38.396  32.446  37.352  1.00  0.00     0.198 A 
ATOM     69  C   UNL A   1      39.799  34.182  36.468  1.00  0.00     0.198 A 
ATOM     70  F   UNL A   1      41.108  33.781  34.555  1.00  0.00    -0.203 F 
ATOM     71  F   UNL A   1      37.485  32.031  38.242  1.00  0.00    -0.200 F 
ATOM     72  C   UNL A   1      38.878  33.745  37.408  1.00  0.00     0.200 A 
ATOM     73  F   UNL A   1      40.274  35.434  36.529  1.00  0.00    -0.200 F 
ATOM     74  F   UNL A   1      38.447  34.580  38.365  1.00  0.00    -0.200 F 
ENDBRANCH  50  64
BRANCH  51  75
ATOM     75  C   UNL A   1      42.791  26.160  27.884  1.00  0.00     0.064 A 
ATOM     76  C   UNL A   1      43.658  26.673  26.910  1.00  0.00     0.173 A 
ATOM     77  C   UNL A   1      42.393  24.821  27.765  1.00  0.00     0.173 A 
ATOM     78  F   UNL A   1      44.049  27.955  26.970  1.00  0.00    -0.203 F 
ATOM     79  C   UNL A   1      44.095  25.884  25.848  1.00  0.00     0.198 A 
ATOM     80  C   UNL A   1      42.852  24.025  26.718  1.00  0.00     0.198 A 
ATOM     81  F   UNL A   1      41.568  24.282  28.676  1.00  0.00    -0.203 F 
ATOM     82  F   UNL A   1      44.890  26.412  24.907  1.00  0.00    -0.200 F 
ATOM     83  C   UNL A   1      43.696  24.559  25.756  1.00  0.00     0.200 A 
ATOM     84  F   UNL A   1      42.475  22.740  26.639  1.00  0.00    -0.200 F 
ATOM     85  F   UNL A   1      44.123  23.798  24.738  1.00  0.00    -0.200 F 
ENDBRANCH  51  75
BRANCH  63  86
ATOM     86  C   UNL A   1      45.340  27.578  34.205  1.00  0.00     0.064 A 
ATOM     87  C   UNL A   1      45.311  26.426  35.007  1.00  0.00     0.173 A 
ATOM     88  C   UNL A   1      46.557  28.264  34.085  1.00  0.00     0.173 A 
ATOM     89  F   UNL A   1      44.167  25.743  35.166  1.00  0.00    -0.203 F 
ATOM     90  C   UNL A   1      46.448  26.000  35.686  1.00  0.00     0.198 A 
ATOM     91  C   UNL A   1      47.700  27.818  34.743  1.00  0.00     0.198 A 
ATOM     92  F   UNL A   1      46.639  29.367  33.325  1.00  0.00    -0.203 F 
ATOM     93  F   UNL A   1      46.384  24.928  36.489  1.00  0.00    -0.200 F 
ATOM     94  C   UNL A   1      47.642  26.692  35.550  1.00  0.00     0.200 A 
ATOM     95  F   UNL A   1      48.855  28.482  34.601  1.00  0.00    -0.200 F 
ATOM     96  F   UNL A   1      48.736  26.279  36.204  1.00  0.00    -0.200 F 
ENDBRANCH  63  86
ENDBRANCH  37  38
ENDBRANCH  29  32
ENDBRANCH  27  28
ENDBRANCH  26  27
ENDBRANCH   1  26
TORSDOF 16
ENDMDL
MODEL 2
REMARK VINA RESULT:     -11.5      4.144      7.572
REMARK SMILES CCOc1cc(OCC)cc(-c2ccc([C@@H](C)C(=O)NCCCNC(=O)c3ccc(-c4c5nc(c(-c6c(F)c(F)c(F)c(F)c6F)c6ccc([nH]6)c(-c6c(F)c(F)c(F)c(F)c6F)c6nc(c(-c7c(F)c(F)c(F)c(F)c7F)c7ccc4[nH]7)C=C6)C=C5)cc3)cc2)c1
REMARK SMILES IDX 21 1 20 2 18 3 19 4 16 6 17 7 15 8 12 9 13 10 91 11 14 12
REMARK SMILES IDX 90 13 11 14 4 15 5 16 92 17 6 18 10 19 3 20 2 21 1 22 7 23
REMARK SMILES IDX 8 24 9 25 22 26 23 27 24 28 25 29 26 31 27 32 28 33 89 34
REMARK SMILES IDX 29 35 88 36 30 37 31 38 32 39 82 40 33 41 87 42 81 43 83 44
REMARK SMILES IDX 34 45 86 46 80 47 79 48 35 50 67 51 47 52 66 53 48 54 51 55
REMARK SMILES IDX 65 56 84 57 49 58 50 59 64 61 85 62 52 63 36 64 37 65 45 66
REMARK SMILES IDX 38 67 39 68 43 69 46 70 40 71 41 72 44 73 42 74 68 75 69 76
REMARK SMILES IDX 77 77 70 78 71 79 75 80 78 81 72 82 73 83 76 84 74 85 53 86
REMARK SMILES IDX 54 87 62 88 55 89 56 90 60 91 63 92 57 93 58 94 61 95 59 96
REMARK H PARENT 20 5 24 30 83 49 51 60
REMARK Flexibility Score: inf
ROOT
ATOM      1  C   UNL A   1      34.008  35.286  28.850  1.00  0.00     0.117 C 
ENDROOT
BRANCH   1   2
ATOM      2  N   UNL A   1      33.963  35.481  30.286  1.00  0.00    -0.356 N 
ATOM      3  C   UNL A   1      34.460  34.759  31.326  1.00  0.00     0.227 C 
ATOM      4  O   UNL A   1      34.196  35.186  32.458  1.00  0.00    -0.274 OA
ATOM      5  H   UNL A   1      33.479  36.294  30.562  1.00  0.00     0.163 HD
BRANCH   3   6
ATOM      6  C   UNL A   1      35.299  33.480  31.172  1.00  0.00     0.105 C 
ATOM      7  C   UNL A   1      35.115  32.453  32.288  1.00  0.00     0.023 C 
BRANCH   6   8
ATOM      8  C   UNL A   1      36.736  33.760  30.769  1.00  0.00    -0.036 A 
ATOM      9  C   UNL A   1      39.499  34.123  30.156  1.00  0.00    -0.018 A 
ATOM     10  C   UNL A   1      38.612  33.514  29.252  1.00  0.00     0.009 A 
ATOM     11  C   UNL A   1      38.957  34.584  31.364  1.00  0.00     0.009 A 
ATOM     12  C   UNL A   1      37.253  33.371  29.534  1.00  0.00     0.005 A 
ATOM     13  C   UNL A   1      37.605  34.386  31.675  1.00  0.00     0.005 A 
BRANCH   9  14
ATOM     14  C   UNL A   1      40.939  34.231  29.833  1.00  0.00    -0.011 A 
ATOM     15  C   UNL A   1      43.185  33.295  29.752  1.00  0.00     0.123 A 
ATOM     16  C   UNL A   1      43.639  34.398  29.031  1.00  0.00     0.092 A 
ATOM     17  C   UNL A   1      41.852  33.219  30.160  1.00  0.00     0.055 A 
ATOM     18  C   UNL A   1      42.763  35.435  28.717  1.00  0.00     0.123 A 
ATOM     19  C   UNL A   1      41.435  35.350  29.138  1.00  0.00     0.055 A 
BRANCH  15  20
ATOM     20  O   UNL A   1      44.099  32.359  30.150  1.00  0.00    -0.494 OA
BRANCH  20  21
ATOM     21  C   UNL A   1      43.756  31.018  29.780  1.00  0.00     0.226 C 
ATOM     22  C   UNL A   1      43.775  30.822  28.271  1.00  0.00     0.049 C 
ENDBRANCH  20  21
ENDBRANCH  15  20
BRANCH  18  23
ATOM     23  O   UNL A   1      43.289  36.460  27.978  1.00  0.00    -0.494 OA
BRANCH  23  24
ATOM     24  C   UNL A   1      42.633  36.817  26.757  1.00  0.00     0.226 C 
ATOM     25  C   UNL A   1      42.020  38.208  26.828  1.00  0.00     0.049 C 
ENDBRANCH  23  24
ENDBRANCH  18  23
ENDBRANCH   9  14
ENDBRANCH   6   8
ENDBRANCH   3   6
ENDBRANCH   1   2
BRANCH   1  26
ATOM     26  C   UNL A   1      33.378  33.964  28.416  1.00  0.00     0.042 C 
BRANCH  26  27
ATOM     27  C   UNL A   1      34.378  32.928  27.911  1.00  0.00     0.118 C 
BRANCH  27  28
ATOM     28  N   UNL A   1      33.738  31.673  27.546  1.00  0.00    -0.352 N 
ATOM     29  C   UNL A   1      34.222  30.389  27.496  1.00  0.00     0.251 C 
ATOM     30  H   UNL A   1      32.791  31.760  27.290  1.00  0.00     0.163 HD
ATOM     31  O   UNL A   1      33.536  29.522  26.959  1.00  0.00    -0.269 OA
BRANCH  29  32
ATOM     32  C   UNL A   1      35.543  30.022  28.062  1.00  0.00     0.039 A 
ATOM     33  C   UNL A   1      35.600  29.632  29.406  1.00  0.00     0.014 A 
ATOM     34  C   UNL A   1      36.727  30.132  27.329  1.00  0.00     0.014 A 
ATOM     35  C   UNL A   1      36.828  29.315  29.994  1.00  0.00     0.010 A 
ATOM     36  C   UNL A   1      37.942  29.741  27.893  1.00  0.00     0.010 A 
ATOM     37  C   UNL A   1      38.008  29.341  29.235  1.00  0.00    -0.014 A 
BRANCH  37  38
ATOM     38  C   UNL A   1      39.312  28.967  29.843  1.00  0.00     0.031 A 
ATOM     39  C   UNL A   1      39.845  29.715  31.034  1.00  0.00     0.074 A 
ATOM     40  C   UNL A   1      40.040  27.976  29.293  1.00  0.00     0.049 A 
ATOM     41  N   UNL A   1      40.974  29.553  31.679  1.00  0.00    -0.248 NA
ATOM     42  C   UNL A   1      39.012  30.810  31.555  1.00  0.00     0.031 C 
ATOM     43  C   UNL A   1      39.662  27.211  28.104  1.00  0.00     0.029 A 
ATOM     44  N   UNL A   1      41.253  27.445  29.657  1.00  0.00    -0.354 N 
ATOM     45  C   UNL A   1      40.990  30.527  32.668  1.00  0.00     0.074 A 
ATOM     46  C   UNL A   1      39.784  31.311  32.507  1.00  0.00     0.031 C 
ATOM     47  C   UNL A   1      40.611  26.296  27.850  1.00  0.00     0.029 A 
ATOM     48  C   UNL A   1      41.676  26.428  28.839  1.00  0.00     0.049 A 
ATOM     49  H   UNL A   1      41.770  27.765  30.432  1.00  0.00     0.167 HD
ATOM     50  C   UNL A   1      41.913  30.735  33.639  1.00  0.00     0.037 A 
ATOM     51  C   UNL A   1      42.797  25.683  28.881  1.00  0.00     0.037 A 
ATOM     52  C   UNL A   1      43.100  29.939  33.814  1.00  0.00     0.049 A 
ATOM     53  C   UNL A   1      43.795  25.917  29.982  1.00  0.00     0.074 A 
ATOM     54  C   UNL A   1      44.069  30.036  34.799  1.00  0.00     0.029 A 
ATOM     55  N   UNL A   1      43.480  28.895  32.982  1.00  0.00    -0.354 N 
ATOM     56  N   UNL A   1      43.767  26.800  30.951  1.00  0.00    -0.248 NA
ATOM     57  C   UNL A   1      44.975  25.043  30.001  1.00  0.00     0.031 C 
ATOM     58  C   UNL A   1      45.054  29.075  34.540  1.00  0.00     0.029 A 
ATOM     59  C   UNL A   1      44.676  28.350  33.422  1.00  0.00     0.049 A 
ATOM     60  H   UNL A   1      42.974  28.587  32.196  1.00  0.00     0.167 HD
ATOM     61  C   UNL A   1      44.910  26.576  31.704  1.00  0.00     0.074 A 
ATOM     62  C   UNL A   1      45.600  25.458  31.093  1.00  0.00     0.031 C 
ATOM     63  C   UNL A   1      45.352  27.240  32.800  1.00  0.00     0.037 A 
BRANCH  50  64
ATOM     64  C   UNL A   1      41.670  31.867  34.594  1.00  0.00     0.064 A 
ATOM     65  C   UNL A   1      40.922  31.690  35.769  1.00  0.00     0.173 A 
ATOM     66  C   UNL A   1      42.214  33.137  34.351  1.00  0.00     0.173 A 
ATOM     67  F   UNL A   1      40.369  30.498  36.042  1.00  0.00    -0.203 F 
ATOM     68  C   UNL A   1      40.702  32.747  36.647  1.00  0.00     0.198 A 
ATOM     69  C   UNL A   1      42.017  34.185  35.247  1.00  0.00     0.198 A 
ATOM     70  F   UNL A   1      42.943  33.361  33.248  1.00  0.00    -0.203 F 
ATOM     71  F   UNL A   1      39.942  32.565  37.736  1.00  0.00    -0.200 F 
ATOM     72  C   UNL A   1      41.255  33.992  36.389  1.00  0.00     0.200 A 
ATOM     73  F   UNL A   1      42.562  35.386  35.003  1.00  0.00    -0.200 F 
ATOM     74  F   UNL A   1      41.046  35.009  37.238  1.00  0.00    -0.200 F 
ENDBRANCH  50  64
BRANCH  51  75
ATOM     75  C   UNL A   1      43.018  24.623  27.865  1.00  0.00     0.064 A 
ATOM     76  C   UNL A   1      42.633  23.298  28.112  1.00  0.00     0.173 A 
ATOM     77  C   UNL A   1      43.607  24.912  26.626  1.00  0.00     0.173 A 
ATOM     78  F   UNL A   1      42.083  22.970  29.291  1.00  0.00    -0.203 F 
ATOM     79  C   UNL A   1      42.846  22.298  27.166  1.00  0.00     0.198 A 
ATOM     80  C   UNL A   1      43.796  23.917  25.670  1.00  0.00     0.198 A 
ATOM     81  F   UNL A   1      43.988  26.166  26.340  1.00  0.00    -0.203 F 
ATOM     82  F   UNL A   1      42.507  21.032  27.444  1.00  0.00    -0.200 F 
ATOM     83  C   UNL A   1      43.422  22.610  25.943  1.00  0.00     0.200 A 
ATOM     84  F   UNL A   1      44.340  24.223  24.483  1.00  0.00    -0.200 F 
ATOM     85  F   UNL A   1      43.620  21.648  25.030  1.00  0.00    -0.200 F 
ENDBRANCH  51  75
BRANCH  63  86
ATOM     86  C   UNL A   1      46.632  26.758  33.419  1.00  0.00     0.064 A 
ATOM     87  C   UNL A   1      46.640  25.750  34.396  1.00  0.00     0.173 A 
ATOM     88  C   UNL A   1      47.864  27.295  33.018  1.00  0.00     0.173 A 
ATOM     89  F   UNL A   1      45.486  25.216  34.824  1.00  0.00    -0.203 F 
ATOM     90  C   UNL A   1      47.834  25.323  34.971  1.00  0.00     0.198 A 
ATOM     91  C   UNL A   1      49.057  26.844  33.574  1.00  0.00     0.198 A 
ATOM     92  F   UNL A   1      47.911  28.256  32.082  1.00  0.00    -0.203 F 
ATOM     93  F   UNL A   1      47.813  24.397  35.940  1.00  0.00    -0.200 F 
ATOM     94  C   UNL A   1      49.040  25.865  34.556  1.00  0.00     0.200 A 
ATOM     95  F   UNL A   1      50.224  27.361  33.165  1.00  0.00    -0.200 F 
ATOM     96  F   UNL A   1      50.188  25.451  35.110  1.00  0.00    -0.200 F 
ENDBRANCH  63  86
ENDBRANCH  37  38
ENDBRANCH  29  32
ENDBRANCH  27  28
ENDBRANCH  26  27
ENDBRANCH   1  26
TORSDOF 16
ENDMDL
MODEL 3
REMARK VINA RESULT:     -11.5      2.022      3.033
REMARK SMILES CCOc1cc(OCC)cc(-c2ccc([C@@H](C)C(=O)NCCCNC(=O)c3ccc(-c4c5nc(c(-c6c(F)c(F)c(F)c(F)c6F)c6ccc([nH]6)c(-c6c(F)c(F)c(F)c(F)c6F)c6nc(c(-c7c(F)c(F)c(F)c(F)c7F)c7ccc4[nH]7)C=C6)C=C5)cc3)cc2)c1
REMARK SMILES IDX 21 1 20 2 18 3 19 4 16 6 17 7 15 8 12 9 13 10 91 11 14 12
REMARK SMILES IDX 90 13 11 14 4 15 5 16 92 17 6 18 10 19 3 20 2 21 1 22 7 23
REMARK SMILES IDX 8 24 9 25 22 26 23 27 24 28 25 29 26 31 27 32 28 33 89 34
REMARK SMILES IDX 29 35 88 36 30 37 31 38 32 39 82 40 33 41 87 42 81 43 83 44
REMARK SMILES IDX 34 45 86 46 80 47 79 48 35 50 67 51 47 52 66 53 48 54 51 55
REMARK SMILES IDX 65 56 84 57 49 58 50 59 64 61 85 62 52 63 36 64 37 65 45 66
REMARK SMILES IDX 38 67 39 68 43 69 46 70 40 71 41 72 44 73 42 74 68 75 69 76
REMARK SMILES IDX 77 77 70 78 71 79 75 80 78 81 72 82 73 83 76 84 74 85 53 86
REMARK SMILES IDX 54 87 62 88 55 89 56 90 60 91 63 92 57 93 58 94 61 95 59 96
REMARK H PARENT 20 5 24 30 83 49 51 60
REMARK Flexibility Score: inf
ROOT
ATOM      1  C   UNL A   1      31.413  28.702  25.521  1.00  0.00     0.117 C 
ENDROOT
BRANCH   1   2
ATOM      2  N   UNL A   1      31.504  29.266  24.188  1.00  0.00    -0.356 N 
ATOM      3  C   UNL A   1      30.961  28.897  22.996  1.00  0.00     0.227 C 
ATOM      4  O   UNL A   1      31.286  29.583  22.018  1.00  0.00    -0.274 OA
ATOM      5  H   UNL A   1      32.067  30.073  24.136  1.00  0.00     0.163 HD
BRANCH   3   6
ATOM      6  C   UNL A   1      30.003  27.710  22.810  1.00  0.00     0.105 C 
ATOM      7  C   UNL A   1      28.634  27.880  23.467  1.00  0.00     0.023 C 
BRANCH   6   8
ATOM      8  C   UNL A   1      30.675  26.367  23.033  1.00  0.00    -0.036 A 
ATOM      9  C   UNL A   1      32.093  23.950  23.575  1.00  0.00    -0.018 A 
ATOM     10  C   UNL A   1      30.859  24.239  24.182  1.00  0.00     0.009 A 
ATOM     11  C   UNL A   1      32.582  24.888  22.655  1.00  0.00     0.009 A 
ATOM     12  C   UNL A   1      30.146  25.401  23.889  1.00  0.00     0.005 A 
ATOM     13  C   UNL A   1      31.897  26.086  22.405  1.00  0.00     0.005 A 
BRANCH   9  14
ATOM     14  C   UNL A   1      32.834  22.720  23.933  1.00  0.00    -0.011 A 
ATOM     15  C   UNL A   1      34.886  21.569  24.555  1.00  0.00     0.123 A 
ATOM     16  C   UNL A   1      34.176  20.395  24.799  1.00  0.00     0.092 A 
ATOM     17  C   UNL A   1      34.224  22.716  24.114  1.00  0.00     0.055 A 
ATOM     18  C   UNL A   1      32.797  20.359  24.598  1.00  0.00     0.123 A 
ATOM     19  C   UNL A   1      32.149  21.510  24.150  1.00  0.00     0.055 A 
BRANCH  15  20
ATOM     20  O   UNL A   1      36.251  21.532  24.642  1.00  0.00    -0.494 OA
BRANCH  20  21
ATOM     21  C   UNL A   1      36.884  22.789  24.371  1.00  0.00     0.226 C 
ATOM     22  C   UNL A   1      37.434  23.432  25.635  1.00  0.00     0.049 C 
ENDBRANCH  20  21
ENDBRANCH  15  20
BRANCH  18  23
ATOM     23  O   UNL A   1      32.180  19.174  24.896  1.00  0.00    -0.494 OA
BRANCH  23  24
ATOM     24  C   UNL A   1      32.638  17.990  24.234  1.00  0.00     0.226 C 
ATOM     25  C   UNL A   1      32.475  18.085  22.724  1.00  0.00     0.049 C 
ENDBRANCH  23  24
ENDBRANCH  18  23
ENDBRANCH   9  14
ENDBRANCH   6   8
ENDBRANCH   3   6
ENDBRANCH   1   2
BRANCH   1  26
ATOM     26  C   UNL A   1      32.532  27.705  25.815  1.00  0.00     0.042 C 
BRANCH  26  27
ATOM     27  C   UNL A   1      33.834  28.344  26.286  1.00  0.00     0.118 C 
BRANCH  27  28
ATOM     28  N   UNL A   1      33.639  29.700  26.781  1.00  0.00    -0.352 N 
ATOM     29  C   UNL A   1      34.386  30.468  27.638  1.00  0.00     0.251 C 
ATOM     30  H   UNL A   1      32.828  30.142  26.440  1.00  0.00     0.163 HD
ATOM     31  O   UNL A   1      33.904  31.515  28.062  1.00  0.00    -0.269 OA
BRANCH  29  32
ATOM     32  C   UNL A   1      35.748  30.071  28.070  1.00  0.00     0.039 A 
ATOM     33  C   UNL A   1      35.917  29.606  29.380  1.00  0.00     0.014 A 
ATOM     34  C   UNL A   1      36.868  30.223  27.247  1.00  0.00     0.014 A 
ATOM     35  C   UNL A   1      37.188  29.256  29.845  1.00  0.00     0.010 A 
ATOM     36  C   UNL A   1      38.124  29.802  27.685  1.00  0.00     0.010 A 
ATOM     37  C   UNL A   1      38.300  29.327  28.993  1.00  0.00    -0.014 A 
BRANCH  37  38
ATOM     38  C   UNL A   1      39.650  28.920  29.467  1.00  0.00     0.031 A 
ATOM     39  C   UNL A   1      40.406  29.774  30.447  1.00  0.00     0.074 A 
ATOM     40  C   UNL A   1      40.213  27.798  28.980  1.00  0.00     0.049 A 
ATOM     41  N   UNL A   1      41.604  29.598  30.950  1.00  0.00    -0.248 NA
ATOM     42  C   UNL A   1      39.742  31.004  30.904  1.00  0.00     0.031 C 
ATOM     43  C   UNL A   1      39.608  26.913  27.984  1.00  0.00     0.029 A 
ATOM     44  N   UNL A   1      41.425  27.212  29.252  1.00  0.00    -0.354 N 
ATOM     45  C   UNL A   1      41.837  30.695  31.768  1.00  0.00     0.074 A 
ATOM     46  C   UNL A   1      40.682  31.559  31.655  1.00  0.00     0.031 C 
ATOM     47  C   UNL A   1      40.440  25.886  27.745  1.00  0.00     0.029 A 
ATOM     48  C   UNL A   1      41.646  26.054  28.548  1.00  0.00     0.049 A 
ATOM     49  H   UNL A   1      42.072  27.586  29.892  1.00  0.00     0.167 HD
ATOM     50  C   UNL A   1      42.906  30.948  32.562  1.00  0.00     0.037 A 
ATOM     51  C   UNL A   1      42.704  25.221  28.550  1.00  0.00     0.037 A 
ATOM     52  C   UNL A   1      44.045  30.077  32.692  1.00  0.00     0.049 A 
ATOM     53  C   UNL A   1      43.868  25.511  29.456  1.00  0.00     0.074 A 
ATOM     54  C   UNL A   1      45.154  30.219  33.510  1.00  0.00     0.029 A 
ATOM     55  N   UNL A   1      44.220  28.896  31.985  1.00  0.00    -0.354 N 
ATOM     56  N   UNL A   1      44.048  26.519  30.275  1.00  0.00    -0.248 NA
ATOM     57  C   UNL A   1      44.970  24.541  29.448  1.00  0.00     0.031 C 
ATOM     58  C   UNL A   1      46.016  29.142  33.269  1.00  0.00     0.029 A 
ATOM     59  C   UNL A   1      45.425  28.307  32.336  1.00  0.00     0.049 A 
ATOM     60  H   UNL A   1      43.582  28.530  31.331  1.00  0.00     0.167 HD
ATOM     61  C   UNL A   1      45.271  26.297  30.891  1.00  0.00     0.074 A 
ATOM     62  C   UNL A   1      45.779  25.045  30.369  1.00  0.00     0.031 C 
ATOM     63  C   UNL A   1      45.918  27.063  31.804  1.00  0.00     0.037 A 
BRANCH  50  64
ATOM     64  C   UNL A   1      42.891  32.221  33.358  1.00  0.00     0.064 A 
ATOM     65  C   UNL A   1      42.335  32.275  34.646  1.00  0.00     0.173 A 
ATOM     66  C   UNL A   1      43.464  33.394  32.844  1.00  0.00     0.173 A 
ATOM     67  F   UNL A   1      41.763  31.185  35.179  1.00  0.00    -0.203 F 
ATOM     68  C   UNL A   1      42.326  33.461  35.376  1.00  0.00     0.198 A 
ATOM     69  C   UNL A   1      43.480  34.571  33.588  1.00  0.00     0.198 A 
ATOM     70  F   UNL A   1      44.016  33.397  31.621  1.00  0.00    -0.203 F 
ATOM     71  F   UNL A   1      41.743  33.500  36.582  1.00  0.00    -0.200 F 
ATOM     72  C   UNL A   1      42.904  34.606  34.849  1.00  0.00     0.200 A 
ATOM     73  F   UNL A   1      44.050  35.675  33.083  1.00  0.00    -0.200 F 
ATOM     74  F   UNL A   1      42.898  35.746  35.554  1.00  0.00    -0.200 F 
ENDBRANCH  50  64
BRANCH  51  75
ATOM     75  C   UNL A   1      42.693  24.013  27.686  1.00  0.00     0.064 A 
ATOM     76  C   UNL A   1      42.307  22.766  28.197  1.00  0.00     0.173 A 
ATOM     77  C   UNL A   1      43.058  24.081  26.334  1.00  0.00     0.173 A 
ATOM     78  F   UNL A   1      41.969  22.648  29.490  1.00  0.00    -0.203 F 
ATOM     79  C   UNL A   1      42.304  21.629  27.393  1.00  0.00     0.198 A 
ATOM     80  C   UNL A   1      43.029  22.948  25.524  1.00  0.00     0.198 A 
ATOM     81  F   UNL A   1      43.430  25.253  25.797  1.00  0.00    -0.203 F 
ATOM     82  F   UNL A   1      41.972  20.441  27.917  1.00  0.00    -0.200 F 
ATOM     83  C   UNL A   1      42.659  21.721  26.055  1.00  0.00     0.200 A 
ATOM     84  F   UNL A   1      43.360  23.043  24.228  1.00  0.00    -0.200 F 
ATOM     85  F   UNL A   1      42.650  20.628  25.281  1.00  0.00    -0.200 F 
ENDBRANCH  51  75
BRANCH  63  86
ATOM     86  C   UNL A   1      47.237  26.554  32.309  1.00  0.00     0.064 A 
ATOM     87  C   UNL A   1      48.449  26.943  31.717  1.00  0.00     0.173 A 
ATOM     88  C   UNL A   1      47.292  25.683  33.406  1.00  0.00     0.173 A 
ATOM     89  F   UNL A   1      48.448  27.762  30.654  1.00  0.00    -0.203 F 
ATOM     90  C   UNL A   1      49.663  26.453  32.187  1.00  0.00     0.198 A 
ATOM     91  C   UNL A   1      48.511  25.218  33.893  1.00  0.00     0.198 A 
ATOM     92  F   UNL A   1      46.162  25.286  34.012  1.00  0.00    -0.203 F 
ATOM     93  F   UNL A   1      50.804  26.796  31.574  1.00  0.00    -0.200 F 
ATOM     94  C   UNL A   1      49.694  25.596  33.277  1.00  0.00     0.200 A 
ATOM     95  F   UNL A   1      48.539  24.399  34.953  1.00  0.00    -0.200 F 
ATOM     96  F   UNL A   1      50.865  25.126  33.729  1.00  0.00    -0.200 F 
ENDBRANCH  63  86
ENDBRANCH  37  38
ENDBRANCH  29  32
ENDBRANCH  27  28
ENDBRANCH  26  27
ENDBRANCH   1  26
TORSDOF 16
ENDMDL
