MODEL 1
REMARK VINA RESULT:     -13.1      0.000      0.000
REMARK SMILES COc1ccc(-c2ncn(CC(=O)NCCCNC(=O)c3ccc(-c4c5nc(c(-c6c(F)c(F)c(F)c(F)c6F)c6ccc([nH]6)c(-c6c(F)c(F)c(F)c(F)c6F)c6nc(c(-c7c(F)c(F)c(F)c(F)c7F)c7ccc4[nH]7)C=C6)C=C5)cc3)c2-c2ccc(OC)cc2)cc1
REMARK SMILES IDX 15 1 14 2 12 3 13 4 11 6 10 7 7 8 8 9 84 10 9 11 6 12 3 13
REMARK SMILES IDX 4 14 94 15 5 16 93 17 2 18 1 19 85 20 86 21 92 22 87 23
REMARK SMILES IDX 91 24 88 25 89 26 90 27 16 28 17 29 18 30 19 31 20 33 21 34
REMARK SMILES IDX 22 35 83 36 23 37 82 38 24 39 25 40 26 41 76 42 27 43 81 44
REMARK SMILES IDX 75 45 77 46 28 47 80 48 74 49 73 50 29 52 61 53 41 54 60 55
REMARK SMILES IDX 42 56 45 57 59 58 78 59 43 60 44 61 58 63 79 64 46 65 30 66
REMARK SMILES IDX 31 67 39 68 32 69 33 70 37 71 40 72 34 73 35 74 38 75 36 76
REMARK SMILES IDX 62 77 63 78 71 79 64 80 65 81 69 82 72 83 66 84 67 85 70 86
REMARK SMILES IDX 68 87 47 88 48 89 56 90 49 91 50 92 54 93 57 94 51 95 52 96
REMARK SMILES IDX 55 97 53 98
REMARK H PARENT 14 5 18 32 77 51 45 62
REMARK Flexibility Score: inf
ROOT
ATOM      1  C   UNL A   1      35.885  21.762  25.287  1.00  0.00     0.117 C 
ENDROOT
BRANCH   1   2
ATOM      2  N   UNL A   1      35.605  22.505  24.069  1.00  0.00    -0.354 N 
ATOM      3  C   UNL A   1      34.629  23.431  23.829  1.00  0.00     0.239 C 
ATOM      4  O   UNL A   1      34.718  24.099  22.796  1.00  0.00    -0.273 OA
ATOM      5  H   UNL A   1      36.202  22.313  23.310  1.00  0.00     0.163 HD
BRANCH   3   6
ATOM      6  C   UNL A   1      33.516  23.669  24.827  1.00  0.00     0.223 C 
BRANCH   6   7
ATOM      7  N   UNL A   1      32.326  24.264  24.245  1.00  0.00    -0.321 N 
ATOM      8  C   UNL A   1      30.694  25.577  23.645  1.00  0.00     0.096 A 
ATOM      9  N   UNL A   1      30.364  24.321  23.202  1.00  0.00    -0.236 NA
ATOM     10  C   UNL A   1      31.905  25.576  24.327  1.00  0.00     0.076 A 
ATOM     11  C   UNL A   1      31.346  23.551  23.603  1.00  0.00     0.201 A 
BRANCH   8  12
ATOM     12  C   UNL A   1      29.809  26.721  23.547  1.00  0.00     0.003 A 
ATOM     13  C   UNL A   1      28.055  28.834  23.024  1.00  0.00     0.118 A 
ATOM     14  C   UNL A   1      27.594  27.691  23.676  1.00  0.00     0.047 A 
ATOM     15  C   UNL A   1      29.407  28.955  22.699  1.00  0.00     0.047 A 
ATOM     16  C   UNL A   1      28.466  26.631  23.931  1.00  0.00     0.014 A 
ATOM     17  C   UNL A   1      30.283  27.900  22.965  1.00  0.00     0.014 A 
BRANCH  13  18
ATOM     18  O   UNL A   1      27.127  29.810  22.782  1.00  0.00    -0.497 OA
ATOM     19  C   UNL A   1      27.571  31.117  23.144  1.00  0.00     0.278 C 
ENDBRANCH  13  18
ENDBRANCH   8  12
BRANCH  10  20
ATOM     20  C   UNL A   1      32.538  26.629  25.115  1.00  0.00     0.001 A 
ATOM     21  C   UNL A   1      32.125  26.929  26.413  1.00  0.00     0.014 A 
ATOM     22  C   UNL A   1      33.623  27.325  24.573  1.00  0.00     0.014 A 
ATOM     23  C   UNL A   1      32.760  27.943  27.137  1.00  0.00     0.047 A 
ATOM     24  C   UNL A   1      34.276  28.320  25.305  1.00  0.00     0.047 A 
ATOM     25  C   UNL A   1      33.841  28.638  26.590  1.00  0.00     0.118 A 
BRANCH  25  26
ATOM     26  O   UNL A   1      34.381  29.595  27.404  1.00  0.00    -0.497 OA
ATOM     27  C   UNL A   1      33.703  30.845  27.446  1.00  0.00     0.278 C 
ENDBRANCH  25  26
ENDBRANCH  10  20
ENDBRANCH   6   7
ENDBRANCH   3   6
ENDBRANCH   1   2
BRANCH   1  28
ATOM     28  C   UNL A   1      36.761  20.523  25.080  1.00  0.00     0.042 C 
BRANCH  28  29
ATOM     29  C   UNL A   1      38.243  20.835  25.133  1.00  0.00     0.118 C 
BRANCH  29  30
ATOM     30  N   UNL A   1      39.082  19.678  25.486  1.00  0.00    -0.352 N 
ATOM     31  C   UNL A   1      40.411  19.641  25.896  1.00  0.00     0.251 C 
ATOM     32  H   UNL A   1      38.637  18.802  25.423  1.00  0.00     0.163 HD
ATOM     33  O   UNL A   1      41.050  18.607  25.861  1.00  0.00    -0.269 OA
BRANCH  31  34
ATOM     34  C   UNL A   1      41.029  20.887  26.390  1.00  0.00     0.039 A 
ATOM     35  C   UNL A   1      41.866  21.705  25.622  1.00  0.00     0.014 A 
ATOM     36  C   UNL A   1      40.691  21.258  27.676  1.00  0.00     0.014 A 
ATOM     37  C   UNL A   1      42.340  22.888  26.193  1.00  0.00     0.010 A 
ATOM     38  C   UNL A   1      40.800  22.560  28.028  1.00  0.00     0.010 A 
ATOM     39  C   UNL A   1      41.804  23.286  27.422  1.00  0.00    -0.014 A 
BRANCH  39  40
ATOM     40  C   UNL A   1      42.179  24.478  28.159  1.00  0.00     0.031 A 
ATOM     41  C   UNL A   1      41.161  25.547  28.092  1.00  0.00     0.074 A 
ATOM     42  C   UNL A   1      43.161  24.431  29.093  1.00  0.00     0.049 A 
ATOM     43  N   UNL A   1      41.244  26.673  27.467  1.00  0.00    -0.248 NA
ATOM     44  C   UNL A   1      39.812  25.248  28.605  1.00  0.00     0.031 C 
ATOM     45  C   UNL A   1      43.986  23.284  29.505  1.00  0.00     0.029 A 
ATOM     46  N   UNL A   1      43.551  25.395  29.973  1.00  0.00    -0.354 N 
ATOM     47  C   UNL A   1      40.036  27.321  27.713  1.00  0.00     0.074 A 
ATOM     48  C   UNL A   1      39.128  26.299  28.150  1.00  0.00     0.031 C 
ATOM     49  C   UNL A   1      44.606  23.558  30.675  1.00  0.00     0.029 A 
ATOM     50  C   UNL A   1      44.348  24.940  31.025  1.00  0.00     0.049 A 
ATOM     51  H   UNL A   1      43.291  26.339  29.874  1.00  0.00     0.167 HD
ATOM     52  C   UNL A   1      39.993  28.675  27.852  1.00  0.00     0.037 A 
ATOM     53  C   UNL A   1      44.708  25.665  32.117  1.00  0.00     0.037 A 
ATOM     54  C   UNL A   1      41.231  29.261  27.383  1.00  0.00     0.049 A 
ATOM     55  C   UNL A   1      44.485  27.097  31.773  1.00  0.00     0.074 A 
ATOM     56  C   UNL A   1      41.915  29.256  26.183  1.00  0.00     0.029 A 
ATOM     57  N   UNL A   1      42.154  29.632  28.335  1.00  0.00    -0.354 N 
ATOM     58  N   UNL A   1      45.175  27.732  30.865  1.00  0.00    -0.248 NA
ATOM     59  C   UNL A   1      43.170  27.651  32.061  1.00  0.00     0.031 C 
ATOM     60  C   UNL A   1      43.290  29.139  26.543  1.00  0.00     0.029 A 
ATOM     61  C   UNL A   1      43.381  29.177  27.936  1.00  0.00     0.049 A 
ATOM     62  H   UNL A   1      41.963  30.136  29.159  1.00  0.00     0.167 HD
ATOM     63  C   UNL A   1      44.238  28.484  30.171  1.00  0.00     0.074 A 
ATOM     64  C   UNL A   1      43.028  28.438  30.990  1.00  0.00     0.031 C 
ATOM     65  C   UNL A   1      44.428  28.802  28.855  1.00  0.00     0.037 A 
BRANCH  52  66
ATOM     66  C   UNL A   1      39.073  29.430  28.798  1.00  0.00     0.064 A 
ATOM     67  C   UNL A   1      38.080  30.256  28.228  1.00  0.00     0.173 A 
ATOM     68  C   UNL A   1      39.299  29.637  30.176  1.00  0.00     0.173 A 
ATOM     69  F   UNL A   1      37.741  30.129  26.935  1.00  0.00    -0.203 F 
ATOM     70  C   UNL A   1      37.490  31.305  28.935  1.00  0.00     0.198 A 
ATOM     71  C   UNL A   1      38.672  30.656  30.892  1.00  0.00     0.198 A 
ATOM     72  F   UNL A   1      40.192  28.942  30.883  1.00  0.00    -0.203 F 
ATOM     73  F   UNL A   1      36.675  32.158  28.300  1.00  0.00    -0.200 F 
ATOM     74  C   UNL A   1      37.804  31.518  30.263  1.00  0.00     0.200 A 
ATOM     75  F   UNL A   1      38.990  30.842  32.181  1.00  0.00    -0.200 F 
ATOM     76  F   UNL A   1      37.306  32.571  30.922  1.00  0.00    -0.200 F 
ENDBRANCH  52  66
BRANCH  53  77
ATOM     77  C   UNL A   1      44.914  25.207  33.517  1.00  0.00     0.064 A 
ATOM     78  C   UNL A   1      43.832  25.016  34.394  1.00  0.00     0.173 A 
ATOM     79  C   UNL A   1      46.152  24.681  33.936  1.00  0.00     0.173 A 
ATOM     80  F   UNL A   1      42.607  25.442  34.055  1.00  0.00    -0.203 F 
ATOM     81  C   UNL A   1      43.976  24.324  35.605  1.00  0.00     0.198 A 
ATOM     82  C   UNL A   1      46.296  23.995  35.145  1.00  0.00     0.198 A 
ATOM     83  F   UNL A   1      47.227  24.740  33.138  1.00  0.00    -0.203 F 
ATOM     84  F   UNL A   1      42.908  24.113  36.388  1.00  0.00    -0.200 F 
ATOM     85  C   UNL A   1      45.206  23.805  35.974  1.00  0.00     0.200 A 
ATOM     86  F   UNL A   1      47.484  23.465  35.471  1.00  0.00    -0.200 F 
ATOM     87  F   UNL A   1      45.332  23.091  37.102  1.00  0.00    -0.200 F 
ENDBRANCH  53  77
BRANCH  65  88
ATOM     88  C   UNL A   1      45.776  28.534  28.248  1.00  0.00     0.064 A 
ATOM     89  C   UNL A   1      46.120  27.341  27.587  1.00  0.00     0.173 A 
ATOM     90  C   UNL A   1      46.680  29.600  28.163  1.00  0.00     0.173 A 
ATOM     91  F   UNL A   1      45.272  26.309  27.543  1.00  0.00    -0.203 F 
ATOM     92  C   UNL A   1      47.324  27.219  26.893  1.00  0.00     0.198 A 
ATOM     93  C   UNL A   1      47.864  29.488  27.442  1.00  0.00     0.198 A 
ATOM     94  F   UNL A   1      46.377  30.779  28.729  1.00  0.00    -0.203 F 
ATOM     95  F   UNL A   1      47.626  26.073  26.266  1.00  0.00    -0.200 F 
ATOM     96  C   UNL A   1      48.189  28.297  26.812  1.00  0.00     0.200 A 
ATOM     97  F   UNL A   1      48.672  30.550  27.324  1.00  0.00    -0.200 F 
ATOM     98  F   UNL A   1      49.322  28.200  26.102  1.00  0.00    -0.200 F 
ENDBRANCH  65  88
ENDBRANCH  39  40
ENDBRANCH  31  34
ENDBRANCH  29  30
ENDBRANCH  28  29
ENDBRANCH   1  28
TORSDOF 15
ENDMDL
MODEL 2
REMARK VINA RESULT:     -13.0      2.636      7.045
REMARK SMILES COc1ccc(-c2ncn(CC(=O)NCCCNC(=O)c3ccc(-c4c5nc(c(-c6c(F)c(F)c(F)c(F)c6F)c6ccc([nH]6)c(-c6c(F)c(F)c(F)c(F)c6F)c6nc(c(-c7c(F)c(F)c(F)c(F)c7F)c7ccc4[nH]7)C=C6)C=C5)cc3)c2-c2ccc(OC)cc2)cc1
REMARK SMILES IDX 15 1 14 2 12 3 13 4 11 6 10 7 7 8 8 9 84 10 9 11 6 12 3 13
REMARK SMILES IDX 4 14 94 15 5 16 93 17 2 18 1 19 85 20 86 21 92 22 87 23
REMARK SMILES IDX 91 24 88 25 89 26 90 27 16 28 17 29 18 30 19 31 20 33 21 34
REMARK SMILES IDX 22 35 83 36 23 37 82 38 24 39 25 40 26 41 76 42 27 43 81 44
REMARK SMILES IDX 75 45 77 46 28 47 80 48 74 49 73 50 29 52 61 53 41 54 60 55
REMARK SMILES IDX 42 56 45 57 59 58 78 59 43 60 44 61 58 63 79 64 46 65 30 66
REMARK SMILES IDX 31 67 39 68 32 69 33 70 37 71 40 72 34 73 35 74 38 75 36 76
REMARK SMILES IDX 62 77 63 78 71 79 64 80 65 81 69 82 72 83 66 84 67 85 70 86
REMARK SMILES IDX 68 87 47 88 48 89 56 90 49 91 50 92 54 93 57 94 51 95 52 96
REMARK SMILES IDX 55 97 53 98
REMARK H PARENT 14 5 18 32 77 51 45 62
REMARK Flexibility Score: inf
ROOT
ATOM      1  C   UNL A   1      36.194  22.449  25.460  1.00  0.00     0.117 C 
ENDROOT
BRANCH   1   2
ATOM      2  N   UNL A   1      35.792  22.963  24.160  1.00  0.00    -0.354 N 
ATOM      3  C   UNL A   1      34.650  23.627  23.811  1.00  0.00     0.239 C 
ATOM      4  O   UNL A   1      34.620  24.167  22.703  1.00  0.00    -0.273 OA
ATOM      5  H   UNL A   1      36.433  22.811  23.429  1.00  0.00     0.163 HD
BRANCH   3   6
ATOM      6  C   UNL A   1      33.489  23.743  24.776  1.00  0.00     0.223 C 
BRANCH   6   7
ATOM      7  N   UNL A   1      32.305  24.353  24.196  1.00  0.00    -0.321 N 
ATOM      8  C   UNL A   1      30.670  25.676  23.623  1.00  0.00     0.096 A 
ATOM      9  N   UNL A   1      30.368  24.440  23.108  1.00  0.00    -0.236 NA
ATOM     10  C   UNL A   1      31.865  25.654  24.334  1.00  0.00     0.076 A 
ATOM     11  C   UNL A   1      31.350  23.662  23.494  1.00  0.00     0.201 A 
BRANCH   8  12
ATOM     12  C   UNL A   1      29.774  26.813  23.562  1.00  0.00     0.003 A 
ATOM     13  C   UNL A   1      28.016  28.937  23.100  1.00  0.00     0.118 A 
ATOM     14  C   UNL A   1      27.539  27.742  23.639  1.00  0.00     0.047 A 
ATOM     15  C   UNL A   1      29.381  29.099  22.862  1.00  0.00     0.047 A 
ATOM     16  C   UNL A   1      28.413  26.677  23.862  1.00  0.00     0.014 A 
ATOM     17  C   UNL A   1      30.259  28.038  23.097  1.00  0.00     0.014 A 
BRANCH  13  18
ATOM     18  O   UNL A   1      27.086  29.917  22.881  1.00  0.00    -0.497 OA
ATOM     19  C   UNL A   1      27.635  31.233  22.901  1.00  0.00     0.278 C 
ENDBRANCH  13  18
ENDBRANCH   8  12
BRANCH  10  20
ATOM     20  C   UNL A   1      32.465  26.673  25.190  1.00  0.00     0.001 A 
ATOM     21  C   UNL A   1      32.003  26.915  26.484  1.00  0.00     0.014 A 
ATOM     22  C   UNL A   1      33.567  27.394  24.719  1.00  0.00     0.014 A 
ATOM     23  C   UNL A   1      32.607  27.897  27.274  1.00  0.00     0.047 A 
ATOM     24  C   UNL A   1      34.189  28.357  25.518  1.00  0.00     0.047 A 
ATOM     25  C   UNL A   1      33.706  28.617  26.798  1.00  0.00     0.118 A 
BRANCH  25  26
ATOM     26  O   UNL A   1      34.212  29.539  27.673  1.00  0.00    -0.497 OA
ATOM     27  C   UNL A   1      33.964  30.906  27.366  1.00  0.00     0.278 C 
ENDBRANCH  25  26
ENDBRANCH  10  20
ENDBRANCH   6   7
ENDBRANCH   3   6
ENDBRANCH   1   2
BRANCH   1  28
ATOM     28  C   UNL A   1      37.593  21.826  25.484  1.00  0.00     0.042 C 
BRANCH  28  29
ATOM     29  C   UNL A   1      38.604  22.680  26.221  1.00  0.00     0.118 C 
BRANCH  29  30
ATOM     30  N   UNL A   1      39.972  22.139  26.194  1.00  0.00    -0.352 N 
ATOM     31  C   UNL A   1      41.191  22.809  26.246  1.00  0.00     0.251 C 
ATOM     32  H   UNL A   1      40.035  21.158  26.129  1.00  0.00     0.163 HD
ATOM     33  O   UNL A   1      42.224  22.261  25.914  1.00  0.00    -0.269 OA
BRANCH  31  34
ATOM     34  C   UNL A   1      41.205  24.204  26.729  1.00  0.00     0.039 A 
ATOM     35  C   UNL A   1      40.576  25.268  26.071  1.00  0.00     0.014 A 
ATOM     36  C   UNL A   1      41.844  24.418  27.934  1.00  0.00     0.014 A 
ATOM     37  C   UNL A   1      40.618  26.531  26.666  1.00  0.00     0.010 A 
ATOM     38  C   UNL A   1      41.505  25.504  28.667  1.00  0.00     0.010 A 
ATOM     39  C   UNL A   1      41.116  26.628  27.969  1.00  0.00    -0.014 A 
BRANCH  39  40
ATOM     40  C   UNL A   1      41.236  27.854  28.736  1.00  0.00     0.031 A 
ATOM     41  C   UNL A   1      42.386  28.687  28.324  1.00  0.00     0.074 A 
ATOM     42  C   UNL A   1      40.189  28.321  29.458  1.00  0.00     0.049 A 
ATOM     43  N   UNL A   1      43.471  28.911  28.985  1.00  0.00    -0.248 NA
ATOM     44  C   UNL A   1      42.428  29.160  26.928  1.00  0.00     0.031 C 
ATOM     45  C   UNL A   1      38.847  27.737  29.618  1.00  0.00     0.029 A 
ATOM     46  N   UNL A   1      40.065  29.507  30.117  1.00  0.00    -0.354 N 
ATOM     47  C   UNL A   1      44.228  29.752  28.174  1.00  0.00     0.074 A 
ATOM     48  C   UNL A   1      43.677  29.622  26.855  1.00  0.00     0.031 C 
ATOM     49  C   UNL A   1      38.000  28.658  30.133  1.00  0.00     0.029 A 
ATOM     50  C   UNL A   1      38.759  29.844  30.477  1.00  0.00     0.049 A 
ATOM     51  H   UNL A   1      40.837  30.081  30.323  1.00  0.00     0.167 HD
ATOM     52  C   UNL A   1      45.016  30.719  28.724  1.00  0.00     0.037 A 
ATOM     53  C   UNL A   1      38.358  31.045  30.973  1.00  0.00     0.037 A 
ATOM     54  C   UNL A   1      45.171  30.482  30.143  1.00  0.00     0.049 A 
ATOM     55  C   UNL A   1      39.584  31.735  31.463  1.00  0.00     0.074 A 
ATOM     56  C   UNL A   1      45.661  29.440  30.906  1.00  0.00     0.029 A 
ATOM     57  N   UNL A   1      44.402  31.238  30.998  1.00  0.00    -0.354 N 
ATOM     58  N   UNL A   1      40.287  31.314  32.479  1.00  0.00    -0.248 NA
ATOM     59  C   UNL A   1      40.300  32.571  30.510  1.00  0.00     0.031 C 
ATOM     60  C   UNL A   1      44.776  29.353  32.022  1.00  0.00     0.029 A 
ATOM     61  C   UNL A   1      43.858  30.401  31.932  1.00  0.00     0.049 A 
ATOM     62  H   UNL A   1      44.266  32.212  30.944  1.00  0.00     0.167 HD
ATOM     63  C   UNL A   1      41.608  31.461  32.080  1.00  0.00     0.074 A 
ATOM     64  C   UNL A   1      41.554  32.294  30.880  1.00  0.00     0.031 C 
ATOM     65  C   UNL A   1      42.583  30.637  32.567  1.00  0.00     0.037 A 
BRANCH  52  66
ATOM     66  C   UNL A   1      45.266  32.092  28.122  1.00  0.00     0.064 A 
ATOM     67  C   UNL A   1      44.146  32.918  27.883  1.00  0.00     0.173 A 
ATOM     68  C   UNL A   1      46.458  32.510  27.491  1.00  0.00     0.173 A 
ATOM     69  F   UNL A   1      42.963  32.654  28.459  1.00  0.00    -0.203 F 
ATOM     70  C   UNL A   1      44.180  33.968  26.963  1.00  0.00     0.198 A 
ATOM     71  C   UNL A   1      46.499  33.588  26.608  1.00  0.00     0.198 A 
ATOM     72  F   UNL A   1      47.616  31.858  27.611  1.00  0.00    -0.203 F 
ATOM     73  F   UNL A   1      43.050  34.616  26.655  1.00  0.00    -0.200 F 
ATOM     74  C   UNL A   1      45.353  34.288  26.309  1.00  0.00     0.200 A 
ATOM     75  F   UNL A   1      47.650  33.883  25.988  1.00  0.00    -0.200 F 
ATOM     76  F   UNL A   1      45.372  35.238  25.366  1.00  0.00    -0.200 F 
ENDBRANCH  52  66
BRANCH  53  77
ATOM     77  C   UNL A   1      37.072  31.761  30.763  1.00  0.00     0.064 A 
ATOM     78  C   UNL A   1      36.134  31.908  31.800  1.00  0.00     0.173 A 
ATOM     79  C   UNL A   1      36.861  32.556  29.618  1.00  0.00     0.173 A 
ATOM     80  F   UNL A   1      36.283  31.226  32.944  1.00  0.00    -0.203 F 
ATOM     81  C   UNL A   1      35.064  32.808  31.705  1.00  0.00     0.198 A 
ATOM     82  C   UNL A   1      35.792  33.450  29.524  1.00  0.00     0.198 A 
ATOM     83  F   UNL A   1      37.741  32.549  28.608  1.00  0.00    -0.203 F 
ATOM     84  F   UNL A   1      34.223  32.961  32.739  1.00  0.00    -0.200 F 
ATOM     85  C   UNL A   1      34.901  33.586  30.571  1.00  0.00     0.200 A 
ATOM     86  F   UNL A   1      35.667  34.225  28.436  1.00  0.00    -0.200 F 
ATOM     87  F   UNL A   1      33.914  34.492  30.505  1.00  0.00    -0.200 F 
ENDBRANCH  53  77
BRANCH  65  88
ATOM     88  C   UNL A   1      42.242  29.736  33.720  1.00  0.00     0.064 A 
ATOM     89  C   UNL A   1      41.768  28.419  33.579  1.00  0.00     0.173 A 
ATOM     90  C   UNL A   1      42.596  30.158  35.008  1.00  0.00     0.173 A 
ATOM     91  F   UNL A   1      41.496  27.912  32.372  1.00  0.00    -0.203 F 
ATOM     92  C   UNL A   1      41.636  27.575  34.681  1.00  0.00     0.198 A 
ATOM     93  C   UNL A   1      42.497  29.303  36.101  1.00  0.00     0.198 A 
ATOM     94  F   UNL A   1      43.106  31.385  35.192  1.00  0.00    -0.203 F 
ATOM     95  F   UNL A   1      41.188  26.322  34.519  1.00  0.00    -0.200 F 
ATOM     96  C   UNL A   1      42.012  28.015  35.939  1.00  0.00     0.200 A 
ATOM     97  F   UNL A   1      42.910  29.717  37.306  1.00  0.00    -0.200 F 
ATOM     98  F   UNL A   1      41.936  27.189  36.992  1.00  0.00    -0.200 F 
ENDBRANCH  65  88
ENDBRANCH  39  40
ENDBRANCH  31  34
ENDBRANCH  29  30
ENDBRANCH  28  29
ENDBRANCH   1  28
TORSDOF 15
ENDMDL
MODEL 3
REMARK VINA RESULT:     -13.0      2.397      6.944
REMARK SMILES COc1ccc(-c2ncn(CC(=O)NCCCNC(=O)c3ccc(-c4c5nc(c(-c6c(F)c(F)c(F)c(F)c6F)c6ccc([nH]6)c(-c6c(F)c(F)c(F)c(F)c6F)c6nc(c(-c7c(F)c(F)c(F)c(F)c7F)c7ccc4[nH]7)C=C6)C=C5)cc3)c2-c2ccc(OC)cc2)cc1
REMARK SMILES IDX 15 1 14 2 12 3 13 4 11 6 10 7 7 8 8 9 84 10 9 11 6 12 3 13
REMARK SMILES IDX 4 14 94 15 5 16 93 17 2 18 1 19 85 20 86 21 92 22 87 23
REMARK SMILES IDX 91 24 88 25 89 26 90 27 16 28 17 29 18 30 19 31 20 33 21 34
REMARK SMILES IDX 22 35 83 36 23 37 82 38 24 39 25 40 26 41 76 42 27 43 81 44
REMARK SMILES IDX 75 45 77 46 28 47 80 48 74 49 73 50 29 52 61 53 41 54 60 55
REMARK SMILES IDX 42 56 45 57 59 58 78 59 43 60 44 61 58 63 79 64 46 65 30 66
REMARK SMILES IDX 31 67 39 68 32 69 33 70 37 71 40 72 34 73 35 74 38 75 36 76
REMARK SMILES IDX 62 77 63 78 71 79 64 80 65 81 69 82 72 83 66 84 67 85 70 86
REMARK SMILES IDX 68 87 47 88 48 89 56 90 49 91 50 92 54 93 57 94 51 95 52 96
REMARK SMILES IDX 55 97 53 98
REMARK H PARENT 14 5 18 32 77 51 45 62
REMARK Flexibility Score: inf
ROOT
ATOM      1  C   UNL A   1      35.380  22.485  24.044  1.00  0.00     0.117 C 
ENDROOT
BRANCH   1   2
ATOM      2  N   UNL A   1      34.557  21.878  25.078  1.00  0.00    -0.354 N 
ATOM      3  C   UNL A   1      33.588  22.449  25.855  1.00  0.00     0.239 C 
ATOM      4  O   UNL A   1      32.862  21.696  26.508  1.00  0.00    -0.273 OA
ATOM      5  H   UNL A   1      34.719  20.922  25.241  1.00  0.00     0.163 HD
BRANCH   3   6
ATOM      6  C   UNL A   1      33.378  23.949  25.864  1.00  0.00     0.223 C 
BRANCH   6   7
ATOM      7  N   UNL A   1      32.307  24.395  24.991  1.00  0.00    -0.321 N 
ATOM      8  C   UNL A   1      30.797  25.529  23.904  1.00  0.00     0.096 A 
ATOM      9  N   UNL A   1      30.568  24.207  23.620  1.00  0.00    -0.236 NA
ATOM     10  C   UNL A   1      31.864  25.685  24.781  1.00  0.00     0.076 A 
ATOM     11  C   UNL A   1      31.469  23.550  24.309  1.00  0.00     0.201 A 
BRANCH   8  12
ATOM     12  C   UNL A   1      29.932  26.606  23.465  1.00  0.00     0.003 A 
ATOM     13  C   UNL A   1      28.314  28.823  22.937  1.00  0.00     0.118 A 
ATOM     14  C   UNL A   1      29.627  28.792  22.468  1.00  0.00     0.047 A 
ATOM     15  C   UNL A   1      27.784  27.718  23.604  1.00  0.00     0.047 A 
ATOM     16  C   UNL A   1      30.440  27.690  22.738  1.00  0.00     0.014 A 
ATOM     17  C   UNL A   1      28.593  26.609  23.864  1.00  0.00     0.014 A 
BRANCH  13  18
ATOM     18  O   UNL A   1      27.597  29.956  22.658  1.00  0.00    -0.497 OA
ATOM     19  C   UNL A   1      28.261  31.157  23.048  1.00  0.00     0.278 C 
ENDBRANCH  13  18
ENDBRANCH   8  12
BRANCH  10  20
ATOM     20  C   UNL A   1      32.330  26.875  25.487  1.00  0.00     0.001 A 
ATOM     21  C   UNL A   1      31.747  27.300  26.682  1.00  0.00     0.014 A 
ATOM     22  C   UNL A   1      33.425  27.581  24.980  1.00  0.00     0.014 A 
ATOM     23  C   UNL A   1      32.226  28.442  27.329  1.00  0.00     0.047 A 
ATOM     24  C   UNL A   1      33.922  28.707  25.641  1.00  0.00     0.047 A 
ATOM     25  C   UNL A   1      33.318  29.147  26.817  1.00  0.00     0.118 A 
BRANCH  25  26
ATOM     26  O   UNL A   1      33.695  30.237  27.551  1.00  0.00    -0.497 OA
ATOM     27  C   UNL A   1      35.055  30.281  27.968  1.00  0.00     0.278 C 
ENDBRANCH  25  26
ENDBRANCH  10  20
ENDBRANCH   6   7
ENDBRANCH   3   6
ENDBRANCH   1   2
BRANCH   1  28
ATOM     28  C   UNL A   1      36.876  22.190  24.180  1.00  0.00     0.042 C 
BRANCH  28  29
ATOM     29  C   UNL A   1      37.467  22.727  25.467  1.00  0.00     0.118 C 
BRANCH  29  30
ATOM     30  N   UNL A   1      38.509  21.865  26.049  1.00  0.00    -0.352 N 
ATOM     31  C   UNL A   1      39.707  22.216  26.664  1.00  0.00     0.251 C 
ATOM     32  H   UNL A   1      38.331  20.898  25.996  1.00  0.00     0.163 HD
ATOM     33  O   UNL A   1      40.594  21.400  26.823  1.00  0.00    -0.269 OA
BRANCH  31  34
ATOM     34  C   UNL A   1      39.874  23.605  27.135  1.00  0.00     0.039 A 
ATOM     35  C   UNL A   1      38.861  24.570  27.108  1.00  0.00     0.014 A 
ATOM     36  C   UNL A   1      41.106  23.913  27.677  1.00  0.00     0.014 A 
ATOM     37  C   UNL A   1      39.136  25.833  27.637  1.00  0.00     0.010 A 
ATOM     38  C   UNL A   1      41.198  24.951  28.540  1.00  0.00     0.010 A 
ATOM     39  C   UNL A   1      40.335  26.007  28.335  1.00  0.00    -0.014 A 
BRANCH  39  40
ATOM     40  C   UNL A   1      40.783  27.245  28.945  1.00  0.00     0.031 A 
ATOM     41  C   UNL A   1      41.978  27.816  28.289  1.00  0.00     0.074 A 
ATOM     42  C   UNL A   1      39.959  27.953  29.755  1.00  0.00     0.049 A 
ATOM     43  N   UNL A   1      43.177  27.887  28.762  1.00  0.00    -0.248 NA
ATOM     44  C   UNL A   1      41.880  28.165  26.860  1.00  0.00     0.031 C 
ATOM     45  C   UNL A   1      38.579  27.641  30.164  1.00  0.00     0.029 A 
ATOM     46  N   UNL A   1      40.146  29.189  30.297  1.00  0.00    -0.354 N 
ATOM     47  C   UNL A   1      43.929  28.508  27.769  1.00  0.00     0.074 A 
ATOM     48  C   UNL A   1      43.162  28.380  26.562  1.00  0.00     0.031 C 
ATOM     49  C   UNL A   1      37.995  28.740  30.694  1.00  0.00     0.029 A 
ATOM     50  C   UNL A   1      38.990  29.788  30.801  1.00  0.00     0.049 A 
ATOM     51  H   UNL A   1      41.027  29.624  30.330  1.00  0.00     0.167 HD
ATOM     52  C   UNL A   1      44.947  29.352  28.097  1.00  0.00     0.037 A 
ATOM     53  C   UNL A   1      38.884  31.077  31.221  1.00  0.00     0.037 A 
ATOM     54  C   UNL A   1      45.283  29.201  29.497  1.00  0.00     0.049 A 
ATOM     55  C   UNL A   1      40.272  31.564  31.458  1.00  0.00     0.074 A 
ATOM     56  C   UNL A   1      45.701  28.148  30.288  1.00  0.00     0.029 A 
ATOM     57  N   UNL A   1      44.799  30.150  30.368  1.00  0.00    -0.354 N 
ATOM     58  N   UNL A   1      41.044  31.100  32.402  1.00  0.00    -0.248 NA
ATOM     59  C   UNL A   1      40.961  32.177  30.330  1.00  0.00     0.031 C 
ATOM     60  C   UNL A   1      45.002  28.313  31.520  1.00  0.00     0.029 A 
ATOM     61  C   UNL A   1      44.274  29.502  31.453  1.00  0.00     0.049 A 
ATOM     62  H   UNL A   1      44.825  31.125  30.233  1.00  0.00     0.167 HD
ATOM     63  C   UNL A   1      42.291  30.969  31.807  1.00  0.00     0.074 A 
ATOM     64  C   UNL A   1      42.192  31.702  30.546  1.00  0.00     0.031 C 
ATOM     65  C   UNL A   1      43.176  30.019  32.234  1.00  0.00     0.037 A 
BRANCH  52  66
ATOM     66  C   UNL A   1      45.330  30.604  27.325  1.00  0.00     0.064 A 
ATOM     67  C   UNL A   1      46.697  30.799  27.028  1.00  0.00     0.173 A 
ATOM     68  C   UNL A   1      44.514  31.742  27.144  1.00  0.00     0.173 A 
ATOM     69  F   UNL A   1      47.570  29.784  27.119  1.00  0.00    -0.203 F 
ATOM     70  C   UNL A   1      47.222  32.060  26.738  1.00  0.00     0.198 A 
ATOM     71  C   UNL A   1      45.036  32.990  26.807  1.00  0.00     0.198 A 
ATOM     72  F   UNL A   1      43.199  31.741  27.367  1.00  0.00    -0.203 F 
ATOM     73  F   UNL A   1      48.547  32.216  26.623  1.00  0.00    -0.200 F 
ATOM     74  C   UNL A   1      46.392  33.160  26.650  1.00  0.00     0.200 A 
ATOM     75  F   UNL A   1      44.210  34.043  26.724  1.00  0.00    -0.200 F 
ATOM     76  F   UNL A   1      46.898  34.384  26.455  1.00  0.00    -0.200 F 
ENDBRANCH  52  66
BRANCH  53  77
ATOM     77  C   UNL A   1      37.724  32.000  31.121  1.00  0.00     0.064 A 
ATOM     78  C   UNL A   1      37.396  32.641  29.913  1.00  0.00     0.173 A 
ATOM     79  C   UNL A   1      36.749  32.057  32.137  1.00  0.00     0.173 A 
ATOM     80  F   UNL A   1      38.244  32.597  28.876  1.00  0.00    -0.203 F 
ATOM     81  C   UNL A   1      36.162  33.280  29.727  1.00  0.00     0.198 A 
ATOM     82  C   UNL A   1      35.521  32.697  31.952  1.00  0.00     0.198 A 
ATOM     83  F   UNL A   1      36.930  31.411  33.297  1.00  0.00    -0.203 F 
ATOM     84  F   UNL A   1      35.864  33.829  28.541  1.00  0.00    -0.200 F 
ATOM     85  C   UNL A   1      35.222  33.298  30.744  1.00  0.00     0.200 A 
ATOM     86  F   UNL A   1      34.605  32.674  32.931  1.00  0.00    -0.200 F 
ATOM     87  F   UNL A   1      34.018  33.855  30.546  1.00  0.00    -0.200 F 
ENDBRANCH  53  77
BRANCH  65  88
ATOM     88  C   UNL A   1      42.872  29.289  33.511  1.00  0.00     0.064 A 
ATOM     89  C   UNL A   1      42.128  28.097  33.581  1.00  0.00     0.173 A 
ATOM     90  C   UNL A   1      43.526  29.708  34.676  1.00  0.00     0.173 A 
ATOM     91  F   UNL A   1      41.551  27.581  32.491  1.00  0.00    -0.203 F 
ATOM     92  C   UNL A   1      42.029  27.374  34.769  1.00  0.00     0.198 A 
ATOM     93  C   UNL A   1      43.454  28.967  35.852  1.00  0.00     0.198 A 
ATOM     94  F   UNL A   1      44.294  30.808  34.653  1.00  0.00    -0.203 F 
ATOM     95  F   UNL A   1      41.318  26.237  34.808  1.00  0.00    -0.200 F 
ATOM     96  C   UNL A   1      42.701  27.804  35.900  1.00  0.00     0.200 A 
ATOM     97  F   UNL A   1      44.149  29.360  36.927  1.00  0.00    -0.200 F 
ATOM     98  F   UNL A   1      42.651  27.084  37.029  1.00  0.00    -0.200 F 
ENDBRANCH  65  88
ENDBRANCH  39  40
ENDBRANCH  31  34
ENDBRANCH  29  30
ENDBRANCH  28  29
ENDBRANCH   1  28
TORSDOF 15
ENDMDL
