MODEL 1
REMARK VINA RESULT:     -11.8      0.000      0.000
REMARK SMILES C[C@@H](C(=O)NCCCNC(=O)c1ccc(-c2c3nc(c(-c4c(F)c(F)c(F)c(F)c4F)c4ccc([nH]4)c(-c4c(F)c(F)c(F)c(F)c4F)c4nc(c(-c5c(F)c(F)c(F)c(F)c5F)c5ccc2[nH]5)C=C4)C=C3)cc1)c1ccc(-c2ccccc2)c(F)c1
REMARK SMILES IDX 7 1 6 2 5 3 3 4 4 5 2 7 1 8 75 9 76 10 87 11 77 12 85 13
REMARK SMILES IDX 78 14 86 15 79 16 80 17 84 18 81 19 83 20 82 21 8 22 9 23
REMARK SMILES IDX 10 24 11 26 12 27 13 28 74 29 14 30 73 31 15 32 16 33 17 34
REMARK SMILES IDX 67 35 18 36 72 37 66 38 68 39 19 40 71 41 65 42 64 43 20 45
REMARK SMILES IDX 52 46 32 47 51 48 33 49 36 50 50 51 69 52 34 53 35 54 49 56
REMARK SMILES IDX 70 57 37 58 21 59 22 60 30 61 23 62 24 63 28 64 31 65 25 66
REMARK SMILES IDX 26 67 29 68 27 69 53 70 54 71 62 72 55 73 56 74 60 75 63 76
REMARK SMILES IDX 57 77 58 78 61 79 59 80 38 81 39 82 47 83 40 84 41 85 45 86
REMARK SMILES IDX 48 87 42 88 43 89 46 90 44 91
REMARK H PARENT 5 6 9 25 68 44 36 55
REMARK Flexibility Score: inf
ROOT
ATOM      1  C   UNL A   1      33.422  28.454  25.665  1.00  0.00     0.042 C 
ENDROOT
BRANCH   1   2
ATOM      2  C   UNL A   1      31.923  28.674  25.473  1.00  0.00     0.117 C 
BRANCH   2   3
ATOM      3  N   UNL A   1      31.150  27.661  26.163  1.00  0.00    -0.356 N 
ATOM      4  C   UNL A   1      30.755  26.420  25.759  1.00  0.00     0.227 C 
ATOM      5  O   UNL A   1      29.971  25.825  26.501  1.00  0.00    -0.274 OA
ATOM      6  H   UNL A   1      30.864  27.909  27.072  1.00  0.00     0.163 HD
BRANCH   4   7
ATOM      7  C   UNL A   1      31.299  25.821  24.452  1.00  0.00     0.105 C 
ATOM      8  C   UNL A   1      30.288  24.879  23.790  1.00  0.00     0.023 C 
BRANCH   7   9
ATOM      9  C   UNL A   1      32.631  25.112  24.675  1.00  0.00    -0.033 A 
ATOM     10  C   UNL A   1      33.586  25.014  23.652  1.00  0.00     0.005 A 
ATOM     11  C   UNL A   1      32.913  24.507  25.907  1.00  0.00     0.044 A 
ATOM     12  C   UNL A   1      34.799  24.355  23.863  1.00  0.00     0.012 A 
ATOM     13  C   UNL A   1      34.126  23.844  26.106  1.00  0.00     0.131 A 
ATOM     14  C   UNL A   1      35.097  23.761  25.099  1.00  0.00     0.017 A 
ATOM     15  F   UNL A   1      34.349  23.288  27.308  1.00  0.00    -0.206 F 
BRANCH  14  16
ATOM     16  C   UNL A   1      36.381  23.076  25.295  1.00  0.00    -0.015 A 
ATOM     17  C   UNL A   1      36.559  21.751  24.861  1.00  0.00     0.009 A 
ATOM     18  C   UNL A   1      37.448  23.704  25.954  1.00  0.00     0.009 A 
ATOM     19  C   UNL A   1      37.759  21.073  25.086  1.00  0.00     0.001 A 
ATOM     20  C   UNL A   1      38.649  23.027  26.184  1.00  0.00     0.001 A 
ATOM     21  C   UNL A   1      38.802  21.712  25.752  1.00  0.00     0.000 A 
ENDBRANCH  14  16
ENDBRANCH   7   9
ENDBRANCH   4   7
ENDBRANCH   2   3
ENDBRANCH   1   2
BRANCH   1  22
ATOM     22  C   UNL A   1      33.898  28.610  27.107  1.00  0.00     0.118 C 
BRANCH  22  23
ATOM     23  N   UNL A   1      33.788  29.977  27.590  1.00  0.00    -0.352 N 
ATOM     24  C   UNL A   1      34.667  30.716  28.339  1.00  0.00     0.251 C 
ATOM     25  H   UNL A   1      32.956  30.442  27.343  1.00  0.00     0.163 HD
ATOM     26  O   UNL A   1      34.312  31.802  28.800  1.00  0.00    -0.269 OA
BRANCH  24  27
ATOM     27  C   UNL A   1      36.031  30.218  28.614  1.00  0.00     0.039 A 
ATOM     28  C   UNL A   1      37.013  30.363  27.629  1.00  0.00     0.014 A 
ATOM     29  C   UNL A   1      36.340  29.579  29.817  1.00  0.00     0.014 A 
ATOM     30  C   UNL A   1      38.315  29.919  27.871  1.00  0.00     0.010 A 
ATOM     31  C   UNL A   1      37.654  29.201  30.086  1.00  0.00     0.010 A 
ATOM     32  C   UNL A   1      38.652  29.360  29.113  1.00  0.00    -0.014 A 
BRANCH  32  33
ATOM     33  C   UNL A   1      40.038  28.918  29.413  1.00  0.00     0.031 A 
ATOM     34  C   UNL A   1      40.969  29.825  30.168  1.00  0.00     0.074 A 
ATOM     35  C   UNL A   1      40.481  27.737  28.944  1.00  0.00     0.049 A 
ATOM     36  N   UNL A   1      42.242  29.672  30.434  1.00  0.00    -0.248 NA
ATOM     37  C   UNL A   1      40.398  31.087  30.665  1.00  0.00     0.031 C 
ATOM     38  C   UNL A   1      39.686  26.785  28.167  1.00  0.00     0.029 A 
ATOM     39  N   UNL A   1      41.715  27.144  29.036  1.00  0.00    -0.354 N 
ATOM     40  C   UNL A   1      42.628  30.825  31.106  1.00  0.00     0.074 A 
ATOM     41  C   UNL A   1      41.467  31.688  31.167  1.00  0.00     0.031 C 
ATOM     42  C   UNL A   1      40.449  25.722  27.863  1.00  0.00     0.029 A 
ATOM     43  C   UNL A   1      41.794  25.935  28.389  1.00  0.00     0.049 A 
ATOM     44  H   UNL A   1      42.472  27.548  29.520  1.00  0.00     0.167 HD
ATOM     45  C   UNL A   1      43.834  31.129  31.641  1.00  0.00     0.037 A 
ATOM     46  C   UNL A   1      42.837  25.099  28.229  1.00  0.00     0.037 A 
ATOM     47  C   UNL A   1      44.978  30.257  31.604  1.00  0.00     0.049 A 
ATOM     48  C   UNL A   1      44.167  25.456  28.833  1.00  0.00     0.074 A 
ATOM     49  C   UNL A   1      46.228  30.446  32.168  1.00  0.00     0.029 A 
ATOM     50  N   UNL A   1      45.011  29.026  30.964  1.00  0.00    -0.354 N 
ATOM     51  N   UNL A   1      44.507  26.523  29.516  1.00  0.00    -0.248 NA
ATOM     52  C   UNL A   1      45.259  24.489  28.651  1.00  0.00     0.031 C 
ATOM     53  C   UNL A   1      47.029  29.349  31.835  1.00  0.00     0.029 A 
ATOM     54  C   UNL A   1      46.265  28.452  31.104  1.00  0.00     0.049 A 
ATOM     55  H   UNL A   1      44.255  28.619  30.482  1.00  0.00     0.167 HD
ATOM     56  C   UNL A   1      45.838  26.345  29.867  1.00  0.00     0.074 A 
ATOM     57  C   UNL A   1      46.243  25.062  29.331  1.00  0.00     0.031 C 
ATOM     58  C   UNL A   1      46.650  27.170  30.572  1.00  0.00     0.037 A 
BRANCH  45  59
ATOM     59  C   UNL A   1      43.978  32.466  32.310  1.00  0.00     0.064 A 
ATOM     60  C   UNL A   1      44.362  33.611  31.594  1.00  0.00     0.173 A 
ATOM     61  C   UNL A   1      43.711  32.608  33.680  1.00  0.00     0.173 A 
ATOM     62  F   UNL A   1      44.639  33.526  30.285  1.00  0.00    -0.203 F 
ATOM     63  C   UNL A   1      44.507  34.840  32.232  1.00  0.00     0.198 A 
ATOM     64  C   UNL A   1      43.827  33.845  34.308  1.00  0.00     0.198 A 
ATOM     65  F   UNL A   1      43.334  31.548  34.410  1.00  0.00    -0.203 F 
ATOM     66  F   UNL A   1      44.929  35.906  31.539  1.00  0.00    -0.200 F 
ATOM     67  C   UNL A   1      44.234  34.957  33.586  1.00  0.00     0.200 A 
ATOM     68  F   UNL A   1      43.551  33.961  35.615  1.00  0.00    -0.200 F 
ATOM     69  F   UNL A   1      44.373  36.141  34.198  1.00  0.00    -0.200 F 
ENDBRANCH  45  59
BRANCH  46  70
ATOM     70  C   UNL A   1      42.655  23.829  27.481  1.00  0.00     0.064 A 
ATOM     71  C   UNL A   1      42.944  23.755  26.111  1.00  0.00     0.173 A 
ATOM     72  C   UNL A   1      42.201  22.665  28.116  1.00  0.00     0.173 A 
ATOM     73  F   UNL A   1      43.362  24.848  25.456  1.00  0.00    -0.203 F 
ATOM     74  C   UNL A   1      42.773  22.568  25.403  1.00  0.00     0.198 A 
ATOM     75  C   UNL A   1      42.055  21.472  27.413  1.00  0.00     0.198 A 
ATOM     76  F   UNL A   1      41.915  22.683  29.427  1.00  0.00    -0.203 F 
ATOM     77  F   UNL A   1      43.023  22.534  24.087  1.00  0.00    -0.200 F 
ATOM     78  C   UNL A   1      42.336  21.425  26.055  1.00  0.00     0.200 A 
ATOM     79  F   UNL A   1      41.646  20.366  28.050  1.00  0.00    -0.200 F 
ATOM     80  F   UNL A   1      42.180  20.281  25.376  1.00  0.00    -0.200 F 
ENDBRANCH  46  70
BRANCH  58  81
ATOM     81  C   UNL A   1      48.049  26.697  30.839  1.00  0.00     0.064 A 
ATOM     82  C   UNL A   1      48.351  25.872  31.932  1.00  0.00     0.173 A 
ATOM     83  C   UNL A   1      49.091  27.037  29.963  1.00  0.00     0.173 A 
ATOM     84  F   UNL A   1      47.393  25.531  32.807  1.00  0.00    -0.203 F 
ATOM     85  C   UNL A   1      49.651  25.422  32.149  1.00  0.00     0.198 A 
ATOM     86  C   UNL A   1      50.383  26.562  30.169  1.00  0.00     0.198 A 
ATOM     87  F   UNL A   1      48.852  27.820  28.901  1.00  0.00    -0.203 F 
ATOM     88  F   UNL A   1      49.926  24.669  33.224  1.00  0.00    -0.200 F 
ATOM     89  C   UNL A   1      50.663  25.760  31.264  1.00  0.00     0.200 A 
ATOM     90  F   UNL A   1      51.357  26.881  29.305  1.00  0.00    -0.200 F 
ATOM     91  F   UNL A   1      51.912  25.319  31.470  1.00  0.00    -0.200 F 
ENDBRANCH  58  81
ENDBRANCH  32  33
ENDBRANCH  24  27
ENDBRANCH  22  23
ENDBRANCH   1  22
TORSDOF 12
ENDMDL
MODEL 2
REMARK VINA RESULT:     -11.8      1.772      2.670
REMARK SMILES C[C@@H](C(=O)NCCCNC(=O)c1ccc(-c2c3nc(c(-c4c(F)c(F)c(F)c(F)c4F)c4ccc([nH]4)c(-c4c(F)c(F)c(F)c(F)c4F)c4nc(c(-c5c(F)c(F)c(F)c(F)c5F)c5ccc2[nH]5)C=C4)C=C3)cc1)c1ccc(-c2ccccc2)c(F)c1
REMARK SMILES IDX 7 1 6 2 5 3 3 4 4 5 2 7 1 8 75 9 76 10 87 11 77 12 85 13
REMARK SMILES IDX 78 14 86 15 79 16 80 17 84 18 81 19 83 20 82 21 8 22 9 23
REMARK SMILES IDX 10 24 11 26 12 27 13 28 74 29 14 30 73 31 15 32 16 33 17 34
REMARK SMILES IDX 67 35 18 36 72 37 66 38 68 39 19 40 71 41 65 42 64 43 20 45
REMARK SMILES IDX 52 46 32 47 51 48 33 49 36 50 50 51 69 52 34 53 35 54 49 56
REMARK SMILES IDX 70 57 37 58 21 59 22 60 30 61 23 62 24 63 28 64 31 65 25 66
REMARK SMILES IDX 26 67 29 68 27 69 53 70 54 71 62 72 55 73 56 74 60 75 63 76
REMARK SMILES IDX 57 77 58 78 61 79 59 80 38 81 39 82 47 83 40 84 41 85 45 86
REMARK SMILES IDX 48 87 42 88 43 89 46 90 44 91
REMARK H PARENT 5 6 9 25 68 44 36 55
REMARK Flexibility Score: inf
ROOT
ATOM      1  C   UNL A   1      32.939  27.881  27.082  1.00  0.00     0.042 C 
ENDROOT
BRANCH   1   2
ATOM      2  C   UNL A   1      31.512  27.880  26.537  1.00  0.00     0.117 C 
BRANCH   2   3
ATOM      3  N   UNL A   1      30.836  26.634  26.834  1.00  0.00    -0.356 N 
ATOM      4  C   UNL A   1      30.685  25.507  26.081  1.00  0.00     0.227 C 
ATOM      5  O   UNL A   1      29.927  24.645  26.529  1.00  0.00    -0.274 OA
ATOM      6  H   UNL A   1      30.417  26.594  27.724  1.00  0.00     0.163 HD
BRANCH   4   7
ATOM      7  C   UNL A   1      31.456  25.350  24.760  1.00  0.00     0.105 C 
ATOM      8  C   UNL A   1      30.681  24.504  23.743  1.00  0.00     0.023 C 
BRANCH   7   9
ATOM      9  C   UNL A   1      32.848  24.771  24.991  1.00  0.00    -0.033 A 
ATOM     10  C   UNL A   1      33.825  24.797  23.985  1.00  0.00     0.005 A 
ATOM     11  C   UNL A   1      33.169  24.165  26.213  1.00  0.00     0.044 A 
ATOM     12  C   UNL A   1      35.094  24.257  24.204  1.00  0.00     0.012 A 
ATOM     13  C   UNL A   1      34.438  23.621  26.420  1.00  0.00     0.131 A 
ATOM     14  C   UNL A   1      35.429  23.663  25.430  1.00  0.00     0.017 A 
ATOM     15  F   UNL A   1      34.695  23.059  27.612  1.00  0.00    -0.206 F 
BRANCH  14  16
ATOM     16  C   UNL A   1      36.773  23.105  25.635  1.00  0.00    -0.015 A 
ATOM     17  C   UNL A   1      37.074  21.796  25.220  1.00  0.00     0.009 A 
ATOM     18  C   UNL A   1      37.777  23.841  26.282  1.00  0.00     0.009 A 
ATOM     19  C   UNL A   1      38.332  21.237  25.454  1.00  0.00     0.001 A 
ATOM     20  C   UNL A   1      39.035  23.283  26.520  1.00  0.00     0.001 A 
ATOM     21  C   UNL A   1      39.311  21.981  26.108  1.00  0.00     0.000 A 
ENDBRANCH  14  16
ENDBRANCH   7   9
ENDBRANCH   4   7
ENDBRANCH   2   3
ENDBRANCH   1   2
BRANCH   1  22
ATOM     22  C   UNL A   1      33.911  28.753  26.292  1.00  0.00     0.118 C 
BRANCH  22  23
ATOM     23  N   UNL A   1      33.798  30.164  26.626  1.00  0.00    -0.352 N 
ATOM     24  C   UNL A   1      34.547  30.925  27.486  1.00  0.00     0.251 C 
ATOM     25  H   UNL A   1      33.073  30.646  26.166  1.00  0.00     0.163 HD
ATOM     26  O   UNL A   1      34.180  32.066  27.767  1.00  0.00    -0.269 OA
BRANCH  24  27
ATOM     27  C   UNL A   1      35.783  30.386  28.093  1.00  0.00     0.039 A 
ATOM     28  C   UNL A   1      36.988  30.519  27.398  1.00  0.00     0.014 A 
ATOM     29  C   UNL A   1      35.755  29.719  29.320  1.00  0.00     0.014 A 
ATOM     30  C   UNL A   1      38.173  30.036  27.959  1.00  0.00     0.010 A 
ATOM     31  C   UNL A   1      36.945  29.301  29.911  1.00  0.00     0.010 A 
ATOM     32  C   UNL A   1      38.165  29.449  29.233  1.00  0.00    -0.014 A 
BRANCH  32  33
ATOM     33  C   UNL A   1      39.415  28.964  29.871  1.00  0.00     0.031 A 
ATOM     34  C   UNL A   1      39.977  29.683  31.066  1.00  0.00     0.074 A 
ATOM     35  C   UNL A   1      40.084  27.928  29.333  1.00  0.00     0.049 A 
ATOM     36  N   UNL A   1      41.107  29.487  31.697  1.00  0.00    -0.248 NA
ATOM     37  C   UNL A   1      39.172  30.791  31.604  1.00  0.00     0.031 C 
ATOM     38  C   UNL A   1      39.663  27.171  28.153  1.00  0.00     0.029 A 
ATOM     39  N   UNL A   1      41.271  27.342  29.698  1.00  0.00    -0.354 N 
ATOM     40  C   UNL A   1      41.159  30.459  32.688  1.00  0.00     0.074 A 
ATOM     41  C   UNL A   1      39.970  31.271  32.546  1.00  0.00     0.031 C 
ATOM     42  C   UNL A   1      40.570  26.214  27.898  1.00  0.00     0.029 A 
ATOM     43  C   UNL A   1      41.655  26.315  28.870  1.00  0.00     0.049 A 
ATOM     44  H   UNL A   1      41.797  27.632  30.478  1.00  0.00     0.167 HD
ATOM     45  C   UNL A   1      42.101  30.644  33.642  1.00  0.00     0.037 A 
ATOM     46  C   UNL A   1      42.762  25.550  28.888  1.00  0.00     0.037 A 
ATOM     47  C   UNL A   1      43.268  29.816  33.799  1.00  0.00     0.049 A 
ATOM     48  C   UNL A   1      43.795  25.773  29.958  1.00  0.00     0.074 A 
ATOM     49  C   UNL A   1      44.252  29.883  34.770  1.00  0.00     0.029 A 
ATOM     50  N   UNL A   1      43.608  28.766  32.958  1.00  0.00    -0.354 N 
ATOM     51  N   UNL A   1      43.807  26.657  30.926  1.00  0.00    -0.248 NA
ATOM     52  C   UNL A   1      44.967  24.885  29.943  1.00  0.00     0.031 C 
ATOM     53  C   UNL A   1      45.208  28.901  34.493  1.00  0.00     0.029 A 
ATOM     54  C   UNL A   1      44.797  28.189  33.378  1.00  0.00     0.049 A 
ATOM     55  H   UNL A   1      43.082  28.473  32.179  1.00  0.00     0.167 HD
ATOM     56  C   UNL A   1      44.967  26.417  31.649  1.00  0.00     0.074 A 
ATOM     57  C   UNL A   1      45.630  25.297  31.015  1.00  0.00     0.031 C 
ATOM     58  C   UNL A   1      45.439  27.067  32.741  1.00  0.00     0.037 A 
BRANCH  45  59
ATOM     59  C   UNL A   1      41.910  31.792  34.591  1.00  0.00     0.064 A 
ATOM     60  C   UNL A   1      42.438  33.065  34.323  1.00  0.00     0.173 A 
ATOM     61  C   UNL A   1      41.173  31.624  35.773  1.00  0.00     0.173 A 
ATOM     62  F   UNL A   1      43.160  33.276  33.212  1.00  0.00    -0.203 F 
ATOM     63  C   UNL A   1      42.267  34.116  35.221  1.00  0.00     0.198 A 
ATOM     64  C   UNL A   1      40.976  32.685  36.652  1.00  0.00     0.198 A 
ATOM     65  F   UNL A   1      40.640  30.431  36.075  1.00  0.00    -0.203 F 
ATOM     66  F   UNL A   1      42.829  35.307  34.970  1.00  0.00    -0.200 F 
ATOM     67  C   UNL A   1      41.531  33.927  36.381  1.00  0.00     0.200 A 
ATOM     68  F   UNL A   1      40.256  32.505  37.768  1.00  0.00    -0.200 F 
ATOM     69  F   UNL A   1      41.366  34.940  37.243  1.00  0.00    -0.200 F 
ENDBRANCH  45  59
BRANCH  46  70
ATOM     70  C   UNL A   1      42.937  24.484  27.868  1.00  0.00     0.064 A 
ATOM     71  C   UNL A   1      42.581  23.157  28.149  1.00  0.00     0.173 A 
ATOM     72  C   UNL A   1      43.449  24.768  26.595  1.00  0.00     0.173 A 
ATOM     73  F   UNL A   1      42.105  22.835  29.360  1.00  0.00    -0.203 F 
ATOM     74  C   UNL A   1      42.743  22.152  27.198  1.00  0.00     0.198 A 
ATOM     75  C   UNL A   1      43.586  23.767  25.636  1.00  0.00     0.198 A 
ATOM     76  F   UNL A   1      43.799  26.023  26.275  1.00  0.00    -0.203 F 
ATOM     77  F   UNL A   1      42.428  20.886  27.504  1.00  0.00    -0.200 F 
ATOM     78  C   UNL A   1      43.240  22.459  25.940  1.00  0.00     0.200 A 
ATOM     79  F   UNL A   1      44.053  24.069  24.416  1.00  0.00    -0.200 F 
ATOM     80  F   UNL A   1      43.387  21.494  25.022  1.00  0.00    -0.200 F 
ENDBRANCH  46  70
BRANCH  58  81
ATOM     81  C   UNL A   1      46.715  26.560  33.347  1.00  0.00     0.064 A 
ATOM     82  C   UNL A   1      47.963  27.086  32.982  1.00  0.00     0.173 A 
ATOM     83  C   UNL A   1      46.683  25.566  34.336  1.00  0.00     0.173 A 
ATOM     84  F   UNL A   1      48.048  28.027  32.030  1.00  0.00    -0.203 F 
ATOM     85  C   UNL A   1      49.134  26.620  33.574  1.00  0.00     0.198 A 
ATOM     86  C   UNL A   1      47.854  25.122  34.944  1.00  0.00     0.198 A 
ATOM     87  F   UNL A   1      45.514  25.034  34.722  1.00  0.00    -0.203 F 
ATOM     88  F   UNL A   1      50.320  27.106  33.181  1.00  0.00    -0.200 F 
ATOM     89  C   UNL A   1      49.079  25.644  34.559  1.00  0.00     0.200 A 
ATOM     90  F   UNL A   1      47.796  24.189  35.904  1.00  0.00    -0.200 F 
ATOM     91  F   UNL A   1      50.207  25.203  35.132  1.00  0.00    -0.200 F 
ENDBRANCH  58  81
ENDBRANCH  32  33
ENDBRANCH  24  27
ENDBRANCH  22  23
ENDBRANCH   1  22
TORSDOF 12
ENDMDL
MODEL 3
REMARK VINA RESULT:     -11.8      3.904      8.975
REMARK SMILES C[C@@H](C(=O)NCCCNC(=O)c1ccc(-c2c3nc(c(-c4c(F)c(F)c(F)c(F)c4F)c4ccc([nH]4)c(-c4c(F)c(F)c(F)c(F)c4F)c4nc(c(-c5c(F)c(F)c(F)c(F)c5F)c5ccc2[nH]5)C=C4)C=C3)cc1)c1ccc(-c2ccccc2)c(F)c1
REMARK SMILES IDX 7 1 6 2 5 3 3 4 4 5 2 7 1 8 75 9 76 10 87 11 77 12 85 13
REMARK SMILES IDX 78 14 86 15 79 16 80 17 84 18 81 19 83 20 82 21 8 22 9 23
REMARK SMILES IDX 10 24 11 26 12 27 13 28 74 29 14 30 73 31 15 32 16 33 17 34
REMARK SMILES IDX 67 35 18 36 72 37 66 38 68 39 19 40 71 41 65 42 64 43 20 45
REMARK SMILES IDX 52 46 32 47 51 48 33 49 36 50 50 51 69 52 34 53 35 54 49 56
REMARK SMILES IDX 70 57 37 58 21 59 22 60 30 61 23 62 24 63 28 64 31 65 25 66
REMARK SMILES IDX 26 67 29 68 27 69 53 70 54 71 62 72 55 73 56 74 60 75 63 76
REMARK SMILES IDX 57 77 58 78 61 79 59 80 38 81 39 82 47 83 40 84 41 85 45 86
REMARK SMILES IDX 48 87 42 88 43 89 46 90 44 91
REMARK H PARENT 5 6 9 25 68 44 36 55
REMARK Flexibility Score: inf
ROOT
ATOM      1  C   UNL A   1      31.376  32.455  26.495  1.00  0.00     0.042 C 
ENDROOT
BRANCH   1   2
ATOM      2  C   UNL A   1      31.296  30.930  26.501  1.00  0.00     0.117 C 
BRANCH   2   3
ATOM      3  N   UNL A   1      31.878  30.368  25.299  1.00  0.00    -0.356 N 
ATOM      4  C   UNL A   1      32.723  29.310  25.135  1.00  0.00     0.227 C 
ATOM      5  O   UNL A   1      33.182  29.144  24.004  1.00  0.00    -0.274 OA
ATOM      6  H   UNL A   1      31.621  30.823  24.464  1.00  0.00     0.163 HD
BRANCH   4   7
ATOM      7  C   UNL A   1      33.042  28.384  26.320  1.00  0.00     0.105 C 
ATOM      8  C   UNL A   1      34.412  28.693  26.935  1.00  0.00     0.023 C 
BRANCH   7   9
ATOM      9  C   UNL A   1      32.951  26.915  25.921  1.00  0.00    -0.033 A 
ATOM     10  C   UNL A   1      34.095  26.181  25.573  1.00  0.00     0.005 A 
ATOM     11  C   UNL A   1      31.707  26.274  25.858  1.00  0.00     0.044 A 
ATOM     12  C   UNL A   1      34.000  24.838  25.201  1.00  0.00     0.012 A 
ATOM     13  C   UNL A   1      31.621  24.933  25.476  1.00  0.00     0.131 A 
ATOM     14  C   UNL A   1      32.760  24.184  25.151  1.00  0.00     0.017 A 
ATOM     15  F   UNL A   1      30.405  24.366  25.439  1.00  0.00    -0.206 F 
BRANCH  14  16
ATOM     16  C   UNL A   1      32.689  22.771  24.758  1.00  0.00    -0.015 A 
ATOM     17  C   UNL A   1      32.384  22.411  23.434  1.00  0.00     0.009 A 
ATOM     18  C   UNL A   1      32.882  21.744  25.694  1.00  0.00     0.009 A 
ATOM     19  C   UNL A   1      32.264  21.071  23.060  1.00  0.00     0.001 A 
ATOM     20  C   UNL A   1      32.760  20.402  25.323  1.00  0.00     0.001 A 
ATOM     21  C   UNL A   1      32.449  20.067  24.007  1.00  0.00     0.000 A 
ENDBRANCH  14  16
ENDBRANCH   7   9
ENDBRANCH   4   7
ENDBRANCH   2   3
ENDBRANCH   1   2
BRANCH   1  22
ATOM     22  C   UNL A   1      32.597  33.020  27.215  1.00  0.00     0.118 C 
BRANCH  22  23
ATOM     23  N   UNL A   1      32.392  34.382  27.685  1.00  0.00    -0.352 N 
ATOM     24  C   UNL A   1      33.009  35.060  28.704  1.00  0.00     0.251 C 
ATOM     25  H   UNL A   1      31.706  34.893  27.199  1.00  0.00     0.163 HD
ATOM     26  O   UNL A   1      32.568  36.152  29.063  1.00  0.00    -0.269 OA
BRANCH  24  27
ATOM     27  C   UNL A   1      34.188  34.489  29.389  1.00  0.00     0.039 A 
ATOM     28  C   UNL A   1      34.001  33.811  30.598  1.00  0.00     0.014 A 
ATOM     29  C   UNL A   1      35.475  34.647  28.870  1.00  0.00     0.014 A 
ATOM     30  C   UNL A   1      35.096  33.244  31.256  1.00  0.00     0.010 A 
ATOM     31  C   UNL A   1      36.555  34.022  29.488  1.00  0.00     0.010 A 
ATOM     32  C   UNL A   1      36.378  33.321  30.691  1.00  0.00    -0.014 A 
BRANCH  32  33
ATOM     33  C   UNL A   1      37.552  32.692  31.346  1.00  0.00     0.031 A 
ATOM     34  C   UNL A   1      38.269  31.554  30.674  1.00  0.00     0.074 A 
ATOM     35  C   UNL A   1      37.928  33.092  32.575  1.00  0.00     0.049 A 
ATOM     36  N   UNL A   1      39.240  30.802  31.126  1.00  0.00    -0.248 NA
ATOM     37  C   UNL A   1      37.809  31.195  29.323  1.00  0.00     0.031 C 
ATOM     38  C   UNL A   1      37.292  34.160  33.347  1.00  0.00     0.029 A 
ATOM     39  N   UNL A   1      38.926  32.635  33.399  1.00  0.00    -0.354 N 
ATOM     40  C   UNL A   1      39.491  29.869  30.128  1.00  0.00     0.074 A 
ATOM     41  C   UNL A   1      38.540  30.120  29.067  1.00  0.00     0.031 C 
ATOM     42  C   UNL A   1      37.921  34.284  34.527  1.00  0.00     0.029 A 
ATOM     43  C   UNL A   1      38.979  33.280  34.611  1.00  0.00     0.049 A 
ATOM     44  H   UNL A   1      39.546  31.912  33.145  1.00  0.00     0.167 HD
ATOM     45  C   UNL A   1      40.440  28.904  30.091  1.00  0.00     0.037 A 
ATOM     46  C   UNL A   1      39.781  33.077  35.672  1.00  0.00     0.037 A 
ATOM     47  C   UNL A   1      41.404  28.677  31.136  1.00  0.00     0.049 A 
ATOM     48  C   UNL A   1      40.829  32.001  35.608  1.00  0.00     0.074 A 
ATOM     49  C   UNL A   1      42.445  27.765  31.168  1.00  0.00     0.029 A 
ATOM     50  N   UNL A   1      41.444  29.371  32.337  1.00  0.00    -0.354 N 
ATOM     51  N   UNL A   1      41.096  31.161  34.637  1.00  0.00    -0.248 NA
ATOM     52  C   UNL A   1      41.695  31.847  36.786  1.00  0.00     0.031 C 
ATOM     53  C   UNL A   1      43.088  27.879  32.405  1.00  0.00     0.029 A 
ATOM     54  C   UNL A   1      42.480  28.895  33.125  1.00  0.00     0.049 A 
ATOM     55  H   UNL A   1      40.827  30.095  32.591  1.00  0.00     0.167 HD
ATOM     56  C   UNL A   1      42.172  30.401  35.072  1.00  0.00     0.074 A 
ATOM     57  C   UNL A   1      42.518  30.885  36.393  1.00  0.00     0.031 C 
ATOM     58  C   UNL A   1      42.817  29.394  34.433  1.00  0.00     0.037 A 
BRANCH  45  59
ATOM     59  C   UNL A   1      40.480  28.019  28.879  1.00  0.00     0.064 A 
ATOM     60  C   UNL A   1      39.753  26.819  28.819  1.00  0.00     0.173 A 
ATOM     61  C   UNL A   1      41.239  28.382  27.756  1.00  0.00     0.173 A 
ATOM     62  F   UNL A   1      39.021  26.421  29.870  1.00  0.00    -0.203 F 
ATOM     63  C   UNL A   1      39.814  25.999  27.695  1.00  0.00     0.198 A 
ATOM     64  C   UNL A   1      41.271  27.575  26.622  1.00  0.00     0.198 A 
ATOM     65  F   UNL A   1      41.947  29.521  27.757  1.00  0.00    -0.203 F 
ATOM     66  F   UNL A   1      39.156  24.831  27.684  1.00  0.00    -0.200 F 
ATOM     67  C   UNL A   1      40.567  26.381  26.596  1.00  0.00     0.200 A 
ATOM     68  F   UNL A   1      41.991  27.950  25.554  1.00  0.00    -0.200 F 
ATOM     69  F   UNL A   1      40.623  25.592  25.514  1.00  0.00    -0.200 F 
ENDBRANCH  45  59
BRANCH  46  70
ATOM     70  C   UNL A   1      39.636  33.931  36.879  1.00  0.00     0.064 A 
ATOM     71  C   UNL A   1      40.296  35.164  36.969  1.00  0.00     0.173 A 
ATOM     72  C   UNL A   1      38.830  33.541  37.957  1.00  0.00     0.173 A 
ATOM     73  F   UNL A   1      41.094  35.569  35.970  1.00  0.00    -0.203 F 
ATOM     74  C   UNL A   1      40.166  35.969  38.098  1.00  0.00     0.198 A 
ATOM     75  C   UNL A   1      38.680  34.358  39.075  1.00  0.00     0.198 A 
ATOM     76  F   UNL A   1      38.172  32.372  37.917  1.00  0.00    -0.203 F 
ATOM     77  F   UNL A   1      40.837  37.127  38.174  1.00  0.00    -0.200 F 
ATOM     78  C   UNL A   1      39.353  35.569  39.148  1.00  0.00     0.200 A 
ATOM     79  F   UNL A   1      37.881  33.976  40.081  1.00  0.00    -0.200 F 
ATOM     80  F   UNL A   1      39.221  36.347  40.230  1.00  0.00    -0.200 F 
ENDBRANCH  46  70
BRANCH  58  81
ATOM     81  C   UNL A   1      43.988  28.771  35.136  1.00  0.00     0.064 A 
ATOM     82  C   UNL A   1      45.292  29.255  34.965  1.00  0.00     0.173 A 
ATOM     83  C   UNL A   1      43.793  27.704  36.027  1.00  0.00     0.173 A 
ATOM     84  F   UNL A   1      45.533  30.262  34.113  1.00  0.00    -0.203 F 
ATOM     85  C   UNL A   1      46.363  28.680  35.645  1.00  0.00     0.198 A 
ATOM     86  C   UNL A   1      44.861  27.150  36.725  1.00  0.00     0.198 A 
ATOM     87  F   UNL A   1      42.563  27.208  36.228  1.00  0.00    -0.203 F 
ATOM     88  F   UNL A   1      47.607  29.130  35.435  1.00  0.00    -0.200 F 
ATOM     89  C   UNL A   1      46.145  27.634  36.530  1.00  0.00     0.200 A 
ATOM     90  F   UNL A   1      44.647  26.147  37.589  1.00  0.00    -0.200 F 
ATOM     91  F   UNL A   1      47.176  27.087  37.190  1.00  0.00    -0.200 F 
ENDBRANCH  58  81
ENDBRANCH  32  33
ENDBRANCH  24  27
ENDBRANCH  22  23
ENDBRANCH   1  22
TORSDOF 12
ENDMDL
