MODEL 1
REMARK VINA RESULT:     -11.1      0.000      0.000
REMARK SMILES COC(=O)CCS(=O)(=O)Nc1ccc(C(=O)NCCCNC(=O)c2ccc(-c3c4nc(c(-c5c(F)c(F)c(F)c(F)c5F)c5ccc([nH]5)c(-c5c(F)c(F)c(F)c(F)c5F)c5nc(c(-c6c(F)c(F)c(F)c(F)c6F)c6ccc3[nH]6)C=C5)C=C4)cc2)cc1
REMARK SMILES IDX 15 1 16 2 17 3 14 5 11 6 12 7 88 8 13 9 87 10 10 11 7 13
REMARK SMILES IDX 8 14 9 15 6 16 5 17 3 18 4 19 2 20 1 21 18 22 19 23 20 24
REMARK SMILES IDX 21 25 22 26 23 28 24 29 25 30 86 31 26 32 85 33 27 34 28 35
REMARK SMILES IDX 29 36 79 37 30 38 84 39 78 40 80 41 31 42 83 43 77 44 76 45
REMARK SMILES IDX 32 47 64 48 44 49 63 50 45 51 48 52 62 53 81 54 46 55 47 56
REMARK SMILES IDX 61 58 82 59 49 60 33 61 34 62 42 63 35 64 36 65 40 66 43 67
REMARK SMILES IDX 37 68 38 69 41 70 39 71 65 72 66 73 74 74 67 75 68 76 72 77
REMARK SMILES IDX 75 78 69 79 70 80 73 81 71 82 50 83 51 84 59 85 52 86 53 87
REMARK SMILES IDX 57 88 60 89 54 90 55 91 58 92 56 93
REMARK H PARENT 17 4 10 12 21 27 80 46 48 57
REMARK Flexibility Score: inf
ROOT
ATOM      1  C   UNL A   1      33.903  29.452  27.119  1.00  0.00     0.251 C 
ATOM      2  O   UNL A   1      34.869  29.460  27.884  1.00  0.00    -0.269 OA
ATOM      3  N   UNL A   1      32.904  30.368  27.363  1.00  0.00    -0.352 N 
ATOM      4  H   UNL A   1      33.071  30.904  28.172  1.00  0.00     0.163 HD
ENDROOT
BRANCH   1   5
ATOM      5  C   UNL A   1      33.886  28.463  26.006  1.00  0.00     0.039 A 
ATOM      6  C   UNL A   1      33.647  26.569  23.890  1.00  0.00     0.049 A 
ATOM      7  C   UNL A   1      33.522  26.168  25.223  1.00  0.00     0.027 A 
ATOM      8  C   UNL A   1      33.988  27.885  23.662  1.00  0.00     0.027 A 
ATOM      9  C   UNL A   1      33.688  27.097  26.274  1.00  0.00     0.016 A 
ATOM     10  C   UNL A   1      33.995  28.827  24.680  1.00  0.00     0.016 A 
BRANCH   6  11
ATOM     11  N   UNL A   1      32.972  25.816  22.885  1.00  0.00    -0.284 N 
ATOM     12  H   UNL A   1      33.535  25.185  22.381  1.00  0.00     0.180 HD
BRANCH  11  13
ATOM     13  S   UNL A   1      31.374  25.851  22.444  1.00  0.00     0.233 S 
ATOM     14  O   UNL A   1      30.827  24.599  22.932  1.00  0.00    -0.207 OA
ATOM     15  O   UNL A   1      31.331  26.150  21.030  1.00  0.00    -0.207 OA
BRANCH  13  16
ATOM     16  C   UNL A   1      30.477  27.162  23.267  1.00  0.00     0.171 C 
BRANCH  16  17
ATOM     17  C   UNL A   1      30.466  28.549  22.642  1.00  0.00     0.141 C 
BRANCH  17  18
ATOM     18  C   UNL A   1      29.134  29.205  22.375  1.00  0.00     0.306 C 
ATOM     19  O   UNL A   1      28.155  29.052  23.097  1.00  0.00    -0.252 OA
BRANCH  18  20
ATOM     20  O   UNL A   1      29.160  29.945  21.241  1.00  0.00    -0.469 OA
ATOM     21  C   UNL A   1      28.085  30.880  21.100  1.00  0.00     0.282 C 
ENDBRANCH  18  20
ENDBRANCH  17  18
ENDBRANCH  16  17
ENDBRANCH  13  16
ENDBRANCH  11  13
ENDBRANCH   6  11
ENDBRANCH   1   5
BRANCH   3  22
ATOM     22  C   UNL A   1      31.657  30.727  26.701  1.00  0.00     0.118 C 
BRANCH  22  23
ATOM     23  C   UNL A   1      31.365  32.230  26.799  1.00  0.00     0.042 C 
BRANCH  23  24
ATOM     24  C   UNL A   1      32.650  33.037  26.962  1.00  0.00     0.118 C 
BRANCH  24  25
ATOM     25  N   UNL A   1      32.398  34.314  27.621  1.00  0.00    -0.352 N 
ATOM     26  C   UNL A   1      33.001  34.877  28.715  1.00  0.00     0.251 C 
ATOM     27  H   UNL A   1      31.683  34.857  27.216  1.00  0.00     0.163 HD
ATOM     28  O   UNL A   1      32.531  35.897  29.211  1.00  0.00    -0.269 OA
BRANCH  26  29
ATOM     29  C   UNL A   1      34.196  34.251  29.314  1.00  0.00     0.039 A 
ATOM     30  C   UNL A   1      35.456  34.619  28.835  1.00  0.00     0.014 A 
ATOM     31  C   UNL A   1      34.079  33.290  30.320  1.00  0.00     0.014 A 
ATOM     32  C   UNL A   1      36.604  34.061  29.401  1.00  0.00     0.010 A 
ATOM     33  C   UNL A   1      35.223  32.788  30.932  1.00  0.00     0.010 A 
ATOM     34  C   UNL A   1      36.495  33.163  30.473  1.00  0.00    -0.014 A 
BRANCH  34  35
ATOM     35  C   UNL A   1      37.693  32.581  31.127  1.00  0.00     0.031 A 
ATOM     36  C   UNL A   1      38.429  31.455  30.460  1.00  0.00     0.074 A 
ATOM     37  C   UNL A   1      38.058  33.004  32.352  1.00  0.00     0.049 A 
ATOM     38  N   UNL A   1      39.401  30.709  30.923  1.00  0.00    -0.248 NA
ATOM     39  C   UNL A   1      37.994  31.098  29.100  1.00  0.00     0.031 C 
ATOM     40  C   UNL A   1      37.402  34.071  33.109  1.00  0.00     0.029 A 
ATOM     41  N   UNL A   1      39.057  32.569  33.186  1.00  0.00    -0.354 N 
ATOM     42  C   UNL A   1      39.673  29.784  29.923  1.00  0.00     0.074 A 
ATOM     43  C   UNL A   1      38.734  30.028  28.851  1.00  0.00     0.031 C 
ATOM     44  C   UNL A   1      38.022  34.215  34.291  1.00  0.00     0.029 A 
ATOM     45  C   UNL A   1      39.085  33.220  34.396  1.00  0.00     0.049 A 
ATOM     46  H   UNL A   1      39.693  31.860  32.941  1.00  0.00     0.167 HD
ATOM     47  C   UNL A   1      40.635  28.831  29.898  1.00  0.00     0.037 A 
ATOM     48  C   UNL A   1      39.866  33.019  35.474  1.00  0.00     0.037 A 
ATOM     49  C   UNL A   1      41.581  28.614  30.959  1.00  0.00     0.049 A 
ATOM     50  C   UNL A   1      40.912  31.937  35.430  1.00  0.00     0.074 A 
ATOM     51  C   UNL A   1      42.626  27.709  31.011  1.00  0.00     0.029 A 
ATOM     52  N   UNL A   1      41.593  29.311  32.159  1.00  0.00    -0.354 N 
ATOM     53  N   UNL A   1      41.197  31.102  34.461  1.00  0.00    -0.248 NA
ATOM     54  C   UNL A   1      41.748  31.771  36.627  1.00  0.00     0.031 C 
ATOM     55  C   UNL A   1      43.238  27.822  32.263  1.00  0.00     0.029 A 
ATOM     56  C   UNL A   1      42.616  28.841  32.966  1.00  0.00     0.049 A 
ATOM     57  H   UNL A   1      40.969  30.032  32.401  1.00  0.00     0.167 HD
ATOM     58  C   UNL A   1      42.268  30.342  34.912  1.00  0.00     0.074 A 
ATOM     59  C   UNL A   1      42.584  30.817  36.243  1.00  0.00     0.031 C 
ATOM     60  C   UNL A   1      42.933  29.345  34.279  1.00  0.00     0.037 A 
BRANCH  47  61
ATOM     61  C   UNL A   1      40.707  27.948  28.685  1.00  0.00     0.064 A 
ATOM     62  C   UNL A   1      39.991  26.744  28.603  1.00  0.00     0.173 A 
ATOM     63  C   UNL A   1      41.476  28.328  27.574  1.00  0.00     0.173 A 
ATOM     64  F   UNL A   1      39.249  26.328  29.641  1.00  0.00    -0.203 F 
ATOM     65  C   UNL A   1      40.067  25.939  27.469  1.00  0.00     0.198 A 
ATOM     66  C   UNL A   1      41.523  27.539  26.428  1.00  0.00     0.198 A 
ATOM     67  F   UNL A   1      42.176  29.473  27.594  1.00  0.00    -0.203 F 
ATOM     68  F   UNL A   1      39.418  24.768  27.438  1.00  0.00    -0.200 F 
ATOM     69  C   UNL A   1      40.826  26.341  26.380  1.00  0.00     0.200 A 
ATOM     70  F   UNL A   1      42.243  27.936  25.371  1.00  0.00    -0.200 F 
ATOM     71  F   UNL A   1      40.891  25.568  25.287  1.00  0.00    -0.200 F 
ENDBRANCH  47  61
BRANCH  48  72
ATOM     72  C   UNL A   1      39.699  33.870  36.682  1.00  0.00     0.064 A 
ATOM     73  C   UNL A   1      40.352  35.106  36.786  1.00  0.00     0.173 A 
ATOM     74  C   UNL A   1      38.892  33.468  37.756  1.00  0.00     0.173 A 
ATOM     75  F   UNL A   1      41.149  35.526  35.793  1.00  0.00    -0.203 F 
ATOM     76  C   UNL A   1      40.225  35.895  37.927  1.00  0.00     0.198 A 
ATOM     77  C   UNL A   1      38.740  34.272  38.884  1.00  0.00     0.198 A 
ATOM     78  F   UNL A   1      38.238  32.298  37.705  1.00  0.00    -0.203 F 
ATOM     79  F   UNL A   1      40.900  37.048  38.020  1.00  0.00    -0.200 F 
ATOM     80  C   UNL A   1      39.414  35.480  38.972  1.00  0.00     0.200 A 
ATOM     81  F   UNL A   1      37.942  33.876  39.885  1.00  0.00    -0.200 F 
ATOM     82  F   UNL A   1      39.289  36.241  40.069  1.00  0.00    -0.200 F 
ENDBRANCH  48  72
BRANCH  60  83
ATOM     83  C   UNL A   1      44.111  28.738  34.982  1.00  0.00     0.064 A 
ATOM     84  C   UNL A   1      43.988  27.599  35.789  1.00  0.00     0.173 A 
ATOM     85  C   UNL A   1      45.398  29.266  34.780  1.00  0.00     0.173 A 
ATOM     86  F   UNL A   1      42.779  27.066  36.025  1.00  0.00    -0.203 F 
ATOM     87  C   UNL A   1      45.106  27.018  36.381  1.00  0.00     0.198 A 
ATOM     88  C   UNL A   1      46.516  28.664  35.347  1.00  0.00     0.198 A 
ATOM     89  F   UNL A   1      45.570  30.350  34.010  1.00  0.00    -0.203 F 
ATOM     90  F   UNL A   1      44.961  25.951  37.180  1.00  0.00    -0.200 F 
ATOM     91  C   UNL A   1      46.369  27.544  36.151  1.00  0.00     0.200 A 
ATOM     92  F   UNL A   1      47.737  29.163  35.109  1.00  0.00    -0.200 F 
ATOM     93  F   UNL A   1      47.446  26.971  36.706  1.00  0.00    -0.200 F 
ENDBRANCH  60  83
ENDBRANCH  34  35
ENDBRANCH  26  29
ENDBRANCH  24  25
ENDBRANCH  23  24
ENDBRANCH  22  23
ENDBRANCH   3  22
TORSDOF 16
ENDMDL
MODEL 2
REMARK VINA RESULT:     -11.1      1.868      2.840
REMARK SMILES COC(=O)CCS(=O)(=O)Nc1ccc(C(=O)NCCCNC(=O)c2ccc(-c3c4nc(c(-c5c(F)c(F)c(F)c(F)c5F)c5ccc([nH]5)c(-c5c(F)c(F)c(F)c(F)c5F)c5nc(c(-c6c(F)c(F)c(F)c(F)c6F)c6ccc3[nH]6)C=C5)C=C4)cc2)cc1
REMARK SMILES IDX 15 1 16 2 17 3 14 5 11 6 12 7 88 8 13 9 87 10 10 11 7 13
REMARK SMILES IDX 8 14 9 15 6 16 5 17 3 18 4 19 2 20 1 21 18 22 19 23 20 24
REMARK SMILES IDX 21 25 22 26 23 28 24 29 25 30 86 31 26 32 85 33 27 34 28 35
REMARK SMILES IDX 29 36 79 37 30 38 84 39 78 40 80 41 31 42 83 43 77 44 76 45
REMARK SMILES IDX 32 47 64 48 44 49 63 50 45 51 48 52 62 53 81 54 46 55 47 56
REMARK SMILES IDX 61 58 82 59 49 60 33 61 34 62 42 63 35 64 36 65 40 66 43 67
REMARK SMILES IDX 37 68 38 69 41 70 39 71 65 72 66 73 74 74 67 75 68 76 72 77
REMARK SMILES IDX 75 78 69 79 70 80 73 81 71 82 50 83 51 84 59 85 52 86 53 87
REMARK SMILES IDX 57 88 60 89 54 90 55 91 58 92 56 93
REMARK H PARENT 17 4 10 12 21 27 80 46 48 57
REMARK Flexibility Score: inf
ROOT
ATOM      1  C   UNL A   1      33.684  29.250  26.936  1.00  0.00     0.251 C 
ATOM      2  O   UNL A   1      34.714  29.204  27.612  1.00  0.00    -0.269 OA
ATOM      3  N   UNL A   1      32.878  30.355  27.099  1.00  0.00    -0.352 N 
ATOM      4  H   UNL A   1      33.214  30.970  27.790  1.00  0.00     0.163 HD
ENDROOT
BRANCH   1   5
ATOM      5  C   UNL A   1      33.390  28.120  26.011  1.00  0.00     0.039 A 
ATOM      6  C   UNL A   1      33.020  25.893  24.273  1.00  0.00     0.049 A 
ATOM      7  C   UNL A   1      33.701  27.033  23.836  1.00  0.00     0.027 A 
ATOM      8  C   UNL A   1      32.459  25.943  25.530  1.00  0.00     0.027 A 
ATOM      9  C   UNL A   1      33.843  28.156  24.681  1.00  0.00     0.016 A 
ATOM     10  C   UNL A   1      32.731  26.977  26.414  1.00  0.00     0.016 A 
BRANCH   6  11
ATOM     11  N   UNL A   1      33.341  24.637  23.677  1.00  0.00    -0.284 N 
ATOM     12  H   UNL A   1      32.737  24.347  22.957  1.00  0.00     0.180 HD
BRANCH  11  13
ATOM     13  S   UNL A   1      34.584  23.598  24.024  1.00  0.00     0.233 S 
ATOM     14  O   UNL A   1      35.372  24.284  25.030  1.00  0.00    -0.207 OA
ATOM     15  O   UNL A   1      35.192  23.228  22.765  1.00  0.00    -0.207 OA
BRANCH  13  16
ATOM     16  C   UNL A   1      34.002  22.078  24.770  1.00  0.00     0.171 C 
BRANCH  16  17
ATOM     17  C   UNL A   1      32.769  22.122  25.660  1.00  0.00     0.141 C 
BRANCH  17  18
ATOM     18  C   UNL A   1      32.925  22.605  27.080  1.00  0.00     0.306 C 
ATOM     19  O   UNL A   1      33.966  22.491  27.715  1.00  0.00    -0.252 OA
BRANCH  18  20
ATOM     20  O   UNL A   1      31.776  23.144  27.553  1.00  0.00    -0.469 OA
ATOM     21  C   UNL A   1      30.631  22.973  26.711  1.00  0.00     0.282 C 
ENDBRANCH  18  20
ENDBRANCH  17  18
ENDBRANCH  16  17
ENDBRANCH  13  16
ENDBRANCH  11  13
ENDBRANCH   6  11
ENDBRANCH   1   5
BRANCH   3  22
ATOM     22  C   UNL A   1      31.643  30.823  26.484  1.00  0.00     0.118 C 
BRANCH  22  23
ATOM     23  C   UNL A   1      31.430  32.327  26.694  1.00  0.00     0.042 C 
BRANCH  23  24
ATOM     24  C   UNL A   1      32.706  33.007  27.183  1.00  0.00     0.118 C 
BRANCH  24  25
ATOM     25  N   UNL A   1      32.436  34.350  27.686  1.00  0.00    -0.352 N 
ATOM     26  C   UNL A   1      33.016  35.039  28.719  1.00  0.00     0.251 C 
ATOM     27  H   UNL A   1      31.728  34.839  27.207  1.00  0.00     0.163 HD
ATOM     28  O   UNL A   1      32.533  36.106  29.085  1.00  0.00    -0.269 OA
BRANCH  26  29
ATOM     29  C   UNL A   1      34.201  34.493  29.409  1.00  0.00     0.039 A 
ATOM     30  C   UNL A   1      34.023  33.844  30.635  1.00  0.00     0.014 A 
ATOM     31  C   UNL A   1      35.481  34.640  28.871  1.00  0.00     0.014 A 
ATOM     32  C   UNL A   1      35.123  33.297  31.297  1.00  0.00     0.010 A 
ATOM     33  C   UNL A   1      36.566  34.033  29.494  1.00  0.00     0.010 A 
ATOM     34  C   UNL A   1      36.398  33.363  30.716  1.00  0.00    -0.014 A 
BRANCH  34  35
ATOM     35  C   UNL A   1      37.584  32.757  31.370  1.00  0.00     0.031 A 
ATOM     36  C   UNL A   1      38.298  31.617  30.702  1.00  0.00     0.074 A 
ATOM     37  C   UNL A   1      37.957  33.171  32.596  1.00  0.00     0.049 A 
ATOM     38  N   UNL A   1      39.255  30.851  31.164  1.00  0.00    -0.248 NA
ATOM     39  C   UNL A   1      37.856  31.270  29.342  1.00  0.00     0.031 C 
ATOM     40  C   UNL A   1      37.323  34.250  33.353  1.00  0.00     0.029 A 
ATOM     41  N   UNL A   1      38.947  32.715  33.430  1.00  0.00    -0.354 N 
ATOM     42  C   UNL A   1      39.508  29.922  30.163  1.00  0.00     0.074 A 
ATOM     43  C   UNL A   1      38.574  30.186  29.091  1.00  0.00     0.031 C 
ATOM     44  C   UNL A   1      37.945  34.380  34.536  1.00  0.00     0.029 A 
ATOM     45  C   UNL A   1      38.988  33.364  34.640  1.00  0.00     0.049 A 
ATOM     46  H   UNL A   1      39.569  31.994  33.184  1.00  0.00     0.167 HD
ATOM     47  C   UNL A   1      40.450  28.950  30.138  1.00  0.00     0.037 A 
ATOM     48  C   UNL A   1      39.764  33.147  35.718  1.00  0.00     0.037 A 
ATOM     49  C   UNL A   1      41.392  28.713  31.199  1.00  0.00     0.049 A 
ATOM     50  C   UNL A   1      40.789  32.044  35.673  1.00  0.00     0.074 A 
ATOM     51  C   UNL A   1      42.419  27.787  31.250  1.00  0.00     0.029 A 
ATOM     52  N   UNL A   1      41.418  29.409  32.400  1.00  0.00    -0.354 N 
ATOM     53  N   UNL A   1      41.057  31.204  34.703  1.00  0.00    -0.248 NA
ATOM     54  C   UNL A   1      41.621  31.860  36.870  1.00  0.00     0.031 C 
ATOM     55  C   UNL A   1      43.033  27.886  32.502  1.00  0.00     0.029 A 
ATOM     56  C   UNL A   1      42.431  28.917  33.206  1.00  0.00     0.049 A 
ATOM     57  H   UNL A   1      40.808  30.142  32.642  1.00  0.00     0.167 HD
ATOM     58  C   UNL A   1      42.112  30.423  35.154  1.00  0.00     0.074 A 
ATOM     59  C   UNL A   1      42.438  30.889  36.485  1.00  0.00     0.031 C 
ATOM     60  C   UNL A   1      42.757  29.414  34.519  1.00  0.00     0.037 A 
BRANCH  47  61
ATOM     61  C   UNL A   1      40.506  28.067  28.924  1.00  0.00     0.064 A 
ATOM     62  C   UNL A   1      39.780  26.868  28.848  1.00  0.00     0.173 A 
ATOM     63  C   UNL A   1      41.268  28.442  27.806  1.00  0.00     0.173 A 
ATOM     64  F   UNL A   1      39.044  26.458  29.892  1.00  0.00    -0.203 F 
ATOM     65  C   UNL A   1      39.840  26.063  27.712  1.00  0.00     0.198 A 
ATOM     66  C   UNL A   1      41.298  27.652  26.660  1.00  0.00     0.198 A 
ATOM     67  F   UNL A   1      41.976  29.581  27.820  1.00  0.00    -0.203 F 
ATOM     68  F   UNL A   1      39.181  24.897  27.687  1.00  0.00    -0.200 F 
ATOM     69  C   UNL A   1      40.592  26.460  26.617  1.00  0.00     0.200 A 
ATOM     70  F   UNL A   1      42.013  28.045  25.596  1.00  0.00    -0.200 F 
ATOM     71  F   UNL A   1      40.642  25.688  25.523  1.00  0.00    -0.200 F 
ENDBRANCH  47  61
BRANCH  48  72
ATOM     72  C   UNL A   1      39.614  33.999  36.927  1.00  0.00     0.064 A 
ATOM     73  C   UNL A   1      40.265  35.237  37.018  1.00  0.00     0.173 A 
ATOM     74  C   UNL A   1      38.825  33.597  38.014  1.00  0.00     0.173 A 
ATOM     75  F   UNL A   1      41.045  35.658  36.011  1.00  0.00    -0.203 F 
ATOM     76  C   UNL A   1      40.154  36.028  38.160  1.00  0.00     0.198 A 
ATOM     77  C   UNL A   1      38.689  34.403  39.143  1.00  0.00     0.198 A 
ATOM     78  F   UNL A   1      38.174  32.425  37.976  1.00  0.00    -0.203 F 
ATOM     79  F   UNL A   1      40.827  37.184  38.239  1.00  0.00    -0.200 F 
ATOM     80  C   UNL A   1      39.361  35.613  39.218  1.00  0.00     0.200 A 
ATOM     81  F   UNL A   1      37.909  34.006  40.157  1.00  0.00    -0.200 F 
ATOM     82  F   UNL A   1      39.251  36.376  40.315  1.00  0.00    -0.200 F 
ENDBRANCH  48  72
BRANCH  60  83
ATOM     83  C   UNL A   1      43.924  28.783  35.222  1.00  0.00     0.064 A 
ATOM     84  C   UNL A   1      45.234  29.252  35.055  1.00  0.00     0.173 A 
ATOM     85  C   UNL A   1      43.711  27.738  36.137  1.00  0.00     0.173 A 
ATOM     86  F   UNL A   1      45.491  30.238  34.182  1.00  0.00    -0.203 F 
ATOM     87  C   UNL A   1      46.291  28.690  35.766  1.00  0.00     0.198 A 
ATOM     88  C   UNL A   1      44.764  27.201  36.869  1.00  0.00     0.198 A 
ATOM     89  F   UNL A   1      42.474  27.258  36.338  1.00  0.00    -0.203 F 
ATOM     90  F   UNL A   1      47.541  29.129  35.564  1.00  0.00    -0.200 F 
ATOM     91  C   UNL A   1      46.054  27.673  36.680  1.00  0.00     0.200 A 
ATOM     92  F   UNL A   1      44.530  26.230  37.764  1.00  0.00    -0.200 F 
ATOM     93  F   UNL A   1      47.070  27.147  37.377  1.00  0.00    -0.200 F 
ENDBRANCH  60  83
ENDBRANCH  34  35
ENDBRANCH  26  29
ENDBRANCH  24  25
ENDBRANCH  23  24
ENDBRANCH  22  23
ENDBRANCH   3  22
TORSDOF 16
ENDMDL
MODEL 3
REMARK VINA RESULT:     -11.0      3.144      4.715
REMARK SMILES COC(=O)CCS(=O)(=O)Nc1ccc(C(=O)NCCCNC(=O)c2ccc(-c3c4nc(c(-c5c(F)c(F)c(F)c(F)c5F)c5ccc([nH]5)c(-c5c(F)c(F)c(F)c(F)c5F)c5nc(c(-c6c(F)c(F)c(F)c(F)c6F)c6ccc3[nH]6)C=C5)C=C4)cc2)cc1
REMARK SMILES IDX 15 1 16 2 17 3 14 5 11 6 12 7 88 8 13 9 87 10 10 11 7 13
REMARK SMILES IDX 8 14 9 15 6 16 5 17 3 18 4 19 2 20 1 21 18 22 19 23 20 24
REMARK SMILES IDX 21 25 22 26 23 28 24 29 25 30 86 31 26 32 85 33 27 34 28 35
REMARK SMILES IDX 29 36 79 37 30 38 84 39 78 40 80 41 31 42 83 43 77 44 76 45
REMARK SMILES IDX 32 47 64 48 44 49 63 50 45 51 48 52 62 53 81 54 46 55 47 56
REMARK SMILES IDX 61 58 82 59 49 60 33 61 34 62 42 63 35 64 36 65 40 66 43 67
REMARK SMILES IDX 37 68 38 69 41 70 39 71 65 72 66 73 74 74 67 75 68 76 72 77
REMARK SMILES IDX 75 78 69 79 70 80 73 81 71 82 50 83 51 84 59 85 52 86 53 87
REMARK SMILES IDX 57 88 60 89 54 90 55 91 58 92 56 93
REMARK H PARENT 17 4 10 12 21 27 80 46 48 57
REMARK Flexibility Score: inf
ROOT
ATOM      1  C   UNL A   1      31.113  27.125  23.004  1.00  0.00     0.251 C 
ATOM      2  O   UNL A   1      30.670  27.587  21.951  1.00  0.00    -0.269 OA
ATOM      3  N   UNL A   1      31.155  27.971  24.089  1.00  0.00    -0.352 N 
ATOM      4  H   UNL A   1      30.856  28.883  23.871  1.00  0.00     0.163 HD
ENDROOT
BRANCH   1   5
ATOM      5  C   UNL A   1      31.570  25.707  23.021  1.00  0.00     0.039 A 
ATOM      6  C   UNL A   1      32.544  23.038  23.231  1.00  0.00     0.049 A 
ATOM      7  C   UNL A   1      33.369  24.063  22.760  1.00  0.00     0.027 A 
ATOM      8  C   UNL A   1      31.229  23.361  23.486  1.00  0.00     0.027 A 
ATOM      9  C   UNL A   1      32.873  25.377  22.610  1.00  0.00     0.016 A 
ATOM     10  C   UNL A   1      30.785  24.675  23.491  1.00  0.00     0.016 A 
BRANCH   6  11
ATOM     11  N   UNL A   1      33.148  21.918  23.874  1.00  0.00    -0.284 N 
ATOM     12  H   UNL A   1      34.033  22.086  24.272  1.00  0.00     0.180 HD
BRANCH  11  13
ATOM     13  S   UNL A   1      32.574  20.373  24.050  1.00  0.00     0.233 S 
ATOM     14  O   UNL A   1      32.021  20.032  22.752  1.00  0.00    -0.207 OA
ATOM     15  O   UNL A   1      31.721  20.367  25.218  1.00  0.00    -0.207 OA
BRANCH  13  16
ATOM     16  C   UNL A   1      33.886  19.200  24.376  1.00  0.00     0.171 C 
BRANCH  16  17
ATOM     17  C   UNL A   1      33.519  17.778  24.773  1.00  0.00     0.141 C 
BRANCH  17  18
ATOM     18  C   UNL A   1      33.887  16.654  23.837  1.00  0.00     0.306 C 
ATOM     19  O   UNL A   1      34.055  16.813  22.634  1.00  0.00    -0.252 OA
BRANCH  18  20
ATOM     20  O   UNL A   1      33.977  15.471  24.489  1.00  0.00    -0.469 OA
ATOM     21  C   UNL A   1      32.854  15.145  25.316  1.00  0.00     0.282 C 
ENDBRANCH  18  20
ENDBRANCH  17  18
ENDBRANCH  16  17
ENDBRANCH  13  16
ENDBRANCH  11  13
ENDBRANCH   6  11
ENDBRANCH   1   5
BRANCH   3  22
ATOM     22  C   UNL A   1      31.540  27.828  25.487  1.00  0.00     0.118 C 
BRANCH  22  23
ATOM     23  C   UNL A   1      33.052  27.623  25.649  1.00  0.00     0.042 C 
BRANCH  23  24
ATOM     24  C   UNL A   1      33.826  28.891  25.301  1.00  0.00     0.118 C 
BRANCH  24  25
ATOM     25  N   UNL A   1      33.121  30.086  25.750  1.00  0.00    -0.352 N 
ATOM     26  C   UNL A   1      33.367  30.907  26.820  1.00  0.00     0.251 C 
ATOM     27  H   UNL A   1      32.348  30.346  25.198  1.00  0.00     0.163 HD
ATOM     28  O   UNL A   1      32.555  31.777  27.119  1.00  0.00    -0.269 OA
BRANCH  26  29
ATOM     29  C   UNL A   1      34.590  30.733  27.628  1.00  0.00     0.039 A 
ATOM     30  C   UNL A   1      34.749  29.550  28.356  1.00  0.00     0.014 A 
ATOM     31  C   UNL A   1      35.560  31.735  27.693  1.00  0.00     0.014 A 
ATOM     32  C   UNL A   1      35.907  29.349  29.110  1.00  0.00     0.010 A 
ATOM     33  C   UNL A   1      36.745  31.505  28.385  1.00  0.00     0.010 A 
ATOM     34  C   UNL A   1      36.926  30.314  29.106  1.00  0.00    -0.014 A 
BRANCH  34  35
ATOM     35  C   UNL A   1      38.188  30.117  29.860  1.00  0.00     0.031 A 
ATOM     36  C   UNL A   1      39.257  29.226  29.299  1.00  0.00     0.074 A 
ATOM     37  C   UNL A   1      38.328  30.665  31.082  1.00  0.00     0.049 A 
ATOM     38  N   UNL A   1      40.363  28.801  29.857  1.00  0.00    -0.248 NA
ATOM     39  C   UNL A   1      39.040  28.716  27.935  1.00  0.00     0.031 C 
ATOM     40  C   UNL A   1      37.346  31.527  31.742  1.00  0.00     0.029 A 
ATOM     41  N   UNL A   1      39.346  30.559  31.997  1.00  0.00    -0.354 N 
ATOM     42  C   UNL A   1      40.956  27.960  28.925  1.00  0.00     0.074 A 
ATOM     43  C   UNL A   1      40.067  27.892  27.787  1.00  0.00     0.031 C 
ATOM     44  C   UNL A   1      37.813  31.878  32.951  1.00  0.00     0.029 A 
ATOM     45  C   UNL A   1      39.102  31.229  33.171  1.00  0.00     0.049 A 
ATOM     46  H   UNL A   1      40.172  30.052  31.828  1.00  0.00     0.167 HD
ATOM     47  C   UNL A   1      42.145  27.318  29.008  1.00  0.00     0.037 A 
ATOM     48  C   UNL A   1      39.827  31.294  34.303  1.00  0.00     0.037 A 
ATOM     49  C   UNL A   1      43.035  27.413  30.134  1.00  0.00     0.049 A 
ATOM     50  C   UNL A   1      41.135  30.552  34.379  1.00  0.00     0.074 A 
ATOM     51  C   UNL A   1      44.285  26.844  30.296  1.00  0.00     0.029 A 
ATOM     52  N   UNL A   1      42.763  28.124  31.296  1.00  0.00    -0.354 N 
ATOM     53  N   UNL A   1      41.713  29.801  33.473  1.00  0.00    -0.248 NA
ATOM     54  C   UNL A   1      41.894  30.669  35.631  1.00  0.00     0.031 C 
ATOM     55  C   UNL A   1      44.748  27.166  31.575  1.00  0.00     0.029 A 
ATOM     56  C   UNL A   1      43.815  27.989  32.186  1.00  0.00     0.049 A 
ATOM     57  H   UNL A   1      41.945  28.645  31.461  1.00  0.00     0.167 HD
ATOM     58  C   UNL A   1      42.918  29.392  34.027  1.00  0.00     0.074 A 
ATOM     59  C   UNL A   1      42.990  29.979  35.349  1.00  0.00     0.031 C 
ATOM     60  C   UNL A   1      43.881  28.604  33.488  1.00  0.00     0.037 A 
BRANCH  47  61
ATOM     61  C   UNL A   1      42.552  26.453  27.849  1.00  0.00     0.064 A 
ATOM     62  C   UNL A   1      42.065  25.146  27.696  1.00  0.00     0.173 A 
ATOM     63  C   UNL A   1      43.411  26.951  26.857  1.00  0.00     0.173 A 
ATOM     64  F   UNL A   1      41.249  24.617  28.620  1.00  0.00    -0.203 F 
ATOM     65  C   UNL A   1      42.449  24.359  26.612  1.00  0.00     0.198 A 
ATOM     66  C   UNL A   1      43.766  26.175  25.758  1.00  0.00     0.198 A 
ATOM     67  F   UNL A   1      43.901  28.197  26.948  1.00  0.00    -0.203 F 
ATOM     68  F   UNL A   1      42.015  23.095  26.519  1.00  0.00    -0.200 F 
ATOM     69  C   UNL A   1      43.292  24.877  25.641  1.00  0.00     0.200 A 
ATOM     70  F   UNL A   1      44.568  26.682  24.811  1.00  0.00    -0.200 F 
ATOM     71  F   UNL A   1      43.654  24.121  24.596  1.00  0.00    -0.200 F 
ENDBRANCH  47  61
BRANCH  48  72
ATOM     72  C   UNL A   1      39.340  32.101  35.454  1.00  0.00     0.064 A 
ATOM     73  C   UNL A   1      39.689  33.452  35.582  1.00  0.00     0.173 A 
ATOM     74  C   UNL A   1      38.523  31.542  36.448  1.00  0.00     0.173 A 
ATOM     75  F   UNL A   1      40.483  34.027  34.666  1.00  0.00    -0.203 F 
ATOM     76  C   UNL A   1      39.263  34.207  36.672  1.00  0.00     0.198 A 
ATOM     77  C   UNL A   1      38.071  32.306  37.522  1.00  0.00     0.198 A 
ATOM     78  F   UNL A   1      38.153  30.255  36.370  1.00  0.00    -0.203 F 
ATOM     79  F   UNL A   1      39.653  35.483  36.795  1.00  0.00    -0.200 F 
ATOM     80  C   UNL A   1      38.448  33.635  37.638  1.00  0.00     0.200 A 
ATOM     81  F   UNL A   1      37.271  31.754  38.444  1.00  0.00    -0.200 F 
ATOM     82  F   UNL A   1      38.035  34.362  38.685  1.00  0.00    -0.200 F 
ENDBRANCH  48  72
BRANCH  60  83
ATOM     83  C   UNL A   1      45.128  28.380  34.292  1.00  0.00     0.064 A 
ATOM     84  C   UNL A   1      45.258  27.298  35.174  1.00  0.00     0.173 A 
ATOM     85  C   UNL A   1      46.238  29.223  34.116  1.00  0.00     0.173 A 
ATOM     86  F   UNL A   1      44.221  26.473  35.387  1.00  0.00    -0.203 F 
ATOM     87  C   UNL A   1      46.448  27.076  35.862  1.00  0.00     0.198 A 
ATOM     88  C   UNL A   1      47.435  28.979  34.781  1.00  0.00     0.198 A 
ATOM     89  F   UNL A   1      46.167  30.267  33.278  1.00  0.00    -0.203 F 
ATOM     90  F   UNL A   1      46.538  26.057  36.729  1.00  0.00    -0.200 F 
ATOM     91  C   UNL A   1      47.538  27.909  35.657  1.00  0.00     0.200 A 
ATOM     92  F   UNL A   1      48.492  29.775  34.568  1.00  0.00    -0.200 F 
ATOM     93  F   UNL A   1      48.688  27.681  36.306  1.00  0.00    -0.200 F 
ENDBRANCH  60  83
ENDBRANCH  34  35
ENDBRANCH  26  29
ENDBRANCH  24  25
ENDBRANCH  23  24
ENDBRANCH  22  23
ENDBRANCH   3  22
TORSDOF 16
ENDMDL
