MODEL 1
REMARK VINA RESULT:     -12.4      0.000      0.000
REMARK SMILES COC[C@@H](C)Nc1cnn(-c2ccccc2C(=O)NCCCNC(=O)c2ccc(-c3c4nc(c(-c5c(F)c(F)c(F)c(F)c5F)c5ccc([nH]5)c(-c5c(F)c(F)c(F)c(F)c5F)c5nc(c(-c6c(F)c(F)c(F)c(F)c6F)c6ccc3[nH]6)C=C5)C=C4)cc2)c(=O)c1Cl
REMARK SMILES IDX 17 1 18 2 19 3 16 5 11 6 12 7 13 8 15 9 14 10 10 11 7 12
REMARK SMILES IDX 8 13 91 14 9 15 89 16 92 17 90 18 6 19 4 21 5 22 3 23 2 24
REMARK SMILES IDX 1 25 20 26 21 27 22 28 23 29 24 30 25 32 26 33 27 34 88 35
REMARK SMILES IDX 28 36 87 37 29 38 30 39 31 40 81 41 32 42 86 43 80 44 82 45
REMARK SMILES IDX 33 46 85 47 79 48 78 49 34 51 66 52 46 53 65 54 47 55 50 56
REMARK SMILES IDX 64 57 83 58 48 59 49 60 63 62 84 63 51 64 35 65 36 66 44 67
REMARK SMILES IDX 37 68 38 69 42 70 45 71 39 72 40 73 43 74 41 75 67 76 68 77
REMARK SMILES IDX 76 78 69 79 70 80 74 81 77 82 71 83 72 84 75 85 73 86 52 87
REMARK SMILES IDX 53 88 61 89 54 90 55 91 59 92 62 93 56 94 57 95 60 96 58 97
REMARK H PARENT 19 4 6 20 23 31 82 50 50 61
REMARK Flexibility Score: inf
ROOT
ATOM      1  C   UNL A   1      32.487  29.290  24.446  1.00  0.00     0.253 C 
ATOM      2  O   UNL A   1      33.419  29.145  23.653  1.00  0.00    -0.269 OA
ATOM      3  N   UNL A   1      32.781  29.769  25.699  1.00  0.00    -0.352 N 
ATOM      4  H   UNL A   1      33.741  29.828  25.910  1.00  0.00     0.163 HD
ENDROOT
BRANCH   1   5
ATOM      5  C   UNL A   1      31.145  28.775  24.081  1.00  0.00     0.065 A 
ATOM      6  C   UNL A   1      30.734  27.428  24.015  1.00  0.00     0.081 A 
ATOM      7  C   UNL A   1      29.435  27.161  23.534  1.00  0.00     0.029 A 
ATOM      8  C   UNL A   1      28.569  28.184  23.135  1.00  0.00     0.002 A 
ATOM      9  C   UNL A   1      30.255  29.799  23.683  1.00  0.00     0.016 A 
ATOM     10  C   UNL A   1      28.980  29.506  23.208  1.00  0.00     0.001 A 
BRANCH   6  11
ATOM     11  N   UNL A   1      31.573  26.317  24.345  1.00  0.00    -0.195 N 
ATOM     12  C   UNL A   1      33.054  23.929  24.823  1.00  0.00     0.079 A 
ATOM     13  C   UNL A   1      33.079  24.795  23.595  1.00  0.00     0.161 A 
ATOM     14  C   UNL A   1      32.226  24.424  25.761  1.00  0.00     0.132 A 
ATOM     15  N   UNL A   1      32.367  25.846  23.338  1.00  0.00    -0.171 NA
ATOM     16  C   UNL A   1      31.539  25.752  25.623  1.00  0.00     0.292 A 
ATOM     17  Cl  UNL A   1      31.797  23.575  27.214  1.00  0.00    -0.076 Cl
ATOM     18  O   UNL A   1      30.902  26.213  26.573  1.00  0.00    -0.266 OA
BRANCH  12  19
ATOM     19  N   UNL A   1      33.817  22.754  24.756  1.00  0.00    -0.378 N 
ATOM     20  H   UNL A   1      34.744  22.835  25.076  1.00  0.00     0.161 HD
BRANCH  19  21
ATOM     21  C   UNL A   1      33.426  21.416  24.274  1.00  0.00     0.102 C 
ATOM     22  C   UNL A   1      32.224  21.483  23.328  1.00  0.00     0.033 C 
BRANCH  21  23
ATOM     23  C   UNL A   1      33.104  20.464  25.473  1.00  0.00     0.184 C 
BRANCH  23  24
ATOM     24  O   UNL A   1      32.212  19.393  25.163  1.00  0.00    -0.383 OA
ATOM     25  C   UNL A   1      32.678  18.084  25.433  1.00  0.00     0.194 C 
ENDBRANCH  23  24
ENDBRANCH  21  23
ENDBRANCH  19  21
ENDBRANCH  12  19
ENDBRANCH   6  11
ENDBRANCH   1   5
BRANCH   3  26
ATOM     26  C   UNL A   1      31.892  30.199  26.753  1.00  0.00     0.118 C 
BRANCH  26  27
ATOM     27  C   UNL A   1      31.611  31.690  26.827  1.00  0.00     0.042 C 
BRANCH  27  28
ATOM     28  C   UNL A   1      32.823  32.547  27.156  1.00  0.00     0.118 C 
BRANCH  28  29
ATOM     29  N   UNL A   1      32.494  33.862  27.684  1.00  0.00    -0.352 N 
ATOM     30  C   UNL A   1      33.095  34.638  28.638  1.00  0.00     0.251 C 
ATOM     31  H   UNL A   1      31.692  34.267  27.284  1.00  0.00     0.163 HD
ATOM     32  O   UNL A   1      32.527  35.668  28.999  1.00  0.00    -0.269 OA
BRANCH  30  33
ATOM     33  C   UNL A   1      34.348  34.213  29.307  1.00  0.00     0.039 A 
ATOM     34  C   UNL A   1      35.612  34.644  28.931  1.00  0.00     0.014 A 
ATOM     35  C   UNL A   1      34.235  33.332  30.382  1.00  0.00     0.014 A 
ATOM     36  C   UNL A   1      36.738  34.038  29.484  1.00  0.00     0.010 A 
ATOM     37  C   UNL A   1      35.349  32.790  31.009  1.00  0.00     0.010 A 
ATOM     38  C   UNL A   1      36.615  33.097  30.522  1.00  0.00    -0.014 A 
BRANCH  38  39
ATOM     39  C   UNL A   1      37.821  32.533  31.161  1.00  0.00     0.031 A 
ATOM     40  C   UNL A   1      38.255  32.961  32.531  1.00  0.00     0.074 A 
ATOM     41  C   UNL A   1      38.524  31.631  30.453  1.00  0.00     0.049 A 
ATOM     42  N   UNL A   1      39.209  32.468  33.280  1.00  0.00    -0.248 NA
ATOM     43  C   UNL A   1      37.570  34.118  33.131  1.00  0.00     0.031 C 
ATOM     44  C   UNL A   1      38.248  31.269  29.060  1.00  0.00     0.029 A 
ATOM     45  N   UNL A   1      39.578  30.833  30.803  1.00  0.00    -0.354 N 
ATOM     46  C   UNL A   1      39.245  33.256  34.423  1.00  0.00     0.074 A 
ATOM     47  C   UNL A   1      38.261  34.299  34.248  1.00  0.00     0.031 C 
ATOM     48  C   UNL A   1      39.044  30.253  28.705  1.00  0.00     0.029 A 
ATOM     49  C   UNL A   1      39.902  29.916  29.834  1.00  0.00     0.049 A 
ATOM     50  H   UNL A   1      40.056  30.910  31.660  1.00  0.00     0.167 HD
ATOM     51  C   UNL A   1      40.018  33.094  35.523  1.00  0.00     0.037 A 
ATOM     52  C   UNL A   1      40.765  28.886  29.876  1.00  0.00     0.037 A 
ATOM     53  C   UNL A   1      40.957  32.011  35.675  1.00  0.00     0.049 A 
ATOM     54  C   UNL A   1      41.512  28.646  31.154  1.00  0.00     0.074 A 
ATOM     55  C   UNL A   1      41.734  31.682  36.770  1.00  0.00     0.029 A 
ATOM     56  N   UNL A   1      41.235  31.070  34.690  1.00  0.00    -0.354 N 
ATOM     57  N   UNL A   1      41.469  29.332  32.271  1.00  0.00    -0.248 NA
ATOM     58  C   UNL A   1      42.413  27.490  31.186  1.00  0.00     0.031 C 
ATOM     59  C   UNL A   1      42.503  30.563  36.437  1.00  0.00     0.029 A 
ATOM     60  C   UNL A   1      42.177  30.166  35.150  1.00  0.00     0.049 A 
ATOM     61  H   UNL A   1      40.823  31.051  33.796  1.00  0.00     0.167 HD
ATOM     62  C   UNL A   1      42.337  28.696  33.142  1.00  0.00     0.074 A 
ATOM     63  C   UNL A   1      42.862  27.543  32.433  1.00  0.00     0.031 C 
ATOM     64  C   UNL A   1      42.684  29.039  34.407  1.00  0.00     0.037 A 
BRANCH  51  65
ATOM     65  C   UNL A   1      39.863  34.070  36.659  1.00  0.00     0.064 A 
ATOM     66  C   UNL A   1      39.014  33.805  37.745  1.00  0.00     0.173 A 
ATOM     67  C   UNL A   1      40.627  35.247  36.705  1.00  0.00     0.173 A 
ATOM     68  F   UNL A   1      38.258  32.697  37.755  1.00  0.00    -0.203 F 
ATOM     69  C   UNL A   1      38.921  34.685  38.820  1.00  0.00     0.198 A 
ATOM     70  C   UNL A   1      40.555  36.111  37.797  1.00  0.00     0.198 A 
ATOM     71  F   UNL A   1      41.464  35.552  35.701  1.00  0.00    -0.203 F 
ATOM     72  F   UNL A   1      38.077  34.424  39.828  1.00  0.00    -0.200 F 
ATOM     73  C   UNL A   1      39.699  35.832  38.851  1.00  0.00     0.200 A 
ATOM     74  F   UNL A   1      41.322  37.210  37.833  1.00  0.00    -0.200 F 
ATOM     75  F   UNL A   1      39.623  36.668  39.896  1.00  0.00    -0.200 F 
ENDBRANCH  51  65
BRANCH  52  76
ATOM     76  C   UNL A   1      40.854  27.971  28.710  1.00  0.00     0.064 A 
ATOM     77  C   UNL A   1      39.987  26.876  28.596  1.00  0.00     0.173 A 
ATOM     78  C   UNL A   1      41.725  28.227  27.640  1.00  0.00     0.173 A 
ATOM     79  F   UNL A   1      39.136  26.590  29.593  1.00  0.00    -0.203 F 
ATOM     80  C   UNL A   1      39.989  26.071  27.459  1.00  0.00     0.198 A 
ATOM     81  C   UNL A   1      41.705  27.440  26.492  1.00  0.00     0.198 A 
ATOM     82  F   UNL A   1      42.556  29.278  27.689  1.00  0.00    -0.203 F 
ATOM     83  F   UNL A   1      39.157  25.023  27.382  1.00  0.00    -0.200 F 
ATOM     84  C   UNL A   1      40.839  26.361  26.403  1.00  0.00     0.200 A 
ATOM     85  F   UNL A   1      42.507  27.740  25.462  1.00  0.00    -0.200 F 
ATOM     86  F   UNL A   1      40.817  25.604  25.297  1.00  0.00    -0.200 F 
ENDBRANCH  52  76
BRANCH  64  87
ATOM     87  C   UNL A   1      43.692  28.167  35.089  1.00  0.00     0.064 A 
ATOM     88  C   UNL A   1      43.292  27.071  35.865  1.00  0.00     0.173 A 
ATOM     89  C   UNL A   1      45.065  28.392  34.915  1.00  0.00     0.173 A 
ATOM     90  F   UNL A   1      41.989  26.827  36.069  1.00  0.00    -0.203 F 
ATOM     91  C   UNL A   1      44.233  26.240  36.462  1.00  0.00     0.198 A 
ATOM     92  C   UNL A   1      46.004  27.541  35.490  1.00  0.00     0.198 A 
ATOM     93  F   UNL A   1      45.494  29.424  34.173  1.00  0.00    -0.203 F 
ATOM     94  F   UNL A   1      43.831  25.221  37.233  1.00  0.00    -0.200 F 
ATOM     95  C   UNL A   1      45.587  26.470  36.267  1.00  0.00     0.200 A 
ATOM     96  F   UNL A   1      47.311  27.755  35.289  1.00  0.00    -0.200 F 
ATOM     97  F   UNL A   1      46.493  25.659  36.832  1.00  0.00    -0.200 F 
ENDBRANCH  64  87
ENDBRANCH  38  39
ENDBRANCH  30  33
ENDBRANCH  28  29
ENDBRANCH  27  28
ENDBRANCH  26  27
ENDBRANCH   3  26
TORSDOF 15
ENDMDL
MODEL 2
REMARK VINA RESULT:     -12.0      2.888      4.743
REMARK SMILES COC[C@@H](C)Nc1cnn(-c2ccccc2C(=O)NCCCNC(=O)c2ccc(-c3c4nc(c(-c5c(F)c(F)c(F)c(F)c5F)c5ccc([nH]5)c(-c5c(F)c(F)c(F)c(F)c5F)c5nc(c(-c6c(F)c(F)c(F)c(F)c6F)c6ccc3[nH]6)C=C5)C=C4)cc2)c(=O)c1Cl
REMARK SMILES IDX 17 1 18 2 19 3 16 5 11 6 12 7 13 8 15 9 14 10 10 11 7 12
REMARK SMILES IDX 8 13 91 14 9 15 89 16 92 17 90 18 6 19 4 21 5 22 3 23 2 24
REMARK SMILES IDX 1 25 20 26 21 27 22 28 23 29 24 30 25 32 26 33 27 34 88 35
REMARK SMILES IDX 28 36 87 37 29 38 30 39 31 40 81 41 32 42 86 43 80 44 82 45
REMARK SMILES IDX 33 46 85 47 79 48 78 49 34 51 66 52 46 53 65 54 47 55 50 56
REMARK SMILES IDX 64 57 83 58 48 59 49 60 63 62 84 63 51 64 35 65 36 66 44 67
REMARK SMILES IDX 37 68 38 69 42 70 45 71 39 72 40 73 43 74 41 75 67 76 68 77
REMARK SMILES IDX 76 78 69 79 70 80 74 81 77 82 71 83 72 84 75 85 73 86 52 87
REMARK SMILES IDX 53 88 61 89 54 90 55 91 59 92 62 93 56 94 57 95 60 96 58 97
REMARK H PARENT 19 4 6 20 23 31 82 50 50 61
REMARK Flexibility Score: inf
ROOT
ATOM      1  C   UNL A   1      33.972  24.387  23.584  1.00  0.00     0.253 C 
ATOM      2  O   UNL A   1      34.546  24.027  22.555  1.00  0.00    -0.269 OA
ATOM      3  N   UNL A   1      33.967  25.728  23.878  1.00  0.00    -0.352 N 
ATOM      4  H   UNL A   1      34.547  26.284  23.310  1.00  0.00     0.163 HD
ENDROOT
BRANCH   1   5
ATOM      5  C   UNL A   1      33.483  23.358  24.534  1.00  0.00     0.065 A 
ATOM      6  C   UNL A   1      34.258  22.473  25.310  1.00  0.00     0.081 A 
ATOM      7  C   UNL A   1      33.577  21.495  26.065  1.00  0.00     0.029 A 
ATOM      8  C   UNL A   1      32.183  21.393  26.060  1.00  0.00     0.002 A 
ATOM      9  C   UNL A   1      32.073  23.249  24.546  1.00  0.00     0.016 A 
ATOM     10  C   UNL A   1      31.428  22.271  25.297  1.00  0.00     0.001 A 
BRANCH   6  11
ATOM     11  N   UNL A   1      35.689  22.466  25.329  1.00  0.00    -0.195 N 
ATOM     12  C   UNL A   1      38.517  22.248  25.606  1.00  0.00     0.079 A 
ATOM     13  C   UNL A   1      37.579  21.267  24.959  1.00  0.00     0.161 A 
ATOM     14  C   UNL A   1      37.863  23.332  26.060  1.00  0.00     0.132 A 
ATOM     15  N   UNL A   1      36.287  21.322  24.882  1.00  0.00    -0.171 NA
ATOM     16  C   UNL A   1      36.402  23.568  25.807  1.00  0.00     0.292 A 
ATOM     17  Cl  UNL A   1      38.599  24.564  27.038  1.00  0.00    -0.076 Cl
ATOM     18  O   UNL A   1      35.890  24.643  26.130  1.00  0.00    -0.266 OA
BRANCH  12  19
ATOM     19  N   UNL A   1      39.858  21.846  25.687  1.00  0.00    -0.378 N 
ATOM     20  H   UNL A   1      40.466  22.271  25.040  1.00  0.00     0.161 HD
BRANCH  19  21
ATOM     21  C   UNL A   1      40.486  20.875  26.604  1.00  0.00     0.102 C 
ATOM     22  C   UNL A   1      40.825  21.510  27.955  1.00  0.00     0.033 C 
BRANCH  21  23
ATOM     23  C   UNL A   1      41.777  20.262  25.967  1.00  0.00     0.184 C 
BRANCH  23  24
ATOM     24  O   UNL A   1      41.751  18.844  25.812  1.00  0.00    -0.383 OA
ATOM     25  C   UNL A   1      42.788  18.119  26.446  1.00  0.00     0.194 C 
ENDBRANCH  23  24
ENDBRANCH  21  23
ENDBRANCH  19  21
ENDBRANCH  12  19
ENDBRANCH   6  11
ENDBRANCH   1   5
BRANCH   3  26
ATOM     26  C   UNL A   1      33.237  26.445  24.898  1.00  0.00     0.118 C 
BRANCH  26  27
ATOM     27  C   UNL A   1      32.713  27.816  24.509  1.00  0.00     0.042 C 
BRANCH  27  28
ATOM     28  C   UNL A   1      33.637  28.972  24.863  1.00  0.00     0.118 C 
BRANCH  28  29
ATOM     29  N   UNL A   1      32.999  30.027  25.633  1.00  0.00    -0.352 N 
ATOM     30  C   UNL A   1      33.391  30.698  26.761  1.00  0.00     0.251 C 
ATOM     31  H   UNL A   1      32.125  30.310  25.281  1.00  0.00     0.163 HD
ATOM     32  O   UNL A   1      32.590  31.464  27.295  1.00  0.00    -0.269 OA
BRANCH  30  33
ATOM     33  C   UNL A   1      34.705  30.442  27.397  1.00  0.00     0.039 A 
ATOM     34  C   UNL A   1      35.166  29.179  27.743  1.00  0.00     0.014 A 
ATOM     35  C   UNL A   1      35.522  31.543  27.650  1.00  0.00     0.014 A 
ATOM     36  C   UNL A   1      36.319  29.055  28.515  1.00  0.00     0.010 A 
ATOM     37  C   UNL A   1      36.724  31.424  28.336  1.00  0.00     0.010 A 
ATOM     38  C   UNL A   1      37.103  30.180  28.826  1.00  0.00    -0.014 A 
BRANCH  38  39
ATOM     39  C   UNL A   1      38.371  30.020  29.566  1.00  0.00     0.031 A 
ATOM     40  C   UNL A   1      38.531  30.531  30.968  1.00  0.00     0.074 A 
ATOM     41  C   UNL A   1      39.383  29.414  28.922  1.00  0.00     0.049 A 
ATOM     42  N   UNL A   1      39.530  30.353  31.795  1.00  0.00    -0.248 NA
ATOM     43  C   UNL A   1      37.461  31.388  31.505  1.00  0.00     0.031 C 
ATOM     44  C   UNL A   1      39.353  29.018  27.511  1.00  0.00     0.029 A 
ATOM     45  N   UNL A   1      40.607  28.991  29.361  1.00  0.00    -0.354 N 
ATOM     46  C   UNL A   1      39.216  31.081  32.936  1.00  0.00     0.074 A 
ATOM     47  C   UNL A   1      37.963  31.753  32.676  1.00  0.00     0.031 C 
ATOM     48  C   UNL A   1      40.461  28.324  27.226  1.00  0.00     0.029 A 
ATOM     49  C   UNL A   1      41.288  28.253  28.425  1.00  0.00     0.049 A 
ATOM     50  H   UNL A   1      40.964  29.196  30.255  1.00  0.00     0.167 HD
ATOM     51  C   UNL A   1      39.908  31.149  34.098  1.00  0.00     0.037 A 
ATOM     52  C   UNL A   1      42.433  27.557  28.541  1.00  0.00     0.037 A 
ATOM     53  C   UNL A   1      41.132  30.425  34.330  1.00  0.00     0.049 A 
ATOM     54  C   UNL A   1      43.112  27.539  29.878  1.00  0.00     0.074 A 
ATOM     55  C   UNL A   1      41.882  30.336  35.488  1.00  0.00     0.029 A 
ATOM     56  N   UNL A   1      41.779  29.651  33.374  1.00  0.00    -0.354 N 
ATOM     57  N   UNL A   1      42.758  28.145  30.986  1.00  0.00    -0.248 NA
ATOM     58  C   UNL A   1      44.333  26.736  29.988  1.00  0.00     0.031 C 
ATOM     59  C   UNL A   1      42.998  29.535  35.223  1.00  0.00     0.029 A 
ATOM     60  C   UNL A   1      42.923  29.087  33.913  1.00  0.00     0.049 A 
ATOM     61  H   UNL A   1      41.469  29.522  32.448  1.00  0.00     0.167 HD
ATOM     62  C   UNL A   1      43.713  27.802  31.929  1.00  0.00     0.074 A 
ATOM     63  C   UNL A   1      44.639  26.900  31.268  1.00  0.00     0.031 C 
ATOM     64  C   UNL A   1      43.826  28.206  33.218  1.00  0.00     0.037 A 
BRANCH  51  65
ATOM     65  C   UNL A   1      39.353  31.992  35.214  1.00  0.00     0.064 A 
ATOM     66  C   UNL A   1      39.582  33.376  35.275  1.00  0.00     0.173 A 
ATOM     67  C   UNL A   1      38.516  31.431  36.193  1.00  0.00     0.173 A 
ATOM     68  F   UNL A   1      40.375  33.968  34.369  1.00  0.00    -0.203 F 
ATOM     69  C   UNL A   1      39.016  34.159  36.278  1.00  0.00     0.198 A 
ATOM     70  C   UNL A   1      37.926  32.221  37.177  1.00  0.00     0.198 A 
ATOM     71  F   UNL A   1      38.251  30.115  36.183  1.00  0.00    -0.203 F 
ATOM     72  F   UNL A   1      39.281  35.471  36.332  1.00  0.00    -0.200 F 
ATOM     73  C   UNL A   1      38.180  33.583  37.222  1.00  0.00     0.200 A 
ATOM     74  F   UNL A   1      37.103  31.666  38.078  1.00  0.00    -0.200 F 
ATOM     75  F   UNL A   1      37.619  34.342  38.175  1.00  0.00    -0.200 F 
ENDBRANCH  51  65
BRANCH  52  76
ATOM     76  C   UNL A   1      42.908  26.751  27.389  1.00  0.00     0.064 A 
ATOM     77  C   UNL A   1      43.831  27.284  26.478  1.00  0.00     0.173 A 
ATOM     78  C   UNL A   1      42.540  25.406  27.232  1.00  0.00     0.173 A 
ATOM     79  F   UNL A   1      44.214  28.564  26.586  1.00  0.00    -0.203 F 
ATOM     80  C   UNL A   1      44.365  26.504  25.455  1.00  0.00     0.198 A 
ATOM     81  C   UNL A   1      43.097  24.619  26.227  1.00  0.00     0.198 A 
ATOM     82  F   UNL A   1      41.681  24.841  28.093  1.00  0.00    -0.203 F 
ATOM     83  F   UNL A   1      45.236  27.043  24.591  1.00  0.00    -0.200 F 
ATOM     84  C   UNL A   1      44.008  25.169  25.337  1.00  0.00     0.200 A 
ATOM     85  F   UNL A   1      42.771  23.323  26.134  1.00  0.00    -0.200 F 
ATOM     86  F   UNL A   1      44.546  24.413  24.371  1.00  0.00    -0.200 F 
ENDBRANCH  52  76
BRANCH  64  87
ATOM     87  C   UNL A   1      45.004  27.689  33.984  1.00  0.00     0.064 A 
ATOM     88  C   UNL A   1      46.221  28.384  33.994  1.00  0.00     0.173 A 
ATOM     89  C   UNL A   1      44.898  26.527  34.762  1.00  0.00     0.173 A 
ATOM     90  F   UNL A   1      46.371  29.493  33.253  1.00  0.00    -0.203 F 
ATOM     91  C   UNL A   1      47.299  27.923  34.741  1.00  0.00     0.198 A 
ATOM     92  C   UNL A   1      45.969  26.085  35.531  1.00  0.00     0.198 A 
ATOM     93  F   UNL A   1      43.749  25.835  34.791  1.00  0.00    -0.203 F 
ATOM     94  F   UNL A   1      48.467  28.580  34.704  1.00  0.00    -0.200 F 
ATOM     95  C   UNL A   1      47.169  26.780  35.515  1.00  0.00     0.200 A 
ATOM     96  F   UNL A   1      45.839  24.989  36.291  1.00  0.00    -0.200 F 
ATOM     97  F   UNL A   1      48.206  26.344  36.245  1.00  0.00    -0.200 F 
ENDBRANCH  64  87
ENDBRANCH  38  39
ENDBRANCH  30  33
ENDBRANCH  28  29
ENDBRANCH  27  28
ENDBRANCH  26  27
ENDBRANCH   3  26
TORSDOF 15
ENDMDL
MODEL 3
REMARK VINA RESULT:     -11.6      7.518     15.732
REMARK SMILES COC[C@@H](C)Nc1cnn(-c2ccccc2C(=O)NCCCNC(=O)c2ccc(-c3c4nc(c(-c5c(F)c(F)c(F)c(F)c5F)c5ccc([nH]5)c(-c5c(F)c(F)c(F)c(F)c5F)c5nc(c(-c6c(F)c(F)c(F)c(F)c6F)c6ccc3[nH]6)C=C5)C=C4)cc2)c(=O)c1Cl
REMARK SMILES IDX 17 1 18 2 19 3 16 5 11 6 12 7 13 8 15 9 14 10 10 11 7 12
REMARK SMILES IDX 8 13 91 14 9 15 89 16 92 17 90 18 6 19 4 21 5 22 3 23 2 24
REMARK SMILES IDX 1 25 20 26 21 27 22 28 23 29 24 30 25 32 26 33 27 34 88 35
REMARK SMILES IDX 28 36 87 37 29 38 30 39 31 40 81 41 32 42 86 43 80 44 82 45
REMARK SMILES IDX 33 46 85 47 79 48 78 49 34 51 66 52 46 53 65 54 47 55 50 56
REMARK SMILES IDX 64 57 83 58 48 59 49 60 63 62 84 63 51 64 35 65 36 66 44 67
REMARK SMILES IDX 37 68 38 69 42 70 45 71 39 72 40 73 43 74 41 75 67 76 68 77
REMARK SMILES IDX 76 78 69 79 70 80 74 81 77 82 71 83 72 84 75 85 73 86 52 87
REMARK SMILES IDX 53 88 61 89 54 90 55 91 59 92 62 93 56 94 57 95 60 96 58 97
REMARK H PARENT 19 4 6 20 23 31 82 50 50 61
REMARK Flexibility Score: inf
ROOT
ATOM      1  C   UNL A   1      46.666  21.144  39.373  1.00  0.00     0.253 C 
ATOM      2  O   UNL A   1      46.226  21.702  40.379  1.00  0.00    -0.269 OA
ATOM      3  N   UNL A   1      45.963  21.286  38.202  1.00  0.00    -0.352 N 
ATOM      4  H   UNL A   1      45.081  21.713  38.292  1.00  0.00     0.163 HD
ENDROOT
BRANCH   1   5
ATOM      5  C   UNL A   1      47.811  20.211  39.511  1.00  0.00     0.065 A 
ATOM      6  C   UNL A   1      47.790  18.902  40.032  1.00  0.00     0.081 A 
ATOM      7  C   UNL A   1      49.023  18.232  40.173  1.00  0.00     0.029 A 
ATOM      8  C   UNL A   1      50.235  18.827  39.810  1.00  0.00     0.002 A 
ATOM      9  C   UNL A   1      49.043  20.797  39.139  1.00  0.00     0.016 A 
ATOM     10  C   UNL A   1      50.246  20.114  39.293  1.00  0.00     0.001 A 
BRANCH   6  11
ATOM     11  N   UNL A   1      46.606  18.238  40.485  1.00  0.00    -0.195 N 
ATOM     12  C   UNL A   1      44.091  17.090  41.178  1.00  0.00     0.079 A 
ATOM     13  C   UNL A   1      44.938  16.788  39.973  1.00  0.00     0.161 A 
ATOM     14  C   UNL A   1      44.674  18.002  41.976  1.00  0.00     0.132 A 
ATOM     15  N   UNL A   1      46.050  17.346  39.612  1.00  0.00    -0.171 NA
ATOM     16  C   UNL A   1      46.061  18.526  41.739  1.00  0.00     0.292 A 
ATOM     17  Cl  UNL A   1      43.887  18.734  43.341  1.00  0.00    -0.076 Cl
ATOM     18  O   UNL A   1      46.591  19.257  42.579  1.00  0.00    -0.266 OA
BRANCH  12  19
ATOM     19  N   UNL A   1      42.847  16.444  41.226  1.00  0.00    -0.378 N 
ATOM     20  H   UNL A   1      42.066  17.020  41.065  1.00  0.00     0.161 HD
BRANCH  19  21
ATOM     21  C   UNL A   1      42.545  15.023  41.486  1.00  0.00     0.102 C 
ATOM     22  C   UNL A   1      41.602  14.442  40.429  1.00  0.00     0.033 C 
BRANCH  21  23
ATOM     23  C   UNL A   1      41.924  14.838  42.910  1.00  0.00     0.184 C 
BRANCH  23  24
ATOM     24  O   UNL A   1      41.480  13.512  43.200  1.00  0.00    -0.383 OA
ATOM     25  C   UNL A   1      42.421  12.649  43.810  1.00  0.00     0.194 C 
ENDBRANCH  23  24
ENDBRANCH  21  23
ENDBRANCH  19  21
ENDBRANCH  12  19
ENDBRANCH   6  11
ENDBRANCH   1   5
BRANCH   3  26
ATOM     26  C   UNL A   1      46.326  20.903  36.857  1.00  0.00     0.118 C 
BRANCH  26  27
ATOM     27  C   UNL A   1      45.718  21.729  35.737  1.00  0.00     0.042 C 
BRANCH  27  28
ATOM     28  C   UNL A   1      46.435  23.041  35.457  1.00  0.00     0.118 C 
BRANCH  28  29
ATOM     29  N   UNL A   1      46.739  23.817  36.649  1.00  0.00    -0.352 N 
ATOM     30  C   UNL A   1      46.321  25.053  37.064  1.00  0.00     0.251 C 
ATOM     31  H   UNL A   1      47.359  23.374  37.270  1.00  0.00     0.163 HD
ATOM     32  O   UNL A   1      46.843  25.543  38.065  1.00  0.00    -0.269 OA
BRANCH  30  33
ATOM     33  C   UNL A   1      45.340  25.842  36.282  1.00  0.00     0.039 A 
ATOM     34  C   UNL A   1      44.001  25.503  36.149  1.00  0.00     0.014 A 
ATOM     35  C   UNL A   1      45.801  26.998  35.651  1.00  0.00     0.014 A 
ATOM     36  C   UNL A   1      43.204  26.188  35.235  1.00  0.00     0.010 A 
ATOM     37  C   UNL A   1      44.991  27.749  34.809  1.00  0.00     0.010 A 
ATOM     38  C   UNL A   1      43.698  27.312  34.549  1.00  0.00    -0.014 A 
BRANCH  38  39
ATOM     39  C   UNL A   1      42.813  28.084  33.653  1.00  0.00     0.031 A 
ATOM     40  C   UNL A   1      42.711  27.770  32.190  1.00  0.00     0.074 A 
ATOM     41  C   UNL A   1      42.115  29.094  34.202  1.00  0.00     0.049 A 
ATOM     42  N   UNL A   1      41.887  28.264  31.301  1.00  0.00    -0.248 NA
ATOM     43  C   UNL A   1      43.682  26.813  31.632  1.00  0.00     0.031 C 
ATOM     44  C   UNL A   1      42.267  29.553  35.586  1.00  0.00     0.029 A 
ATOM     45  N   UNL A   1      41.124  29.887  33.694  1.00  0.00    -0.354 N 
ATOM     46  C   UNL A   1      42.246  27.692  30.087  1.00  0.00     0.074 A 
ATOM     47  C   UNL A   1      43.400  26.860  30.336  1.00  0.00     0.031 C 
ATOM     48  C   UNL A   1      41.335  30.478  35.845  1.00  0.00     0.029 A 
ATOM     49  C   UNL A   1      40.543  30.694  34.640  1.00  0.00     0.049 A 
ATOM     50  H   UNL A   1      40.856  29.881  32.747  1.00  0.00     0.167 HD
ATOM     51  C   UNL A   1      41.638  27.838  28.885  1.00  0.00     0.037 A 
ATOM     52  C   UNL A   1      39.460  31.485  34.552  1.00  0.00     0.037 A 
ATOM     53  C   UNL A   1      40.460  28.644  28.690  1.00  0.00     0.049 A 
ATOM     54  C   UNL A   1      38.725  31.526  33.245  1.00  0.00     0.074 A 
ATOM     55  C   UNL A   1      39.697  28.805  27.548  1.00  0.00     0.029 A 
ATOM     56  N   UNL A   1      39.868  29.421  29.680  1.00  0.00    -0.354 N 
ATOM     57  N   UNL A   1      39.005  30.904  32.125  1.00  0.00    -0.248 NA
ATOM     58  C   UNL A   1      37.521  32.362  33.190  1.00  0.00     0.031 C 
ATOM     59  C   UNL A   1      38.664  29.702  27.838  1.00  0.00     0.029 A 
ATOM     60  C   UNL A   1      38.755  30.069  29.172  1.00  0.00     0.049 A 
ATOM     61  H   UNL A   1      40.193  29.499  30.606  1.00  0.00     0.167 HD
ATOM     62  C   UNL A   1      38.018  31.272  31.227  1.00  0.00     0.074 A 
ATOM     63  C   UNL A   1      37.107  32.142  31.949  1.00  0.00     0.031 C 
ATOM     64  C   UNL A   1      37.882  30.937  29.921  1.00  0.00     0.037 A 
BRANCH  51  65
ATOM     65  C   UNL A   1      42.199  27.093  27.704  1.00  0.00     0.064 A 
ATOM     66  C   UNL A   1      43.161  27.669  26.860  1.00  0.00     0.173 A 
ATOM     67  C   UNL A   1      41.832  25.760  27.454  1.00  0.00     0.173 A 
ATOM     68  F   UNL A   1      43.549  28.939  27.047  1.00  0.00    -0.203 F 
ATOM     69  C   UNL A   1      43.718  26.951  25.804  1.00  0.00     0.198 A 
ATOM     70  C   UNL A   1      42.414  25.034  26.416  1.00  0.00     0.198 A 
ATOM     71  F   UNL A   1      40.924  25.150  28.231  1.00  0.00    -0.203 F 
ATOM     72  F   UNL A   1      44.610  27.538  24.993  1.00  0.00    -0.200 F 
ATOM     73  C   UNL A   1      43.353  25.631  25.589  1.00  0.00     0.200 A 
ATOM     74  F   UNL A   1      42.073  23.752  26.222  1.00  0.00    -0.200 F 
ATOM     75  F   UNL A   1      43.905  24.935  24.585  1.00  0.00    -0.200 F 
ENDBRANCH  51  65
BRANCH  52  76
ATOM     76  C   UNL A   1      38.974  32.184  35.768  1.00  0.00     0.064 A 
ATOM     77  C   UNL A   1      38.211  31.501  36.725  1.00  0.00     0.173 A 
ATOM     78  C   UNL A   1      39.348  33.506  36.054  1.00  0.00     0.173 A 
ATOM     79  F   UNL A   1      37.830  30.236  36.498  1.00  0.00    -0.203 F 
ATOM     80  C   UNL A   1      37.839  32.114  37.920  1.00  0.00     0.198 A 
ATOM     81  C   UNL A   1      39.000  34.107  37.261  1.00  0.00     0.198 A 
ATOM     82  F   UNL A   1      40.100  34.194  35.183  1.00  0.00    -0.203 F 
ATOM     83  F   UNL A   1      37.098  31.442  38.812  1.00  0.00    -0.200 F 
ATOM     84  C   UNL A   1      38.243  33.412  38.192  1.00  0.00     0.200 A 
ATOM     85  F   UNL A   1      39.417  35.351  37.533  1.00  0.00    -0.200 F 
ATOM     86  F   UNL A   1      37.910  33.989  39.355  1.00  0.00    -0.200 F 
ENDBRANCH  52  76
BRANCH  64  87
ATOM     87  C   UNL A   1      36.718  31.533  29.190  1.00  0.00     0.064 A 
ATOM     88  C   UNL A   1      35.595  30.760  28.867  1.00  0.00     0.173 A 
ATOM     89  C   UNL A   1      36.700  32.898  28.867  1.00  0.00     0.173 A 
ATOM     90  F   UNL A   1      35.575  29.448  29.146  1.00  0.00    -0.203 F 
ATOM     91  C   UNL A   1      34.500  31.328  28.227  1.00  0.00     0.198 A 
ATOM     92  C   UNL A   1      35.590  33.468  28.252  1.00  0.00     0.198 A 
ATOM     93  F   UNL A   1      37.749  33.678  29.165  1.00  0.00    -0.203 F 
ATOM     94  F   UNL A   1      33.452  30.563  27.890  1.00  0.00    -0.200 F 
ATOM     95  C   UNL A   1      34.494  32.682  27.928  1.00  0.00     0.200 A 
ATOM     96  F   UNL A   1      35.580  34.780  27.977  1.00  0.00    -0.200 F 
ATOM     97  F   UNL A   1      33.432  33.230  27.322  1.00  0.00    -0.200 F 
ENDBRANCH  64  87
ENDBRANCH  38  39
ENDBRANCH  30  33
ENDBRANCH  28  29
ENDBRANCH  27  28
ENDBRANCH  26  27
ENDBRANCH   3  26
TORSDOF 15
ENDMDL
