MODEL 1
REMARK VINA RESULT:     -12.0      0.000      0.000
REMARK SMILES C[C@@H]1C[C@@H](C)CN(C(=O)C[C@@H](C)CC(=O)NCCCNC(=O)c2ccc(-c3c4nc(c(-c5c(F)c(F)c(F)c(F)c5F)c5ccc([nH]5)c(-c5c(F)c(F)c(F)c(F)c5F)c5nc(c(-c6c(F)c(F)c(F)c(F)c6F)c6ccc3[nH]6)C=C5)C=C4)cc2)C1
REMARK SMILES IDX 17 1 16 2 14 3 15 4 13 6 11 7 12 8 10 9 8 10 1 11 2 12 3 13
REMARK SMILES IDX 86 14 4 15 7 16 6 17 5 18 9 19 18 20 19 21 20 22 21 23 22 25
REMARK SMILES IDX 23 26 24 27 85 28 25 29 84 30 26 31 27 32 28 33 78 34 29 35
REMARK SMILES IDX 83 36 77 37 79 38 30 39 82 40 76 41 75 42 31 44 63 45 43 46
REMARK SMILES IDX 62 47 44 48 47 49 61 50 80 51 45 52 46 53 60 55 81 56 48 57
REMARK SMILES IDX 32 58 33 59 41 60 34 61 35 62 39 63 42 64 36 65 37 66 40 67
REMARK SMILES IDX 38 68 64 69 65 70 73 71 66 72 67 73 71 74 74 75 68 76 69 77
REMARK SMILES IDX 72 78 70 79 49 80 50 81 58 82 51 83 52 84 56 85 59 86 53 87
REMARK SMILES IDX 54 88 57 89 55 90
REMARK H PARENT 16 5 20 24 79 43 47 54
REMARK Flexibility Score: inf
ROOT
ATOM      1  C   UNL A   1      31.400  30.429  26.071  1.00  0.00     0.117 C 
ENDROOT
BRANCH   1   2
ATOM      2  N   UNL A   1      31.058  30.252  24.668  1.00  0.00    -0.356 N 
ATOM      3  C   UNL A   1      31.008  29.139  23.887  1.00  0.00     0.220 C 
ATOM      4  O   UNL A   1      30.744  29.286  22.692  1.00  0.00    -0.275 OA
ATOM      5  H   UNL A   1      30.821  31.085  24.201  1.00  0.00     0.163 HD
BRANCH   3   6
ATOM      6  C   UNL A   1      31.254  27.755  24.458  1.00  0.00     0.103 C 
BRANCH   6   7
ATOM      7  C   UNL A   1      31.797  26.759  23.410  1.00  0.00     0.004 C 
ATOM      8  C   UNL A   1      30.759  25.669  23.148  1.00  0.00     0.009 C 
BRANCH   7   9
ATOM      9  C   UNL A   1      33.107  26.156  23.919  1.00  0.00     0.104 C 
BRANCH   9  10
ATOM     10  C   UNL A   1      33.454  24.754  23.468  1.00  0.00     0.222 C 
ATOM     11  C   UNL A   1      32.151  21.671  22.559  1.00  0.00     0.009 C 
ATOM     12  C   UNL A   1      32.862  21.429  23.894  1.00  0.00     0.006 C 
ATOM     13  C   UNL A   1      31.883  21.465  25.091  1.00  0.00     0.010 C 
ATOM     14  C   UNL A   1      33.999  22.442  24.095  1.00  0.00     0.122 C 
ATOM     15  C   UNL A   1      31.439  22.894  25.447  1.00  0.00     0.006 C 
ATOM     16  N   UNL A   1      33.465  23.759  24.429  1.00  0.00    -0.342 N 
ATOM     17  C   UNL A   1      32.669  23.785  25.649  1.00  0.00     0.122 C 
ATOM     18  C   UNL A   1      30.534  22.954  26.670  1.00  0.00     0.009 C 
ATOM     19  O   UNL A   1      33.814  24.561  22.305  1.00  0.00    -0.275 OA
ENDBRANCH   9  10
ENDBRANCH   7   9
ENDBRANCH   6   7
ENDBRANCH   3   6
ENDBRANCH   1   2
BRANCH   1  20
ATOM     20  C   UNL A   1      31.287  31.894  26.501  1.00  0.00     0.042 C 
BRANCH  20  21
ATOM     21  C   UNL A   1      32.608  32.537  26.875  1.00  0.00     0.118 C 
BRANCH  21  22
ATOM     22  N   UNL A   1      32.438  33.893  27.356  1.00  0.00    -0.352 N 
ATOM     23  C   UNL A   1      33.034  34.519  28.420  1.00  0.00     0.251 C 
ATOM     24  H   UNL A   1      31.803  34.445  26.844  1.00  0.00     0.163 HD
ATOM     25  O   UNL A   1      32.587  35.606  28.802  1.00  0.00    -0.269 OA
BRANCH  23  26
ATOM     26  C   UNL A   1      34.193  33.919  29.123  1.00  0.00     0.039 A 
ATOM     27  C   UNL A   1      35.478  34.361  28.794  1.00  0.00     0.014 A 
ATOM     28  C   UNL A   1      34.041  32.882  30.048  1.00  0.00     0.014 A 
ATOM     29  C   UNL A   1      36.597  33.773  29.391  1.00  0.00     0.010 A 
ATOM     30  C   UNL A   1      35.148  32.369  30.720  1.00  0.00     0.010 A 
ATOM     31  C   UNL A   1      36.441  32.775  30.365  1.00  0.00    -0.014 A 
BRANCH  31  32
ATOM     32  C   UNL A   1      37.616  32.066  30.937  1.00  0.00     0.031 A 
ATOM     33  C   UNL A   1      38.087  32.413  32.328  1.00  0.00     0.074 A 
ATOM     34  C   UNL A   1      38.268  31.133  30.217  1.00  0.00     0.049 A 
ATOM     35  N   UNL A   1      39.122  31.964  32.994  1.00  0.00    -0.248 NA
ATOM     36  C   UNL A   1      37.305  33.426  33.058  1.00  0.00     0.031 C 
ATOM     37  C   UNL A   1      37.936  30.731  28.850  1.00  0.00     0.029 A 
ATOM     38  N   UNL A   1      39.353  30.355  30.538  1.00  0.00    -0.354 N 
ATOM     39  C   UNL A   1      39.120  32.647  34.203  1.00  0.00     0.074 A 
ATOM     40  C   UNL A   1      38.025  33.589  34.158  1.00  0.00     0.031 C 
ATOM     41  C   UNL A   1      38.781  29.762  28.460  1.00  0.00     0.029 A 
ATOM     42  C   UNL A   1      39.734  29.499  29.534  1.00  0.00     0.049 A 
ATOM     43  H   UNL A   1      39.814  30.405  31.406  1.00  0.00     0.167 HD
ATOM     44  C   UNL A   1      39.934  32.484  35.272  1.00  0.00     0.037 A 
ATOM     45  C   UNL A   1      40.740  28.604  29.490  1.00  0.00     0.037 A 
ATOM     46  C   UNL A   1      41.000  31.520  35.335  1.00  0.00     0.049 A 
ATOM     47  C   UNL A   1      41.624  28.435  30.699  1.00  0.00     0.074 A 
ATOM     48  C   UNL A   1      41.872  31.262  36.376  1.00  0.00     0.029 A 
ATOM     49  N   UNL A   1      41.323  30.642  34.311  1.00  0.00    -0.354 N 
ATOM     50  N   UNL A   1      41.585  29.060  31.850  1.00  0.00    -0.248 NA
ATOM     51  C   UNL A   1      42.684  27.421  30.606  1.00  0.00     0.031 C 
ATOM     52  C   UNL A   1      42.741  30.241  35.975  1.00  0.00     0.029 A 
ATOM     53  C   UNL A   1      42.380  29.836  34.700  1.00  0.00     0.049 A 
ATOM     54  H   UNL A   1      40.870  30.599  33.438  1.00  0.00     0.167 HD
ATOM     55  C   UNL A   1      42.581  28.488  32.630  1.00  0.00     0.074 A 
ATOM     56  C   UNL A   1      43.199  27.456  31.825  1.00  0.00     0.031 C 
ATOM     57  C   UNL A   1      42.954  28.789  33.897  1.00  0.00     0.037 A 
BRANCH  44  58
ATOM     58  C   UNL A   1      39.686  33.349  36.474  1.00  0.00     0.064 A 
ATOM     59  C   UNL A   1      40.315  34.595  36.619  1.00  0.00     0.173 A 
ATOM     60  C   UNL A   1      38.780  32.952  37.469  1.00  0.00     0.173 A 
ATOM     61  F   UNL A   1      41.202  35.013  35.702  1.00  0.00    -0.203 F 
ATOM     62  C   UNL A   1      40.064  35.401  37.724  1.00  0.00     0.198 A 
ATOM     63  C   UNL A   1      38.508  33.776  38.558  1.00  0.00     0.198 A 
ATOM     64  F   UNL A   1      38.148  31.773  37.377  1.00  0.00    -0.203 F 
ATOM     65  F   UNL A   1      40.710  36.567  37.862  1.00  0.00    -0.200 F 
ATOM     66  C   UNL A   1      39.154  34.995  38.689  1.00  0.00     0.200 A 
ATOM     67  F   UNL A   1      37.619  33.389  39.484  1.00  0.00    -0.200 F 
ATOM     68  F   UNL A   1      38.903  35.779  39.747  1.00  0.00    -0.200 F 
ENDBRANCH  44  58
BRANCH  45  69
ATOM     69  C   UNL A   1      40.956  27.771  28.277  1.00  0.00     0.064 A 
ATOM     70  C   UNL A   1      40.363  26.505  28.159  1.00  0.00     0.173 A 
ATOM     71  C   UNL A   1      41.790  28.199  27.235  1.00  0.00     0.173 A 
ATOM     72  F   UNL A   1      39.573  26.042  29.139  1.00  0.00    -0.203 F 
ATOM     73  C   UNL A   1      40.630  25.684  27.065  1.00  0.00     0.198 A 
ATOM     74  C   UNL A   1      42.030  27.390  26.126  1.00  0.00     0.198 A 
ATOM     75  F   UNL A   1      42.377  29.403  27.295  1.00  0.00    -0.203 F 
ATOM     76  F   UNL A   1      40.103  24.453  27.010  1.00  0.00    -0.200 F 
ATOM     77  C   UNL A   1      41.461  26.127  26.048  1.00  0.00     0.200 A 
ATOM     78  F   UNL A   1      42.824  27.828  25.138  1.00  0.00    -0.200 F 
ATOM     79  F   UNL A   1      41.723  25.335  25.000  1.00  0.00    -0.200 F 
ENDBRANCH  45  69
BRANCH  57  80
ATOM     80  C   UNL A   1      44.029  27.946  34.517  1.00  0.00     0.064 A 
ATOM     81  C   UNL A   1      45.384  28.299  34.439  1.00  0.00     0.173 A 
ATOM     82  C   UNL A   1      43.690  26.782  35.226  1.00  0.00     0.173 A 
ATOM     83  F   UNL A   1      45.758  29.394  33.762  1.00  0.00    -0.203 F 
ATOM     84  C   UNL A   1      46.364  27.498  35.018  1.00  0.00     0.198 A 
ATOM     85  C   UNL A   1      44.671  26.001  35.830  1.00  0.00     0.198 A 
ATOM     86  F   UNL A   1      42.407  26.407  35.338  1.00  0.00    -0.203 F 
ATOM     87  F   UNL A   1      47.657  27.823  34.884  1.00  0.00    -0.200 F 
ATOM     88  C   UNL A   1      46.007  26.354  35.717  1.00  0.00     0.200 A 
ATOM     89  F   UNL A   1      44.323  24.905  36.517  1.00  0.00    -0.200 F 
ATOM     90  F   UNL A   1      46.953  25.586  36.275  1.00  0.00    -0.200 F 
ENDBRANCH  57  80
ENDBRANCH  31  32
ENDBRANCH  23  26
ENDBRANCH  21  22
ENDBRANCH  20  21
ENDBRANCH   1  20
TORSDOF 13
ENDMDL
MODEL 2
REMARK VINA RESULT:     -11.9      0.849      7.572
REMARK SMILES C[C@@H]1C[C@@H](C)CN(C(=O)C[C@@H](C)CC(=O)NCCCNC(=O)c2ccc(-c3c4nc(c(-c5c(F)c(F)c(F)c(F)c5F)c5ccc([nH]5)c(-c5c(F)c(F)c(F)c(F)c5F)c5nc(c(-c6c(F)c(F)c(F)c(F)c6F)c6ccc3[nH]6)C=C5)C=C4)cc2)C1
REMARK SMILES IDX 17 1 16 2 14 3 15 4 13 6 11 7 12 8 10 9 8 10 1 11 2 12 3 13
REMARK SMILES IDX 86 14 4 15 7 16 6 17 5 18 9 19 18 20 19 21 20 22 21 23 22 25
REMARK SMILES IDX 23 26 24 27 85 28 25 29 84 30 26 31 27 32 28 33 78 34 29 35
REMARK SMILES IDX 83 36 77 37 79 38 30 39 82 40 76 41 75 42 31 44 63 45 43 46
REMARK SMILES IDX 62 47 44 48 47 49 61 50 80 51 45 52 46 53 60 55 81 56 48 57
REMARK SMILES IDX 32 58 33 59 41 60 34 61 35 62 39 63 42 64 36 65 37 66 40 67
REMARK SMILES IDX 38 68 64 69 65 70 73 71 66 72 67 73 71 74 74 75 68 76 69 77
REMARK SMILES IDX 72 78 70 79 49 80 50 81 58 82 51 83 52 84 56 85 59 86 53 87
REMARK SMILES IDX 54 88 57 89 55 90
REMARK H PARENT 16 5 20 24 79 43 47 54
REMARK Flexibility Score: inf
ROOT
ATOM      1  C   UNL A   1      31.582  30.657  26.048  1.00  0.00     0.117 C 
ENDROOT
BRANCH   1   2
ATOM      2  N   UNL A   1      31.018  30.432  24.726  1.00  0.00    -0.356 N 
ATOM      3  C   UNL A   1      30.874  29.297  23.989  1.00  0.00     0.220 C 
ATOM      4  O   UNL A   1      30.411  29.405  22.852  1.00  0.00    -0.275 OA
ATOM      5  H   UNL A   1      30.681  31.245  24.287  1.00  0.00     0.163 HD
BRANCH   3   6
ATOM      6  C   UNL A   1      31.253  27.937  24.543  1.00  0.00     0.103 C 
BRANCH   6   7
ATOM      7  C   UNL A   1      31.891  27.012  23.483  1.00  0.00     0.004 C 
ATOM      8  C   UNL A   1      30.918  25.889  23.126  1.00  0.00     0.009 C 
BRANCH   7   9
ATOM      9  C   UNL A   1      33.202  26.447  24.029  1.00  0.00     0.104 C 
BRANCH   9  10
ATOM     10  C   UNL A   1      33.625  25.073  23.554  1.00  0.00     0.222 C 
ATOM     11  C   UNL A   1      32.487  21.963  22.524  1.00  0.00     0.009 C 
ATOM     12  C   UNL A   1      33.166  21.716  23.875  1.00  0.00     0.006 C 
ATOM     13  C   UNL A   1      32.149  21.677  25.040  1.00  0.00     0.010 C 
ATOM     14  C   UNL A   1      34.251  22.771  24.139  1.00  0.00     0.122 C 
ATOM     15  C   UNL A   1      31.632  23.076  25.417  1.00  0.00     0.006 C 
ATOM     16  N   UNL A   1      33.649  24.054  24.489  1.00  0.00    -0.342 N 
ATOM     17  C   UNL A   1      32.815  24.013  25.683  1.00  0.00     0.122 C 
ATOM     18  C   UNL A   1      30.686  23.063  26.611  1.00  0.00     0.009 C 
ATOM     19  O   UNL A   1      34.029  24.927  22.399  1.00  0.00    -0.275 OA
ENDBRANCH   9  10
ENDBRANCH   7   9
ENDBRANCH   6   7
ENDBRANCH   3   6
ENDBRANCH   1   2
BRANCH   1  20
ATOM     20  C   UNL A   1      31.405  32.108  26.501  1.00  0.00     0.042 C 
BRANCH  20  21
ATOM     21  C   UNL A   1      32.594  32.676  27.251  1.00  0.00     0.118 C 
BRANCH  21  22
ATOM     22  N   UNL A   1      32.423  34.082  27.560  1.00  0.00    -0.352 N 
ATOM     23  C   UNL A   1      33.004  34.830  28.550  1.00  0.00     0.251 C 
ATOM     24  H   UNL A   1      31.801  34.569  26.973  1.00  0.00     0.163 HD
ATOM     25  O   UNL A   1      32.557  35.957  28.789  1.00  0.00    -0.269 OA
BRANCH  23  26
ATOM     26  C   UNL A   1      34.147  34.316  29.342  1.00  0.00     0.039 A 
ATOM     27  C   UNL A   1      35.435  34.429  28.810  1.00  0.00     0.014 A 
ATOM     28  C   UNL A   1      33.965  33.663  30.565  1.00  0.00     0.014 A 
ATOM     29  C   UNL A   1      36.529  33.899  29.501  1.00  0.00     0.010 A 
ATOM     30  C   UNL A   1      35.065  33.230  31.303  1.00  0.00     0.010 A 
ATOM     31  C   UNL A   1      36.354  33.299  30.757  1.00  0.00    -0.014 A 
BRANCH  31  32
ATOM     32  C   UNL A   1      37.485  32.638  31.461  1.00  0.00     0.031 A 
ATOM     33  C   UNL A   1      38.239  31.528  30.772  1.00  0.00     0.074 A 
ATOM     34  C   UNL A   1      37.825  33.012  32.709  1.00  0.00     0.049 A 
ATOM     35  N   UNL A   1      39.213  30.777  31.223  1.00  0.00    -0.248 NA
ATOM     36  C   UNL A   1      37.821  31.195  29.399  1.00  0.00     0.031 C 
ATOM     37  C   UNL A   1      37.155  34.047  33.497  1.00  0.00     0.029 A 
ATOM     38  N   UNL A   1      38.823  32.559  33.535  1.00  0.00    -0.354 N 
ATOM     39  C   UNL A   1      39.507  29.884  30.202  1.00  0.00     0.074 A 
ATOM     40  C   UNL A   1      38.569  30.135  29.132  1.00  0.00     0.031 C 
ATOM     41  C   UNL A   1      37.777  34.168  34.682  1.00  0.00     0.029 A 
ATOM     42  C   UNL A   1      38.866  33.199  34.750  1.00  0.00     0.049 A 
ATOM     43  H   UNL A   1      39.449  31.843  33.282  1.00  0.00     0.167 HD
ATOM     44  C   UNL A   1      40.493  28.957  30.141  1.00  0.00     0.037 A 
ATOM     45  C   UNL A   1      39.694  33.020  35.797  1.00  0.00     0.037 A 
ATOM     46  C   UNL A   1      41.453  28.732  31.188  1.00  0.00     0.049 A 
ATOM     47  C   UNL A   1      40.790  31.990  35.698  1.00  0.00     0.074 A 
ATOM     48  C   UNL A   1      42.502  27.830  31.221  1.00  0.00     0.029 A 
ATOM     49  N   UNL A   1      41.488  29.433  32.384  1.00  0.00    -0.354 N 
ATOM     50  N   UNL A   1      41.081  31.180  34.710  1.00  0.00    -0.248 NA
ATOM     51  C   UNL A   1      41.684  31.862  36.859  1.00  0.00     0.031 C 
ATOM     52  C   UNL A   1      43.159  27.969  32.447  1.00  0.00     0.029 A 
ATOM     53  C   UNL A   1      42.545  28.987  33.160  1.00  0.00     0.049 A 
ATOM     54  H   UNL A   1      40.855  30.141  32.644  1.00  0.00     0.167 HD
ATOM     55  C   UNL A   1      42.211  30.480  35.110  1.00  0.00     0.074 A 
ATOM     56  C   UNL A   1      42.562  30.971  36.425  1.00  0.00     0.031 C 
ATOM     57  C   UNL A   1      42.898  29.517  34.450  1.00  0.00     0.037 A 
BRANCH  44  58
ATOM     58  C   UNL A   1      40.601  28.136  28.889  1.00  0.00     0.064 A 
ATOM     59  C   UNL A   1      39.896  26.931  28.745  1.00  0.00     0.173 A 
ATOM     60  C   UNL A   1      41.376  28.576  27.807  1.00  0.00     0.173 A 
ATOM     61  F   UNL A   1      39.152  26.459  29.757  1.00  0.00    -0.203 F 
ATOM     62  C   UNL A   1      39.982  26.185  27.573  1.00  0.00     0.198 A 
ATOM     63  C   UNL A   1      41.436  27.843  26.624  1.00  0.00     0.198 A 
ATOM     64  F   UNL A   1      42.066  29.724  27.890  1.00  0.00    -0.203 F 
ATOM     65  F   UNL A   1      39.336  25.016  27.475  1.00  0.00    -0.200 F 
ATOM     66  C   UNL A   1      40.745  26.646  26.511  1.00  0.00     0.200 A 
ATOM     67  F   UNL A   1      42.163  28.295  25.593  1.00  0.00    -0.200 F 
ATOM     68  F   UNL A   1      40.817  25.934  25.377  1.00  0.00    -0.200 F 
ENDBRANCH  44  58
BRANCH  45  69
ATOM     69  C   UNL A   1      39.550  33.850  37.023  1.00  0.00     0.064 A 
ATOM     70  C   UNL A   1      38.784  33.402  38.110  1.00  0.00     0.173 A 
ATOM     71  C   UNL A   1      40.134  35.121  37.118  1.00  0.00     0.173 A 
ATOM     72  F   UNL A   1      38.188  32.201  38.059  1.00  0.00    -0.203 F 
ATOM     73  C   UNL A   1      38.575  34.210  39.226  1.00  0.00     0.198 A 
ATOM     74  C   UNL A   1      39.950  35.915  38.249  1.00  0.00     0.198 A 
ATOM     75  F   UNL A   1      40.880  35.595  36.111  1.00  0.00    -0.203 F 
ATOM     76  F   UNL A   1      37.784  33.783  40.220  1.00  0.00    -0.200 F 
ATOM     77  C   UNL A   1      39.159  35.464  39.296  1.00  0.00     0.200 A 
ATOM     78  F   UNL A   1      40.528  37.122  38.319  1.00  0.00    -0.200 F 
ATOM     79  F   UNL A   1      38.951  36.244  40.366  1.00  0.00    -0.200 F 
ENDBRANCH  45  69
BRANCH  57  80
ATOM     80  C   UNL A   1      44.138  28.983  35.106  1.00  0.00     0.064 A 
ATOM     81  C   UNL A   1      44.105  27.864  35.951  1.00  0.00     0.173 A 
ATOM     82  C   UNL A   1      45.381  29.586  34.859  1.00  0.00     0.173 A 
ATOM     83  F   UNL A   1      42.939  27.261  36.227  1.00  0.00    -0.203 F 
ATOM     84  C   UNL A   1      45.268  27.390  36.552  1.00  0.00     0.198 A 
ATOM     85  C   UNL A   1      46.545  29.091  35.438  1.00  0.00     0.198 A 
ATOM     86  F   UNL A   1      45.466  30.654  34.051  1.00  0.00    -0.203 F 
ATOM     87  F   UNL A   1      45.206  26.353  37.400  1.00  0.00    -0.200 F 
ATOM     88  C   UNL A   1      46.486  27.999  36.291  1.00  0.00     0.200 A 
ATOM     89  F   UNL A   1      47.723  29.671  35.174  1.00  0.00    -0.200 F 
ATOM     90  F   UNL A   1      47.604  27.539  36.870  1.00  0.00    -0.200 F 
ENDBRANCH  57  80
ENDBRANCH  31  32
ENDBRANCH  23  26
ENDBRANCH  21  22
ENDBRANCH  20  21
ENDBRANCH   1  20
TORSDOF 13
ENDMDL
MODEL 3
REMARK VINA RESULT:     -11.9      1.496      7.747
REMARK SMILES C[C@@H]1C[C@@H](C)CN(C(=O)C[C@@H](C)CC(=O)NCCCNC(=O)c2ccc(-c3c4nc(c(-c5c(F)c(F)c(F)c(F)c5F)c5ccc([nH]5)c(-c5c(F)c(F)c(F)c(F)c5F)c5nc(c(-c6c(F)c(F)c(F)c(F)c6F)c6ccc3[nH]6)C=C5)C=C4)cc2)C1
REMARK SMILES IDX 17 1 16 2 14 3 15 4 13 6 11 7 12 8 10 9 8 10 1 11 2 12 3 13
REMARK SMILES IDX 86 14 4 15 7 16 6 17 5 18 9 19 18 20 19 21 20 22 21 23 22 25
REMARK SMILES IDX 23 26 24 27 85 28 25 29 84 30 26 31 27 32 28 33 78 34 29 35
REMARK SMILES IDX 83 36 77 37 79 38 30 39 82 40 76 41 75 42 31 44 63 45 43 46
REMARK SMILES IDX 62 47 44 48 47 49 61 50 80 51 45 52 46 53 60 55 81 56 48 57
REMARK SMILES IDX 32 58 33 59 41 60 34 61 35 62 39 63 42 64 36 65 37 66 40 67
REMARK SMILES IDX 38 68 64 69 65 70 73 71 66 72 67 73 71 74 74 75 68 76 69 77
REMARK SMILES IDX 72 78 70 79 49 80 50 81 58 82 51 83 52 84 56 85 59 86 53 87
REMARK SMILES IDX 54 88 57 89 55 90
REMARK H PARENT 16 5 20 24 79 43 47 54
REMARK Flexibility Score: inf
ROOT
ATOM      1  C   UNL A   1      31.597  30.816  26.034  1.00  0.00     0.117 C 
ENDROOT
BRANCH   1   2
ATOM      2  N   UNL A   1      32.805  30.217  26.581  1.00  0.00    -0.356 N 
ATOM      3  C   UNL A   1      33.101  28.932  26.916  1.00  0.00     0.220 C 
ATOM      4  O   UNL A   1      34.200  28.710  27.429  1.00  0.00    -0.275 OA
ATOM      5  H   UNL A   1      33.537  30.855  26.738  1.00  0.00     0.163 HD
BRANCH   3   6
ATOM      6  C   UNL A   1      32.126  27.799  26.659  1.00  0.00     0.103 C 
BRANCH   6   7
ATOM      7  C   UNL A   1      32.769  26.610  25.911  1.00  0.00     0.004 C 
ATOM      8  C   UNL A   1      33.462  27.111  24.645  1.00  0.00     0.009 C 
BRANCH   7   9
ATOM      9  C   UNL A   1      31.688  25.583  25.573  1.00  0.00     0.104 C 
BRANCH   9  10
ATOM     10  C   UNL A   1      31.820  24.202  26.181  1.00  0.00     0.222 C 
ATOM     11  C   UNL A   1      34.030  21.930  27.587  1.00  0.00     0.009 C 
ATOM     12  C   UNL A   1      33.616  21.312  26.247  1.00  0.00     0.006 C 
ATOM     13  C   UNL A   1      34.650  21.594  25.131  1.00  0.00     0.010 C 
ATOM     14  C   UNL A   1      32.222  21.805  25.830  1.00  0.00     0.122 C 
ATOM     15  C   UNL A   1      34.587  23.044  24.621  1.00  0.00     0.006 C 
ATOM     16  N   UNL A   1      32.281  23.187  25.363  1.00  0.00    -0.342 N 
ATOM     17  C   UNL A   1      33.151  23.389  24.212  1.00  0.00     0.122 C 
ATOM     18  C   UNL A   1      35.547  23.317  23.471  1.00  0.00     0.009 C 
ATOM     19  O   UNL A   1      31.420  24.004  27.330  1.00  0.00    -0.275 OA
ENDBRANCH   9  10
ENDBRANCH   7   9
ENDBRANCH   6   7
ENDBRANCH   3   6
ENDBRANCH   1   2
BRANCH   1  20
ATOM     20  C   UNL A   1      31.398  32.249  26.533  1.00  0.00     0.042 C 
BRANCH  20  21
ATOM     21  C   UNL A   1      32.593  32.824  27.267  1.00  0.00     0.118 C 
BRANCH  21  22
ATOM     22  N   UNL A   1      32.404  34.220  27.609  1.00  0.00    -0.352 N 
ATOM     23  C   UNL A   1      32.971  34.951  28.620  1.00  0.00     0.251 C 
ATOM     24  H   UNL A   1      31.778  34.714  27.032  1.00  0.00     0.163 HD
ATOM     25  O   UNL A   1      32.508  36.066  28.884  1.00  0.00    -0.269 OA
BRANCH  23  26
ATOM     26  C   UNL A   1      34.117  34.433  29.404  1.00  0.00     0.039 A 
ATOM     27  C   UNL A   1      35.390  34.457  28.826  1.00  0.00     0.014 A 
ATOM     28  C   UNL A   1      33.949  33.859  30.668  1.00  0.00     0.014 A 
ATOM     29  C   UNL A   1      36.483  33.920  29.512  1.00  0.00     0.010 A 
ATOM     30  C   UNL A   1      35.054  33.420  31.395  1.00  0.00     0.010 A 
ATOM     31  C   UNL A   1      36.325  33.400  30.806  1.00  0.00    -0.014 A 
BRANCH  31  32
ATOM     32  C   UNL A   1      37.450  32.731  31.511  1.00  0.00     0.031 A 
ATOM     33  C   UNL A   1      38.175  31.592  30.836  1.00  0.00     0.074 A 
ATOM     34  C   UNL A   1      37.810  33.122  32.748  1.00  0.00     0.049 A 
ATOM     35  N   UNL A   1      39.139  30.832  31.293  1.00  0.00    -0.248 NA
ATOM     36  C   UNL A   1      37.736  31.242  29.474  1.00  0.00     0.031 C 
ATOM     37  C   UNL A   1      37.169  34.185  33.523  1.00  0.00     0.029 A 
ATOM     38  N   UNL A   1      38.807  32.665  33.574  1.00  0.00    -0.354 N 
ATOM     39  C   UNL A   1      39.405  29.913  30.286  1.00  0.00     0.074 A 
ATOM     40  C   UNL A   1      38.461  30.163  29.221  1.00  0.00     0.031 C 
ATOM     41  C   UNL A   1      37.805  34.316  34.699  1.00  0.00     0.029 A 
ATOM     42  C   UNL A   1      38.876  33.327  34.775  1.00  0.00     0.049 A 
ATOM     43  H   UNL A   1      39.417  31.932  33.328  1.00  0.00     0.167 HD
ATOM     44  C   UNL A   1      40.372  28.966  30.233  1.00  0.00     0.037 A 
ATOM     45  C   UNL A   1      39.711  33.153  35.817  1.00  0.00     0.037 A 
ATOM     46  C   UNL A   1      41.338  28.742  31.275  1.00  0.00     0.049 A 
ATOM     47  C   UNL A   1      40.785  32.099  35.727  1.00  0.00     0.074 A 
ATOM     48  C   UNL A   1      42.369  27.820  31.315  1.00  0.00     0.029 A 
ATOM     49  N   UNL A   1      41.399  29.465  32.457  1.00  0.00    -0.354 N 
ATOM     50  N   UNL A   1      41.050  31.264  34.752  1.00  0.00    -0.248 NA
ATOM     51  C   UNL A   1      41.688  31.976  36.881  1.00  0.00     0.031 C 
ATOM     52  C   UNL A   1      43.042  27.970  32.532  1.00  0.00     0.029 A 
ATOM     53  C   UNL A   1      42.455  29.013  33.230  1.00  0.00     0.049 A 
ATOM     54  H   UNL A   1      40.783  30.190  32.709  1.00  0.00     0.167 HD
ATOM     55  C   UNL A   1      42.171  30.550  35.154  1.00  0.00     0.074 A 
ATOM     56  C   UNL A   1      42.544  31.059  36.457  1.00  0.00     0.031 C 
ATOM     57  C   UNL A   1      42.832  29.561  34.507  1.00  0.00     0.037 A 
BRANCH  44  58
ATOM     58  C   UNL A   1      40.450  28.119  28.997  1.00  0.00     0.064 A 
ATOM     59  C   UNL A   1      41.237  28.500  27.900  1.00  0.00     0.173 A 
ATOM     60  C   UNL A   1      39.770  26.894  28.923  1.00  0.00     0.173 A 
ATOM     61  F   UNL A   1      41.896  29.669  27.915  1.00  0.00    -0.203 F 
ATOM     62  C   UNL A   1      41.324  27.698  26.766  1.00  0.00     0.198 A 
ATOM     63  C   UNL A   1      39.883  26.080  27.798  1.00  0.00     0.198 A 
ATOM     64  F   UNL A   1      39.007  26.480  29.946  1.00  0.00    -0.203 F 
ATOM     65  F   UNL A   1      42.046  28.104  25.713  1.00  0.00    -0.200 F 
ATOM     66  C   UNL A   1      40.653  26.485  26.719  1.00  0.00     0.200 A 
ATOM     67  F   UNL A   1      39.245  24.902  27.759  1.00  0.00    -0.200 F 
ATOM     68  F   UNL A   1      40.747  25.707  25.631  1.00  0.00    -0.200 F 
ENDBRANCH  44  58
BRANCH  45  69
ATOM     69  C   UNL A   1      39.596  34.009  37.028  1.00  0.00     0.064 A 
ATOM     70  C   UNL A   1      40.235  35.256  37.090  1.00  0.00     0.173 A 
ATOM     71  C   UNL A   1      38.887  33.584  38.159  1.00  0.00     0.173 A 
ATOM     72  F   UNL A   1      40.944  35.699  36.040  1.00  0.00    -0.203 F 
ATOM     73  C   UNL A   1      40.203  36.025  38.252  1.00  0.00     0.198 A 
ATOM     74  C   UNL A   1      38.828  34.369  39.310  1.00  0.00     0.198 A 
ATOM     75  F   UNL A   1      38.253  32.403  38.151  1.00  0.00    -0.203 F 
ATOM     76  F   UNL A   1      40.878  37.182  38.305  1.00  0.00    -0.200 F 
ATOM     77  C   UNL A   1      39.498  35.583  39.360  1.00  0.00     0.200 A 
ATOM     78  F   UNL A   1      38.134  33.943  40.374  1.00  0.00    -0.200 F 
ATOM     79  F   UNL A   1      39.473  36.319  40.479  1.00  0.00    -0.200 F 
ENDBRANCH  45  69
BRANCH  57  80
ATOM     80  C   UNL A   1      44.067  29.015  35.161  1.00  0.00     0.064 A 
ATOM     81  C   UNL A   1      44.016  27.937  36.056  1.00  0.00     0.173 A 
ATOM     82  C   UNL A   1      45.324  29.565  34.861  1.00  0.00     0.173 A 
ATOM     83  F   UNL A   1      42.838  27.386  36.383  1.00  0.00    -0.203 F 
ATOM     84  C   UNL A   1      45.176  27.451  36.654  1.00  0.00     0.198 A 
ATOM     85  C   UNL A   1      46.484  29.056  35.438  1.00  0.00     0.198 A 
ATOM     86  F   UNL A   1      45.426  30.591  34.004  1.00  0.00    -0.203 F 
ATOM     87  F   UNL A   1      45.098  26.456  37.549  1.00  0.00    -0.200 F 
ATOM     88  C   UNL A   1      46.407  28.006  36.340  1.00  0.00     0.200 A 
ATOM     89  F   UNL A   1      47.674  29.584  35.123  1.00  0.00    -0.200 F 
ATOM     90  F   UNL A   1      47.522  27.535  36.917  1.00  0.00    -0.200 F 
ENDBRANCH  57  80
ENDBRANCH  31  32
ENDBRANCH  23  26
ENDBRANCH  21  22
ENDBRANCH  20  21
ENDBRANCH   1  20
TORSDOF 13
ENDMDL
