MODEL 1
REMARK VINA RESULT:     -13.3      0.000      0.000
REMARK SMILES CC1(C)CCCC[C@@H]1NC(=O)NC1(C(=O)NCCCNC(=O)c2ccc(-c3c4nc(c(-c5c(F)c(F)c(F)c(F)c5F)c5ccc([nH]5)c(-c5c(F)c(F)c(F)c(F)c5F)c5nc(c(-c6c(F)c(F)c(F)c(F)c6F)c6ccc3[nH]6)C=C5)C=C4)cc2)CCCCC1
REMARK SMILES IDX 18 1 17 2 16 3 14 4 15 5 13 7 86 8 90 9 87 10 89 11 88 12
REMARK SMILES IDX 12 13 9 14 10 15 11 17 8 19 1 20 2 21 3 22 4 23 5 24 7 25
REMARK SMILES IDX 6 26 19 27 20 28 21 29 22 31 23 32 24 33 85 34 25 35 84 36
REMARK SMILES IDX 26 37 27 38 28 39 78 40 29 41 83 42 77 43 79 44 30 45 82 46
REMARK SMILES IDX 76 47 75 48 31 50 63 51 43 52 62 53 44 54 47 55 61 56 80 57
REMARK SMILES IDX 45 58 46 59 60 61 81 62 48 63 32 64 33 65 41 66 34 67 35 68
REMARK SMILES IDX 39 69 42 70 36 71 37 72 40 73 38 74 64 75 65 76 73 77 66 78
REMARK SMILES IDX 67 79 71 80 74 81 68 82 69 83 72 84 70 85 49 86 50 87 58 88
REMARK SMILES IDX 51 89 52 90 56 91 59 92 53 93 54 94 57 95 55 96
REMARK H PARENT 16 6 9 16 12 18 20 30 79 49 47 60
REMARK Flexibility Score: inf
ROOT
ATOM      1  C   UNL A   1      31.854  31.892  26.924  1.00  0.00     0.042 C 
ENDROOT
BRANCH   1   2
ATOM      2  C   UNL A   1      32.147  30.400  26.981  1.00  0.00     0.117 C 
BRANCH   2   3
ATOM      3  N   UNL A   1      32.843  29.962  25.786  1.00  0.00    -0.354 N 
ATOM      4  C   UNL A   1      32.922  28.633  25.438  1.00  0.00     0.245 C 
ATOM      5  O   UNL A   1      33.948  28.013  25.710  1.00  0.00    -0.272 OA
ATOM      6  H   UNL A   1      33.271  30.633  25.208  1.00  0.00     0.163 HD
BRANCH   4   7
ATOM      7  C   UNL A   1      31.726  28.041  24.648  1.00  0.00     0.120 C 
ATOM      8  C   UNL A   1      32.129  27.393  23.299  1.00  0.00     0.039 C 
ATOM      9  C   UNL A   1      30.828  29.288  24.374  1.00  0.00     0.039 C 
ATOM     10  C   UNL A   1      30.979  27.186  22.314  1.00  0.00     0.003 C 
ATOM     11  C   UNL A   1      29.706  29.061  23.361  1.00  0.00     0.003 C 
ATOM     12  C   UNL A   1      30.244  28.494  22.057  1.00  0.00     0.000 C 
BRANCH   7  13
ATOM     13  N   UNL A   1      30.929  27.106  25.509  1.00  0.00    -0.324 N 
ATOM     14  N   UNL A   1      31.672  24.830  25.712  1.00  0.00    -0.335 N 
ATOM     15  C   UNL A   1      30.822  25.839  25.904  1.00  0.00     0.315 C 
ATOM     16  H   UNL A   1      31.423  24.032  26.230  1.00  0.00     0.165 HD
ATOM     17  O   UNL A   1      29.812  25.576  26.571  1.00  0.00    -0.249 OA
ATOM     18  H   UNL A   1      30.217  27.625  25.948  1.00  0.00     0.166 HD
BRANCH  14  19
ATOM     19  C   UNL A   1      32.877  24.616  24.926  1.00  0.00     0.089 C 
ATOM     20  C   UNL A   1      33.512  23.989  22.580  1.00  0.00     0.013 C 
ATOM     21  C   UNL A   1      32.714  23.521  23.821  1.00  0.00    -0.015 C 
ATOM     22  C   UNL A   1      31.243  23.320  23.401  1.00  0.00     0.013 C 
ATOM     23  C   UNL A   1      33.229  22.132  24.263  1.00  0.00     0.008 C 
ATOM     24  C   UNL A   1      34.600  22.171  24.914  1.00  0.00     0.001 C 
ATOM     25  C   UNL A   1      34.125  24.464  25.830  1.00  0.00     0.025 C 
ATOM     26  C   UNL A   1      34.534  23.032  26.163  1.00  0.00     0.002 C 
ENDBRANCH  14  19
ENDBRANCH   7  13
ENDBRANCH   4   7
ENDBRANCH   2   3
ENDBRANCH   1   2
BRANCH   1  27
ATOM     27  C   UNL A   1      33.001  32.753  27.438  1.00  0.00     0.118 C 
BRANCH  27  28
ATOM     28  N   UNL A   1      32.602  34.137  27.674  1.00  0.00    -0.352 N 
ATOM     29  C   UNL A   1      33.046  34.994  28.651  1.00  0.00     0.251 C 
ATOM     30  H   UNL A   1      31.929  34.501  27.055  1.00  0.00     0.163 HD
ATOM     31  O   UNL A   1      32.489  36.067  28.856  1.00  0.00    -0.269 OA
BRANCH  29  32
ATOM     32  C   UNL A   1      34.194  34.574  29.474  1.00  0.00     0.039 A 
ATOM     33  C   UNL A   1      33.966  34.010  30.730  1.00  0.00     0.014 A 
ATOM     34  C   UNL A   1      35.483  34.651  28.944  1.00  0.00     0.014 A 
ATOM     35  C   UNL A   1      35.035  33.447  31.425  1.00  0.00     0.010 A 
ATOM     36  C   UNL A   1      36.525  34.003  29.591  1.00  0.00     0.010 A 
ATOM     37  C   UNL A   1      36.313  33.400  30.841  1.00  0.00    -0.014 A 
BRANCH  37  38
ATOM     38  C   UNL A   1      37.454  32.747  31.526  1.00  0.00     0.031 A 
ATOM     39  C   UNL A   1      38.157  31.598  30.860  1.00  0.00     0.074 A 
ATOM     40  C   UNL A   1      37.803  33.131  32.769  1.00  0.00     0.049 A 
ATOM     41  N   UNL A   1      39.117  30.835  31.319  1.00  0.00    -0.248 NA
ATOM     42  C   UNL A   1      37.694  31.231  29.512  1.00  0.00     0.031 C 
ATOM     43  C   UNL A   1      37.156  34.191  33.544  1.00  0.00     0.029 A 
ATOM     44  N   UNL A   1      38.787  32.664  33.605  1.00  0.00    -0.354 N 
ATOM     45  C   UNL A   1      39.350  29.890  30.328  1.00  0.00     0.074 A 
ATOM     46  C   UNL A   1      38.393  30.134  29.273  1.00  0.00     0.031 C 
ATOM     47  C   UNL A   1      37.775  34.311  34.728  1.00  0.00     0.029 A 
ATOM     48  C   UNL A   1      38.841  33.317  34.812  1.00  0.00     0.049 A 
ATOM     49  H   UNL A   1      39.396  31.930  33.361  1.00  0.00     0.167 HD
ATOM     50  C   UNL A   1      40.299  28.926  30.288  1.00  0.00     0.037 A 
ATOM     51  C   UNL A   1      39.659  33.129  35.866  1.00  0.00     0.037 A 
ATOM     52  C   UNL A   1      41.275  28.714  31.323  1.00  0.00     0.049 A 
ATOM     53  C   UNL A   1      40.719  32.065  35.788  1.00  0.00     0.074 A 
ATOM     54  C   UNL A   1      42.321  27.810  31.351  1.00  0.00     0.029 A 
ATOM     55  N   UNL A   1      41.323  29.421  32.515  1.00  0.00    -0.354 N 
ATOM     56  N   UNL A   1      40.981  31.227  34.815  1.00  0.00    -0.248 NA
ATOM     57  C   UNL A   1      41.604  31.926  36.952  1.00  0.00     0.031 C 
ATOM     58  C   UNL A   1      42.980  27.944  32.578  1.00  0.00     0.029 A 
ATOM     59  C   UNL A   1      42.372  28.963  33.294  1.00  0.00     0.049 A 
ATOM     60  H   UNL A   1      40.701  30.141  32.771  1.00  0.00     0.167 HD
ATOM     61  C   UNL A   1      42.075  30.483  35.234  1.00  0.00     0.074 A 
ATOM     62  C   UNL A   1      42.437  30.979  36.546  1.00  0.00     0.031 C 
ATOM     63  C   UNL A   1      42.723  29.481  34.591  1.00  0.00     0.037 A 
BRANCH  50  64
ATOM     64  C   UNL A   1      40.330  28.039  29.078  1.00  0.00     0.064 A 
ATOM     65  C   UNL A   1      41.081  28.372  27.940  1.00  0.00     0.173 A 
ATOM     66  C   UNL A   1      39.612  26.834  29.059  1.00  0.00     0.173 A 
ATOM     67  F   UNL A   1      41.773  29.521  27.901  1.00  0.00    -0.203 F 
ATOM     68  C   UNL A   1      41.085  27.550  26.816  1.00  0.00     0.198 A 
ATOM     69  C   UNL A   1      39.644  25.998  27.946  1.00  0.00     0.198 A 
ATOM     70  F   UNL A   1      38.881  26.465  30.121  1.00  0.00    -0.203 F 
ATOM     71  F   UNL A   1      41.762  27.920  25.720  1.00  0.00    -0.200 F 
ATOM     72  C   UNL A   1      40.372  26.361  26.822  1.00  0.00     0.200 A 
ATOM     73  F   UNL A   1      38.965  24.843  27.957  1.00  0.00    -0.200 F 
ATOM     74  F   UNL A   1      40.379  25.570  25.741  1.00  0.00    -0.200 F 
ENDBRANCH  50  64
BRANCH  51  75
ATOM     75  C   UNL A   1      39.534  33.996  37.066  1.00  0.00     0.064 A 
ATOM     76  C   UNL A   1      38.795  33.574  38.181  1.00  0.00     0.173 A 
ATOM     77  C   UNL A   1      40.143  35.257  37.128  1.00  0.00     0.173 A 
ATOM     78  F   UNL A   1      38.178  32.384  38.163  1.00  0.00    -0.203 F 
ATOM     79  C   UNL A   1      38.653  34.389  39.302  1.00  0.00     0.198 A 
ATOM     80  C   UNL A   1      40.023  36.060  38.261  1.00  0.00     0.198 A 
ATOM     81  F   UNL A   1      40.868  35.705  36.092  1.00  0.00    -0.203 F 
ATOM     82  F   UNL A   1      37.904  33.978  40.335  1.00  0.00    -0.200 F 
ATOM     83  C   UNL A   1      39.271  35.629  39.344  1.00  0.00     0.200 A 
ATOM     84  F   UNL A   1      40.634  37.252  38.303  1.00  0.00    -0.200 F 
ATOM     85  F   UNL A   1      39.138  36.411  40.423  1.00  0.00    -0.200 F 
ENDBRANCH  51  75
BRANCH  63  86
ATOM     86  C   UNL A   1      43.914  28.880  35.278  1.00  0.00     0.064 A 
ATOM     87  C   UNL A   1      43.786  27.807  36.172  1.00  0.00     0.173 A 
ATOM     88  C   UNL A   1      45.205  29.354  34.999  1.00  0.00     0.173 A 
ATOM     89  F   UNL A   1      42.571  27.329  36.482  1.00  0.00    -0.203 F 
ATOM     90  C   UNL A   1      44.905  27.247  36.781  1.00  0.00     0.198 A 
ATOM     91  C   UNL A   1      46.324  28.772  35.587  1.00  0.00     0.198 A 
ATOM     92  F   UNL A   1      45.381  30.373  34.144  1.00  0.00    -0.203 F 
ATOM     93  F   UNL A   1      44.756  26.253  37.666  1.00  0.00    -0.200 F 
ATOM     94  C   UNL A   1      46.173  27.723  36.481  1.00  0.00     0.200 A 
ATOM     95  F   UNL A   1      47.549  29.225  35.285  1.00  0.00    -0.200 F 
ATOM     96  F   UNL A   1      47.250  27.177  37.061  1.00  0.00    -0.200 F 
ENDBRANCH  63  86
ENDBRANCH  37  38
ENDBRANCH  29  32
ENDBRANCH  27  28
ENDBRANCH   1  27
TORSDOF 12
ENDMDL
MODEL 2
REMARK VINA RESULT:     -13.3      0.067      1.122
REMARK SMILES CC1(C)CCCC[C@@H]1NC(=O)NC1(C(=O)NCCCNC(=O)c2ccc(-c3c4nc(c(-c5c(F)c(F)c(F)c(F)c5F)c5ccc([nH]5)c(-c5c(F)c(F)c(F)c(F)c5F)c5nc(c(-c6c(F)c(F)c(F)c(F)c6F)c6ccc3[nH]6)C=C5)C=C4)cc2)CCCCC1
REMARK SMILES IDX 18 1 17 2 16 3 14 4 15 5 13 7 86 8 90 9 87 10 89 11 88 12
REMARK SMILES IDX 12 13 9 14 10 15 11 17 8 19 1 20 2 21 3 22 4 23 5 24 7 25
REMARK SMILES IDX 6 26 19 27 20 28 21 29 22 31 23 32 24 33 85 34 25 35 84 36
REMARK SMILES IDX 26 37 27 38 28 39 78 40 29 41 83 42 77 43 79 44 30 45 82 46
REMARK SMILES IDX 76 47 75 48 31 50 63 51 43 52 62 53 44 54 47 55 61 56 80 57
REMARK SMILES IDX 45 58 46 59 60 61 81 62 48 63 32 64 33 65 41 66 34 67 35 68
REMARK SMILES IDX 39 69 42 70 36 71 37 72 40 73 38 74 64 75 65 76 73 77 66 78
REMARK SMILES IDX 67 79 71 80 74 81 68 82 69 83 72 84 70 85 49 86 50 87 58 88
REMARK SMILES IDX 51 89 52 90 56 91 59 92 53 93 54 94 57 95 55 96
REMARK H PARENT 16 6 9 16 12 18 20 30 79 49 47 60
REMARK Flexibility Score: inf
ROOT
ATOM      1  C   UNL A   1      31.844  31.912  26.902  1.00  0.00     0.042 C 
ENDROOT
BRANCH   1   2
ATOM      2  C   UNL A   1      32.141  30.421  26.947  1.00  0.00     0.117 C 
BRANCH   2   3
ATOM      3  N   UNL A   1      32.828  29.991  25.744  1.00  0.00    -0.354 N 
ATOM      4  C   UNL A   1      32.926  28.664  25.398  1.00  0.00     0.245 C 
ATOM      5  O   UNL A   1      33.966  28.062  25.658  1.00  0.00    -0.272 OA
ATOM      6  H   UNL A   1      33.236  30.669  25.159  1.00  0.00     0.163 HD
BRANCH   4   7
ATOM      7  C   UNL A   1      31.730  28.048  24.626  1.00  0.00     0.120 C 
ATOM      8  C   UNL A   1      32.128  27.387  23.283  1.00  0.00     0.039 C 
ATOM      9  C   UNL A   1      30.817  29.282  24.342  1.00  0.00     0.039 C 
ATOM     10  C   UNL A   1      30.973  27.154  22.310  1.00  0.00     0.003 C 
ATOM     11  C   UNL A   1      29.689  29.030  23.341  1.00  0.00     0.003 C 
ATOM     12  C   UNL A   1      30.222  28.450  22.041  1.00  0.00     0.000 C 
BRANCH   7  13
ATOM     13  N   UNL A   1      30.949  27.118  25.506  1.00  0.00    -0.324 N 
ATOM     14  N   UNL A   1      31.701  24.845  25.712  1.00  0.00    -0.335 N 
ATOM     15  C   UNL A   1      30.851  25.853  25.912  1.00  0.00     0.315 C 
ATOM     16  H   UNL A   1      31.463  24.050  26.240  1.00  0.00     0.165 HD
ATOM     17  O   UNL A   1      29.854  25.591  26.596  1.00  0.00    -0.249 OA
ATOM     18  H   UNL A   1      30.243  27.638  25.953  1.00  0.00     0.166 HD
BRANCH  14  19
ATOM     19  C   UNL A   1      32.894  24.628  24.909  1.00  0.00     0.089 C 
ATOM     20  C   UNL A   1      33.492  23.974  22.560  1.00  0.00     0.013 C 
ATOM     21  C   UNL A   1      32.720  23.517  23.821  1.00  0.00    -0.015 C 
ATOM     22  C   UNL A   1      31.242  23.302  23.429  1.00  0.00     0.013 C 
ATOM     23  C   UNL A   1      33.251  22.139  24.272  1.00  0.00     0.008 C 
ATOM     24  C   UNL A   1      34.633  22.195  24.899  1.00  0.00     0.001 C 
ATOM     25  C   UNL A   1      34.159  24.496  25.793  1.00  0.00     0.025 C 
ATOM     26  C   UNL A   1      34.582  23.072  26.137  1.00  0.00     0.002 C 
ENDBRANCH  14  19
ENDBRANCH   7  13
ENDBRANCH   4   7
ENDBRANCH   2   3
ENDBRANCH   1   2
BRANCH   1  27
ATOM     27  C   UNL A   1      32.985  32.772  27.430  1.00  0.00     0.118 C 
BRANCH  27  28
ATOM     28  N   UNL A   1      32.580  34.153  27.673  1.00  0.00    -0.352 N 
ATOM     29  C   UNL A   1      33.024  35.008  28.653  1.00  0.00     0.251 C 
ATOM     30  H   UNL A   1      31.904  34.517  27.058  1.00  0.00     0.163 HD
ATOM     31  O   UNL A   1      32.463  36.078  28.865  1.00  0.00    -0.269 OA
BRANCH  29  32
ATOM     32  C   UNL A   1      34.176  34.590  29.471  1.00  0.00     0.039 A 
ATOM     33  C   UNL A   1      33.958  34.069  30.746  1.00  0.00     0.014 A 
ATOM     34  C   UNL A   1      35.458  34.623  28.917  1.00  0.00     0.014 A 
ATOM     35  C   UNL A   1      35.026  33.505  31.441  1.00  0.00     0.010 A 
ATOM     36  C   UNL A   1      36.497  33.973  29.568  1.00  0.00     0.010 A 
ATOM     37  C   UNL A   1      36.294  33.414  30.839  1.00  0.00    -0.014 A 
BRANCH  37  38
ATOM     38  C   UNL A   1      37.432  32.757  31.526  1.00  0.00     0.031 A 
ATOM     39  C   UNL A   1      38.135  31.608  30.860  1.00  0.00     0.074 A 
ATOM     40  C   UNL A   1      37.780  33.140  32.769  1.00  0.00     0.049 A 
ATOM     41  N   UNL A   1      39.092  30.843  31.320  1.00  0.00    -0.248 NA
ATOM     42  C   UNL A   1      37.673  31.243  29.511  1.00  0.00     0.031 C 
ATOM     43  C   UNL A   1      37.132  34.200  33.544  1.00  0.00     0.029 A 
ATOM     44  N   UNL A   1      38.762  32.671  33.606  1.00  0.00    -0.354 N 
ATOM     45  C   UNL A   1      39.326  29.899  30.328  1.00  0.00     0.074 A 
ATOM     46  C   UNL A   1      38.371  30.145  29.272  1.00  0.00     0.031 C 
ATOM     47  C   UNL A   1      37.750  34.319  34.730  1.00  0.00     0.029 A 
ATOM     48  C   UNL A   1      38.814  33.322  34.814  1.00  0.00     0.049 A 
ATOM     49  H   UNL A   1      39.370  31.935  33.364  1.00  0.00     0.167 HD
ATOM     50  C   UNL A   1      40.273  28.933  30.289  1.00  0.00     0.037 A 
ATOM     51  C   UNL A   1      39.630  33.132  35.869  1.00  0.00     0.037 A 
ATOM     52  C   UNL A   1      41.247  28.718  31.326  1.00  0.00     0.049 A 
ATOM     53  C   UNL A   1      40.688  32.066  35.793  1.00  0.00     0.074 A 
ATOM     54  C   UNL A   1      42.291  27.812  31.355  1.00  0.00     0.029 A 
ATOM     55  N   UNL A   1      41.293  29.424  32.519  1.00  0.00    -0.354 N 
ATOM     56  N   UNL A   1      40.951  31.228  34.819  1.00  0.00    -0.248 NA
ATOM     57  C   UNL A   1      41.571  31.924  36.959  1.00  0.00     0.031 C 
ATOM     58  C   UNL A   1      42.948  27.944  32.583  1.00  0.00     0.029 A 
ATOM     59  C   UNL A   1      42.341  28.964  33.299  1.00  0.00     0.049 A 
ATOM     60  H   UNL A   1      40.672  30.145  32.774  1.00  0.00     0.167 HD
ATOM     61  C   UNL A   1      42.043  30.482  35.240  1.00  0.00     0.074 A 
ATOM     62  C   UNL A   1      42.403  30.976  36.553  1.00  0.00     0.031 C 
ATOM     63  C   UNL A   1      42.690  29.479  34.598  1.00  0.00     0.037 A 
BRANCH  50  64
ATOM     64  C   UNL A   1      40.304  28.047  29.078  1.00  0.00     0.064 A 
ATOM     65  C   UNL A   1      41.043  28.389  27.935  1.00  0.00     0.173 A 
ATOM     66  C   UNL A   1      39.601  26.833  29.065  1.00  0.00     0.173 A 
ATOM     67  F   UNL A   1      41.721  29.546  27.891  1.00  0.00    -0.203 F 
ATOM     68  C   UNL A   1      41.047  27.568  26.810  1.00  0.00     0.198 A 
ATOM     69  C   UNL A   1      39.634  25.999  27.951  1.00  0.00     0.198 A 
ATOM     70  F   UNL A   1      38.882  26.455  30.132  1.00  0.00    -0.203 F 
ATOM     71  F   UNL A   1      41.711  27.946  25.709  1.00  0.00    -0.200 F 
ATOM     72  C   UNL A   1      40.348  26.370  26.821  1.00  0.00     0.200 A 
ATOM     73  F   UNL A   1      38.968  24.836  27.967  1.00  0.00    -0.200 F 
ATOM     74  F   UNL A   1      40.355  25.580  25.740  1.00  0.00    -0.200 F 
ENDBRANCH  50  64
BRANCH  51  75
ATOM     75  C   UNL A   1      39.504  33.998  37.071  1.00  0.00     0.064 A 
ATOM     76  C   UNL A   1      38.782  33.567  38.192  1.00  0.00     0.173 A 
ATOM     77  C   UNL A   1      40.097  35.267  37.126  1.00  0.00     0.173 A 
ATOM     78  F   UNL A   1      38.181  32.368  38.181  1.00  0.00    -0.203 F 
ATOM     79  C   UNL A   1      38.638  34.381  39.315  1.00  0.00     0.198 A 
ATOM     80  C   UNL A   1      39.975  36.070  38.259  1.00  0.00     0.198 A 
ATOM     81  F   UNL A   1      40.805  35.724  36.082  1.00  0.00    -0.203 F 
ATOM     82  F   UNL A   1      37.905  33.961  40.354  1.00  0.00    -0.200 F 
ATOM     83  C   UNL A   1      39.239  35.630  39.349  1.00  0.00     0.200 A 
ATOM     84  F   UNL A   1      40.571  37.270  38.294  1.00  0.00    -0.200 F 
ATOM     85  F   UNL A   1      39.106  36.410  40.429  1.00  0.00    -0.200 F 
ENDBRANCH  51  75
BRANCH  63  86
ATOM     86  C   UNL A   1      43.878  28.876  35.286  1.00  0.00     0.064 A 
ATOM     87  C   UNL A   1      45.177  29.362  35.076  1.00  0.00     0.173 A 
ATOM     88  C   UNL A   1      43.708  27.828  36.203  1.00  0.00     0.173 A 
ATOM     89  F   UNL A   1      45.393  30.353  34.197  1.00  0.00    -0.203 F 
ATOM     90  C   UNL A   1      46.265  28.804  35.742  1.00  0.00     0.198 A 
ATOM     91  C   UNL A   1      44.795  27.293  36.890  1.00  0.00     0.198 A 
ATOM     92  F   UNL A   1      42.485  27.333  36.444  1.00  0.00    -0.203 F 
ATOM     93  F   UNL A   1      47.502  29.255  35.493  1.00  0.00    -0.200 F 
ATOM     94  C   UNL A   1      46.072  27.778  36.654  1.00  0.00     0.200 A 
ATOM     95  F   UNL A   1      44.604  26.310  37.781  1.00  0.00    -0.200 F 
ATOM     96  F   UNL A   1      47.119  27.249  37.301  1.00  0.00    -0.200 F 
ENDBRANCH  63  86
ENDBRANCH  37  38
ENDBRANCH  29  32
ENDBRANCH  27  28
ENDBRANCH   1  27
TORSDOF 12
ENDMDL
MODEL 3
REMARK VINA RESULT:     -13.3      0.681      7.386
REMARK SMILES CC1(C)CCCC[C@@H]1NC(=O)NC1(C(=O)NCCCNC(=O)c2ccc(-c3c4nc(c(-c5c(F)c(F)c(F)c(F)c5F)c5ccc([nH]5)c(-c5c(F)c(F)c(F)c(F)c5F)c5nc(c(-c6c(F)c(F)c(F)c(F)c6F)c6ccc3[nH]6)C=C5)C=C4)cc2)CCCCC1
REMARK SMILES IDX 18 1 17 2 16 3 14 4 15 5 13 7 86 8 90 9 87 10 89 11 88 12
REMARK SMILES IDX 12 13 9 14 10 15 11 17 8 19 1 20 2 21 3 22 4 23 5 24 7 25
REMARK SMILES IDX 6 26 19 27 20 28 21 29 22 31 23 32 24 33 85 34 25 35 84 36
REMARK SMILES IDX 26 37 27 38 28 39 78 40 29 41 83 42 77 43 79 44 30 45 82 46
REMARK SMILES IDX 76 47 75 48 31 50 63 51 43 52 62 53 44 54 47 55 61 56 80 57
REMARK SMILES IDX 45 58 46 59 60 61 81 62 48 63 32 64 33 65 41 66 34 67 35 68
REMARK SMILES IDX 39 69 42 70 36 71 37 72 40 73 38 74 64 75 65 76 73 77 66 78
REMARK SMILES IDX 67 79 71 80 74 81 68 82 69 83 72 84 70 85 49 86 50 87 58 88
REMARK SMILES IDX 51 89 52 90 56 91 59 92 53 93 54 94 57 95 55 96
REMARK H PARENT 16 6 9 16 12 18 20 30 79 49 47 60
REMARK Flexibility Score: inf
ROOT
ATOM      1  C   UNL A   1      31.625  32.032  26.869  1.00  0.00     0.042 C 
ENDROOT
BRANCH   1   2
ATOM      2  C   UNL A   1      31.865  30.530  26.886  1.00  0.00     0.117 C 
BRANCH   2   3
ATOM      3  N   UNL A   1      32.632  30.113  25.728  1.00  0.00    -0.354 N 
ATOM      4  C   UNL A   1      32.843  28.786  25.435  1.00  0.00     0.245 C 
ATOM      5  O   UNL A   1      33.913  28.274  25.758  1.00  0.00    -0.272 OA
ATOM      6  H   UNL A   1      33.013  30.800  25.134  1.00  0.00     0.163 HD
BRANCH   4   7
ATOM      7  C   UNL A   1      31.730  28.056  24.639  1.00  0.00     0.120 C 
ATOM      8  C   UNL A   1      32.227  27.408  23.322  1.00  0.00     0.039 C 
ATOM      9  C   UNL A   1      30.724  29.202  24.302  1.00  0.00     0.039 C 
ATOM     10  C   UNL A   1      31.128  27.060  22.319  1.00  0.00     0.003 C 
ATOM     11  C   UNL A   1      29.655  28.836  23.272  1.00  0.00     0.003 C 
ATOM     12  C   UNL A   1      30.278  28.281  22.001  1.00  0.00     0.000 C 
BRANCH   7  13
ATOM     13  N   UNL A   1      31.003  27.077  25.513  1.00  0.00    -0.324 N 
ATOM     14  N   UNL A   1      31.820  24.820  25.619  1.00  0.00    -0.335 N 
ATOM     15  C   UNL A   1      30.952  25.798  25.879  1.00  0.00     0.315 C 
ATOM     16  H   UNL A   1      31.619  24.002  26.128  1.00  0.00     0.165 HD
ATOM     17  O   UNL A   1      29.985  25.489  26.588  1.00  0.00    -0.249 OA
ATOM     18  H   UNL A   1      30.300  27.564  26.000  1.00  0.00     0.166 HD
BRANCH  14  19
ATOM     19  C   UNL A   1      32.989  24.661  24.770  1.00  0.00     0.089 C 
ATOM     20  C   UNL A   1      33.538  23.916  22.436  1.00  0.00     0.013 C 
ATOM     21  C   UNL A   1      32.869  23.472  23.759  1.00  0.00    -0.015 C 
ATOM     22  C   UNL A   1      31.402  23.100  23.458  1.00  0.00     0.013 C 
ATOM     23  C   UNL A   1      33.547  22.178  24.263  1.00  0.00     0.008 C 
ATOM     24  C   UNL A   1      34.944  22.399  24.814  1.00  0.00     0.001 C 
ATOM     25  C   UNL A   1      34.300  24.700  25.594  1.00  0.00     0.025 C 
ATOM     26  C   UNL A   1      34.870  23.344  25.999  1.00  0.00     0.002 C 
ENDBRANCH  14  19
ENDBRANCH   7  13
ENDBRANCH   4   7
ENDBRANCH   2   3
ENDBRANCH   1   2
BRANCH   1  27
ATOM     27  C   UNL A   1      32.856  32.845  27.251  1.00  0.00     0.118 C 
BRANCH  27  28
ATOM     28  N   UNL A   1      32.528  34.216  27.626  1.00  0.00    -0.352 N 
ATOM     29  C   UNL A   1      33.029  34.953  28.672  1.00  0.00     0.251 C 
ATOM     30  H   UNL A   1      31.864  34.670  27.059  1.00  0.00     0.163 HD
ATOM     31  O   UNL A   1      32.528  36.027  28.990  1.00  0.00    -0.269 OA
BRANCH  29  32
ATOM     32  C   UNL A   1      34.168  34.403  29.427  1.00  0.00     0.039 A 
ATOM     33  C   UNL A   1      33.926  33.631  30.564  1.00  0.00     0.014 A 
ATOM     34  C   UNL A   1      35.464  34.573  28.936  1.00  0.00     0.014 A 
ATOM     35  C   UNL A   1      34.989  32.961  31.168  1.00  0.00     0.010 A 
ATOM     36  C   UNL A   1      36.500  33.828  29.478  1.00  0.00     0.010 A 
ATOM     37  C   UNL A   1      36.275  33.019  30.603  1.00  0.00    -0.014 A 
BRANCH  37  38
ATOM     38  C   UNL A   1      37.410  32.262  31.182  1.00  0.00     0.031 A 
ATOM     39  C   UNL A   1      37.901  32.603  32.561  1.00  0.00     0.074 A 
ATOM     40  C   UNL A   1      38.044  31.330  30.446  1.00  0.00     0.049 A 
ATOM     41  N   UNL A   1      38.927  32.124  33.218  1.00  0.00    -0.248 NA
ATOM     42  C   UNL A   1      37.163  33.650  33.285  1.00  0.00     0.031 C 
ATOM     43  C   UNL A   1      37.700  30.955  29.073  1.00  0.00     0.029 A 
ATOM     44  N   UNL A   1      39.120  30.532  30.747  1.00  0.00    -0.354 N 
ATOM     45  C   UNL A   1      38.968  32.829  34.414  1.00  0.00     0.074 A 
ATOM     46  C   UNL A   1      37.906  33.808  34.368  1.00  0.00     0.031 C 
ATOM     47  C   UNL A   1      38.531  29.984  28.661  1.00  0.00     0.029 A 
ATOM     48  C   UNL A   1      39.486  29.690  29.725  1.00  0.00     0.049 A 
ATOM     49  H   UNL A   1      39.587  30.563  31.613  1.00  0.00     0.167 HD
ATOM     50  C   UNL A   1      39.797  32.653  35.470  1.00  0.00     0.037 A 
ATOM     51  C   UNL A   1      40.482  28.786  29.659  1.00  0.00     0.037 A 
ATOM     52  C   UNL A   1      40.825  31.650  35.526  1.00  0.00     0.049 A 
ATOM     53  C   UNL A   1      41.377  28.594  30.854  1.00  0.00     0.074 A 
ATOM     54  C   UNL A   1      41.675  31.343  36.573  1.00  0.00     0.029 A 
ATOM     55  N   UNL A   1      41.141  30.788  34.486  1.00  0.00    -0.354 N 
ATOM     56  N   UNL A   1      41.358  29.213  32.009  1.00  0.00    -0.248 NA
ATOM     57  C   UNL A   1      42.426  27.572  30.738  1.00  0.00     0.031 C 
ATOM     58  C   UNL A   1      42.532  30.319  36.153  1.00  0.00     0.029 A 
ATOM     59  C   UNL A   1      42.185  29.958  34.861  1.00  0.00     0.049 A 
ATOM     60  H   UNL A   1      40.692  30.770  33.610  1.00  0.00     0.167 HD
ATOM     61  C   UNL A   1      42.368  28.637  32.767  1.00  0.00     0.074 A 
ATOM     62  C   UNL A   1      42.972  27.609  31.944  1.00  0.00     0.031 C 
ATOM     63  C   UNL A   1      42.761  28.932  34.031  1.00  0.00     0.037 A 
BRANCH  50  64
ATOM     64  C   UNL A   1      39.611  33.560  36.651  1.00  0.00     0.064 A 
ATOM     65  C   UNL A   1      38.794  33.200  37.734  1.00  0.00     0.173 A 
ATOM     66  C   UNL A   1      40.269  34.798  36.710  1.00  0.00     0.173 A 
ATOM     67  F   UNL A   1      38.130  32.033  37.720  1.00  0.00    -0.203 F 
ATOM     68  C   UNL A   1      38.614  34.060  38.814  1.00  0.00     0.198 A 
ATOM     69  C   UNL A   1      40.112  35.641  37.807  1.00  0.00     0.198 A 
ATOM     70  F   UNL A   1      41.064  35.189  35.704  1.00  0.00    -0.203 F 
ATOM     71  F   UNL A   1      37.781  33.719  39.808  1.00  0.00    -0.200 F 
ATOM     72  C   UNL A   1      39.278  35.276  38.853  1.00  0.00     0.200 A 
ATOM     73  F   UNL A   1      40.764  36.811  37.849  1.00  0.00    -0.200 F 
ATOM     74  F   UNL A   1      39.106  36.101  39.895  1.00  0.00    -0.200 F 
ENDBRANCH  50  64
BRANCH  51  75
ATOM     75  C   UNL A   1      40.659  27.964  28.434  1.00  0.00     0.064 A 
ATOM     76  C   UNL A   1      40.039  26.712  28.314  1.00  0.00     0.173 A 
ATOM     77  C   UNL A   1      41.449  28.405  27.362  1.00  0.00     0.173 A 
ATOM     78  F   UNL A   1      39.289  26.239  29.320  1.00  0.00    -0.203 F 
ATOM     79  C   UNL A   1      40.218  25.923  27.180  1.00  0.00     0.198 A 
ATOM     80  C   UNL A   1      41.605  27.626  26.216  1.00  0.00     0.198 A 
ATOM     81  F   UNL A   1      42.058  29.598  27.423  1.00  0.00    -0.203 F 
ATOM     82  F   UNL A   1      39.648  24.712  27.112  1.00  0.00    -0.200 F 
ATOM     83  C   UNL A   1      40.997  26.383  26.129  1.00  0.00     0.200 A 
ATOM     84  F   UNL A   1      42.347  28.082  25.197  1.00  0.00    -0.200 F 
ATOM     85  F   UNL A   1      41.165  25.628  25.036  1.00  0.00    -0.200 F 
ENDBRANCH  51  75
BRANCH  63  86
ATOM     86  C   UNL A   1      43.868  28.107  34.617  1.00  0.00     0.064 A 
ATOM     87  C   UNL A   1      45.206  28.522  34.558  1.00  0.00     0.173 A 
ATOM     88  C   UNL A   1      43.579  26.909  35.289  1.00  0.00     0.173 A 
ATOM     89  F   UNL A   1      45.535  29.651  33.913  1.00  0.00    -0.203 F 
ATOM     90  C   UNL A   1      46.218  27.754  35.129  1.00  0.00     0.198 A 
ATOM     91  C   UNL A   1      44.589  26.161  35.885  1.00  0.00     0.198 A 
ATOM     92  F   UNL A   1      42.313  26.474  35.380  1.00  0.00    -0.203 F 
ATOM     93  F   UNL A   1      47.495  28.146  35.022  1.00  0.00    -0.200 F 
ATOM     94  C   UNL A   1      45.907  26.580  35.799  1.00  0.00     0.200 A 
ATOM     95  F   UNL A   1      44.285  25.034  36.544  1.00  0.00    -0.200 F 
ATOM     96  F   UNL A   1      46.881  25.848  36.357  1.00  0.00    -0.200 F 
ENDBRANCH  63  86
ENDBRANCH  37  38
ENDBRANCH  29  32
ENDBRANCH  27  28
ENDBRANCH   1  27
TORSDOF 12
ENDMDL
