MODEL 1
REMARK VINA RESULT:     -11.0      0.000      0.000
REMARK SMILES O=C(CSc1ccc(Br)cn1)NCCCNC(=O)c1ccc(-c2c3nc(c(-c4c(F)c(F)c(F)c(F)c4F)c4ccc([nH]4)c(-c4c(F)c(F)c(F)c(F)c4F)c4nc(c(-c5c(F)c(F)c(F)c(F)c5F)c5ccc2[nH]5)C=C4)C=C3)cc1
REMARK SMILES IDX 14 1 13 2 12 3 1 4 2 5 3 7 4 8 5 9 6 10 11 11 7 12 10 13
REMARK SMILES IDX 8 14 9 15 15 16 16 17 17 18 18 20 19 21 20 22 81 23 21 24
REMARK SMILES IDX 80 25 22 26 23 27 24 28 74 29 25 30 79 31 73 32 75 33 26 34
REMARK SMILES IDX 78 35 72 36 71 37 27 39 59 40 39 41 58 42 40 43 43 44 57 45
REMARK SMILES IDX 76 46 41 47 42 48 56 50 77 51 44 52 28 53 29 54 37 55 30 56
REMARK SMILES IDX 31 57 35 58 38 59 32 60 33 61 36 62 34 63 60 64 61 65 69 66
REMARK SMILES IDX 62 67 63 68 67 69 70 70 64 71 65 72 68 73 66 74 45 75 46 76
REMARK SMILES IDX 54 77 47 78 48 79 52 80 55 81 49 82 50 83 53 84 51 85
REMARK H PARENT 12 6 16 19 75 38 43 49
REMARK Flexibility Score: inf
ROOT
ATOM      1  C   UNL A   1      35.341  33.740  28.142  1.00  0.00     0.042 C 
ENDROOT
BRANCH   1   2
ATOM      2  C   UNL A   1      34.516  35.010  27.975  1.00  0.00     0.117 C 
BRANCH   2   3
ATOM      3  N   UNL A   1      34.359  35.744  29.213  1.00  0.00    -0.355 N 
ATOM      4  O   UNL A   1      32.202  36.422  28.828  1.00  0.00    -0.274 OA
ATOM      5  C   UNL A   1      33.173  36.342  29.580  1.00  0.00     0.230 C 
ATOM      6  H   UNL A   1      35.133  35.820  29.817  1.00  0.00     0.163 HD
BRANCH   5   7
ATOM      7  C   UNL A   1      33.179  37.030  30.936  1.00  0.00     0.176 C 
BRANCH   7   8
ATOM      8  S   UNL A   1      32.426  36.053  32.275  1.00  0.00    -0.096 SA
BRANCH   8   9
ATOM      9  C   UNL A   1      33.797  34.990  32.661  1.00  0.00     0.097 A 
ATOM     10  C   UNL A   1      35.055  35.529  32.908  1.00  0.00     0.037 A 
ATOM     11  N   UNL A   1      33.561  33.661  32.636  1.00  0.00    -0.249 NA
ATOM     12  C   UNL A   1      36.122  34.664  33.154  1.00  0.00     0.020 A 
ATOM     13  C   UNL A   1      34.612  32.841  32.882  1.00  0.00     0.128 A 
ATOM     14  C   UNL A   1      35.896  33.294  33.139  1.00  0.00     0.036 A 
ATOM     15  Br  UNL A   1      37.306  32.082  33.446  1.00  0.00    -0.049 Br
ENDBRANCH   8   9
ENDBRANCH   7   8
ENDBRANCH   5   7
ENDBRANCH   2   3
ENDBRANCH   1   2
BRANCH   1  16
ATOM     16  C   UNL A   1      34.769  32.741  29.146  1.00  0.00     0.118 C 
BRANCH  16  17
ATOM     17  N   UNL A   1      34.012  31.663  28.522  1.00  0.00    -0.352 N 
ATOM     18  C   UNL A   1      34.411  30.424  28.083  1.00  0.00     0.251 C 
ATOM     19  H   UNL A   1      33.055  31.854  28.395  1.00  0.00     0.163 HD
ATOM     20  O   UNL A   1      33.621  29.718  27.458  1.00  0.00    -0.269 OA
BRANCH  18  21
ATOM     21  C   UNL A   1      35.789  29.938  28.319  1.00  0.00     0.039 A 
ATOM     22  C   UNL A   1      36.733  30.085  27.298  1.00  0.00     0.014 A 
ATOM     23  C   UNL A   1      36.153  29.326  29.520  1.00  0.00     0.014 A 
ATOM     24  C   UNL A   1      38.061  29.706  27.516  1.00  0.00     0.010 A 
ATOM     25  C   UNL A   1      37.492  29.014  29.763  1.00  0.00     0.010 A 
ATOM     26  C   UNL A   1      38.462  29.216  28.770  1.00  0.00    -0.014 A 
BRANCH  26  27
ATOM     27  C   UNL A   1      39.895  28.958  29.072  1.00  0.00     0.031 A 
ATOM     28  C   UNL A   1      40.731  29.993  29.771  1.00  0.00     0.074 A 
ATOM     29  C   UNL A   1      40.465  27.813  28.645  1.00  0.00     0.049 A 
ATOM     30  N   UNL A   1      42.013  29.981  30.037  1.00  0.00    -0.248 NA
ATOM     31  C   UNL A   1      40.038  31.212  30.211  1.00  0.00     0.031 C 
ATOM     32  C   UNL A   1      39.773  26.745  27.922  1.00  0.00     0.029 A 
ATOM     33  N   UNL A   1      41.759  27.363  28.741  1.00  0.00    -0.354 N 
ATOM     34  C   UNL A   1      42.282  31.189  30.664  1.00  0.00     0.074 A 
ATOM     35  C   UNL A   1      41.041  31.932  30.696  1.00  0.00     0.031 C 
ATOM     36  C   UNL A   1      40.643  25.757  27.656  1.00  0.00     0.029 A 
ATOM     37  C   UNL A   1      41.964  26.143  28.143  1.00  0.00     0.049 A 
ATOM     38  H   UNL A   1      42.473  27.867  29.194  1.00  0.00     0.167 HD
ATOM     39  C   UNL A   1      43.454  31.631  31.182  1.00  0.00     0.037 A 
ATOM     40  C   UNL A   1      43.091  25.423  27.985  1.00  0.00     0.037 A 
ATOM     41  C   UNL A   1      44.686  30.885  31.157  1.00  0.00     0.049 A 
ATOM     42  C   UNL A   1      44.387  25.956  28.535  1.00  0.00     0.074 A 
ATOM     43  C   UNL A   1      45.912  31.225  31.706  1.00  0.00     0.029 A 
ATOM     44  N   UNL A   1      44.855  29.654  30.539  1.00  0.00    -0.354 N 
ATOM     45  N   UNL A   1      44.615  27.069  29.188  1.00  0.00    -0.248 NA
ATOM     46  C   UNL A   1      45.584  25.129  28.326  1.00  0.00     0.031 C 
ATOM     47  C   UNL A   1      46.835  30.230  31.368  1.00  0.00     0.029 A 
ATOM     48  C   UNL A   1      46.173  29.238  30.664  1.00  0.00     0.049 A 
ATOM     49  H   UNL A   1      44.145  29.150  30.082  1.00  0.00     0.167 HD
ATOM     50  C   UNL A   1      45.970  27.065  29.489  1.00  0.00     0.074 A 
ATOM     51  C   UNL A   1      46.510  25.829  28.964  1.00  0.00     0.031 C 
ATOM     52  C   UNL A   1      46.702  28.004  30.138  1.00  0.00     0.037 A 
BRANCH  39  53
ATOM     53  C   UNL A   1      43.466  32.992  31.819  1.00  0.00     0.064 A 
ATOM     54  C   UNL A   1      43.275  33.162  33.199  1.00  0.00     0.173 A 
ATOM     55  C   UNL A   1      43.716  34.137  31.048  1.00  0.00     0.173 A 
ATOM     56  F   UNL A   1      43.025  32.102  33.983  1.00  0.00    -0.203 F 
ATOM     57  C   UNL A   1      43.304  34.430  33.776  1.00  0.00     0.198 A 
ATOM     58  C   UNL A   1      43.777  35.398  31.633  1.00  0.00     0.198 A 
ATOM     59  F   UNL A   1      43.914  34.032  29.725  1.00  0.00    -0.203 F 
ATOM     60  F   UNL A   1      43.069  34.572  35.088  1.00  0.00    -0.200 F 
ATOM     61  C   UNL A   1      43.563  35.545  32.996  1.00  0.00     0.200 A 
ATOM     62  F   UNL A   1      44.045  36.474  30.879  1.00  0.00    -0.200 F 
ATOM     63  F   UNL A   1      43.600  36.763  33.554  1.00  0.00    -0.200 F 
ENDBRANCH  39  53
BRANCH  40  64
ATOM     64  C   UNL A   1      43.047  24.115  27.277  1.00  0.00     0.064 A 
ATOM     65  C   UNL A   1      42.635  22.951  27.938  1.00  0.00     0.173 A 
ATOM     66  C   UNL A   1      43.429  24.001  25.932  1.00  0.00     0.173 A 
ATOM     67  F   UNL A   1      42.282  23.005  29.232  1.00  0.00    -0.203 F 
ATOM     68  C   UNL A   1      42.629  21.718  27.290  1.00  0.00     0.198 A 
ATOM     69  C   UNL A   1      43.390  22.773  25.274  1.00  0.00     0.198 A 
ATOM     70  F   UNL A   1      43.829  25.084  25.251  1.00  0.00    -0.203 F 
ATOM     71  F   UNL A   1      42.281  20.612  27.962  1.00  0.00    -0.200 F 
ATOM     72  C   UNL A   1      42.999  21.631  25.957  1.00  0.00     0.200 A 
ATOM     73  F   UNL A   1      43.736  22.696  23.983  1.00  0.00    -0.200 F 
ATOM     74  F   UNL A   1      42.990  20.445  25.333  1.00  0.00    -0.200 F 
ENDBRANCH  40  64
BRANCH  52  75
ATOM     75  C   UNL A   1      48.163  27.720  30.344  1.00  0.00     0.064 A 
ATOM     76  C   UNL A   1      48.619  26.949  31.424  1.00  0.00     0.173 A 
ATOM     77  C   UNL A   1      49.116  28.195  29.429  1.00  0.00     0.173 A 
ATOM     78  F   UNL A   1      47.752  26.483  32.336  1.00  0.00    -0.203 F 
ATOM     79  C   UNL A   1      49.976  26.689  31.595  1.00  0.00     0.198 A 
ATOM     80  C   UNL A   1      50.468  27.903  29.585  1.00  0.00     0.198 A 
ATOM     81  F   UNL A   1      48.734  28.932  28.375  1.00  0.00    -0.203 F 
ATOM     82  F   UNL A   1      50.393  25.995  32.664  1.00  0.00    -0.200 F 
ATOM     83  C   UNL A   1      50.898  27.158  30.672  1.00  0.00     0.200 A 
ATOM     84  F   UNL A   1      51.355  28.344  28.683  1.00  0.00    -0.200 F 
ATOM     85  F   UNL A   1      52.203  26.898  30.834  1.00  0.00    -0.200 F 
ENDBRANCH  52  75
ENDBRANCH  26  27
ENDBRANCH  18  21
ENDBRANCH  16  17
ENDBRANCH   1  16
TORSDOF 12
ENDMDL
MODEL 2
REMARK VINA RESULT:     -10.9      4.636     11.524
REMARK SMILES O=C(CSc1ccc(Br)cn1)NCCCNC(=O)c1ccc(-c2c3nc(c(-c4c(F)c(F)c(F)c(F)c4F)c4ccc([nH]4)c(-c4c(F)c(F)c(F)c(F)c4F)c4nc(c(-c5c(F)c(F)c(F)c(F)c5F)c5ccc2[nH]5)C=C4)C=C3)cc1
REMARK SMILES IDX 14 1 13 2 12 3 1 4 2 5 3 7 4 8 5 9 6 10 11 11 7 12 10 13
REMARK SMILES IDX 8 14 9 15 15 16 16 17 17 18 18 20 19 21 20 22 81 23 21 24
REMARK SMILES IDX 80 25 22 26 23 27 24 28 74 29 25 30 79 31 73 32 75 33 26 34
REMARK SMILES IDX 78 35 72 36 71 37 27 39 59 40 39 41 58 42 40 43 43 44 57 45
REMARK SMILES IDX 76 46 41 47 42 48 56 50 77 51 44 52 28 53 29 54 37 55 30 56
REMARK SMILES IDX 31 57 35 58 38 59 32 60 33 61 36 62 34 63 60 64 61 65 69 66
REMARK SMILES IDX 62 67 63 68 67 69 70 70 64 71 65 72 68 73 66 74 45 75 46 76
REMARK SMILES IDX 54 77 47 78 48 79 52 80 55 81 49 82 50 83 53 84 51 85
REMARK H PARENT 12 6 16 19 75 38 43 49
REMARK Flexibility Score: inf
ROOT
ATOM      1  C   UNL A   1      41.830  20.706  27.333  1.00  0.00     0.042 C 
ENDROOT
BRANCH   1   2
ATOM      2  C   UNL A   1      41.806  19.568  26.320  1.00  0.00     0.117 C 
BRANCH   2   3
ATOM      3  N   UNL A   1      42.853  19.679  25.327  1.00  0.00    -0.355 N 
ATOM      4  O   UNL A   1      44.156  17.980  26.149  1.00  0.00    -0.274 OA
ATOM      5  C   UNL A   1      43.927  18.817  25.276  1.00  0.00     0.230 C 
ATOM      6  H   UNL A   1      42.796  20.401  24.659  1.00  0.00     0.163 HD
BRANCH   5   7
ATOM      7  C   UNL A   1      44.905  19.056  24.137  1.00  0.00     0.176 C 
BRANCH   7   8
ATOM      8  S   UNL A   1      46.408  19.964  24.620  1.00  0.00    -0.096 SA
BRANCH   8   9
ATOM      9  C   UNL A   1      45.691  21.557  24.944  1.00  0.00     0.097 A 
ATOM     10  C   UNL A   1      44.881  22.168  23.992  1.00  0.00     0.037 A 
ATOM     11  N   UNL A   1      46.026  22.148  26.110  1.00  0.00    -0.249 NA
ATOM     12  C   UNL A   1      44.379  23.443  24.255  1.00  0.00     0.020 A 
ATOM     13  C   UNL A   1      45.523  23.385  26.343  1.00  0.00     0.128 A 
ATOM     14  C   UNL A   1      44.708  24.064  25.453  1.00  0.00     0.036 A 
ATOM     15  Br  UNL A   1      44.071  25.793  25.848  1.00  0.00    -0.049 Br
ENDBRANCH   8   9
ENDBRANCH   7   8
ENDBRANCH   5   7
ENDBRANCH   2   3
ENDBRANCH   1   2
BRANCH   1  16
ATOM     16  C   UNL A   1      41.483  22.076  26.755  1.00  0.00     0.118 C 
BRANCH  16  17
ATOM     17  N   UNL A   1      40.163  22.125  26.139  1.00  0.00    -0.352 N 
ATOM     18  C   UNL A   1      39.189  23.093  26.179  1.00  0.00     0.251 C 
ATOM     19  H   UNL A   1      39.931  21.332  25.603  1.00  0.00     0.163 HD
ATOM     20  O   UNL A   1      38.085  22.863  25.688  1.00  0.00    -0.269 OA
BRANCH  18  21
ATOM     21  C   UNL A   1      39.435  24.396  26.835  1.00  0.00     0.039 A 
ATOM     22  C   UNL A   1      38.990  24.577  28.149  1.00  0.00     0.014 A 
ATOM     23  C   UNL A   1      40.077  25.441  26.170  1.00  0.00     0.014 A 
ATOM     24  C   UNL A   1      39.273  25.768  28.824  1.00  0.00     0.010 A 
ATOM     25  C   UNL A   1      40.422  26.601  26.865  1.00  0.00     0.010 A 
ATOM     26  C   UNL A   1      40.037  26.770  28.204  1.00  0.00    -0.014 A 
BRANCH  26  27
ATOM     27  C   UNL A   1      40.484  27.972  28.957  1.00  0.00     0.031 A 
ATOM     28  C   UNL A   1      41.867  28.043  29.539  1.00  0.00     0.074 A 
ATOM     29  C   UNL A   1      39.610  28.974  29.180  1.00  0.00     0.049 A 
ATOM     30  N   UNL A   1      42.400  28.969  30.298  1.00  0.00    -0.248 NA
ATOM     31  C   UNL A   1      42.765  26.916  29.248  1.00  0.00     0.031 C 
ATOM     32  C   UNL A   1      38.227  29.010  28.701  1.00  0.00     0.029 A 
ATOM     33  N   UNL A   1      39.748  30.147  29.880  1.00  0.00    -0.354 N 
ATOM     34  C   UNL A   1      43.686  28.532  30.583  1.00  0.00     0.074 A 
ATOM     35  C   UNL A   1      43.839  27.237  29.956  1.00  0.00     0.031 C 
ATOM     36  C   UNL A   1      37.650  30.152  29.106  1.00  0.00     0.029 A 
ATOM     37  C   UNL A   1      38.603  30.907  29.914  1.00  0.00     0.049 A 
ATOM     38  H   UNL A   1      40.587  30.418  30.318  1.00  0.00     0.167 HD
ATOM     39  C   UNL A   1      44.657  29.164  31.286  1.00  0.00     0.037 A 
ATOM     40  C   UNL A   1      38.341  32.070  30.541  1.00  0.00     0.037 A 
ATOM     41  C   UNL A   1      44.505  30.457  31.901  1.00  0.00     0.049 A 
ATOM     42  C   UNL A   1      39.426  32.729  31.351  1.00  0.00     0.074 A 
ATOM     43  C   UNL A   1      45.450  31.203  32.587  1.00  0.00     0.029 A 
ATOM     44  N   UNL A   1      43.329  31.195  31.917  1.00  0.00    -0.354 N 
ATOM     45  N   UNL A   1      40.660  32.340  31.554  1.00  0.00    -0.248 NA
ATOM     46  C   UNL A   1      39.079  33.992  32.017  1.00  0.00     0.031 C 
ATOM     47  C   UNL A   1      44.830  32.361  33.069  1.00  0.00     0.029 A 
ATOM     48  C   UNL A   1      43.516  32.369  32.630  1.00  0.00     0.049 A 
ATOM     49  H   UNL A   1      42.488  30.924  31.484  1.00  0.00     0.167 HD
ATOM     50  C   UNL A   1      41.244  33.319  32.348  1.00  0.00     0.074 A 
ATOM     51  C   UNL A   1      40.233  34.330  32.573  1.00  0.00     0.031 C 
ATOM     52  C   UNL A   1      42.502  33.372  32.849  1.00  0.00     0.037 A 
BRANCH  39  53
ATOM     53  C   UNL A   1      45.977  28.460  31.439  1.00  0.00     0.064 A 
ATOM     54  C   UNL A   1      46.229  27.592  32.513  1.00  0.00     0.173 A 
ATOM     55  C   UNL A   1      46.985  28.620  30.477  1.00  0.00     0.173 A 
ATOM     56  F   UNL A   1      45.303  27.408  33.466  1.00  0.00    -0.203 F 
ATOM     57  C   UNL A   1      47.452  26.936  32.631  1.00  0.00     0.198 A 
ATOM     58  C   UNL A   1      48.193  27.937  30.581  1.00  0.00     0.198 A 
ATOM     59  F   UNL A   1      46.794  29.431  29.425  1.00  0.00    -0.203 F 
ATOM     60  F   UNL A   1      47.689  26.151  33.692  1.00  0.00    -0.200 F 
ATOM     61  C   UNL A   1      48.430  27.102  31.663  1.00  0.00     0.200 A 
ATOM     62  F   UNL A   1      49.130  28.086  29.634  1.00  0.00    -0.200 F 
ATOM     63  F   UNL A   1      49.602  26.462  31.774  1.00  0.00    -0.200 F 
ENDBRANCH  39  53
BRANCH  40  64
ATOM     64  C   UNL A   1      36.995  32.691  30.427  1.00  0.00     0.064 A 
ATOM     65  C   UNL A   1      36.664  33.500  29.333  1.00  0.00     0.173 A 
ATOM     66  C   UNL A   1      36.017  32.499  31.416  1.00  0.00     0.173 A 
ATOM     67  F   UNL A   1      37.572  33.732  28.373  1.00  0.00    -0.203 F 
ATOM     68  C   UNL A   1      35.417  34.115  29.241  1.00  0.00     0.198 A 
ATOM     69  C   UNL A   1      34.759  33.087  31.307  1.00  0.00     0.198 A 
ATOM     70  F   UNL A   1      36.281  31.732  32.483  1.00  0.00    -0.203 F 
ATOM     71  F   UNL A   1      35.146  34.926  28.211  1.00  0.00    -0.200 F 
ATOM     72  C   UNL A   1      34.463  33.902  30.225  1.00  0.00     0.200 A 
ATOM     73  F   UNL A   1      33.835  32.868  32.253  1.00  0.00    -0.200 F 
ATOM     74  F   UNL A   1      33.262  34.491  30.135  1.00  0.00    -0.200 F 
ENDBRANCH  40  64
BRANCH  52  75
ATOM     75  C   UNL A   1      42.869  34.577  33.667  1.00  0.00     0.064 A 
ATOM     76  C   UNL A   1      43.271  35.781  33.069  1.00  0.00     0.173 A 
ATOM     77  C   UNL A   1      42.784  34.539  35.068  1.00  0.00     0.173 A 
ATOM     78  F   UNL A   1      43.385  35.867  31.735  1.00  0.00    -0.203 F 
ATOM     79  C   UNL A   1      43.600  36.891  33.842  1.00  0.00     0.198 A 
ATOM     80  C   UNL A   1      43.080  35.662  35.836  1.00  0.00     0.198 A 
ATOM     81  F   UNL A   1      42.399  33.415  35.692  1.00  0.00    -0.203 F 
ATOM     82  F   UNL A   1      44.033  38.013  33.250  1.00  0.00    -0.200 F 
ATOM     83  C   UNL A   1      43.496  36.833  35.224  1.00  0.00     0.200 A 
ATOM     84  F   UNL A   1      42.963  35.608  37.170  1.00  0.00    -0.200 F 
ATOM     85  F   UNL A   1      43.804  37.906  35.966  1.00  0.00    -0.200 F 
ENDBRANCH  52  75
ENDBRANCH  26  27
ENDBRANCH  18  21
ENDBRANCH  16  17
ENDBRANCH   1  16
TORSDOF 12
ENDMDL
MODEL 3
REMARK VINA RESULT:     -10.9      4.615     11.274
REMARK SMILES O=C(CSc1ccc(Br)cn1)NCCCNC(=O)c1ccc(-c2c3nc(c(-c4c(F)c(F)c(F)c(F)c4F)c4ccc([nH]4)c(-c4c(F)c(F)c(F)c(F)c4F)c4nc(c(-c5c(F)c(F)c(F)c(F)c5F)c5ccc2[nH]5)C=C4)C=C3)cc1
REMARK SMILES IDX 14 1 13 2 12 3 1 4 2 5 3 7 4 8 5 9 6 10 11 11 7 12 10 13
REMARK SMILES IDX 8 14 9 15 15 16 16 17 17 18 18 20 19 21 20 22 81 23 21 24
REMARK SMILES IDX 80 25 22 26 23 27 24 28 74 29 25 30 79 31 73 32 75 33 26 34
REMARK SMILES IDX 78 35 72 36 71 37 27 39 59 40 39 41 58 42 40 43 43 44 57 45
REMARK SMILES IDX 76 46 41 47 42 48 56 50 77 51 44 52 28 53 29 54 37 55 30 56
REMARK SMILES IDX 31 57 35 58 38 59 32 60 33 61 36 62 34 63 60 64 61 65 69 66
REMARK SMILES IDX 62 67 63 68 67 69 70 70 64 71 65 72 68 73 66 74 45 75 46 76
REMARK SMILES IDX 54 77 47 78 48 79 52 80 55 81 49 82 50 83 53 84 51 85
REMARK H PARENT 12 6 16 19 75 38 43 49
REMARK Flexibility Score: inf
ROOT
ATOM      1  C   UNL A   1      40.996  21.311  27.527  1.00  0.00     0.042 C 
ENDROOT
BRANCH   1   2
ATOM      2  C   UNL A   1      41.406  19.845  27.453  1.00  0.00     0.117 C 
BRANCH   2   3
ATOM      3  N   UNL A   1      42.759  19.664  26.974  1.00  0.00    -0.355 N 
ATOM      4  O   UNL A   1      42.313  17.846  25.650  1.00  0.00    -0.274 OA
ATOM      5  C   UNL A   1      43.098  18.708  26.041  1.00  0.00     0.230 C 
ATOM      6  H   UNL A   1      43.468  20.249  27.330  1.00  0.00     0.163 HD
BRANCH   5   7
ATOM      7  C   UNL A   1      44.560  18.694  25.620  1.00  0.00     0.176 C 
BRANCH   7   8
ATOM      8  S   UNL A   1      44.886  19.500  24.021  1.00  0.00    -0.096 SA
BRANCH   8   9
ATOM      9  C   UNL A   1      44.886  21.197  24.548  1.00  0.00     0.097 A 
ATOM     10  C   UNL A   1      45.636  21.588  25.651  1.00  0.00     0.037 A 
ATOM     11  N   UNL A   1      44.083  22.044  23.869  1.00  0.00    -0.249 NA
ATOM     12  C   UNL A   1      45.571  22.917  26.073  1.00  0.00     0.020 A 
ATOM     13  C   UNL A   1      44.039  23.330  24.295  1.00  0.00     0.128 A 
ATOM     14  C   UNL A   1      44.755  23.804  25.382  1.00  0.00     0.036 A 
ATOM     15  Br  UNL A   1      44.616  25.605  25.922  1.00  0.00    -0.049 Br
ENDBRANCH   8   9
ENDBRANCH   7   8
ENDBRANCH   5   7
ENDBRANCH   2   3
ENDBRANCH   1   2
BRANCH   1  16
ATOM     16  C   UNL A   1      40.922  22.017  26.175  1.00  0.00     0.118 C 
BRANCH  16  17
ATOM     17  N   UNL A   1      39.569  22.409  25.801  1.00  0.00    -0.352 N 
ATOM     18  C   UNL A   1      38.831  23.519  26.134  1.00  0.00     0.251 C 
ATOM     19  H   UNL A   1      39.106  21.771  25.210  1.00  0.00     0.163 HD
ATOM     20  O   UNL A   1      37.647  23.580  25.810  1.00  0.00    -0.269 OA
BRANCH  18  21
ATOM     21  C   UNL A   1      39.430  24.628  26.909  1.00  0.00     0.039 A 
ATOM     22  C   UNL A   1      40.210  25.571  26.233  1.00  0.00     0.014 A 
ATOM     23  C   UNL A   1      39.249  24.738  28.289  1.00  0.00     0.014 A 
ATOM     24  C   UNL A   1      40.727  26.672  26.921  1.00  0.00     0.010 A 
ATOM     25  C   UNL A   1      39.704  25.873  28.962  1.00  0.00     0.010 A 
ATOM     26  C   UNL A   1      40.433  26.860  28.282  1.00  0.00    -0.014 A 
BRANCH  26  27
ATOM     27  C   UNL A   1      40.839  28.102  28.992  1.00  0.00     0.031 A 
ATOM     28  C   UNL A   1      42.225  28.248  29.554  1.00  0.00     0.074 A 
ATOM     29  C   UNL A   1      39.927  29.074  29.197  1.00  0.00     0.049 A 
ATOM     30  N   UNL A   1      42.727  29.217  30.277  1.00  0.00    -0.248 NA
ATOM     31  C   UNL A   1      43.164  27.150  29.285  1.00  0.00     0.031 C 
ATOM     32  C   UNL A   1      38.538  29.038  28.735  1.00  0.00     0.029 A 
ATOM     33  N   UNL A   1      40.024  30.273  29.859  1.00  0.00    -0.354 N 
ATOM     34  C   UNL A   1      44.034  28.843  30.558  1.00  0.00     0.074 A 
ATOM     35  C   UNL A   1      44.233  27.536  29.969  1.00  0.00     0.031 C 
ATOM     36  C   UNL A   1      37.919  30.168  29.112  1.00  0.00     0.029 A 
ATOM     37  C   UNL A   1      38.850  30.985  29.885  1.00  0.00     0.049 A 
ATOM     38  H   UNL A   1      40.857  30.591  30.277  1.00  0.00     0.167 HD
ATOM     39  C   UNL A   1      44.986  29.535  31.230  1.00  0.00     0.037 A 
ATOM     40  C   UNL A   1      38.547  32.155  30.480  1.00  0.00     0.037 A 
ATOM     41  C   UNL A   1      44.788  30.839  31.807  1.00  0.00     0.049 A 
ATOM     42  C   UNL A   1      39.613  32.883  31.254  1.00  0.00     0.074 A 
ATOM     43  C   UNL A   1      45.709  31.644  32.458  1.00  0.00     0.029 A 
ATOM     44  N   UNL A   1      43.583  31.528  31.816  1.00  0.00    -0.354 N 
ATOM     45  N   UNL A   1      40.865  32.551  31.453  1.00  0.00    -0.248 NA
ATOM     46  C   UNL A   1      39.222  34.150  31.887  1.00  0.00     0.031 C 
ATOM     47  C   UNL A   1      45.048  32.789  32.912  1.00  0.00     0.029 A 
ATOM     48  C   UNL A   1      43.730  32.731  32.491  1.00  0.00     0.049 A 
ATOM     49  H   UNL A   1      42.749  31.210  31.402  1.00  0.00     0.167 HD
ATOM     50  C   UNL A   1      41.417  33.577  32.210  1.00  0.00     0.074 A 
ATOM     51  C   UNL A   1      40.368  34.553  32.417  1.00  0.00     0.031 C 
ATOM     52  C   UNL A   1      42.678  33.697  32.692  1.00  0.00     0.037 A 
BRANCH  39  53
ATOM     53  C   UNL A   1      46.336  28.891  31.386  1.00  0.00     0.064 A 
ATOM     54  C   UNL A   1      46.644  28.087  32.494  1.00  0.00     0.173 A 
ATOM     55  C   UNL A   1      47.317  29.042  30.395  1.00  0.00     0.173 A 
ATOM     56  F   UNL A   1      45.746  27.914  33.476  1.00  0.00    -0.203 F 
ATOM     57  C   UNL A   1      47.895  27.485  32.617  1.00  0.00     0.198 A 
ATOM     58  C   UNL A   1      48.553  28.412  30.505  1.00  0.00     0.198 A 
ATOM     59  F   UNL A   1      47.072  29.793  29.310  1.00  0.00    -0.203 F 
ATOM     60  F   UNL A   1      48.184  26.763  33.709  1.00  0.00    -0.200 F 
ATOM     61  C   UNL A   1      48.844  27.640  31.620  1.00  0.00     0.200 A 
ATOM     62  F   UNL A   1      49.463  28.550  29.530  1.00  0.00    -0.200 F 
ATOM     63  F   UNL A   1      50.043  27.053  31.735  1.00  0.00    -0.200 F 
ENDBRANCH  39  53
BRANCH  40  64
ATOM     64  C   UNL A   1      37.175  32.717  30.365  1.00  0.00     0.064 A 
ATOM     65  C   UNL A   1      36.214  32.482  31.357  1.00  0.00     0.173 A 
ATOM     66  C   UNL A   1      36.792  33.487  29.256  1.00  0.00     0.173 A 
ATOM     67  F   UNL A   1      36.525  31.732  32.426  1.00  0.00    -0.203 F 
ATOM     68  C   UNL A   1      34.917  32.974  31.235  1.00  0.00     0.198 A 
ATOM     69  C   UNL A   1      35.504  34.007  29.151  1.00  0.00     0.198 A 
ATOM     70  F   UNL A   1      37.673  33.744  28.279  1.00  0.00    -0.203 F 
ATOM     71  F   UNL A   1      34.004  32.689  32.173  1.00  0.00    -0.200 F 
ATOM     72  C   UNL A   1      34.564  33.742  30.136  1.00  0.00     0.200 A 
ATOM     73  F   UNL A   1      35.172  34.760  28.094  1.00  0.00    -0.200 F 
ATOM     74  F   UNL A   1      33.317  34.217  30.021  1.00  0.00    -0.200 F 
ENDBRANCH  40  64
BRANCH  52  75
ATOM     75  C   UNL A   1      43.005  34.941  33.469  1.00  0.00     0.064 A 
ATOM     76  C   UNL A   1      42.906  34.985  34.867  1.00  0.00     0.173 A 
ATOM     77  C   UNL A   1      43.456  36.094  32.807  1.00  0.00     0.173 A 
ATOM     78  F   UNL A   1      42.465  33.916  35.547  1.00  0.00    -0.203 F 
ATOM     79  C   UNL A   1      43.221  36.144  35.571  1.00  0.00     0.198 A 
ATOM     80  C   UNL A   1      43.803  37.240  33.518  1.00  0.00     0.198 A 
ATOM     81  F   UNL A   1      43.575  36.106  31.471  1.00  0.00    -0.203 F 
ATOM     82  F   UNL A   1      43.068  36.179  36.903  1.00  0.00    -0.200 F 
ATOM     83  C   UNL A   1      43.676  37.267  34.898  1.00  0.00     0.200 A 
ATOM     84  F   UNL A   1      44.258  38.319  32.866  1.00  0.00    -0.200 F 
ATOM     85  F   UNL A   1      43.987  38.379  35.579  1.00  0.00    -0.200 F 
ENDBRANCH  52  75
ENDBRANCH  26  27
ENDBRANCH  18  21
ENDBRANCH  16  17
ENDBRANCH   1  16
TORSDOF 12
ENDMDL
