MODEL 1
REMARK VINA RESULT:     -11.4      0.000      0.000
REMARK SMILES CCC(CC)NC(=O)NC[C@H]1CC[C@H](C(=O)NCCCNC(=O)c2ccc(-c3c4nc(c(-c5c(F)c(F)c(F)c(F)c5F)c5ccc([nH]5)c(-c5c(F)c(F)c(F)c(F)c5F)c5nc(c(-c6c(F)c(F)c(F)c(F)c6F)c6ccc3[nH]6)C=C5)C=C4)cc2)O1
REMARK SMILES IDX 18 1 17 2 15 3 16 4 14 6 11 7 12 8 87 9 13 10 10 11 9 12
REMARK SMILES IDX 6 13 7 14 8 16 3 18 2 19 1 20 4 21 5 22 19 23 20 24 21 25
REMARK SMILES IDX 22 26 23 28 24 29 25 30 86 31 26 32 85 33 27 34 28 35 29 36
REMARK SMILES IDX 79 37 30 38 84 39 78 40 80 41 31 42 83 43 77 44 76 45 32 47
REMARK SMILES IDX 64 48 44 49 63 50 45 51 48 52 62 53 81 54 46 55 47 56 61 58
REMARK SMILES IDX 82 59 49 60 33 61 34 62 42 63 35 64 36 65 40 66 43 67 37 68
REMARK SMILES IDX 38 69 41 70 39 71 65 72 66 73 74 74 67 75 68 76 72 77 75 78
REMARK SMILES IDX 69 79 70 80 73 81 71 82 50 83 51 84 59 85 52 86 53 87 57 88
REMARK SMILES IDX 60 89 54 90 55 91 58 92 56 93
REMARK H PARENT 17 5 6 15 9 17 21 27 80 46 48 57
REMARK Flexibility Score: inf
ROOT
ATOM      1  C   UNL A   1      37.227  20.660  24.634  1.00  0.00     0.117 C 
ENDROOT
BRANCH   1   2
ATOM      2  N   UNL A   1      37.705  21.937  25.120  1.00  0.00    -0.354 N 
ATOM      3  C   UNL A   1      37.022  23.099  25.328  1.00  0.00     0.249 C 
ATOM      4  O   UNL A   1      37.664  24.066  25.746  1.00  0.00    -0.272 OA
ATOM      5  H   UNL A   1      38.665  21.971  25.333  1.00  0.00     0.163 HD
BRANCH   3   6
ATOM      6  C   UNL A   1      35.527  23.235  24.963  1.00  0.00     0.207 C 
ATOM      7  C   UNL A   1      34.230  24.798  23.789  1.00  0.00     0.138 C 
ATOM      8  C   UNL A   1      34.239  25.240  25.239  1.00  0.00     0.037 C 
ATOM      9  O   UNL A   1      35.234  23.772  23.669  1.00  0.00    -0.363 OA
ATOM     10  C   UNL A   1      34.778  24.058  26.000  1.00  0.00     0.045 C 
BRANCH   7  11
ATOM     11  C   UNL A   1      32.883  24.325  23.208  1.00  0.00     0.149 C 
BRANCH  11  12
ATOM     12  N   UNL A   1      32.734  24.550  21.778  1.00  0.00    -0.336 N 
ATOM     13  N   UNL A   1      32.485  26.868  21.411  1.00  0.00    -0.335 N 
ATOM     14  C   UNL A   1      32.738  25.624  20.981  1.00  0.00     0.315 C 
ATOM     15  H   UNL A   1      32.734  27.571  20.768  1.00  0.00     0.165 HD
ATOM     16  O   UNL A   1      32.972  25.460  19.784  1.00  0.00    -0.249 OA
ATOM     17  H   UNL A   1      32.598  23.713  21.278  1.00  0.00     0.165 HD
BRANCH  13  18
ATOM     18  C   UNL A   1      31.912  27.372  22.646  1.00  0.00     0.083 C 
BRANCH  18  19
ATOM     19  C   UNL A   1      32.685  28.601  23.133  1.00  0.00     0.021 C 
ATOM     20  C   UNL A   1      34.144  28.579  22.699  1.00  0.00     0.006 C 
ENDBRANCH  18  19
BRANCH  18  21
ATOM     21  C   UNL A   1      30.386  27.537  22.527  1.00  0.00     0.021 C 
ATOM     22  C   UNL A   1      29.785  28.703  23.289  1.00  0.00     0.006 C 
ENDBRANCH  18  21
ENDBRANCH  13  18
ENDBRANCH  11  12
ENDBRANCH   7  11
ENDBRANCH   3   6
ENDBRANCH   1   2
BRANCH   1  23
ATOM     23  C   UNL A   1      38.196  19.531  24.961  1.00  0.00     0.042 C 
BRANCH  23  24
ATOM     24  C   UNL A   1      39.198  19.902  26.040  1.00  0.00     0.118 C 
BRANCH  24  25
ATOM     25  N   UNL A   1      40.355  19.018  26.019  1.00  0.00    -0.352 N 
ATOM     26  C   UNL A   1      41.694  19.310  26.010  1.00  0.00     0.251 C 
ATOM     27  H   UNL A   1      40.142  18.057  26.011  1.00  0.00     0.163 HD
ATOM     28  O   UNL A   1      42.502  18.434  25.726  1.00  0.00    -0.269 OA
BRANCH  26  29
ATOM     29  C   UNL A   1      42.170  20.670  26.340  1.00  0.00     0.039 A 
ATOM     30  C   UNL A   1      42.367  21.007  27.682  1.00  0.00     0.014 A 
ATOM     31  C   UNL A   1      42.365  21.629  25.343  1.00  0.00     0.014 A 
ATOM     32  C   UNL A   1      42.798  22.290  28.018  1.00  0.00     0.010 A 
ATOM     33  C   UNL A   1      42.880  22.877  25.670  1.00  0.00     0.010 A 
ATOM     34  C   UNL A   1      43.080  23.228  27.012  1.00  0.00    -0.014 A 
BRANCH  34  35
ATOM     35  C   UNL A   1      43.547  24.596  27.339  1.00  0.00     0.031 A 
ATOM     36  C   UNL A   1      42.576  25.603  27.891  1.00  0.00     0.074 A 
ATOM     37  C   UNL A   1      44.820  24.946  27.077  1.00  0.00     0.049 A 
ATOM     38  N   UNL A   1      42.757  26.873  28.151  1.00  0.00    -0.248 NA
ATOM     39  C   UNL A   1      41.209  25.126  28.159  1.00  0.00     0.031 C 
ATOM     40  C   UNL A   1      45.839  24.065  26.502  1.00  0.00     0.029 A 
ATOM     41  N   UNL A   1      45.473  26.140  27.249  1.00  0.00    -0.354 N 
ATOM     42  C   UNL A   1      41.527  27.346  28.590  1.00  0.00     0.074 A 
ATOM     43  C   UNL A   1      40.594  26.244  28.510  1.00  0.00     0.031 C 
ATOM     44  C   UNL A   1      46.992  24.743  26.390  1.00  0.00     0.029 A 
ATOM     45  C   UNL A   1      46.784  26.113  26.844  1.00  0.00     0.049 A 
ATOM     46  H   UNL A   1      45.040  26.941  27.626  1.00  0.00     0.167 HD
ATOM     47  C   UNL A   1      41.213  28.581  29.045  1.00  0.00     0.037 A 
ATOM     48  C   UNL A   1      47.710  27.091  26.834  1.00  0.00     0.037 A 
ATOM     49  C   UNL A   1      42.156  29.663  29.152  1.00  0.00     0.049 A 
ATOM     50  C   UNL A   1      47.333  28.456  27.344  1.00  0.00     0.074 A 
ATOM     51  C   UNL A   1      41.955  30.938  29.650  1.00  0.00     0.029 A 
ATOM     52  N   UNL A   1      43.484  29.590  28.757  1.00  0.00    -0.354 N 
ATOM     53  N   UNL A   1      46.182  28.876  27.813  1.00  0.00    -0.248 NA
ATOM     54  C   UNL A   1      48.385  29.480  27.331  1.00  0.00     0.031 C 
ATOM     55  C   UNL A   1      43.151  31.651  29.517  1.00  0.00     0.029 A 
ATOM     56  C   UNL A   1      44.111  30.804  28.985  1.00  0.00     0.049 A 
ATOM     57  H   UNL A   1      43.917  28.794  28.373  1.00  0.00     0.167 HD
ATOM     58  C   UNL A   1      46.380  30.201  28.178  1.00  0.00     0.074 A 
ATOM     59  C   UNL A   1      47.765  30.510  27.890  1.00  0.00     0.031 C 
ATOM     60  C   UNL A   1      45.496  31.083  28.704  1.00  0.00     0.037 A 
BRANCH  47  61
ATOM     61  C   UNL A   1      39.793  28.828  29.469  1.00  0.00     0.064 A 
ATOM     62  C   UNL A   1      39.364  28.579  30.781  1.00  0.00     0.173 A 
ATOM     63  C   UNL A   1      38.859  29.354  28.563  1.00  0.00     0.173 A 
ATOM     64  F   UNL A   1      40.214  28.063  31.683  1.00  0.00    -0.203 F 
ATOM     65  C   UNL A   1      38.047  28.820  31.164  1.00  0.00     0.198 A 
ATOM     66  C   UNL A   1      37.552  29.624  28.958  1.00  0.00     0.198 A 
ATOM     67  F   UNL A   1      39.218  29.614  27.297  1.00  0.00    -0.203 F 
ATOM     68  F   UNL A   1      37.649  28.528  32.410  1.00  0.00    -0.200 F 
ATOM     69  C   UNL A   1      37.145  29.350  30.255  1.00  0.00     0.200 A 
ATOM     70  F   UNL A   1      36.683  30.148  28.082  1.00  0.00    -0.200 F 
ATOM     71  F   UNL A   1      35.880  29.591  30.627  1.00  0.00    -0.200 F 
ENDBRANCH  47  61
BRANCH  48  72
ATOM     72  C   UNL A   1      49.086  26.811  26.349  1.00  0.00     0.064 A 
ATOM     73  C   UNL A   1      49.443  27.062  25.017  1.00  0.00     0.173 A 
ATOM     74  C   UNL A   1      50.068  26.281  27.198  1.00  0.00     0.173 A 
ATOM     75  F   UNL A   1      48.533  27.552  24.162  1.00  0.00    -0.203 F 
ATOM     76  C   UNL A   1      50.721  26.770  24.546  1.00  0.00     0.198 A 
ATOM     77  C   UNL A   1      51.355  26.019  26.735  1.00  0.00     0.198 A 
ATOM     78  F   UNL A   1      49.781  26.032  28.485  1.00  0.00    -0.203 F 
ATOM     79  F   UNL A   1      51.020  26.974  23.256  1.00  0.00    -0.200 F 
ATOM     80  C   UNL A   1      51.678  26.252  25.407  1.00  0.00     0.200 A 
ATOM     81  F   UNL A   1      52.282  25.534  27.573  1.00  0.00    -0.200 F 
ATOM     82  F   UNL A   1      52.908  25.975  24.954  1.00  0.00    -0.200 F 
ENDBRANCH  48  72
BRANCH  60  83
ATOM     83  C   UNL A   1      46.010  32.452  29.041  1.00  0.00     0.064 A 
ATOM     84  C   UNL A   1      46.645  32.721  30.261  1.00  0.00     0.173 A 
ATOM     85  C   UNL A   1      45.901  33.496  28.110  1.00  0.00     0.173 A 
ATOM     86  F   UNL A   1      46.758  31.760  31.190  1.00  0.00    -0.203 F 
ATOM     87  C   UNL A   1      47.130  33.994  30.548  1.00  0.00     0.198 A 
ATOM     88  C   UNL A   1      46.415  34.759  28.388  1.00  0.00     0.198 A 
ATOM     89  F   UNL A   1      45.309  33.288  26.924  1.00  0.00    -0.203 F 
ATOM     90  F   UNL A   1      47.690  34.242  31.740  1.00  0.00    -0.200 F 
ATOM     91  C   UNL A   1      47.021  35.009  29.609  1.00  0.00     0.200 A 
ATOM     92  F   UNL A   1      46.323  35.735  27.473  1.00  0.00    -0.200 F 
ATOM     93  F   UNL A   1      47.497  36.231  29.885  1.00  0.00    -0.200 F 
ENDBRANCH  60  83
ENDBRANCH  34  35
ENDBRANCH  26  29
ENDBRANCH  24  25
ENDBRANCH  23  24
ENDBRANCH   1  23
TORSDOF 15
ENDMDL
MODEL 2
REMARK VINA RESULT:     -11.4      0.185      1.616
REMARK SMILES CCC(CC)NC(=O)NC[C@H]1CC[C@H](C(=O)NCCCNC(=O)c2ccc(-c3c4nc(c(-c5c(F)c(F)c(F)c(F)c5F)c5ccc([nH]5)c(-c5c(F)c(F)c(F)c(F)c5F)c5nc(c(-c6c(F)c(F)c(F)c(F)c6F)c6ccc3[nH]6)C=C5)C=C4)cc2)O1
REMARK SMILES IDX 18 1 17 2 15 3 16 4 14 6 11 7 12 8 87 9 13 10 10 11 9 12
REMARK SMILES IDX 6 13 7 14 8 16 3 18 2 19 1 20 4 21 5 22 19 23 20 24 21 25
REMARK SMILES IDX 22 26 23 28 24 29 25 30 86 31 26 32 85 33 27 34 28 35 29 36
REMARK SMILES IDX 79 37 30 38 84 39 78 40 80 41 31 42 83 43 77 44 76 45 32 47
REMARK SMILES IDX 64 48 44 49 63 50 45 51 48 52 62 53 81 54 46 55 47 56 61 58
REMARK SMILES IDX 82 59 49 60 33 61 34 62 42 63 35 64 36 65 40 66 43 67 37 68
REMARK SMILES IDX 38 69 41 70 39 71 65 72 66 73 74 74 67 75 68 76 72 77 75 78
REMARK SMILES IDX 69 79 70 80 73 81 71 82 50 83 51 84 59 85 52 86 53 87 57 88
REMARK SMILES IDX 60 89 54 90 55 91 58 92 56 93
REMARK H PARENT 17 5 6 15 9 17 21 27 80 46 48 57
REMARK Flexibility Score: inf
ROOT
ATOM      1  C   UNL A   1      37.228  20.639  24.719  1.00  0.00     0.117 C 
ENDROOT
BRANCH   1   2
ATOM      2  N   UNL A   1      37.639  21.899  25.299  1.00  0.00    -0.354 N 
ATOM      3  C   UNL A   1      36.914  23.033  25.518  1.00  0.00     0.249 C 
ATOM      4  O   UNL A   1      37.502  23.991  26.028  1.00  0.00    -0.272 OA
ATOM      5  H   UNL A   1      38.582  21.943  25.579  1.00  0.00     0.163 HD
BRANCH   3   6
ATOM      6  C   UNL A   1      35.444  23.155  25.060  1.00  0.00     0.207 C 
ATOM      7  C   UNL A   1      34.238  24.629  23.692  1.00  0.00     0.138 C 
ATOM      8  C   UNL A   1      34.173  25.189  25.099  1.00  0.00     0.037 C 
ATOM      9  O   UNL A   1      35.231  23.587  23.712  1.00  0.00    -0.363 OA
ATOM     10  C   UNL A   1      34.651  24.068  25.982  1.00  0.00     0.045 C 
BRANCH   7  11
ATOM     11  C   UNL A   1      32.918  24.125  23.076  1.00  0.00     0.149 C 
BRANCH  11  12
ATOM     12  N   UNL A   1      32.760  24.430  21.661  1.00  0.00    -0.336 N 
ATOM     13  N   UNL A   1      32.476  26.761  21.430  1.00  0.00    -0.335 N 
ATOM     14  C   UNL A   1      32.745  25.548  20.928  1.00  0.00     0.315 C 
ATOM     15  H   UNL A   1      32.713  27.504  20.828  1.00  0.00     0.165 HD
ATOM     16  O   UNL A   1      32.976  25.456  19.723  1.00  0.00    -0.249 OA
ATOM     17  H   UNL A   1      32.634  23.621  21.115  1.00  0.00     0.165 HD
BRANCH  13  18
ATOM     18  C   UNL A   1      31.902  27.185  22.693  1.00  0.00     0.083 C 
BRANCH  18  19
ATOM     19  C   UNL A   1      32.801  28.224  23.370  1.00  0.00     0.021 C 
ATOM     20  C   UNL A   1      34.042  28.540  22.548  1.00  0.00     0.006 C 
ENDBRANCH  18  19
BRANCH  18  21
ATOM     21  C   UNL A   1      30.422  27.576  22.530  1.00  0.00     0.021 C 
ATOM     22  C   UNL A   1      30.135  29.065  22.462  1.00  0.00     0.006 C 
ENDBRANCH  18  21
ENDBRANCH  13  18
ENDBRANCH  11  12
ENDBRANCH   7  11
ENDBRANCH   3   6
ENDBRANCH   1   2
BRANCH   1  23
ATOM     23  C   UNL A   1      38.260  19.543  24.951  1.00  0.00     0.042 C 
BRANCH  23  24
ATOM     24  C   UNL A   1      39.246  19.882  26.056  1.00  0.00     0.118 C 
BRANCH  24  25
ATOM     25  N   UNL A   1      40.406  19.002  26.022  1.00  0.00    -0.352 N 
ATOM     26  C   UNL A   1      41.744  19.299  26.007  1.00  0.00     0.251 C 
ATOM     27  H   UNL A   1      40.196  18.040  26.010  1.00  0.00     0.163 HD
ATOM     28  O   UNL A   1      42.554  18.427  25.712  1.00  0.00    -0.269 OA
BRANCH  26  29
ATOM     29  C   UNL A   1      42.217  20.658  26.342  1.00  0.00     0.039 A 
ATOM     30  C   UNL A   1      42.403  20.994  27.685  1.00  0.00     0.014 A 
ATOM     31  C   UNL A   1      42.421  21.618  25.347  1.00  0.00     0.014 A 
ATOM     32  C   UNL A   1      42.831  22.277  28.027  1.00  0.00     0.010 A 
ATOM     33  C   UNL A   1      42.933  22.865  25.679  1.00  0.00     0.010 A 
ATOM     34  C   UNL A   1      43.122  23.215  27.024  1.00  0.00    -0.014 A 
BRANCH  34  35
ATOM     35  C   UNL A   1      43.586  24.583  27.356  1.00  0.00     0.031 A 
ATOM     36  C   UNL A   1      42.610  25.590  27.899  1.00  0.00     0.074 A 
ATOM     37  C   UNL A   1      44.862  24.933  27.106  1.00  0.00     0.049 A 
ATOM     38  N   UNL A   1      42.789  26.860  28.161  1.00  0.00    -0.248 NA
ATOM     39  C   UNL A   1      41.241  25.113  28.154  1.00  0.00     0.031 C 
ATOM     40  C   UNL A   1      45.886  24.052  26.540  1.00  0.00     0.029 A 
ATOM     41  N   UNL A   1      45.513  26.127  27.285  1.00  0.00    -0.354 N 
ATOM     42  C   UNL A   1      41.555  27.333  28.589  1.00  0.00     0.074 A 
ATOM     43  C   UNL A   1      40.623  26.232  28.500  1.00  0.00     0.031 C 
ATOM     44  C   UNL A   1      47.040  24.729  26.439  1.00  0.00     0.029 A 
ATOM     45  C   UNL A   1      46.828  26.100  26.892  1.00  0.00     0.049 A 
ATOM     46  H   UNL A   1      45.077  26.927  27.659  1.00  0.00     0.167 HD
ATOM     47  C   UNL A   1      41.237  28.568  29.042  1.00  0.00     0.037 A 
ATOM     48  C   UNL A   1      47.754  27.077  26.892  1.00  0.00     0.037 A 
ATOM     49  C   UNL A   1      42.179  29.649  29.159  1.00  0.00     0.049 A 
ATOM     50  C   UNL A   1      47.373  28.442  27.398  1.00  0.00     0.074 A 
ATOM     51  C   UNL A   1      41.975  30.924  29.656  1.00  0.00     0.029 A 
ATOM     52  N   UNL A   1      43.512  29.576  28.776  1.00  0.00    -0.354 N 
ATOM     53  N   UNL A   1      46.218  28.862  27.857  1.00  0.00    -0.248 NA
ATOM     54  C   UNL A   1      48.426  29.466  27.396  1.00  0.00     0.031 C 
ATOM     55  C   UNL A   1      43.172  31.637  29.534  1.00  0.00     0.029 A 
ATOM     56  C   UNL A   1      44.137  30.790  29.011  1.00  0.00     0.049 A 
ATOM     57  H   UNL A   1      43.948  28.780  28.396  1.00  0.00     0.167 HD
ATOM     58  C   UNL A   1      46.413  30.187  28.225  1.00  0.00     0.074 A 
ATOM     59  C   UNL A   1      47.801  30.495  27.950  1.00  0.00     0.031 C 
ATOM     60  C   UNL A   1      45.524  31.068  28.743  1.00  0.00     0.037 A 
BRANCH  47  61
ATOM     61  C   UNL A   1      39.814  28.815  29.453  1.00  0.00     0.064 A 
ATOM     62  C   UNL A   1      39.375  28.575  30.764  1.00  0.00     0.173 A 
ATOM     63  C   UNL A   1      38.886  29.332  28.536  1.00  0.00     0.173 A 
ATOM     64  F   UNL A   1      40.219  28.068  31.677  1.00  0.00    -0.203 F 
ATOM     65  C   UNL A   1      38.055  28.817  31.134  1.00  0.00     0.198 A 
ATOM     66  C   UNL A   1      37.575  29.602  28.918  1.00  0.00     0.198 A 
ATOM     67  F   UNL A   1      39.254  29.583  27.271  1.00  0.00    -0.203 F 
ATOM     68  F   UNL A   1      37.648  28.534  32.380  1.00  0.00    -0.200 F 
ATOM     69  C   UNL A   1      37.159  29.337  30.214  1.00  0.00     0.200 A 
ATOM     70  F   UNL A   1      36.712  30.117  28.032  1.00  0.00    -0.200 F 
ATOM     71  F   UNL A   1      35.890  29.578  30.574  1.00  0.00    -0.200 F 
ENDBRANCH  47  61
BRANCH  48  72
ATOM     72  C   UNL A   1      49.135  26.797  26.419  1.00  0.00     0.064 A 
ATOM     73  C   UNL A   1      50.108  26.298  27.297  1.00  0.00     0.173 A 
ATOM     74  C   UNL A   1      49.514  27.026  25.088  1.00  0.00     0.173 A 
ATOM     75  F   UNL A   1      49.797  26.080  28.583  1.00  0.00    -0.203 F 
ATOM     76  C   UNL A   1      51.413  26.066  26.869  1.00  0.00     0.198 A 
ATOM     77  C   UNL A   1      50.811  26.764  24.655  1.00  0.00     0.198 A 
ATOM     78  F   UNL A   1      48.618  27.492  24.205  1.00  0.00    -0.203 F 
ATOM     79  F   UNL A   1      52.335  25.637  27.743  1.00  0.00    -0.200 F 
ATOM     80  C   UNL A   1      51.763  26.295  25.547  1.00  0.00     0.200 A 
ATOM     81  F   UNL A   1      51.142  26.970  23.372  1.00  0.00    -0.200 F 
ATOM     82  F   UNL A   1      53.018  26.068  25.136  1.00  0.00    -0.200 F 
ENDBRANCH  48  72
BRANCH  60  83
ATOM     83  C   UNL A   1      46.036  32.437  29.085  1.00  0.00     0.064 A 
ATOM     84  C   UNL A   1      46.074  33.469  28.136  1.00  0.00     0.173 A 
ATOM     85  C   UNL A   1      46.455  32.728  30.392  1.00  0.00     0.173 A 
ATOM     86  F   UNL A   1      45.698  33.235  26.870  1.00  0.00    -0.203 F 
ATOM     87  C   UNL A   1      46.537  34.736  28.478  1.00  0.00     0.198 A 
ATOM     88  C   UNL A   1      46.888  34.005  30.738  1.00  0.00     0.198 A 
ATOM     89  F   UNL A   1      46.431  31.777  31.338  1.00  0.00    -0.203 F 
ATOM     90  F   UNL A   1      46.610  35.694  27.544  1.00  0.00    -0.200 F 
ATOM     91  C   UNL A   1      46.936  35.005  29.778  1.00  0.00     0.200 A 
ATOM     92  F   UNL A   1      47.259  34.267  31.998  1.00  0.00    -0.200 F 
ATOM     93  F   UNL A   1      47.373  36.228  30.107  1.00  0.00    -0.200 F 
ENDBRANCH  60  83
ENDBRANCH  34  35
ENDBRANCH  26  29
ENDBRANCH  24  25
ENDBRANCH  23  24
ENDBRANCH   1  23
TORSDOF 15
ENDMDL
MODEL 3
REMARK VINA RESULT:     -11.2      5.585      9.719
REMARK SMILES CCC(CC)NC(=O)NC[C@H]1CC[C@H](C(=O)NCCCNC(=O)c2ccc(-c3c4nc(c(-c5c(F)c(F)c(F)c(F)c5F)c5ccc([nH]5)c(-c5c(F)c(F)c(F)c(F)c5F)c5nc(c(-c6c(F)c(F)c(F)c(F)c6F)c6ccc3[nH]6)C=C5)C=C4)cc2)O1
REMARK SMILES IDX 18 1 17 2 15 3 16 4 14 6 11 7 12 8 87 9 13 10 10 11 9 12
REMARK SMILES IDX 6 13 7 14 8 16 3 18 2 19 1 20 4 21 5 22 19 23 20 24 21 25
REMARK SMILES IDX 22 26 23 28 24 29 25 30 86 31 26 32 85 33 27 34 28 35 29 36
REMARK SMILES IDX 79 37 30 38 84 39 78 40 80 41 31 42 83 43 77 44 76 45 32 47
REMARK SMILES IDX 64 48 44 49 63 50 45 51 48 52 62 53 81 54 46 55 47 56 61 58
REMARK SMILES IDX 82 59 49 60 33 61 34 62 42 63 35 64 36 65 40 66 43 67 37 68
REMARK SMILES IDX 38 69 41 70 39 71 65 72 66 73 74 74 67 75 68 76 72 77 75 78
REMARK SMILES IDX 69 79 70 80 73 81 71 82 50 83 51 84 59 85 52 86 53 87 57 88
REMARK SMILES IDX 60 89 54 90 55 91 58 92 56 93
REMARK H PARENT 17 5 6 15 9 17 21 27 80 46 48 57
REMARK Flexibility Score: inf
ROOT
ATOM      1  C   UNL A   1      31.433  30.798  26.505  1.00  0.00     0.117 C 
ENDROOT
BRANCH   1   2
ATOM      2  N   UNL A   1      32.619  30.254  27.133  1.00  0.00    -0.354 N 
ATOM      3  C   UNL A   1      33.217  29.041  26.957  1.00  0.00     0.249 C 
ATOM      4  O   UNL A   1      34.229  28.807  27.624  1.00  0.00    -0.272 OA
ATOM      5  H   UNL A   1      33.059  30.848  27.783  1.00  0.00     0.163 HD
BRANCH   3   6
ATOM      6  C   UNL A   1      32.606  27.963  26.036  1.00  0.00     0.207 C 
ATOM      7  C   UNL A   1      32.348  25.634  26.134  1.00  0.00     0.138 C 
ATOM      8  C   UNL A   1      33.682  25.897  25.462  1.00  0.00     0.037 C 
ATOM      9  O   UNL A   1      31.912  26.891  26.684  1.00  0.00    -0.363 OA
ATOM     10  C   UNL A   1      33.656  27.361  25.115  1.00  0.00     0.045 C 
BRANCH   7  11
ATOM     11  C   UNL A   1      31.243  24.994  25.271  1.00  0.00     0.149 C 
BRANCH  11  12
ATOM     12  N   UNL A   1      30.287  24.190  26.020  1.00  0.00    -0.336 N 
ATOM     13  N   UNL A   1      31.424  22.329  26.921  1.00  0.00    -0.335 N 
ATOM     14  C   UNL A   1      30.373  23.158  26.865  1.00  0.00     0.315 C 
ATOM     15  H   UNL A   1      31.443  21.760  27.725  1.00  0.00     0.165 HD
ATOM     16  O   UNL A   1      29.427  22.948  27.625  1.00  0.00    -0.249 OA
ATOM     17  H   UNL A   1      29.357  24.473  25.867  1.00  0.00     0.165 HD
BRANCH  13  18
ATOM     18  C   UNL A   1      32.540  22.112  26.018  1.00  0.00     0.083 C 
BRANCH  18  19
ATOM     19  C   UNL A   1      33.800  21.738  26.804  1.00  0.00     0.021 C 
ATOM     20  C   UNL A   1      34.987  22.625  26.454  1.00  0.00     0.006 C 
ENDBRANCH  18  19
BRANCH  18  21
ATOM     21  C   UNL A   1      32.153  21.163  24.870  1.00  0.00     0.021 C 
ATOM     22  C   UNL A   1      33.084  19.986  24.642  1.00  0.00     0.006 C 
ENDBRANCH  18  21
ENDBRANCH  13  18
ENDBRANCH  11  12
ENDBRANCH   7  11
ENDBRANCH   3   6
ENDBRANCH   1   2
BRANCH   1  23
ATOM     23  C   UNL A   1      31.348  32.309  26.669  1.00  0.00     0.042 C 
BRANCH  23  24
ATOM     24  C   UNL A   1      32.697  32.955  26.933  1.00  0.00     0.118 C 
BRANCH  24  25
ATOM     25  N   UNL A   1      32.552  34.228  27.625  1.00  0.00    -0.352 N 
ATOM     26  C   UNL A   1      33.120  34.674  28.790  1.00  0.00     0.251 C 
ATOM     27  H   UNL A   1      31.951  34.872  27.185  1.00  0.00     0.163 HD
ATOM     28  O   UNL A   1      32.666  35.671  29.341  1.00  0.00    -0.269 OA
BRANCH  26  29
ATOM     29  C   UNL A   1      34.271  33.963  29.386  1.00  0.00     0.039 A 
ATOM     30  C   UNL A   1      34.028  32.962  30.329  1.00  0.00     0.014 A 
ATOM     31  C   UNL A   1      35.583  34.318  29.064  1.00  0.00     0.014 A 
ATOM     32  C   UNL A   1      35.100  32.290  30.919  1.00  0.00     0.010 A 
ATOM     33  C   UNL A   1      36.646  33.590  29.582  1.00  0.00     0.010 A 
ATOM     34  C   UNL A   1      36.417  32.584  30.531  1.00  0.00    -0.014 A 
BRANCH  34  35
ATOM     35  C   UNL A   1      37.574  31.881  31.134  1.00  0.00     0.031 A 
ATOM     36  C   UNL A   1      38.043  32.263  32.511  1.00  0.00     0.074 A 
ATOM     37  C   UNL A   1      38.238  30.954  30.418  1.00  0.00     0.049 A 
ATOM     38  N   UNL A   1      39.089  31.842  33.177  1.00  0.00    -0.248 NA
ATOM     39  C   UNL A   1      37.247  33.276  33.224  1.00  0.00     0.031 C 
ATOM     40  C   UNL A   1      37.899  30.534  29.057  1.00  0.00     0.029 A 
ATOM     41  N   UNL A   1      39.343  30.205  30.731  1.00  0.00    -0.354 N 
ATOM     42  C   UNL A   1      39.085  32.552  34.371  1.00  0.00     0.074 A 
ATOM     43  C   UNL A   1      37.969  33.470  34.317  1.00  0.00     0.031 C 
ATOM     44  C   UNL A   1      38.765  29.588  28.662  1.00  0.00     0.029 A 
ATOM     45  C   UNL A   1      39.742  29.365  29.722  1.00  0.00     0.049 A 
ATOM     46  H   UNL A   1      39.807  30.266  31.598  1.00  0.00     0.167 HD
ATOM     47  C   UNL A   1      39.922  32.429  35.427  1.00  0.00     0.037 A 
ATOM     48  C   UNL A   1      40.786  28.517  29.659  1.00  0.00     0.037 A 
ATOM     49  C   UNL A   1      41.011  31.490  35.485  1.00  0.00     0.049 A 
ATOM     50  C   UNL A   1      41.702  28.401  30.848  1.00  0.00     0.074 A 
ATOM     51  C   UNL A   1      41.886  31.246  36.528  1.00  0.00     0.029 A 
ATOM     52  N   UNL A   1      41.368  30.635  34.452  1.00  0.00    -0.354 N 
ATOM     53  N   UNL A   1      41.654  29.035  31.995  1.00  0.00    -0.248 NA
ATOM     54  C   UNL A   1      42.813  27.447  30.735  1.00  0.00     0.031 C 
ATOM     55  C   UNL A   1      42.800  30.272  36.111  1.00  0.00     0.029 A 
ATOM     56  C   UNL A   1      42.462  29.873  34.828  1.00  0.00     0.049 A 
ATOM     57  H   UNL A   1      40.911  30.578  33.582  1.00  0.00     0.167 HD
ATOM     58  C   UNL A   1      42.706  28.535  32.751  1.00  0.00     0.074 A 
ATOM     59  C   UNL A   1      43.365  27.535  31.937  1.00  0.00     0.031 C 
ATOM     60  C   UNL A   1      43.092  28.873  34.005  1.00  0.00     0.037 A 
BRANCH  47  61
ATOM     61  C   UNL A   1      39.689  33.325  36.610  1.00  0.00     0.064 A 
ATOM     62  C   UNL A   1      40.331  34.567  36.729  1.00  0.00     0.173 A 
ATOM     63  C   UNL A   1      38.785  32.955  37.618  1.00  0.00     0.173 A 
ATOM     64  F   UNL A   1      41.214  34.963  35.800  1.00  0.00    -0.203 F 
ATOM     65  C   UNL A   1      40.098  35.392  37.827  1.00  0.00     0.198 A 
ATOM     66  C   UNL A   1      38.531  33.796  38.698  1.00  0.00     0.198 A 
ATOM     67  F   UNL A   1      38.142  31.780  37.551  1.00  0.00    -0.203 F 
ATOM     68  F   UNL A   1      40.760  36.552  37.943  1.00  0.00    -0.200 F 
ATOM     69  C   UNL A   1      39.194  35.010  38.805  1.00  0.00     0.200 A 
ATOM     70  F   UNL A   1      37.647  33.433  39.637  1.00  0.00    -0.200 F 
ATOM     71  F   UNL A   1      38.964  35.810  39.856  1.00  0.00    -0.200 F 
ENDBRANCH  47  61
BRANCH  48  72
ATOM     72  C   UNL A   1      41.008  27.695  28.442  1.00  0.00     0.064 A 
ATOM     73  C   UNL A   1      41.863  28.135  27.423  1.00  0.00     0.173 A 
ATOM     74  C   UNL A   1      40.367  26.459  28.266  1.00  0.00     0.173 A 
ATOM     75  F   UNL A   1      42.485  29.319  27.538  1.00  0.00    -0.203 F 
ATOM     76  C   UNL A   1      42.050  27.386  26.263  1.00  0.00     0.198 A 
ATOM     77  C   UNL A   1      40.578  25.696  27.120  1.00  0.00     0.198 A 
ATOM     78  F   UNL A   1      39.546  25.987  29.216  1.00  0.00    -0.203 F 
ATOM     79  F   UNL A   1      42.834  27.856  25.284  1.00  0.00    -0.200 F 
ATOM     80  C   UNL A   1      41.410  26.165  26.115  1.00  0.00     0.200 A 
ATOM     81  F   UNL A   1      39.971  24.508  26.987  1.00  0.00    -0.200 F 
ATOM     82  F   UNL A   1      41.592  25.442  25.000  1.00  0.00    -0.200 F 
ENDBRANCH  48  72
BRANCH  60  83
ATOM     83  C   UNL A   1      44.255  28.126  34.589  1.00  0.00     0.064 A 
ATOM     84  C   UNL A   1      45.568  28.609  34.488  1.00  0.00     0.173 A 
ATOM     85  C   UNL A   1      44.045  26.931  35.294  1.00  0.00     0.173 A 
ATOM     86  F   UNL A   1      45.821  29.739  33.811  1.00  0.00    -0.203 F 
ATOM     87  C   UNL A   1      46.631  27.909  35.051  1.00  0.00     0.198 A 
ATOM     88  C   UNL A   1      45.108  26.250  35.882  1.00  0.00     0.198 A 
ATOM     89  F   UNL A   1      42.808  26.430  35.425  1.00  0.00    -0.203 F 
ATOM     90  F   UNL A   1      47.883  28.364  34.902  1.00  0.00    -0.200 F 
ATOM     91  C   UNL A   1      46.400  26.736  35.753  1.00  0.00     0.200 A 
ATOM     92  F   UNL A   1      44.880  25.125  36.573  1.00  0.00    -0.200 F 
ATOM     93  F   UNL A   1      47.425  26.069  36.302  1.00  0.00    -0.200 F 
ENDBRANCH  60  83
ENDBRANCH  34  35
ENDBRANCH  26  29
ENDBRANCH  24  25
ENDBRANCH  23  24
ENDBRANCH   1  23
TORSDOF 15
ENDMDL
