MODEL 1
REMARK VINA RESULT:     -14.8      0.000      0.000
REMARK SMILES Cc1cccc(O[C@H](C)C(=O)NNC(=O)[C@H]2[C@@H]3CC[C@@H](C3)[C@@H]2C(=O)NCCCNC(=O)c2ccc(-c3c4nc(c(-c5c(F)c(F)c(F)c(F)c5F)c5ccc([nH]5)c(-c5c(F)c(F)c(F)c(F)c5F)c5nc(c(-c6c(F)c(F)c(F)c(F)c6F)c6ccc3[nH]6)C=C5)C=C4)cc2)c1
REMARK SMILES IDX 23 1 24 2 25 3 22 5 16 6 17 7 18 8 21 9 20 10 19 11 14 12
REMARK SMILES IDX 13 13 15 15 12 16 10 17 11 18 8 20 9 21 7 22 6 23 1 24 2 25
REMARK SMILES IDX 3 26 95 27 4 28 5 29 26 30 27 31 28 32 29 33 30 34 31 36
REMARK SMILES IDX 32 37 33 38 94 39 34 40 93 41 35 42 36 43 37 44 87 45 38 46
REMARK SMILES IDX 92 47 86 48 88 49 39 50 91 51 85 52 84 53 40 55 72 56 52 57
REMARK SMILES IDX 71 58 53 59 56 60 70 61 89 62 54 63 55 64 69 66 90 67 57 68
REMARK SMILES IDX 41 69 42 70 50 71 43 72 44 73 48 74 51 75 45 76 46 77 49 78
REMARK SMILES IDX 47 79 73 80 74 81 82 82 75 83 76 84 80 85 83 86 77 87 78 88
REMARK SMILES IDX 81 89 79 90 58 91 59 92 67 93 60 94 61 95 65 96 68 97 62 98
REMARK SMILES IDX 63 99 66 100 64 101
REMARK H PARENT 25 4 13 14 12 19 29 35 88 54 56 65
REMARK Flexibility Score: inf
ROOT
ATOM      1  C   UNL A   1      32.992  26.653  26.111  1.00  0.00     0.224 C 
ATOM      2  O   UNL A   1      33.995  26.020  25.797  1.00  0.00    -0.275 OA
ATOM      3  N   UNL A   1      33.140  27.843  26.776  1.00  0.00    -0.356 N 
ATOM      4  H   UNL A   1      34.067  28.134  26.929  1.00  0.00     0.163 HD
ENDROOT
BRANCH   1   5
ATOM      5  C   UNL A   1      31.577  26.178  25.818  1.00  0.00     0.094 C 
ATOM      6  C   UNL A   1      31.431  24.668  25.562  1.00  0.00     0.096 C 
ATOM      7  C   UNL A   1      30.584  24.604  24.264  1.00  0.00     0.002 C 
ATOM      8  C   UNL A   1      31.520  24.929  23.081  1.00  0.00     0.005 C 
ATOM      9  C   UNL A   1      29.751  25.883  24.302  1.00  0.00     0.009 C 
ATOM     10  C   UNL A   1      30.969  26.782  24.524  1.00  0.00     0.002 C 
ATOM     11  C   UNL A   1      31.820  26.422  23.289  1.00  0.00     0.005 C 
BRANCH   6  12
ATOM     12  C   UNL A   1      30.904  23.769  26.677  1.00  0.00     0.242 C 
ATOM     13  N   UNL A   1      31.547  22.691  27.208  1.00  0.00    -0.267 N 
ATOM     14  H   UNL A   1      31.025  22.168  27.858  1.00  0.00     0.191 HD
ATOM     15  O   UNL A   1      29.812  24.052  27.190  1.00  0.00    -0.273 OA
BRANCH  13  16
ATOM     16  N   UNL A   1      32.815  22.229  26.969  1.00  0.00    -0.264 N 
ATOM     17  C   UNL A   1      33.272  21.545  25.885  1.00  0.00     0.279 C 
ATOM     18  O   UNL A   1      34.507  21.531  25.760  1.00  0.00    -0.269 OA
ATOM     19  H   UNL A   1      33.480  22.417  27.670  1.00  0.00     0.191 HD
BRANCH  17  20
ATOM     20  C   UNL A   1      32.399  20.709  24.905  1.00  0.00     0.260 C 
ATOM     21  C   UNL A   1      32.538  21.243  23.473  1.00  0.00     0.064 C 
BRANCH  20  22
ATOM     22  O   UNL A   1      32.081  19.340  25.019  1.00  0.00    -0.481 OA
BRANCH  22  23
ATOM     23  C   UNL A   1      32.937  18.302  24.860  1.00  0.00     0.120 A 
ATOM     24  C   UNL A   1      32.534  14.575  25.588  1.00  0.00     0.044 C 
ATOM     25  C   UNL A   1      33.136  15.890  25.190  1.00  0.00    -0.047 A 
ATOM     26  C   UNL A   1      34.488  15.967  24.850  1.00  0.00     0.003 A 
ATOM     27  C   UNL A   1      32.370  17.062  25.180  1.00  0.00     0.049 A 
ATOM     28  C   UNL A   1      35.049  17.190  24.486  1.00  0.00     0.004 A 
ATOM     29  C   UNL A   1      34.274  18.353  24.477  1.00  0.00     0.046 A 
ENDBRANCH  22  23
ENDBRANCH  20  22
ENDBRANCH  17  20
ENDBRANCH  13  16
ENDBRANCH   6  12
ENDBRANCH   1   5
BRANCH   3  30
ATOM     30  C   UNL A   1      32.106  28.735  27.285  1.00  0.00     0.117 C 
BRANCH  30  31
ATOM     31  C   UNL A   1      32.530  30.201  27.250  1.00  0.00     0.042 C 
BRANCH  31  32
ATOM     32  C   UNL A   1      34.033  30.366  27.089  1.00  0.00     0.118 C 
BRANCH  32  33
ATOM     33  N   UNL A   1      34.614  31.386  27.957  1.00  0.00    -0.352 N 
ATOM     34  C   UNL A   1      35.710  31.319  28.804  1.00  0.00     0.251 C 
ATOM     35  H   UNL A   1      34.157  32.258  27.937  1.00  0.00     0.163 HD
ATOM     36  O   UNL A   1      36.022  32.286  29.477  1.00  0.00    -0.269 OA
BRANCH  34  37
ATOM     37  C   UNL A   1      36.577  30.114  28.786  1.00  0.00     0.039 A 
ATOM     38  C   UNL A   1      36.719  29.383  29.975  1.00  0.00     0.014 A 
ATOM     39  C   UNL A   1      37.390  29.835  27.696  1.00  0.00     0.014 A 
ATOM     40  C   UNL A   1      37.842  28.577  30.151  1.00  0.00     0.010 A 
ATOM     41  C   UNL A   1      38.559  29.138  27.907  1.00  0.00     0.010 A 
ATOM     42  C   UNL A   1      38.820  28.574  29.161  1.00  0.00    -0.014 A 
BRANCH  42  43
ATOM     43  C   UNL A   1      40.193  28.133  29.357  1.00  0.00     0.031 A 
ATOM     44  C   UNL A   1      40.615  26.792  28.905  1.00  0.00     0.074 A 
ATOM     45  C   UNL A   1      41.118  29.046  29.735  1.00  0.00     0.049 A 
ATOM     46  N   UNL A   1      41.789  26.306  29.112  1.00  0.00    -0.248 NA
ATOM     47  C   UNL A   1      39.720  25.851  28.239  1.00  0.00     0.031 C 
ATOM     48  C   UNL A   1      42.566  28.976  29.554  1.00  0.00     0.029 A 
ATOM     49  N   UNL A   1      40.931  30.167  30.564  1.00  0.00    -0.354 N 
ATOM     50  C   UNL A   1      41.908  25.157  28.372  1.00  0.00     0.074 A 
ATOM     51  C   UNL A   1      40.561  24.847  27.965  1.00  0.00     0.031 C 
ATOM     52  C   UNL A   1      43.156  29.774  30.457  1.00  0.00     0.029 A 
ATOM     53  C   UNL A   1      42.113  30.239  31.349  1.00  0.00     0.049 A 
ATOM     54  H   UNL A   1      40.153  30.770  30.594  1.00  0.00     0.167 HD
ATOM     55  C   UNL A   1      43.161  24.691  28.110  1.00  0.00     0.037 A 
ATOM     56  C   UNL A   1      42.075  30.004  32.695  1.00  0.00     0.037 A 
ATOM     57  C   UNL A   1      44.148  25.332  28.987  1.00  0.00     0.049 A 
ATOM     58  C   UNL A   1      42.921  28.836  33.167  1.00  0.00     0.074 A 
ATOM     59  C   UNL A   1      45.175  26.247  28.837  1.00  0.00     0.029 A 
ATOM     60  N   UNL A   1      43.974  25.186  30.353  1.00  0.00    -0.354 N 
ATOM     61  N   UNL A   1      43.575  28.030  32.377  1.00  0.00    -0.248 NA
ATOM     62  C   UNL A   1      43.008  28.425  34.569  1.00  0.00     0.031 C 
ATOM     63  C   UNL A   1      45.601  26.653  30.141  1.00  0.00     0.029 A 
ATOM     64  C   UNL A   1      44.846  25.968  31.076  1.00  0.00     0.049 A 
ATOM     65  H   UNL A   1      43.302  24.592  30.760  1.00  0.00     0.167 HD
ATOM     66  C   UNL A   1      44.093  26.993  33.108  1.00  0.00     0.074 A 
ATOM     67  C   UNL A   1      43.716  27.287  34.477  1.00  0.00     0.031 C 
ATOM     68  C   UNL A   1      44.746  25.944  32.527  1.00  0.00     0.037 A 
BRANCH  55  69
ATOM     69  C   UNL A   1      43.549  23.738  26.995  1.00  0.00     0.064 A 
ATOM     70  C   UNL A   1      43.138  22.385  27.047  1.00  0.00     0.173 A 
ATOM     71  C   UNL A   1      44.406  24.041  25.914  1.00  0.00     0.173 A 
ATOM     72  F   UNL A   1      42.316  21.942  28.009  1.00  0.00    -0.203 F 
ATOM     73  C   UNL A   1      43.574  21.425  26.126  1.00  0.00     0.198 A 
ATOM     74  C   UNL A   1      44.803  23.090  24.968  1.00  0.00     0.198 A 
ATOM     75  F   UNL A   1      44.946  25.247  25.740  1.00  0.00    -0.203 F 
ATOM     76  F   UNL A   1      43.196  20.148  26.270  1.00  0.00    -0.200 F 
ATOM     77  C   UNL A   1      44.402  21.779  25.083  1.00  0.00     0.200 A 
ATOM     78  F   UNL A   1      45.606  23.459  23.959  1.00  0.00    -0.200 F 
ATOM     79  F   UNL A   1      44.826  20.862  24.202  1.00  0.00    -0.200 F 
ENDBRANCH  55  69
BRANCH  56  80
ATOM     80  C   UNL A   1      40.785  30.426  33.303  1.00  0.00     0.064 A 
ATOM     81  C   UNL A   1      40.548  31.804  33.479  1.00  0.00     0.173 A 
ATOM     82  C   UNL A   1      39.678  29.570  33.322  1.00  0.00     0.173 A 
ATOM     83  F   UNL A   1      41.575  32.668  33.466  1.00  0.00    -0.203 F 
ATOM     84  C   UNL A   1      39.252  32.314  33.530  1.00  0.00     0.198 A 
ATOM     85  C   UNL A   1      38.382  30.084  33.396  1.00  0.00     0.198 A 
ATOM     86  F   UNL A   1      39.836  28.251  33.138  1.00  0.00    -0.203 F 
ATOM     87  F   UNL A   1      39.056  33.639  33.562  1.00  0.00    -0.200 F 
ATOM     88  C   UNL A   1      38.170  31.453  33.458  1.00  0.00     0.200 A 
ATOM     89  F   UNL A   1      37.333  29.255  33.298  1.00  0.00    -0.200 F 
ATOM     90  F   UNL A   1      36.924  31.944  33.400  1.00  0.00    -0.200 F 
ENDBRANCH  56  80
BRANCH  68  91
ATOM     91  C   UNL A   1      45.302  24.771  33.291  1.00  0.00     0.064 A 
ATOM     92  C   UNL A   1      46.651  24.682  33.664  1.00  0.00     0.173 A 
ATOM     93  C   UNL A   1      44.506  23.639  33.579  1.00  0.00     0.173 A 
ATOM     94  F   UNL A   1      47.510  25.672  33.378  1.00  0.00    -0.203 F 
ATOM     95  C   UNL A   1      47.158  23.558  34.323  1.00  0.00     0.198 A 
ATOM     96  C   UNL A   1      45.026  22.498  34.186  1.00  0.00     0.198 A 
ATOM     97  F   UNL A   1      43.193  23.615  33.310  1.00  0.00    -0.203 F 
ATOM     98  F   UNL A   1      48.440  23.537  34.713  1.00  0.00    -0.200 F 
ATOM     99  C   UNL A   1      46.349  22.462  34.573  1.00  0.00     0.200 A 
ATOM    100  F   UNL A   1      44.231  21.439  34.402  1.00  0.00    -0.200 F 
ATOM    101  F   UNL A   1      46.841  21.378  35.187  1.00  0.00    -0.200 F 
ENDBRANCH  68  91
ENDBRANCH  42  43
ENDBRANCH  34  37
ENDBRANCH  32  33
ENDBRANCH  31  32
ENDBRANCH  30  31
ENDBRANCH   3  30
TORSDOF 15
ENDMDL
MODEL 2
REMARK VINA RESULT:     -14.7      1.220      1.939
REMARK SMILES Cc1cccc(O[C@H](C)C(=O)NNC(=O)[C@H]2[C@@H]3CC[C@@H](C3)[C@@H]2C(=O)NCCCNC(=O)c2ccc(-c3c4nc(c(-c5c(F)c(F)c(F)c(F)c5F)c5ccc([nH]5)c(-c5c(F)c(F)c(F)c(F)c5F)c5nc(c(-c6c(F)c(F)c(F)c(F)c6F)c6ccc3[nH]6)C=C5)C=C4)cc2)c1
REMARK SMILES IDX 23 1 24 2 25 3 22 5 16 6 17 7 18 8 21 9 20 10 19 11 14 12
REMARK SMILES IDX 13 13 15 15 12 16 10 17 11 18 8 20 9 21 7 22 6 23 1 24 2 25
REMARK SMILES IDX 3 26 95 27 4 28 5 29 26 30 27 31 28 32 29 33 30 34 31 36
REMARK SMILES IDX 32 37 33 38 94 39 34 40 93 41 35 42 36 43 37 44 87 45 38 46
REMARK SMILES IDX 92 47 86 48 88 49 39 50 91 51 85 52 84 53 40 55 72 56 52 57
REMARK SMILES IDX 71 58 53 59 56 60 70 61 89 62 54 63 55 64 69 66 90 67 57 68
REMARK SMILES IDX 41 69 42 70 50 71 43 72 44 73 48 74 51 75 45 76 46 77 49 78
REMARK SMILES IDX 47 79 73 80 74 81 82 82 75 83 76 84 80 85 83 86 77 87 78 88
REMARK SMILES IDX 81 89 79 90 58 91 59 92 67 93 60 94 61 95 65 96 68 97 62 98
REMARK SMILES IDX 63 99 66 100 64 101
REMARK H PARENT 25 4 13 14 12 19 29 35 88 54 56 65
REMARK Flexibility Score: inf
ROOT
ATOM      1  C   UNL A   1      33.187  28.296  24.331  1.00  0.00     0.224 C 
ATOM      2  O   UNL A   1      34.127  28.184  23.550  1.00  0.00    -0.275 OA
ATOM      3  N   UNL A   1      33.020  29.479  25.003  1.00  0.00    -0.356 N 
ATOM      4  H   UNL A   1      33.662  30.190  24.780  1.00  0.00     0.163 HD
ENDROOT
BRANCH   1   5
ATOM      5  C   UNL A   1      32.197  27.176  24.615  1.00  0.00     0.094 C 
ATOM      6  C   UNL A   1      32.661  25.769  24.202  1.00  0.00     0.096 C 
ATOM      7  C   UNL A   1      31.448  25.206  23.416  1.00  0.00     0.002 C 
ATOM      8  C   UNL A   1      31.460  25.852  22.015  1.00  0.00     0.005 C 
ATOM      9  C   UNL A   1      30.247  25.923  24.028  1.00  0.00     0.009 C 
ATOM     10  C   UNL A   1      30.859  27.312  23.840  1.00  0.00     0.002 C 
ATOM     11  C   UNL A   1      31.098  27.316  22.315  1.00  0.00     0.005 C 
BRANCH   6  12
ATOM     12  C   UNL A   1      33.191  24.814  25.268  1.00  0.00     0.242 C 
ATOM     13  N   UNL A   1      34.307  24.037  25.164  1.00  0.00    -0.267 N 
ATOM     14  H   UNL A   1      34.453  23.412  25.910  1.00  0.00     0.191 HD
ATOM     15  O   UNL A   1      32.592  24.756  26.350  1.00  0.00    -0.273 OA
BRANCH  13  16
ATOM     16  N   UNL A   1      35.252  24.000  24.174  1.00  0.00    -0.264 N 
ATOM     17  C   UNL A   1      36.002  22.941  23.764  1.00  0.00     0.279 C 
ATOM     18  O   UNL A   1      36.538  23.080  22.652  1.00  0.00    -0.269 OA
ATOM     19  H   UNL A   1      35.409  24.847  23.697  1.00  0.00     0.191 HD
BRANCH  17  20
ATOM     20  C   UNL A   1      36.326  21.676  24.611  1.00  0.00     0.260 C 
ATOM     21  C   UNL A   1      37.734  21.780  25.215  1.00  0.00     0.064 C 
BRANCH  20  22
ATOM     22  O   UNL A   1      35.407  20.889  25.336  1.00  0.00    -0.481 OA
BRANCH  22  23
ATOM     23  C   UNL A   1      34.367  20.192  24.821  1.00  0.00     0.120 A 
ATOM     24  C   UNL A   1      34.100  16.565  23.658  1.00  0.00     0.044 C 
ATOM     25  C   UNL A   1      33.752  17.994  23.952  1.00  0.00    -0.047 A 
ATOM     26  C   UNL A   1      32.513  18.507  23.562  1.00  0.00     0.003 A 
ATOM     27  C   UNL A   1      34.664  18.843  24.589  1.00  0.00     0.049 A 
ATOM     28  C   UNL A   1      32.192  19.836  23.830  1.00  0.00     0.004 A 
ATOM     29  C   UNL A   1      33.109  20.674  24.471  1.00  0.00     0.046 A 
ENDBRANCH  22  23
ENDBRANCH  20  22
ENDBRANCH  17  20
ENDBRANCH  13  16
ENDBRANCH   6  12
ENDBRANCH   1   5
BRANCH   3  30
ATOM     30  C   UNL A   1      32.017  29.824  26.003  1.00  0.00     0.117 C 
BRANCH  30  31
ATOM     31  C   UNL A   1      32.574  30.723  27.104  1.00  0.00     0.042 C 
BRANCH  31  32
ATOM     32  C   UNL A   1      34.081  30.585  27.257  1.00  0.00     0.118 C 
BRANCH  32  33
ATOM     33  N   UNL A   1      34.669  31.528  28.203  1.00  0.00    -0.352 N 
ATOM     34  C   UNL A   1      35.771  31.388  29.034  1.00  0.00     0.251 C 
ATOM     35  H   UNL A   1      34.214  32.398  28.261  1.00  0.00     0.163 HD
ATOM     36  O   UNL A   1      36.089  32.295  29.784  1.00  0.00    -0.269 OA
BRANCH  34  37
ATOM     37  C   UNL A   1      36.636  30.189  28.909  1.00  0.00     0.039 A 
ATOM     38  C   UNL A   1      36.759  29.342  30.020  1.00  0.00     0.014 A 
ATOM     39  C   UNL A   1      37.466  30.017  27.808  1.00  0.00     0.014 A 
ATOM     40  C   UNL A   1      37.877  28.519  30.132  1.00  0.00     0.010 A 
ATOM     41  C   UNL A   1      38.629  29.299  27.966  1.00  0.00     0.010 A 
ATOM     42  C   UNL A   1      38.870  28.612  29.162  1.00  0.00    -0.014 A 
BRANCH  42  43
ATOM     43  C   UNL A   1      40.240  28.149  29.333  1.00  0.00     0.031 A 
ATOM     44  C   UNL A   1      40.636  26.808  28.858  1.00  0.00     0.074 A 
ATOM     45  C   UNL A   1      41.182  29.044  29.710  1.00  0.00     0.049 A 
ATOM     46  N   UNL A   1      41.807  26.303  29.043  1.00  0.00    -0.248 NA
ATOM     47  C   UNL A   1      39.719  25.889  28.192  1.00  0.00     0.031 C 
ATOM     48  C   UNL A   1      42.627  28.955  29.509  1.00  0.00     0.029 A 
ATOM     49  N   UNL A   1      41.022  30.156  30.556  1.00  0.00    -0.354 N 
ATOM     50  C   UNL A   1      41.898  25.162  28.286  1.00  0.00     0.074 A 
ATOM     51  C   UNL A   1      40.542  24.877  27.893  1.00  0.00     0.031 C 
ATOM     52  C   UNL A   1      43.240  29.733  30.413  1.00  0.00     0.029 A 
ATOM     53  C   UNL A   1      42.216  30.201  31.326  1.00  0.00     0.049 A 
ATOM     54  H   UNL A   1      40.254  30.769  30.605  1.00  0.00     0.167 HD
ATOM     55  C   UNL A   1      43.142  24.682  28.001  1.00  0.00     0.037 A 
ATOM     56  C   UNL A   1      42.193  29.949  32.669  1.00  0.00     0.037 A 
ATOM     57  C   UNL A   1      44.149  25.298  28.872  1.00  0.00     0.049 A 
ATOM     58  C   UNL A   1      43.028  28.763  33.114  1.00  0.00     0.074 A 
ATOM     59  C   UNL A   1      45.187  26.200  28.720  1.00  0.00     0.029 A 
ATOM     60  N   UNL A   1      43.991  25.136  30.239  1.00  0.00    -0.354 N 
ATOM     61  N   UNL A   1      43.660  27.958  32.305  1.00  0.00    -0.248 NA
ATOM     62  C   UNL A   1      43.128  28.332  34.510  1.00  0.00     0.031 C 
ATOM     63  C   UNL A   1      45.636  26.583  30.024  1.00  0.00     0.029 A 
ATOM     64  C   UNL A   1      44.885  25.896  30.960  1.00  0.00     0.049 A 
ATOM     65  H   UNL A   1      43.317  24.546  30.647  1.00  0.00     0.167 HD
ATOM     66  C   UNL A   1      44.173  26.905  33.015  1.00  0.00     0.074 A 
ATOM     67  C   UNL A   1      43.819  27.186  34.393  1.00  0.00     0.031 C 
ATOM     68  C   UNL A   1      44.803  25.854  32.412  1.00  0.00     0.037 A 
BRANCH  55  69
ATOM     69  C   UNL A   1      43.501  23.738  26.869  1.00  0.00     0.064 A 
ATOM     70  C   UNL A   1      43.112  22.380  26.931  1.00  0.00     0.173 A 
ATOM     71  C   UNL A   1      44.312  24.057  25.758  1.00  0.00     0.173 A 
ATOM     72  F   UNL A   1      42.333  21.922  27.921  1.00  0.00    -0.203 F 
ATOM     73  C   UNL A   1      43.526  21.429  25.990  1.00  0.00     0.198 A 
ATOM     74  C   UNL A   1      44.687  23.116  24.793  1.00  0.00     0.198 A 
ATOM     75  F   UNL A   1      44.827  25.272  25.567  1.00  0.00    -0.203 F 
ATOM     76  F   UNL A   1      43.172  20.146  26.143  1.00  0.00    -0.200 F 
ATOM     77  C   UNL A   1      44.309  21.798  24.918  1.00  0.00     0.200 A 
ATOM     78  F   UNL A   1      45.446  23.500  23.756  1.00  0.00    -0.200 F 
ATOM     79  F   UNL A   1      44.712  20.891  24.019  1.00  0.00    -0.200 F 
ENDBRANCH  55  69
BRANCH  56  80
ATOM     80  C   UNL A   1      40.918  30.381  33.300  1.00  0.00     0.064 A 
ATOM     81  C   UNL A   1      40.718  31.757  33.530  1.00  0.00     0.173 A 
ATOM     82  C   UNL A   1      39.788  29.554  33.292  1.00  0.00     0.173 A 
ATOM     83  F   UNL A   1      41.767  32.594  33.545  1.00  0.00    -0.203 F 
ATOM     84  C   UNL A   1      39.436  32.298  33.608  1.00  0.00     0.198 A 
ATOM     85  C   UNL A   1      38.507  30.099  33.393  1.00  0.00     0.198 A 
ATOM     86  F   UNL A   1      39.910  28.240  33.057  1.00  0.00    -0.203 F 
ATOM     87  F   UNL A   1      39.276  33.626  33.692  1.00  0.00    -0.200 F 
ATOM     88  C   UNL A   1      38.332  31.470  33.509  1.00  0.00     0.200 A 
ATOM     89  F   UNL A   1      37.436  29.302  33.269  1.00  0.00    -0.200 F 
ATOM     90  F   UNL A   1      37.099  31.995  33.477  1.00  0.00    -0.200 F 
ENDBRANCH  56  80
BRANCH  68  91
ATOM     91  C   UNL A   1      45.353  24.664  33.152  1.00  0.00     0.064 A 
ATOM     92  C   UNL A   1      44.558  23.570  33.525  1.00  0.00     0.173 A 
ATOM     93  C   UNL A   1      46.691  24.638  33.609  1.00  0.00     0.173 A 
ATOM     94  F   UNL A   1      43.258  23.525  33.201  1.00  0.00    -0.203 F 
ATOM     95  C   UNL A   1      45.078  22.502  34.263  1.00  0.00     0.198 A 
ATOM     96  C   UNL A   1      47.191  23.599  34.391  1.00  0.00     0.198 A 
ATOM     97  F   UNL A   1      47.563  25.603  33.286  1.00  0.00    -0.203 F 
ATOM     98  F   UNL A   1      44.299  21.450  34.548  1.00  0.00    -0.200 F 
ATOM     99  C   UNL A   1      46.389  22.522  34.706  1.00  0.00     0.200 A 
ATOM    100  F   UNL A   1      48.459  23.647  34.827  1.00  0.00    -0.200 F 
ATOM    101  F   UNL A   1      46.880  21.507  35.428  1.00  0.00    -0.200 F 
ENDBRANCH  68  91
ENDBRANCH  42  43
ENDBRANCH  34  37
ENDBRANCH  32  33
ENDBRANCH  31  32
ENDBRANCH  30  31
ENDBRANCH   3  30
TORSDOF 15
ENDMDL
MODEL 3
REMARK VINA RESULT:     -14.7      2.297      5.201
REMARK SMILES Cc1cccc(O[C@H](C)C(=O)NNC(=O)[C@H]2[C@@H]3CC[C@@H](C3)[C@@H]2C(=O)NCCCNC(=O)c2ccc(-c3c4nc(c(-c5c(F)c(F)c(F)c(F)c5F)c5ccc([nH]5)c(-c5c(F)c(F)c(F)c(F)c5F)c5nc(c(-c6c(F)c(F)c(F)c(F)c6F)c6ccc3[nH]6)C=C5)C=C4)cc2)c1
REMARK SMILES IDX 23 1 24 2 25 3 22 5 16 6 17 7 18 8 21 9 20 10 19 11 14 12
REMARK SMILES IDX 13 13 15 15 12 16 10 17 11 18 8 20 9 21 7 22 6 23 1 24 2 25
REMARK SMILES IDX 3 26 95 27 4 28 5 29 26 30 27 31 28 32 29 33 30 34 31 36
REMARK SMILES IDX 32 37 33 38 94 39 34 40 93 41 35 42 36 43 37 44 87 45 38 46
REMARK SMILES IDX 92 47 86 48 88 49 39 50 91 51 85 52 84 53 40 55 72 56 52 57
REMARK SMILES IDX 71 58 53 59 56 60 70 61 89 62 54 63 55 64 69 66 90 67 57 68
REMARK SMILES IDX 41 69 42 70 50 71 43 72 44 73 48 74 51 75 45 76 46 77 49 78
REMARK SMILES IDX 47 79 73 80 74 81 82 82 75 83 76 84 80 85 83 86 77 87 78 88
REMARK SMILES IDX 81 89 79 90 58 91 59 92 67 93 60 94 61 95 65 96 68 97 62 98
REMARK SMILES IDX 63 99 66 100 64 101
REMARK H PARENT 25 4 13 14 12 19 29 35 88 54 56 65
REMARK Flexibility Score: inf
ROOT
ATOM      1  C   UNL A   1      32.829  26.353  25.913  1.00  0.00     0.224 C 
ATOM      2  O   UNL A   1      31.772  25.821  26.239  1.00  0.00    -0.275 OA
ATOM      3  N   UNL A   1      33.238  27.479  26.580  1.00  0.00    -0.356 N 
ATOM      4  H   UNL A   1      32.658  27.771  27.319  1.00  0.00     0.163 HD
ENDROOT
BRANCH   1   5
ATOM      5  C   UNL A   1      33.712  25.839  24.786  1.00  0.00     0.094 C 
ATOM      6  C   UNL A   1      32.982  25.537  23.466  1.00  0.00     0.096 C 
ATOM      7  C   UNL A   1      33.496  24.124  23.086  1.00  0.00     0.002 C 
ATOM      8  C   UNL A   1      32.756  23.103  23.975  1.00  0.00     0.005 C 
ATOM      9  C   UNL A   1      34.889  24.058  23.709  1.00  0.00     0.009 C 
ATOM     10  C   UNL A   1      34.393  24.479  25.094  1.00  0.00     0.002 C 
ATOM     11  C   UNL A   1      33.343  23.382  25.368  1.00  0.00     0.005 C 
BRANCH   6  12
ATOM     12  C   UNL A   1      33.062  26.542  22.321  1.00  0.00     0.242 C 
ATOM     13  N   UNL A   1      32.658  27.844  22.366  1.00  0.00    -0.267 N 
ATOM     14  H   UNL A   1      32.698  28.326  21.510  1.00  0.00     0.191 HD
ATOM     15  O   UNL A   1      33.576  26.175  21.255  1.00  0.00    -0.273 OA
BRANCH  13  16
ATOM     16  N   UNL A   1      32.205  28.577  23.431  1.00  0.00    -0.264 N 
ATOM     17  C   UNL A   1      30.981  28.534  24.025  1.00  0.00     0.279 C 
ATOM     18  O   UNL A   1      30.930  29.047  25.154  1.00  0.00    -0.269 OA
ATOM     19  H   UNL A   1      32.846  29.216  23.818  1.00  0.00     0.191 HD
BRANCH  17  20
ATOM     20  C   UNL A   1      29.669  28.022  23.363  1.00  0.00     0.260 C 
ATOM     21  C   UNL A   1      29.460  26.532  23.667  1.00  0.00     0.064 C 
BRANCH  20  22
ATOM     22  O   UNL A   1      28.496  28.768  23.130  1.00  0.00    -0.481 OA
BRANCH  22  23
ATOM     23  C   UNL A   1      28.427  30.098  22.880  1.00  0.00     0.120 A 
ATOM     24  C   UNL A   1      27.895  32.022  19.626  1.00  0.00     0.044 C 
ATOM     25  C   UNL A   1      28.147  31.715  21.072  1.00  0.00    -0.047 A 
ATOM     26  C   UNL A   1      28.422  32.749  21.969  1.00  0.00     0.003 A 
ATOM     27  C   UNL A   1      28.141  30.396  21.542  1.00  0.00     0.049 A 
ATOM     28  C   UNL A   1      28.663  32.464  23.312  1.00  0.00     0.004 A 
ATOM     29  C   UNL A   1      28.651  31.143  23.771  1.00  0.00     0.046 A 
ENDBRANCH  22  23
ENDBRANCH  20  22
ENDBRANCH  17  20
ENDBRANCH  13  16
ENDBRANCH   6  12
ENDBRANCH   1   5
BRANCH   3  30
ATOM     30  C   UNL A   1      34.418  28.300  26.341  1.00  0.00     0.117 C 
BRANCH  30  31
ATOM     31  C   UNL A   1      34.131  29.792  26.485  1.00  0.00     0.042 C 
BRANCH  31  32
ATOM     32  C   UNL A   1      33.737  30.172  27.903  1.00  0.00     0.118 C 
BRANCH  32  33
ATOM     33  N   UNL A   1      34.502  31.289  28.452  1.00  0.00    -0.352 N 
ATOM     34  C   UNL A   1      35.780  31.316  28.988  1.00  0.00     0.251 C 
ATOM     35  H   UNL A   1      34.038  32.156  28.438  1.00  0.00     0.163 HD
ATOM     36  O   UNL A   1      36.235  32.358  29.427  1.00  0.00    -0.269 OA
BRANCH  34  37
ATOM     37  C   UNL A   1      36.638  30.108  28.903  1.00  0.00     0.039 A 
ATOM     38  C   UNL A   1      36.778  29.313  30.050  1.00  0.00     0.014 A 
ATOM     39  C   UNL A   1      37.445  29.881  27.796  1.00  0.00     0.014 A 
ATOM     40  C   UNL A   1      37.895  28.491  30.179  1.00  0.00     0.010 A 
ATOM     41  C   UNL A   1      38.609  29.165  27.966  1.00  0.00     0.010 A 
ATOM     42  C   UNL A   1      38.869  28.533  29.188  1.00  0.00    -0.014 A 
BRANCH  42  43
ATOM     43  C   UNL A   1      40.240  28.071  29.354  1.00  0.00     0.031 A 
ATOM     44  C   UNL A   1      40.634  26.727  28.887  1.00  0.00     0.074 A 
ATOM     45  C   UNL A   1      41.184  28.969  29.719  1.00  0.00     0.049 A 
ATOM     46  N   UNL A   1      41.805  26.224  29.069  1.00  0.00    -0.248 NA
ATOM     47  C   UNL A   1      39.713  25.803  28.233  1.00  0.00     0.031 C 
ATOM     48  C   UNL A   1      42.628  28.879  29.511  1.00  0.00     0.029 A 
ATOM     49  N   UNL A   1      41.029  30.088  30.559  1.00  0.00    -0.354 N 
ATOM     50  C   UNL A   1      41.893  25.077  28.320  1.00  0.00     0.074 A 
ATOM     51  C   UNL A   1      40.534  24.789  27.937  1.00  0.00     0.031 C 
ATOM     52  C   UNL A   1      43.246  29.664  30.406  1.00  0.00     0.029 A 
ATOM     53  C   UNL A   1      42.227  30.139  31.321  1.00  0.00     0.049 A 
ATOM     54  H   UNL A   1      40.261  30.701  30.607  1.00  0.00     0.167 HD
ATOM     55  C   UNL A   1      43.135  24.595  28.032  1.00  0.00     0.037 A 
ATOM     56  C   UNL A   1      42.212  29.896  32.666  1.00  0.00     0.037 A 
ATOM     57  C   UNL A   1      44.147  25.218  28.893  1.00  0.00     0.049 A 
ATOM     58  C   UNL A   1      43.049  28.713  33.115  1.00  0.00     0.074 A 
ATOM     59  C   UNL A   1      45.184  26.118  28.728  1.00  0.00     0.029 A 
ATOM     60  N   UNL A   1      43.997  25.066  30.262  1.00  0.00    -0.354 N 
ATOM     61  N   UNL A   1      43.677  27.903  32.309  1.00  0.00    -0.248 NA
ATOM     62  C   UNL A   1      43.157  28.293  34.513  1.00  0.00     0.031 C 
ATOM     63  C   UNL A   1      45.640  26.511  30.027  1.00  0.00     0.029 A 
ATOM     64  C   UNL A   1      44.894  25.831  30.972  1.00  0.00     0.049 A 
ATOM     65  H   UNL A   1      43.325  24.479  30.678  1.00  0.00     0.167 HD
ATOM     66  C   UNL A   1      44.194  26.855  33.024  1.00  0.00     0.074 A 
ATOM     67  C   UNL A   1      43.848  27.146  34.401  1.00  0.00     0.031 C 
ATOM     68  C   UNL A   1      44.821  25.800  32.424  1.00  0.00     0.037 A 
BRANCH  55  69
ATOM     69  C   UNL A   1      43.488  23.644  26.904  1.00  0.00     0.064 A 
ATOM     70  C   UNL A   1      43.117  22.281  26.988  1.00  0.00     0.173 A 
ATOM     71  C   UNL A   1      44.277  23.960  25.777  1.00  0.00     0.173 A 
ATOM     72  F   UNL A   1      42.360  21.824  27.995  1.00  0.00    -0.203 F 
ATOM     73  C   UNL A   1      43.529  21.325  26.051  1.00  0.00     0.198 A 
ATOM     74  C   UNL A   1      44.648  23.012  24.817  1.00  0.00     0.198 A 
ATOM     75  F   UNL A   1      44.774  25.179  25.565  1.00  0.00    -0.203 F 
ATOM     76  F   UNL A   1      43.193  20.039  26.224  1.00  0.00    -0.200 F 
ATOM     77  C   UNL A   1      44.289  21.692  24.962  1.00  0.00     0.200 A 
ATOM     78  F   UNL A   1      45.386  23.394  23.764  1.00  0.00    -0.200 F 
ATOM     79  F   UNL A   1      44.689  20.779  24.067  1.00  0.00    -0.200 F 
ENDBRANCH  55  69
BRANCH  56  80
ATOM     80  C   UNL A   1      40.939  30.332  33.301  1.00  0.00     0.064 A 
ATOM     81  C   UNL A   1      40.726  31.713  33.492  1.00  0.00     0.173 A 
ATOM     82  C   UNL A   1      39.820  29.493  33.334  1.00  0.00     0.173 A 
ATOM     83  F   UNL A   1      41.766  32.562  33.466  1.00  0.00    -0.203 F 
ATOM     84  C   UNL A   1      39.440  32.241  33.570  1.00  0.00     0.198 A 
ATOM     85  C   UNL A   1      38.534  30.025  33.436  1.00  0.00     0.198 A 
ATOM     86  F   UNL A   1      39.955  28.173  33.138  1.00  0.00    -0.203 F 
ATOM     87  F   UNL A   1      39.264  33.569  33.616  1.00  0.00    -0.200 F 
ATOM     88  C   UNL A   1      38.344  31.397  33.512  1.00  0.00     0.200 A 
ATOM     89  F   UNL A   1      37.471  29.213  33.351  1.00  0.00    -0.200 F 
ATOM     90  F   UNL A   1      37.104  31.907  33.481  1.00  0.00    -0.200 F 
ENDBRANCH  56  80
BRANCH  68  91
ATOM     91  C   UNL A   1      45.375  24.615  33.171  1.00  0.00     0.064 A 
ATOM     92  C   UNL A   1      44.601  23.489  33.487  1.00  0.00     0.173 A 
ATOM     93  C   UNL A   1      46.690  24.625  33.691  1.00  0.00     0.173 A 
ATOM     94  F   UNL A   1      43.319  23.406  33.100  1.00  0.00    -0.203 F 
ATOM     95  C   UNL A   1      45.121  22.426  34.230  1.00  0.00     0.198 A 
ATOM     96  C   UNL A   1      47.188  23.589  34.478  1.00  0.00     0.198 A 
ATOM     97  F   UNL A   1      47.543  25.625  33.426  1.00  0.00    -0.203 F 
ATOM     98  F   UNL A   1      44.365  21.343  34.460  1.00  0.00    -0.200 F 
ATOM     99  C   UNL A   1      46.409  22.481  34.736  1.00  0.00     0.200 A 
ATOM    100  F   UNL A   1      48.431  23.671  34.975  1.00  0.00    -0.200 F 
ATOM    101  F   UNL A   1      46.899  21.470  35.464  1.00  0.00    -0.200 F 
ENDBRANCH  68  91
ENDBRANCH  42  43
ENDBRANCH  34  37
ENDBRANCH  32  33
ENDBRANCH  31  32
ENDBRANCH  30  31
ENDBRANCH   3  30
TORSDOF 15
ENDMDL
