MODEL 1
REMARK VINA RESULT:     -13.6      0.000      0.000
REMARK SMILES COc1cc(C)cc2c1O[C@H](C(F)(F)F)C(C(=O)NCCCNC(=O)c1ccc(-c3c4nc(c(-c5c(F)c(F)c(F)c(F)c5F)c5ccc([nH]5)c(-c5c(F)c(F)c(F)c(F)c5F)c5nc(c(-c6c(F)c(F)c(F)c(F)c6F)c6ccc3[nH]6)C=C5)C=C4)cc1)=C2
REMARK SMILES IDX 21 1 20 2 19 3 17 4 18 5 16 7 3 8 4 9 9 10 5 11 8 12 10 13
REMARK SMILES IDX 6 14 7 15 89 16 11 17 2 18 1 19 12 20 13 21 14 22 15 23
REMARK SMILES IDX 22 24 23 25 24 26 25 28 26 29 27 30 88 31 28 32 87 33 29 34
REMARK SMILES IDX 30 35 31 36 81 37 32 38 86 39 80 40 82 41 33 42 85 43 79 44
REMARK SMILES IDX 78 45 34 47 66 48 46 49 65 50 47 51 50 52 64 53 83 54 48 55
REMARK SMILES IDX 49 56 63 58 84 59 51 60 35 61 36 62 44 63 37 64 38 65 42 66
REMARK SMILES IDX 45 67 39 68 40 69 43 70 41 71 67 72 68 73 76 74 69 75 70 76
REMARK SMILES IDX 74 77 77 78 71 79 72 80 75 81 73 82 52 83 53 84 61 85 54 86
REMARK SMILES IDX 55 87 59 88 62 89 56 90 57 91 60 92 58 93
REMARK H PARENT 19 6 23 27 82 46 50 57
REMARK Flexibility Score: inf
ROOT
ATOM      1  C   UNL A   1      31.534  32.111  26.731  1.00  0.00     0.042 C 
ENDROOT
BRANCH   1   2
ATOM      2  C   UNL A   1      31.725  30.606  26.612  1.00  0.00     0.118 C 
BRANCH   2   3
ATOM      3  N   UNL A   1      32.345  30.240  25.347  1.00  0.00    -0.352 N 
ATOM      4  C   UNL A   1      32.707  29.104  24.707  1.00  0.00     0.251 C 
ATOM      5  O   UNL A   1      33.253  29.278  23.613  1.00  0.00    -0.270 OA
ATOM      6  H   UNL A   1      32.559  31.036  24.811  1.00  0.00     0.163 HD
BRANCH   4   7
ATOM      7  C   UNL A   1      32.497  27.719  25.217  1.00  0.00     0.067 C 
ATOM      8  C   UNL A   1      32.130  23.861  26.821  1.00  0.00     0.161 A 
ATOM      9  C   UNL A   1      33.168  22.941  26.660  1.00  0.00     0.054 A 
ATOM     10  C   UNL A   1      32.272  25.166  26.347  1.00  0.00     0.169 A 
ATOM     11  C   UNL A   1      34.373  23.336  26.065  1.00  0.00    -0.047 A 
ATOM     12  C   UNL A   1      33.466  25.573  25.750  1.00  0.00     0.021 A 
ATOM     13  O   UNL A   1      31.232  26.037  26.539  1.00  0.00    -0.471 OA
ATOM     14  C   UNL A   1      35.500  22.361  25.889  1.00  0.00     0.044 C 
ATOM     15  C   UNL A   1      34.517  24.658  25.618  1.00  0.00     0.015 A 
ATOM     16  C   UNL A   1      33.602  26.952  25.294  1.00  0.00     0.025 C 
ATOM     17  C   UNL A   1      31.163  27.145  25.604  1.00  0.00     0.314 C 
BRANCH   8  18
ATOM     18  O   UNL A   1      30.922  23.486  27.353  1.00  0.00    -0.493 OA
ATOM     19  C   UNL A   1      30.229  22.578  26.501  1.00  0.00     0.278 C 
ENDBRANCH   8  18
BRANCH  17  20
ATOM     20  C   UNL A   1      30.306  26.744  24.387  1.00  0.00     0.429 C 
ATOM     21  F   UNL A   1      29.764  27.845  23.807  1.00  0.00    -0.167 F 
ATOM     22  F   UNL A   1      31.037  26.130  23.424  1.00  0.00    -0.167 F 
ATOM     23  F   UNL A   1      29.296  25.906  24.701  1.00  0.00    -0.167 F 
ENDBRANCH  17  20
ENDBRANCH   4   7
ENDBRANCH   2   3
ENDBRANCH   1   2
BRANCH   1  24
ATOM     24  C   UNL A   1      32.777  32.811  27.266  1.00  0.00     0.118 C 
BRANCH  24  25
ATOM     25  N   UNL A   1      32.514  34.203  27.626  1.00  0.00    -0.352 N 
ATOM     26  C   UNL A   1      33.042  34.979  28.631  1.00  0.00     0.251 C 
ATOM     27  H   UNL A   1      31.852  34.660  27.057  1.00  0.00     0.163 HD
ATOM     28  O   UNL A   1      32.528  36.057  28.912  1.00  0.00    -0.269 OA
BRANCH  26  29
ATOM     29  C   UNL A   1      34.215  34.502  29.390  1.00  0.00     0.039 A 
ATOM     30  C   UNL A   1      35.498  34.640  28.862  1.00  0.00     0.014 A 
ATOM     31  C   UNL A   1      34.028  33.899  30.637  1.00  0.00     0.014 A 
ATOM     32  C   UNL A   1      36.565  33.997  29.475  1.00  0.00     0.010 A 
ATOM     33  C   UNL A   1      35.122  33.341  31.305  1.00  0.00     0.010 A 
ATOM     34  C   UNL A   1      36.388  33.334  30.699  1.00  0.00    -0.014 A 
BRANCH  34  35
ATOM     35  C   UNL A   1      37.534  32.614  31.311  1.00  0.00     0.031 A 
ATOM     36  C   UNL A   1      37.984  32.945  32.706  1.00  0.00     0.074 A 
ATOM     37  C   UNL A   1      38.115  31.604  30.636  1.00  0.00     0.049 A 
ATOM     38  N   UNL A   1      38.980  32.446  33.396  1.00  0.00    -0.248 NA
ATOM     39  C   UNL A   1      37.216  33.974  33.428  1.00  0.00     0.031 C 
ATOM     40  C   UNL A   1      37.732  31.157  29.295  1.00  0.00     0.029 A 
ATOM     41  N   UNL A   1      39.125  30.749  30.996  1.00  0.00    -0.354 N 
ATOM     42  C   UNL A   1      38.971  33.112  34.615  1.00  0.00     0.074 A 
ATOM     43  C   UNL A   1      37.889  34.070  34.565  1.00  0.00     0.031 C 
ATOM     44  C   UNL A   1      38.446  30.069  28.975  1.00  0.00     0.029 A 
ATOM     45  C   UNL A   1      39.393  29.791  30.050  1.00  0.00     0.049 A 
ATOM     46  H   UNL A   1      39.610  30.815  31.850  1.00  0.00     0.167 HD
ATOM     47  C   UNL A   1      39.786  32.931  35.681  1.00  0.00     0.037 A 
ATOM     48  C   UNL A   1      40.312  28.809  30.040  1.00  0.00     0.037 A 
ATOM     49  C   UNL A   1      40.849  31.962  35.732  1.00  0.00     0.049 A 
ATOM     50  C   UNL A   1      41.250  28.678  31.204  1.00  0.00     0.074 A 
ATOM     51  C   UNL A   1      41.747  31.716  36.756  1.00  0.00     0.029 A 
ATOM     52  N   UNL A   1      41.151  31.068  34.713  1.00  0.00    -0.354 N 
ATOM     53  N   UNL A   1      41.274  29.355  32.326  1.00  0.00    -0.248 NA
ATOM     54  C   UNL A   1      42.305  27.663  31.089  1.00  0.00     0.031 C 
ATOM     55  C   UNL A   1      42.612  30.695  36.345  1.00  0.00     0.029 A 
ATOM     56  C   UNL A   1      42.227  30.276  35.081  1.00  0.00     0.049 A 
ATOM     57  H   UNL A   1      40.670  31.005  33.857  1.00  0.00     0.167 HD
ATOM     58  C   UNL A   1      42.341  28.850  33.053  1.00  0.00     0.074 A 
ATOM     59  C   UNL A   1      42.925  27.790  32.254  1.00  0.00     0.031 C 
ATOM     60  C   UNL A   1      42.800  29.234  34.269  1.00  0.00     0.037 A 
BRANCH  47  61
ATOM     61  C   UNL A   1      39.571  33.812  36.878  1.00  0.00     0.064 A 
ATOM     62  C   UNL A   1      40.121  35.100  36.952  1.00  0.00     0.173 A 
ATOM     63  C   UNL A   1      38.771  33.378  37.946  1.00  0.00     0.173 A 
ATOM     64  F   UNL A   1      40.907  35.556  35.964  1.00  0.00    -0.203 F 
ATOM     65  C   UNL A   1      39.898  35.912  38.061  1.00  0.00     0.198 A 
ATOM     66  C   UNL A   1      38.528  34.203  39.042  1.00  0.00     0.198 A 
ATOM     67  F   UNL A   1      38.218  32.156  37.924  1.00  0.00    -0.203 F 
ATOM     68  F   UNL A   1      40.469  37.124  38.129  1.00  0.00    -0.200 F 
ATOM     69  C   UNL A   1      39.096  35.467  39.101  1.00  0.00     0.200 A 
ATOM     70  F   UNL A   1      37.745  33.775  40.042  1.00  0.00    -0.200 F 
ATOM     71  F   UNL A   1      38.875  36.253  40.163  1.00  0.00    -0.200 F 
ENDBRANCH  47  61
BRANCH  48  72
ATOM     72  C   UNL A   1      40.380  27.881  28.883  1.00  0.00     0.064 A 
ATOM     73  C   UNL A   1      39.645  26.689  28.878  1.00  0.00     0.173 A 
ATOM     74  C   UNL A   1      41.143  28.186  27.746  1.00  0.00     0.173 A 
ATOM     75  F   UNL A   1      38.919  26.346  29.951  1.00  0.00    -0.203 F 
ATOM     76  C   UNL A   1      39.664  25.838  27.775  1.00  0.00     0.198 A 
ATOM     77  C   UNL A   1      41.140  27.348  26.633  1.00  0.00     0.198 A 
ATOM     78  F   UNL A   1      41.863  29.317  27.703  1.00  0.00    -0.203 F 
ATOM     79  F   UNL A   1      38.968  24.694  27.802  1.00  0.00    -0.200 F 
ATOM     80  C   UNL A   1      40.403  26.174  26.649  1.00  0.00     0.200 A 
ATOM     81  F   UNL A   1      41.843  27.685  25.543  1.00  0.00    -0.200 F 
ATOM     82  F   UNL A   1      40.405  25.366  25.581  1.00  0.00    -0.200 F 
ENDBRANCH  48  72
BRANCH  60  83
ATOM     83  C   UNL A   1      43.989  28.499  34.811  1.00  0.00     0.064 A 
ATOM     84  C   UNL A   1      45.294  28.971  34.607  1.00  0.00     0.173 A 
ATOM     85  C   UNL A   1      43.820  27.334  35.573  1.00  0.00     0.173 A 
ATOM     86  F   UNL A   1      45.506  30.073  33.872  1.00  0.00    -0.203 F 
ATOM     87  C   UNL A   1      46.388  28.290  35.131  1.00  0.00     0.198 A 
ATOM     88  C   UNL A   1      44.915  26.671  36.116  1.00  0.00     0.198 A 
ATOM     89  F   UNL A   1      42.590  26.846  35.799  1.00  0.00    -0.203 F 
ATOM     90  F   UNL A   1      47.630  28.735  34.891  1.00  0.00    -0.200 F 
ATOM     91  C   UNL A   1      46.199  27.145  35.890  1.00  0.00     0.200 A 
ATOM     92  F   UNL A   1      44.729  25.570  36.858  1.00  0.00    -0.200 F 
ATOM     93  F   UNL A   1      47.254  26.494  36.398  1.00  0.00    -0.200 F 
ENDBRANCH  60  83
ENDBRANCH  34  35
ENDBRANCH  26  29
ENDBRANCH  24  25
ENDBRANCH   1  24
TORSDOF 12
ENDMDL
MODEL 2
REMARK VINA RESULT:     -13.6      0.065      1.194
REMARK SMILES COc1cc(C)cc2c1O[C@H](C(F)(F)F)C(C(=O)NCCCNC(=O)c1ccc(-c3c4nc(c(-c5c(F)c(F)c(F)c(F)c5F)c5ccc([nH]5)c(-c5c(F)c(F)c(F)c(F)c5F)c5nc(c(-c6c(F)c(F)c(F)c(F)c6F)c6ccc3[nH]6)C=C5)C=C4)cc1)=C2
REMARK SMILES IDX 21 1 20 2 19 3 17 4 18 5 16 7 3 8 4 9 9 10 5 11 8 12 10 13
REMARK SMILES IDX 6 14 7 15 89 16 11 17 2 18 1 19 12 20 13 21 14 22 15 23
REMARK SMILES IDX 22 24 23 25 24 26 25 28 26 29 27 30 88 31 28 32 87 33 29 34
REMARK SMILES IDX 30 35 31 36 81 37 32 38 86 39 80 40 82 41 33 42 85 43 79 44
REMARK SMILES IDX 78 45 34 47 66 48 46 49 65 50 47 51 50 52 64 53 83 54 48 55
REMARK SMILES IDX 49 56 63 58 84 59 51 60 35 61 36 62 44 63 37 64 38 65 42 66
REMARK SMILES IDX 45 67 39 68 40 69 43 70 41 71 67 72 68 73 76 74 69 75 70 76
REMARK SMILES IDX 74 77 77 78 71 79 72 80 75 81 73 82 52 83 53 84 61 85 54 86
REMARK SMILES IDX 55 87 59 88 62 89 56 90 57 91 60 92 58 93
REMARK H PARENT 19 6 23 27 82 46 50 57
REMARK Flexibility Score: inf
ROOT
ATOM      1  C   UNL A   1      31.496  32.110  26.639  1.00  0.00     0.042 C 
ENDROOT
BRANCH   1   2
ATOM      2  C   UNL A   1      31.647  30.600  26.523  1.00  0.00     0.118 C 
BRANCH   2   3
ATOM      3  N   UNL A   1      32.289  30.216  25.275  1.00  0.00    -0.352 N 
ATOM      4  C   UNL A   1      32.666  29.072  24.659  1.00  0.00     0.251 C 
ATOM      5  O   UNL A   1      33.230  29.230  23.572  1.00  0.00    -0.270 OA
ATOM      6  H   UNL A   1      32.510  31.005  24.730  1.00  0.00     0.163 HD
BRANCH   4   7
ATOM      7  C   UNL A   1      32.453  27.694  25.188  1.00  0.00     0.067 C 
ATOM      8  C   UNL A   1      32.076  23.859  26.845  1.00  0.00     0.161 A 
ATOM      9  C   UNL A   1      33.113  22.936  26.700  1.00  0.00     0.054 A 
ATOM     10  C   UNL A   1      32.221  25.158  26.353  1.00  0.00     0.169 A 
ATOM     11  C   UNL A   1      34.320  23.321  26.102  1.00  0.00    -0.047 A 
ATOM     12  C   UNL A   1      33.418  25.555  25.753  1.00  0.00     0.021 A 
ATOM     13  O   UNL A   1      31.183  26.033  26.531  1.00  0.00    -0.471 OA
ATOM     14  C   UNL A   1      35.446  22.342  25.943  1.00  0.00     0.044 C 
ATOM     15  C   UNL A   1      34.467  24.636  25.636  1.00  0.00     0.015 A 
ATOM     16  C   UNL A   1      33.557  26.927  25.279  1.00  0.00     0.025 C 
ATOM     17  C   UNL A   1      31.118  27.128  25.580  1.00  0.00     0.314 C 
BRANCH   8  18
ATOM     18  O   UNL A   1      30.867  23.494  27.380  1.00  0.00    -0.493 OA
ATOM     19  C   UNL A   1      30.141  22.637  26.503  1.00  0.00     0.278 C 
ENDBRANCH   8  18
BRANCH  17  20
ATOM     20  C   UNL A   1      30.263  26.711  24.367  1.00  0.00     0.429 C 
ATOM     21  F   UNL A   1      29.211  25.953  24.767  1.00  0.00    -0.167 F 
ATOM     22  F   UNL A   1      29.736  27.778  23.718  1.00  0.00    -0.167 F 
ATOM     23  F   UNL A   1      30.954  26.002  23.449  1.00  0.00    -0.167 F 
ENDBRANCH  17  20
ENDBRANCH   4   7
ENDBRANCH   2   3
ENDBRANCH   1   2
BRANCH   1  24
ATOM     24  C   UNL A   1      32.712  32.766  27.282  1.00  0.00     0.118 C 
BRANCH  24  25
ATOM     25  N   UNL A   1      32.471  34.169  27.612  1.00  0.00    -0.352 N 
ATOM     26  C   UNL A   1      33.022  34.961  28.593  1.00  0.00     0.251 C 
ATOM     27  H   UNL A   1      31.809  34.621  27.041  1.00  0.00     0.163 HD
ATOM     28  O   UNL A   1      32.525  36.052  28.854  1.00  0.00    -0.269 OA
BRANCH  26  29
ATOM     29  C   UNL A   1      34.197  34.486  29.350  1.00  0.00     0.039 A 
ATOM     30  C   UNL A   1      35.477  34.609  28.811  1.00  0.00     0.014 A 
ATOM     31  C   UNL A   1      34.015  33.900  30.606  1.00  0.00     0.014 A 
ATOM     32  C   UNL A   1      36.544  33.966  29.425  1.00  0.00     0.010 A 
ATOM     33  C   UNL A   1      35.110  33.343  31.273  1.00  0.00     0.010 A 
ATOM     34  C   UNL A   1      36.371  33.321  30.658  1.00  0.00    -0.014 A 
BRANCH  34  35
ATOM     35  C   UNL A   1      37.517  32.600  31.271  1.00  0.00     0.031 A 
ATOM     36  C   UNL A   1      37.963  32.929  32.668  1.00  0.00     0.074 A 
ATOM     37  C   UNL A   1      38.101  31.594  30.595  1.00  0.00     0.049 A 
ATOM     38  N   UNL A   1      38.959  32.430  33.359  1.00  0.00    -0.248 NA
ATOM     39  C   UNL A   1      37.192  33.956  33.390  1.00  0.00     0.031 C 
ATOM     40  C   UNL A   1      37.722  31.148  29.252  1.00  0.00     0.029 A 
ATOM     41  N   UNL A   1      39.111  30.739  30.955  1.00  0.00    -0.354 N 
ATOM     42  C   UNL A   1      38.946  33.093  34.580  1.00  0.00     0.074 A 
ATOM     43  C   UNL A   1      37.862  34.050  34.530  1.00  0.00     0.031 C 
ATOM     44  C   UNL A   1      38.439  30.063  28.931  1.00  0.00     0.029 A 
ATOM     45  C   UNL A   1      39.384  29.784  30.008  1.00  0.00     0.049 A 
ATOM     46  H   UNL A   1      39.595  30.804  31.810  1.00  0.00     0.167 HD
ATOM     47  C   UNL A   1      39.759  32.911  35.647  1.00  0.00     0.037 A 
ATOM     48  C   UNL A   1      40.304  28.803  29.998  1.00  0.00     0.037 A 
ATOM     49  C   UNL A   1      40.823  31.943  35.698  1.00  0.00     0.049 A 
ATOM     50  C   UNL A   1      41.240  28.671  31.164  1.00  0.00     0.074 A 
ATOM     51  C   UNL A   1      41.720  31.696  36.724  1.00  0.00     0.029 A 
ATOM     52  N   UNL A   1      41.129  31.052  34.678  1.00  0.00    -0.354 N 
ATOM     53  N   UNL A   1      41.260  29.345  32.287  1.00  0.00    -0.248 NA
ATOM     54  C   UNL A   1      42.297  27.658  31.049  1.00  0.00     0.031 C 
ATOM     55  C   UNL A   1      42.587  30.677  36.312  1.00  0.00     0.029 A 
ATOM     56  C   UNL A   1      42.205  30.261  35.047  1.00  0.00     0.049 A 
ATOM     57  H   UNL A   1      40.650  30.991  33.820  1.00  0.00     0.167 HD
ATOM     58  C   UNL A   1      42.326  28.840  33.016  1.00  0.00     0.074 A 
ATOM     59  C   UNL A   1      42.913  27.782  32.216  1.00  0.00     0.031 C 
ATOM     60  C   UNL A   1      42.782  29.222  34.233  1.00  0.00     0.037 A 
BRANCH  47  61
ATOM     61  C   UNL A   1      39.539  33.789  36.845  1.00  0.00     0.064 A 
ATOM     62  C   UNL A   1      38.751  33.372  37.928  1.00  0.00     0.173 A 
ATOM     63  C   UNL A   1      40.156  35.047  36.929  1.00  0.00     0.173 A 
ATOM     64  F   UNL A   1      38.126  32.186  37.890  1.00  0.00    -0.203 F 
ATOM     65  C   UNL A   1      38.571  34.191  39.040  1.00  0.00     0.198 A 
ATOM     66  C   UNL A   1      39.995  35.852  38.054  1.00  0.00     0.198 A 
ATOM     67  F   UNL A   1      40.923  35.492  35.923  1.00  0.00    -0.203 F 
ATOM     68  F   UNL A   1      37.779  33.789  40.045  1.00  0.00    -0.200 F 
ATOM     69  C   UNL A   1      39.198  35.426  39.107  1.00  0.00     0.200 A 
ATOM     70  F   UNL A   1      40.610  37.040  38.121  1.00  0.00    -0.200 F 
ATOM     71  F   UNL A   1      39.030  36.208  40.181  1.00  0.00    -0.200 F 
ENDBRANCH  47  61
BRANCH  48  72
ATOM     72  C   UNL A   1      40.376  27.878  28.839  1.00  0.00     0.064 A 
ATOM     73  C   UNL A   1      39.641  26.686  28.829  1.00  0.00     0.173 A 
ATOM     74  C   UNL A   1      41.143  28.186  27.705  1.00  0.00     0.173 A 
ATOM     75  F   UNL A   1      38.912  26.340  29.898  1.00  0.00    -0.203 F 
ATOM     76  C   UNL A   1      39.665  25.838  27.723  1.00  0.00     0.198 A 
ATOM     77  C   UNL A   1      41.144  27.351  26.590  1.00  0.00     0.198 A 
ATOM     78  F   UNL A   1      41.863  29.317  27.667  1.00  0.00    -0.203 F 
ATOM     79  F   UNL A   1      38.969  24.693  27.745  1.00  0.00    -0.200 F 
ATOM     80  C   UNL A   1      40.407  26.176  26.601  1.00  0.00     0.200 A 
ATOM     81  F   UNL A   1      41.850  27.690  25.503  1.00  0.00    -0.200 F 
ATOM     82  F   UNL A   1      40.413  25.370  25.531  1.00  0.00    -0.200 F 
ENDBRANCH  48  72
BRANCH  60  83
ATOM     83  C   UNL A   1      43.970  28.488  34.776  1.00  0.00     0.064 A 
ATOM     84  C   UNL A   1      45.275  28.960  34.573  1.00  0.00     0.173 A 
ATOM     85  C   UNL A   1      43.801  27.324  35.540  1.00  0.00     0.173 A 
ATOM     86  F   UNL A   1      45.487  30.060  33.836  1.00  0.00    -0.203 F 
ATOM     87  C   UNL A   1      46.370  28.279  35.097  1.00  0.00     0.198 A 
ATOM     88  C   UNL A   1      44.897  26.661  36.084  1.00  0.00     0.198 A 
ATOM     89  F   UNL A   1      42.572  26.836  35.766  1.00  0.00    -0.203 F 
ATOM     90  F   UNL A   1      47.611  28.724  34.857  1.00  0.00    -0.200 F 
ATOM     91  C   UNL A   1      46.180  27.135  35.857  1.00  0.00     0.200 A 
ATOM     92  F   UNL A   1      44.711  25.561  36.827  1.00  0.00    -0.200 F 
ATOM     93  F   UNL A   1      47.236  26.484  36.366  1.00  0.00    -0.200 F 
ENDBRANCH  60  83
ENDBRANCH  34  35
ENDBRANCH  26  29
ENDBRANCH  24  25
ENDBRANCH   1  24
TORSDOF 12
ENDMDL
MODEL 3
REMARK VINA RESULT:     -13.5      0.416      7.330
REMARK SMILES COc1cc(C)cc2c1O[C@H](C(F)(F)F)C(C(=O)NCCCNC(=O)c1ccc(-c3c4nc(c(-c5c(F)c(F)c(F)c(F)c5F)c5ccc([nH]5)c(-c5c(F)c(F)c(F)c(F)c5F)c5nc(c(-c6c(F)c(F)c(F)c(F)c6F)c6ccc3[nH]6)C=C5)C=C4)cc1)=C2
REMARK SMILES IDX 21 1 20 2 19 3 17 4 18 5 16 7 3 8 4 9 9 10 5 11 8 12 10 13
REMARK SMILES IDX 6 14 7 15 89 16 11 17 2 18 1 19 12 20 13 21 14 22 15 23
REMARK SMILES IDX 22 24 23 25 24 26 25 28 26 29 27 30 88 31 28 32 87 33 29 34
REMARK SMILES IDX 30 35 31 36 81 37 32 38 86 39 80 40 82 41 33 42 85 43 79 44
REMARK SMILES IDX 78 45 34 47 66 48 46 49 65 50 47 51 50 52 64 53 83 54 48 55
REMARK SMILES IDX 49 56 63 58 84 59 51 60 35 61 36 62 44 63 37 64 38 65 42 66
REMARK SMILES IDX 45 67 39 68 40 69 43 70 41 71 67 72 68 73 76 74 69 75 70 76
REMARK SMILES IDX 74 77 77 78 71 79 72 80 75 81 73 82 52 83 53 84 61 85 54 86
REMARK SMILES IDX 55 87 59 88 62 89 56 90 57 91 60 92 58 93
REMARK H PARENT 19 6 23 27 82 46 50 57
REMARK Flexibility Score: inf
ROOT
ATOM      1  C   UNL A   1      31.575  32.137  26.645  1.00  0.00     0.042 C 
ENDROOT
BRANCH   1   2
ATOM      2  C   UNL A   1      31.721  30.626  26.542  1.00  0.00     0.118 C 
BRANCH   2   3
ATOM      3  N   UNL A   1      32.354  30.229  25.293  1.00  0.00    -0.352 N 
ATOM      4  C   UNL A   1      32.707  29.078  24.677  1.00  0.00     0.251 C 
ATOM      5  O   UNL A   1      33.273  29.225  23.589  1.00  0.00    -0.270 OA
ATOM      6  H   UNL A   1      32.591  31.013  24.748  1.00  0.00     0.163 HD
BRANCH   4   7
ATOM      7  C   UNL A   1      32.466  27.705  25.206  1.00  0.00     0.067 C 
ATOM      8  C   UNL A   1      32.009  23.879  26.864  1.00  0.00     0.161 A 
ATOM      9  C   UNL A   1      33.032  22.939  26.732  1.00  0.00     0.054 A 
ATOM     10  C   UNL A   1      32.180  25.174  26.372  1.00  0.00     0.169 A 
ATOM     11  C   UNL A   1      34.252  23.303  26.147  1.00  0.00    -0.047 A 
ATOM     12  C   UNL A   1      33.390  25.551  25.785  1.00  0.00     0.021 A 
ATOM     13  O   UNL A   1      31.154  26.067  26.536  1.00  0.00    -0.471 OA
ATOM     14  C   UNL A   1      35.364  22.306  26.002  1.00  0.00     0.044 C 
ATOM     15  C   UNL A   1      34.426  24.615  25.681  1.00  0.00     0.015 A 
ATOM     16  C   UNL A   1      33.556  26.919  25.310  1.00  0.00     0.025 C 
ATOM     17  C   UNL A   1      31.117  27.160  25.584  1.00  0.00     0.314 C 
BRANCH   8  18
ATOM     18  O   UNL A   1      30.788  23.534  27.386  1.00  0.00    -0.493 OA
ATOM     19  C   UNL A   1      30.127  22.562  26.581  1.00  0.00     0.278 C 
ENDBRANCH   8  18
BRANCH  17  20
ATOM     20  C   UNL A   1      30.270  26.755  24.361  1.00  0.00     0.429 C 
ATOM     21  F   UNL A   1      29.271  25.916  24.736  1.00  0.00    -0.167 F 
ATOM     22  F   UNL A   1      29.669  27.820  23.776  1.00  0.00    -0.167 F 
ATOM     23  F   UNL A   1      30.986  26.137  23.399  1.00  0.00    -0.167 F 
ENDBRANCH  17  20
ENDBRANCH   4   7
ENDBRANCH   2   3
ENDBRANCH   1   2
BRANCH   1  24
ATOM     24  C   UNL A   1      32.757  32.786  27.356  1.00  0.00     0.118 C 
BRANCH  24  25
ATOM     25  N   UNL A   1      32.508  34.192  27.668  1.00  0.00    -0.352 N 
ATOM     26  C   UNL A   1      33.019  34.987  28.668  1.00  0.00     0.251 C 
ATOM     27  H   UNL A   1      31.874  34.644  27.066  1.00  0.00     0.163 HD
ATOM     28  O   UNL A   1      32.516  36.081  28.902  1.00  0.00    -0.269 OA
BRANCH  26  29
ATOM     29  C   UNL A   1      34.157  34.510  29.478  1.00  0.00     0.039 A 
ATOM     30  C   UNL A   1      35.459  34.601  28.985  1.00  0.00     0.014 A 
ATOM     31  C   UNL A   1      33.919  33.955  30.739  1.00  0.00     0.014 A 
ATOM     32  C   UNL A   1      36.491  33.956  29.652  1.00  0.00     0.010 A 
ATOM     33  C   UNL A   1      34.980  33.396  31.458  1.00  0.00     0.010 A 
ATOM     34  C   UNL A   1      36.262  33.340  30.892  1.00  0.00    -0.014 A 
BRANCH  34  35
ATOM     35  C   UNL A   1      37.373  32.616  31.562  1.00  0.00     0.031 A 
ATOM     36  C   UNL A   1      38.121  31.532  30.837  1.00  0.00     0.074 A 
ATOM     37  C   UNL A   1      37.758  32.993  32.795  1.00  0.00     0.049 A 
ATOM     38  N   UNL A   1      39.098  30.771  31.266  1.00  0.00    -0.248 NA
ATOM     39  C   UNL A   1      37.724  31.264  29.445  1.00  0.00     0.031 C 
ATOM     40  C   UNL A   1      37.141  34.066  33.579  1.00  0.00     0.029 A 
ATOM     41  N   UNL A   1      38.780  32.545  33.593  1.00  0.00    -0.354 N 
ATOM     42  C   UNL A   1      39.413  29.925  30.210  1.00  0.00     0.074 A 
ATOM     43  C   UNL A   1      38.509  30.245  29.127  1.00  0.00     0.031 C 
ATOM     44  C   UNL A   1      37.838  34.239  34.710  1.00  0.00     0.029 A 
ATOM     45  C   UNL A   1      38.899  33.239  34.771  1.00  0.00     0.049 A 
ATOM     46  H   UNL A   1      39.371  31.798  33.344  1.00  0.00     0.167 HD
ATOM     47  C   UNL A   1      40.376  28.975  30.149  1.00  0.00     0.037 A 
ATOM     48  C   UNL A   1      39.756  33.077  35.795  1.00  0.00     0.037 A 
ATOM     49  C   UNL A   1      41.287  28.675  31.223  1.00  0.00     0.049 A 
ATOM     50  C   UNL A   1      40.766  31.970  35.730  1.00  0.00     0.074 A 
ATOM     51  C   UNL A   1      42.283  27.715  31.269  1.00  0.00     0.029 A 
ATOM     52  N   UNL A   1      41.316  29.340  32.441  1.00  0.00    -0.354 N 
ATOM     53  N   UNL A   1      41.015  31.134  34.752  1.00  0.00    -0.248 NA
ATOM     54  C   UNL A   1      41.599  31.767  36.923  1.00  0.00     0.031 C 
ATOM     55  C   UNL A   1      42.894  27.779  32.527  1.00  0.00     0.029 A 
ATOM     56  C   UNL A   1      42.307  28.806  33.249  1.00  0.00     0.049 A 
ATOM     57  H   UNL A   1      40.722  30.083  32.692  1.00  0.00     0.167 HD
ATOM     58  C   UNL A   1      42.031  30.307  35.206  1.00  0.00     0.074 A 
ATOM     59  C   UNL A   1      42.372  30.760  36.541  1.00  0.00     0.031 C 
ATOM     60  C   UNL A   1      42.624  29.263  34.578  1.00  0.00     0.037 A 
BRANCH  47  61
ATOM     61  C   UNL A   1      40.487  28.179  28.880  1.00  0.00     0.064 A 
ATOM     62  C   UNL A   1      41.303  28.597  27.819  1.00  0.00     0.173 A 
ATOM     63  C   UNL A   1      39.799  26.964  28.740  1.00  0.00     0.173 A 
ATOM     64  F   UNL A   1      41.969  29.759  27.896  1.00  0.00    -0.203 F 
ATOM     65  C   UNL A   1      41.410  27.838  26.655  1.00  0.00     0.198 A 
ATOM     66  C   UNL A   1      39.928  26.195  27.586  1.00  0.00     0.198 A 
ATOM     67  F   UNL A   1      39.008  26.518  29.727  1.00  0.00    -0.203 F 
ATOM     68  F   UNL A   1      42.163  28.277  25.637  1.00  0.00    -0.200 F 
ATOM     69  C   UNL A   1      40.729  26.635  26.542  1.00  0.00     0.200 A 
ATOM     70  F   UNL A   1      39.277  25.028  27.483  1.00  0.00    -0.200 F 
ATOM     71  F   UNL A   1      40.838  25.903  25.426  1.00  0.00    -0.200 F 
ENDBRANCH  47  61
BRANCH  48  72
ATOM     72  C   UNL A   1      39.683  33.992  36.962  1.00  0.00     0.064 A 
ATOM     73  C   UNL A   1      40.356  35.219  36.952  1.00  0.00     0.173 A 
ATOM     74  C   UNL A   1      38.908  33.678  38.089  1.00  0.00     0.173 A 
ATOM     75  F   UNL A   1      41.126  35.552  35.906  1.00  0.00    -0.203 F 
ATOM     76  C   UNL A   1      40.251  36.105  38.023  1.00  0.00     0.198 A 
ATOM     77  C   UNL A   1      38.782  34.575  39.146  1.00  0.00     0.198 A 
ATOM     78  F   UNL A   1      38.244  32.514  38.144  1.00  0.00    -0.203 F 
ATOM     79  F   UNL A   1      40.920  37.266  37.998  1.00  0.00    -0.200 F 
ATOM     80  C   UNL A   1      39.456  35.787  39.114  1.00  0.00     0.200 A 
ATOM     81  F   UNL A   1      37.999  34.270  40.191  1.00  0.00    -0.200 F 
ATOM     82  F   UNL A   1      39.339  36.647  40.134  1.00  0.00    -0.200 F 
ENDBRANCH  48  72
BRANCH  60  83
ATOM     83  C   UNL A   1      43.705  28.543  35.325  1.00  0.00     0.064 A 
ATOM     84  C   UNL A   1      45.051  28.917  35.201  1.00  0.00     0.173 A 
ATOM     85  C   UNL A   1      43.389  27.495  36.202  1.00  0.00     0.173 A 
ATOM     86  F   UNL A   1      45.403  29.903  34.363  1.00  0.00    -0.203 F 
ATOM     87  C   UNL A   1      46.044  28.253  35.914  1.00  0.00     0.198 A 
ATOM     88  C   UNL A   1      44.383  26.851  36.932  1.00  0.00     0.198 A 
ATOM     89  F   UNL A   1      42.115  27.105  36.358  1.00  0.00    -0.203 F 
ATOM     90  F   UNL A   1      47.329  28.598  35.751  1.00  0.00    -0.200 F 
ATOM     91  C   UNL A   1      45.710  27.225  36.784  1.00  0.00     0.200 A 
ATOM     92  F   UNL A   1      44.056  25.865  37.780  1.00  0.00    -0.200 F 
ATOM     93  F   UNL A   1      46.668  26.591  37.474  1.00  0.00    -0.200 F 
ENDBRANCH  60  83
ENDBRANCH  34  35
ENDBRANCH  26  29
ENDBRANCH  24  25
ENDBRANCH   1  24
TORSDOF 12
ENDMDL
