MODEL 1
REMARK VINA RESULT:     -14.0      0.000      0.000
REMARK SMILES Cc1ccc(C(=O)NCCCNC(=O)c2ccc(-c3c4nc(c(-c5c(F)c(F)c(F)c(F)c5F)c5ccc([nH]5)c(-c5c(F)c(F)c(F)c(F)c5F)c5nc(c(-c6c(F)c(F)c(F)c(F)c6F)c6ccc3[nH]6)C=C5)C=C4)cc2)cc1N[C@@H]1CC(=O)N(c2ccccc2C)C1=O
REMARK SMILES IDX 9 1 8 2 6 3 7 4 5 6 1 7 2 8 3 9 79 10 4 11 78 12 80 13 81 15
REMARK SMILES IDX 82 16 93 17 83 18 85 19 94 20 84 21 86 22 87 23 91 24 88 25
REMARK SMILES IDX 90 26 92 27 89 28 10 29 11 30 12 31 13 32 14 34 15 35 16 36
REMARK SMILES IDX 77 37 17 38 76 39 18 40 19 41 20 42 70 43 21 44 75 45 69 46
REMARK SMILES IDX 71 47 22 48 74 49 68 50 67 51 23 53 55 54 35 55 54 56 36 57
REMARK SMILES IDX 39 58 53 59 72 60 37 61 38 62 52 64 73 65 40 66 24 67 25 68
REMARK SMILES IDX 33 69 26 70 27 71 31 72 34 73 28 74 29 75 32 76 30 77 56 78
REMARK SMILES IDX 57 79 65 80 58 81 59 82 63 83 66 84 60 85 61 86 64 87 62 88
REMARK SMILES IDX 41 89 42 90 50 91 43 92 44 93 48 94 51 95 45 96 46 97 49 98
REMARK SMILES IDX 47 99
REMARK H PARENT 8 5 80 14 12 33 71 52 39 63
REMARK Flexibility Score: inf
ROOT
ATOM      1  C   UNL A   1      33.835  30.360  26.952  1.00  0.00     0.118 C 
ENDROOT
BRANCH   1   2
ATOM      2  N   UNL A   1      32.786  29.621  27.626  1.00  0.00    -0.352 N 
ATOM      3  C   UNL A   1      31.973  28.596  27.213  1.00  0.00     0.251 C 
ATOM      4  O   UNL A   1      31.121  28.211  28.017  1.00  0.00    -0.269 OA
ATOM      5  H   UNL A   1      32.628  29.909  28.554  1.00  0.00     0.163 HD
BRANCH   3   6
ATOM      6  C   UNL A   1      32.097  27.903  25.893  1.00  0.00     0.041 A 
ATOM      7  C   UNL A   1      32.117  26.165  21.935  1.00  0.00     0.046 C 
ATOM      8  C   UNL A   1      32.151  26.704  23.341  1.00  0.00    -0.028 A 
ATOM      9  C   UNL A   1      31.600  27.987  23.530  1.00  0.00     0.006 A 
ATOM     10  C   UNL A   1      32.717  26.010  24.430  1.00  0.00     0.038 A 
ATOM     11  C   UNL A   1      31.558  28.570  24.793  1.00  0.00     0.014 A 
ATOM     12  C   UNL A   1      32.704  26.658  25.673  1.00  0.00     0.039 A 
BRANCH  10  13
ATOM     13  N   UNL A   1      33.183  24.716  24.281  1.00  0.00    -0.373 N 
ATOM     14  H   UNL A   1      33.988  24.638  23.720  1.00  0.00     0.161 HD
BRANCH  13  15
ATOM     15  C   UNL A   1      32.689  23.435  24.812  1.00  0.00     0.179 C 
ATOM     16  C   UNL A   1      32.984  23.144  26.264  1.00  0.00     0.136 C 
ATOM     17  C   UNL A   1      33.126  22.187  24.055  1.00  0.00     0.256 C 
ATOM     18  C   UNL A   1      33.414  21.705  26.254  1.00  0.00     0.236 C 
ATOM     19  N   UNL A   1      33.288  21.174  24.991  1.00  0.00    -0.248 N 
ATOM     20  O   UNL A   1      33.239  22.136  22.851  1.00  0.00    -0.272 OA
ATOM     21  O   UNL A   1      33.961  21.198  27.228  1.00  0.00    -0.274 OA
BRANCH  19  22
ATOM     22  C   UNL A   1      33.580  19.806  24.665  1.00  0.00     0.055 A 
ATOM     23  C   UNL A   1      32.524  18.945  24.296  1.00  0.00     0.027 A 
ATOM     24  C   UNL A   1      34.893  19.272  24.649  1.00  0.00    -0.027 A 
ATOM     25  C   UNL A   1      32.749  17.634  23.861  1.00  0.00     0.002 A 
ATOM     26  C   UNL A   1      35.094  17.935  24.229  1.00  0.00     0.005 A 
ATOM     27  C   UNL A   1      36.144  20.035  24.998  1.00  0.00     0.046 C 
ATOM     28  C   UNL A   1      34.038  17.130  23.818  1.00  0.00     0.000 A 
ENDBRANCH  19  22
ENDBRANCH  13  15
ENDBRANCH  10  13
ENDBRANCH   3   6
ENDBRANCH   1   2
BRANCH   1  29
ATOM     29  C   UNL A   1      34.002  31.724  27.603  1.00  0.00     0.042 C 
BRANCH  29  30
ATOM     30  C   UNL A   1      34.386  31.659  29.060  1.00  0.00     0.118 C 
BRANCH  30  31
ATOM     31  N   UNL A   1      35.677  32.258  29.387  1.00  0.00    -0.352 N 
ATOM     32  C   UNL A   1      36.943  31.688  29.365  1.00  0.00     0.251 C 
ATOM     33  H   UNL A   1      35.645  33.201  29.664  1.00  0.00     0.163 HD
ATOM     34  O   UNL A   1      37.950  32.364  29.559  1.00  0.00    -0.269 OA
BRANCH  32  35
ATOM     35  C   UNL A   1      37.110  30.282  28.921  1.00  0.00     0.039 A 
ATOM     36  C   UNL A   1      37.399  29.411  29.972  1.00  0.00     0.014 A 
ATOM     37  C   UNL A   1      37.573  30.027  27.639  1.00  0.00     0.014 A 
ATOM     38  C   UNL A   1      38.516  28.607  29.860  1.00  0.00     0.010 A 
ATOM     39  C   UNL A   1      38.753  29.327  27.550  1.00  0.00     0.010 A 
ATOM     40  C   UNL A   1      39.268  28.712  28.695  1.00  0.00    -0.014 A 
BRANCH  40  41
ATOM     41  C   UNL A   1      40.607  28.178  28.584  1.00  0.00     0.031 A 
ATOM     42  C   UNL A   1      40.706  26.741  28.294  1.00  0.00     0.074 A 
ATOM     43  C   UNL A   1      41.699  28.957  28.754  1.00  0.00     0.049 A 
ATOM     44  N   UNL A   1      41.643  25.982  28.737  1.00  0.00    -0.248 NA
ATOM     45  C   UNL A   1      39.668  26.020  27.568  1.00  0.00     0.031 C 
ATOM     46  C   UNL A   1      43.081  28.595  28.453  1.00  0.00     0.029 A 
ATOM     47  N   UNL A   1      41.795  30.219  29.365  1.00  0.00    -0.354 N 
ATOM     48  C   UNL A   1      41.481  24.744  28.159  1.00  0.00     0.074 A 
ATOM     49  C   UNL A   1      40.188  24.792  27.523  1.00  0.00     0.031 C 
ATOM     50  C   UNL A   1      43.907  29.458  29.065  1.00  0.00     0.029 A 
ATOM     51  C   UNL A   1      43.102  30.326  29.903  1.00  0.00     0.049 A 
ATOM     52  H   UNL A   1      41.087  30.901  29.410  1.00  0.00     0.167 HD
ATOM     53  C   UNL A   1      42.533  23.879  28.177  1.00  0.00     0.037 A 
ATOM     54  C   UNL A   1      43.323  30.541  31.235  1.00  0.00     0.037 A 
ATOM     55  C   UNL A   1      43.653  24.472  28.911  1.00  0.00     0.049 A 
ATOM     56  C   UNL A   1      43.974  29.378  31.926  1.00  0.00     0.074 A 
ATOM     57  C   UNL A   1      44.733  25.223  28.478  1.00  0.00     0.029 A 
ATOM     58  N   UNL A   1      43.553  24.676  30.286  1.00  0.00    -0.354 N 
ATOM     59  N   UNL A   1      44.050  28.186  31.408  1.00  0.00    -0.248 NA
ATOM     60  C   UNL A   1      44.521  29.449  33.277  1.00  0.00     0.031 C 
ATOM     61  C   UNL A   1      45.250  25.927  29.592  1.00  0.00     0.029 A 
ATOM     62  C   UNL A   1      44.511  25.581  30.713  1.00  0.00     0.049 A 
ATOM     63  H   UNL A   1      42.895  24.238  30.872  1.00  0.00     0.167 HD
ATOM     64  C   UNL A   1      44.556  27.324  32.340  1.00  0.00     0.074 A 
ATOM     65  C   UNL A   1      44.884  28.171  33.473  1.00  0.00     0.031 C 
ATOM     66  C   UNL A   1      44.616  25.980  32.111  1.00  0.00     0.037 A 
BRANCH  53  67
ATOM     67  C   UNL A   1      42.673  22.676  27.268  1.00  0.00     0.064 A 
ATOM     68  C   UNL A   1      41.876  21.530  27.486  1.00  0.00     0.173 A 
ATOM     69  C   UNL A   1      43.600  22.548  26.216  1.00  0.00     0.173 A 
ATOM     70  F   UNL A   1      40.879  21.530  28.380  1.00  0.00    -0.203 F 
ATOM     71  C   UNL A   1      42.071  20.333  26.792  1.00  0.00     0.198 A 
ATOM     72  C   UNL A   1      43.829  21.336  25.554  1.00  0.00     0.198 A 
ATOM     73  F   UNL A   1      44.274  23.599  25.739  1.00  0.00    -0.203 F 
ATOM     74  F   UNL A   1      41.287  19.278  27.054  1.00  0.00    -0.200 F 
ATOM     75  C   UNL A   1      43.071  20.224  25.849  1.00  0.00     0.200 A 
ATOM     76  F   UNL A   1      44.790  21.261  24.620  1.00  0.00    -0.200 F 
ATOM     77  F   UNL A   1      43.282  19.067  25.208  1.00  0.00    -0.200 F 
ENDBRANCH  53  67
BRANCH  54  78
ATOM     78  C   UNL A   1      42.284  31.398  31.860  1.00  0.00     0.064 A 
ATOM     79  C   UNL A   1      41.311  30.720  32.611  1.00  0.00     0.173 A 
ATOM     80  C   UNL A   1      42.600  32.715  32.212  1.00  0.00     0.173 A 
ATOM     81  F   UNL A   1      40.916  29.490  32.246  1.00  0.00    -0.203 F 
ATOM     82  C   UNL A   1      40.914  31.217  33.843  1.00  0.00     0.198 A 
ATOM     83  C   UNL A   1      42.170  33.223  33.432  1.00  0.00     0.198 A 
ATOM     84  F   UNL A   1      43.445  33.437  31.462  1.00  0.00    -0.203 F 
ATOM     85  F   UNL A   1      40.170  30.455  34.657  1.00  0.00    -0.200 F 
ATOM     86  C   UNL A   1      41.396  32.440  34.279  1.00  0.00     0.200 A 
ATOM     87  F   UNL A   1      42.593  34.430  33.832  1.00  0.00    -0.200 F 
ATOM     88  F   UNL A   1      41.146  32.839  35.531  1.00  0.00    -0.200 F 
ENDBRANCH  54  78
BRANCH  66  89
ATOM     89  C   UNL A   1      44.900  24.952  33.175  1.00  0.00     0.064 A 
ATOM     90  C   UNL A   1      46.170  24.398  33.409  1.00  0.00     0.173 A 
ATOM     91  C   UNL A   1      43.888  24.553  34.077  1.00  0.00     0.173 A 
ATOM     92  F   UNL A   1      47.255  24.827  32.749  1.00  0.00    -0.203 F 
ATOM     93  C   UNL A   1      46.381  23.415  34.376  1.00  0.00     0.198 A 
ATOM     94  C   UNL A   1      44.121  23.631  35.095  1.00  0.00     0.198 A 
ATOM     95  F   UNL A   1      42.649  25.061  34.014  1.00  0.00    -0.203 F 
ATOM     96  F   UNL A   1      47.592  22.853  34.496  1.00  0.00    -0.200 F 
ATOM     97  C   UNL A   1      45.357  23.034  35.221  1.00  0.00     0.200 A 
ATOM     98  F   UNL A   1      43.140  23.334  35.958  1.00  0.00    -0.200 F 
ATOM     99  F   UNL A   1      45.569  22.112  36.168  1.00  0.00    -0.200 F 
ENDBRANCH  66  89
ENDBRANCH  40  41
ENDBRANCH  32  35
ENDBRANCH  30  31
ENDBRANCH  29  30
ENDBRANCH   1  29
TORSDOF 13
ENDMDL
MODEL 2
REMARK VINA RESULT:     -14.0      1.088      1.430
REMARK SMILES Cc1ccc(C(=O)NCCCNC(=O)c2ccc(-c3c4nc(c(-c5c(F)c(F)c(F)c(F)c5F)c5ccc([nH]5)c(-c5c(F)c(F)c(F)c(F)c5F)c5nc(c(-c6c(F)c(F)c(F)c(F)c6F)c6ccc3[nH]6)C=C5)C=C4)cc2)cc1N[C@@H]1CC(=O)N(c2ccccc2C)C1=O
REMARK SMILES IDX 9 1 8 2 6 3 7 4 5 6 1 7 2 8 3 9 79 10 4 11 78 12 80 13 81 15
REMARK SMILES IDX 82 16 93 17 83 18 85 19 94 20 84 21 86 22 87 23 91 24 88 25
REMARK SMILES IDX 90 26 92 27 89 28 10 29 11 30 12 31 13 32 14 34 15 35 16 36
REMARK SMILES IDX 77 37 17 38 76 39 18 40 19 41 20 42 70 43 21 44 75 45 69 46
REMARK SMILES IDX 71 47 22 48 74 49 68 50 67 51 23 53 55 54 35 55 54 56 36 57
REMARK SMILES IDX 39 58 53 59 72 60 37 61 38 62 52 64 73 65 40 66 24 67 25 68
REMARK SMILES IDX 33 69 26 70 27 71 31 72 34 73 28 74 29 75 32 76 30 77 56 78
REMARK SMILES IDX 57 79 65 80 58 81 59 82 63 83 66 84 60 85 61 86 64 87 62 88
REMARK SMILES IDX 41 89 42 90 50 91 43 92 44 93 48 94 51 95 45 96 46 97 49 98
REMARK SMILES IDX 47 99
REMARK H PARENT 8 5 80 14 12 33 71 52 39 63
REMARK Flexibility Score: inf
ROOT
ATOM      1  C   UNL A   1      33.157  30.163  27.243  1.00  0.00     0.118 C 
ENDROOT
BRANCH   1   2
ATOM      2  N   UNL A   1      33.278  30.093  25.801  1.00  0.00    -0.352 N 
ATOM      3  C   UNL A   1      33.099  29.064  24.912  1.00  0.00     0.251 C 
ATOM      4  O   UNL A   1      33.341  29.311  23.728  1.00  0.00    -0.269 OA
ATOM      5  H   UNL A   1      33.538  30.945  25.381  1.00  0.00     0.163 HD
BRANCH   3   6
ATOM      6  C   UNL A   1      32.590  27.708  25.285  1.00  0.00     0.041 A 
ATOM      7  C   UNL A   1      30.766  23.998  26.548  1.00  0.00     0.046 C 
ATOM      8  C   UNL A   1      31.473  25.250  26.101  1.00  0.00    -0.028 A 
ATOM      9  C   UNL A   1      30.673  26.401  25.957  1.00  0.00     0.006 A 
ATOM     10  C   UNL A   1      32.851  25.306  25.804  1.00  0.00     0.038 A 
ATOM     11  C   UNL A   1      31.228  27.617  25.571  1.00  0.00     0.014 A 
ATOM     12  C   UNL A   1      33.357  26.536  25.365  1.00  0.00     0.039 A 
BRANCH  10  13
ATOM     13  N   UNL A   1      33.668  24.211  26.022  1.00  0.00    -0.373 N 
ATOM     14  H   UNL A   1      33.990  24.125  26.948  1.00  0.00     0.161 HD
BRANCH  13  15
ATOM     15  C   UNL A   1      34.141  23.151  25.117  1.00  0.00     0.179 C 
ATOM     16  C   UNL A   1      33.486  23.079  23.758  1.00  0.00     0.136 C 
ATOM     17  C   UNL A   1      34.085  21.732  25.666  1.00  0.00     0.256 C 
ATOM     18  C   UNL A   1      33.250  21.609  23.559  1.00  0.00     0.236 C 
ATOM     19  N   UNL A   1      33.788  20.890  24.601  1.00  0.00    -0.248 N 
ATOM     20  O   UNL A   1      34.322  21.446  26.818  1.00  0.00    -0.272 OA
ATOM     21  O   UNL A   1      32.516  21.198  22.667  1.00  0.00    -0.274 OA
BRANCH  19  22
ATOM     22  C   UNL A   1      33.764  19.456  24.681  1.00  0.00     0.055 A 
ATOM     23  C   UNL A   1      32.522  18.787  24.697  1.00  0.00     0.027 A 
ATOM     24  C   UNL A   1      34.936  18.659  24.699  1.00  0.00    -0.027 A 
ATOM     25  C   UNL A   1      32.428  17.391  24.663  1.00  0.00     0.002 A 
ATOM     26  C   UNL A   1      34.816  17.248  24.689  1.00  0.00     0.005 A 
ATOM     27  C   UNL A   1      36.347  19.187  24.673  1.00  0.00     0.046 C 
ATOM     28  C   UNL A   1      33.577  16.619  24.649  1.00  0.00     0.000 A 
ENDBRANCH  19  22
ENDBRANCH  13  15
ENDBRANCH  10  13
ENDBRANCH   3   6
ENDBRANCH   1   2
BRANCH   1  29
ATOM     29  C   UNL A   1      33.312  31.603  27.704  1.00  0.00     0.042 C 
BRANCH  29  30
ATOM     30  C   UNL A   1      34.729  32.117  27.624  1.00  0.00     0.118 C 
BRANCH  30  31
ATOM     31  N   UNL A   1      35.368  32.370  28.912  1.00  0.00    -0.352 N 
ATOM     32  C   UNL A   1      36.125  31.517  29.703  1.00  0.00     0.251 C 
ATOM     33  H   UNL A   1      35.243  33.278  29.272  1.00  0.00     0.163 HD
ATOM     34  O   UNL A   1      36.694  31.921  30.715  1.00  0.00    -0.269 OA
BRANCH  32  35
ATOM     35  C   UNL A   1      36.412  30.139  29.234  1.00  0.00     0.039 A 
ATOM     36  C   UNL A   1      36.824  29.289  30.261  1.00  0.00     0.014 A 
ATOM     37  C   UNL A   1      36.849  29.944  27.932  1.00  0.00     0.014 A 
ATOM     38  C   UNL A   1      38.010  28.600  30.096  1.00  0.00     0.010 A 
ATOM     39  C   UNL A   1      38.087  29.365  27.790  1.00  0.00     0.010 A 
ATOM     40  C   UNL A   1      38.703  28.791  28.906  1.00  0.00    -0.014 A 
BRANCH  40  41
ATOM     41  C   UNL A   1      40.083  28.392  28.738  1.00  0.00     0.031 A 
ATOM     42  C   UNL A   1      40.310  26.975  28.426  1.00  0.00     0.074 A 
ATOM     43  C   UNL A   1      41.099  29.273  28.879  1.00  0.00     0.049 A 
ATOM     44  N   UNL A   1      41.333  26.307  28.823  1.00  0.00    -0.248 NA
ATOM     45  C   UNL A   1      39.321  26.162  27.729  1.00  0.00     0.031 C 
ATOM     46  C   UNL A   1      42.497  29.051  28.523  1.00  0.00     0.029 A 
ATOM     47  N   UNL A   1      41.094  30.532  29.503  1.00  0.00    -0.354 N 
ATOM     48  C   UNL A   1      41.271  25.065  28.235  1.00  0.00     0.074 A 
ATOM     49  C   UNL A   1      39.957  24.992  27.648  1.00  0.00     0.031 C 
ATOM     50  C   UNL A   1      43.258  29.985  29.116  1.00  0.00     0.029 A 
ATOM     51  C   UNL A   1      42.403  30.761  29.995  1.00  0.00     0.049 A 
ATOM     52  H   UNL A   1      40.325  31.140  29.584  1.00  0.00     0.167 HD
ATOM     53  C   UNL A   1      42.403  24.307  28.202  1.00  0.00     0.037 A 
ATOM     54  C   UNL A   1      42.653  30.984  31.320  1.00  0.00     0.037 A 
ATOM     55  C   UNL A   1      43.487  25.000  28.903  1.00  0.00     0.049 A 
ATOM     56  C   UNL A   1      43.441  29.883  31.971  1.00  0.00     0.074 A 
ATOM     57  C   UNL A   1      44.471  25.857  28.441  1.00  0.00     0.029 A 
ATOM     58  N   UNL A   1      43.420  25.179  30.283  1.00  0.00    -0.354 N 
ATOM     59  N   UNL A   1      43.613  28.710  31.434  1.00  0.00    -0.248 NA
ATOM     60  C   UNL A   1      44.029  29.994  33.301  1.00  0.00     0.031 C 
ATOM     61  C   UNL A   1      44.958  26.598  29.545  1.00  0.00     0.029 A 
ATOM     62  C   UNL A   1      44.300  26.170  30.687  1.00  0.00     0.049 A 
ATOM     63  H   UNL A   1      42.831  24.673  30.886  1.00  0.00     0.167 HD
ATOM     64  C   UNL A   1      44.236  27.893  32.335  1.00  0.00     0.074 A 
ATOM     65  C   UNL A   1      44.523  28.756  33.466  1.00  0.00     0.031 C 
ATOM     66  C   UNL A   1      44.418  26.563  32.086  1.00  0.00     0.037 A 
BRANCH  53  67
ATOM     67  C   UNL A   1      42.626  23.134  27.273  1.00  0.00     0.064 A 
ATOM     68  C   UNL A   1      41.985  21.899  27.527  1.00  0.00     0.173 A 
ATOM     69  C   UNL A   1      43.491  23.120  26.162  1.00  0.00     0.173 A 
ATOM     70  F   UNL A   1      41.055  21.778  28.482  1.00  0.00    -0.203 F 
ATOM     71  C   UNL A   1      42.275  20.737  26.808  1.00  0.00     0.198 A 
ATOM     72  C   UNL A   1      43.819  21.946  25.473  1.00  0.00     0.198 A 
ATOM     73  F   UNL A   1      44.004  24.246  25.656  1.00  0.00    -0.203 F 
ATOM     74  F   UNL A   1      41.640  19.595  27.108  1.00  0.00    -0.200 F 
ATOM     75  C   UNL A   1      43.218  20.751  25.803  1.00  0.00     0.200 A 
ATOM     76  F   UNL A   1      44.719  21.989  24.480  1.00  0.00    -0.200 F 
ATOM     77  F   UNL A   1      43.522  19.630  25.136  1.00  0.00    -0.200 F 
ENDBRANCH  53  67
BRANCH  54  78
ATOM     78  C   UNL A   1      41.559  31.729  31.995  1.00  0.00     0.064 A 
ATOM     79  C   UNL A   1      40.689  30.951  32.775  1.00  0.00     0.173 A 
ATOM     80  C   UNL A   1      41.757  33.067  32.350  1.00  0.00     0.173 A 
ATOM     81  F   UNL A   1      40.404  29.691  32.410  1.00  0.00    -0.203 F 
ATOM     82  C   UNL A   1      40.294  31.396  34.026  1.00  0.00     0.198 A 
ATOM     83  C   UNL A   1      41.328  33.521  33.592  1.00  0.00     0.198 A 
ATOM     84  F   UNL A   1      42.497  33.876  31.576  1.00  0.00    -0.203 F 
ATOM     85  F   UNL A   1      39.661  30.558  34.859  1.00  0.00    -0.200 F 
ATOM     86  C   UNL A   1      40.669  32.658  34.458  1.00  0.00     0.200 A 
ATOM     87  F   UNL A   1      41.644  34.760  33.989  1.00  0.00    -0.200 F 
ATOM     88  F   UNL A   1      40.430  33.020  35.723  1.00  0.00    -0.200 F 
ENDBRANCH  54  78
BRANCH  66  89
ATOM     89  C   UNL A   1      44.842  25.558  33.124  1.00  0.00     0.064 A 
ATOM     90  C   UNL A   1      46.139  25.026  33.215  1.00  0.00     0.173 A 
ATOM     91  C   UNL A   1      43.950  25.161  34.145  1.00  0.00     0.173 A 
ATOM     92  F   UNL A   1      47.132  25.459  32.426  1.00  0.00    -0.203 F 
ATOM     93  C   UNL A   1      46.478  24.062  34.166  1.00  0.00     0.198 A 
ATOM     94  C   UNL A   1      44.315  24.259  35.143  1.00  0.00     0.198 A 
ATOM     95  F   UNL A   1      42.704  25.650  34.220  1.00  0.00    -0.203 F 
ATOM     96  F   UNL A   1      47.703  23.519  34.150  1.00  0.00    -0.200 F 
ATOM     97  C   UNL A   1      45.567  23.681  35.132  1.00  0.00     0.200 A 
ATOM     98  F   UNL A   1      43.448  23.963  36.120  1.00  0.00    -0.200 F 
ATOM     99  F   UNL A   1      45.904  22.779  36.061  1.00  0.00    -0.200 F 
ENDBRANCH  66  89
ENDBRANCH  40  41
ENDBRANCH  32  35
ENDBRANCH  30  31
ENDBRANCH  29  30
ENDBRANCH   1  29
TORSDOF 13
ENDMDL
MODEL 3
REMARK VINA RESULT:     -14.0      3.589      9.842
REMARK SMILES Cc1ccc(C(=O)NCCCNC(=O)c2ccc(-c3c4nc(c(-c5c(F)c(F)c(F)c(F)c5F)c5ccc([nH]5)c(-c5c(F)c(F)c(F)c(F)c5F)c5nc(c(-c6c(F)c(F)c(F)c(F)c6F)c6ccc3[nH]6)C=C5)C=C4)cc2)cc1N[C@@H]1CC(=O)N(c2ccccc2C)C1=O
REMARK SMILES IDX 9 1 8 2 6 3 7 4 5 6 1 7 2 8 3 9 79 10 4 11 78 12 80 13 81 15
REMARK SMILES IDX 82 16 93 17 83 18 85 19 94 20 84 21 86 22 87 23 91 24 88 25
REMARK SMILES IDX 90 26 92 27 89 28 10 29 11 30 12 31 13 32 14 34 15 35 16 36
REMARK SMILES IDX 77 37 17 38 76 39 18 40 19 41 20 42 70 43 21 44 75 45 69 46
REMARK SMILES IDX 71 47 22 48 74 49 68 50 67 51 23 53 55 54 35 55 54 56 36 57
REMARK SMILES IDX 39 58 53 59 72 60 37 61 38 62 52 64 73 65 40 66 24 67 25 68
REMARK SMILES IDX 33 69 26 70 27 71 31 72 34 73 28 74 29 75 32 76 30 77 56 78
REMARK SMILES IDX 57 79 65 80 58 81 59 82 63 83 66 84 60 85 61 86 64 87 62 88
REMARK SMILES IDX 41 89 42 90 50 91 43 92 44 93 48 94 51 95 45 96 46 97 49 98
REMARK SMILES IDX 47 99
REMARK H PARENT 8 5 80 14 12 33 71 52 39 63
REMARK Flexibility Score: inf
ROOT
ATOM      1  C   UNL A   1      37.995  21.820  25.752  1.00  0.00     0.118 C 
ENDROOT
BRANCH   1   2
ATOM      2  N   UNL A   1      37.754  22.346  24.423  1.00  0.00    -0.352 N 
ATOM      3  C   UNL A   1      36.597  22.617  23.739  1.00  0.00     0.251 C 
ATOM      4  O   UNL A   1      36.723  23.010  22.577  1.00  0.00    -0.269 OA
ATOM      5  H   UNL A   1      38.574  22.545  23.918  1.00  0.00     0.163 HD
BRANCH   3   6
ATOM      6  C   UNL A   1      35.225  22.513  24.328  1.00  0.00     0.041 A 
ATOM      7  C   UNL A   1      31.264  21.782  25.897  1.00  0.00     0.046 C 
ATOM      8  C   UNL A   1      32.628  22.118  25.353  1.00  0.00    -0.028 A 
ATOM      9  C   UNL A   1      33.498  21.031  25.139  1.00  0.00     0.006 A 
ATOM     10  C   UNL A   1      33.060  23.434  25.086  1.00  0.00     0.038 A 
ATOM     11  C   UNL A   1      34.773  21.226  24.617  1.00  0.00     0.014 A 
ATOM     12  C   UNL A   1      34.371  23.588  24.615  1.00  0.00     0.039 A 
BRANCH  10  13
ATOM     13  N   UNL A   1      32.192  24.503  25.207  1.00  0.00    -0.373 N 
ATOM     14  H   UNL A   1      32.299  25.019  26.037  1.00  0.00     0.161 HD
BRANCH  13  15
ATOM     15  C   UNL A   1      31.135  25.007  24.314  1.00  0.00     0.179 C 
ATOM     16  C   UNL A   1      31.476  25.102  22.846  1.00  0.00     0.136 C 
ATOM     17  C   UNL A   1      30.546  26.364  24.678  1.00  0.00     0.256 C 
ATOM     18  C   UNL A   1      30.916  26.435  22.440  1.00  0.00     0.236 C 
ATOM     19  N   UNL A   1      30.237  27.011  23.488  1.00  0.00    -0.248 N 
ATOM     20  O   UNL A   1      30.356  26.731  25.816  1.00  0.00    -0.272 OA
ATOM     21  O   UNL A   1      31.219  26.953  21.370  1.00  0.00    -0.274 OA
BRANCH  19  22
ATOM     22  C   UNL A   1      29.550  28.269  23.402  1.00  0.00     0.055 A 
ATOM     23  C   UNL A   1      28.203  28.293  22.982  1.00  0.00     0.027 A 
ATOM     24  C   UNL A   1      30.142  29.505  23.765  1.00  0.00    -0.027 A 
ATOM     25  C   UNL A   1      27.443  29.468  22.981  1.00  0.00     0.002 A 
ATOM     26  C   UNL A   1      29.361  30.685  23.732  1.00  0.00     0.005 A 
ATOM     27  C   UNL A   1      31.558  29.681  24.248  1.00  0.00     0.046 C 
ATOM     28  C   UNL A   1      28.020  30.666  23.366  1.00  0.00     0.000 A 
ENDBRANCH  19  22
ENDBRANCH  13  15
ENDBRANCH  10  13
ENDBRANCH   3   6
ENDBRANCH   1   2
BRANCH   1  29
ATOM     29  C   UNL A   1      39.447  21.385  25.877  1.00  0.00     0.042 C 
BRANCH  29  30
ATOM     30  C   UNL A   1      40.132  21.906  27.116  1.00  0.00     0.118 C 
BRANCH  30  31
ATOM     31  N   UNL A   1      41.392  22.605  26.877  1.00  0.00    -0.352 N 
ATOM     32  C   UNL A   1      41.622  23.958  26.663  1.00  0.00     0.251 C 
ATOM     33  H   UNL A   1      42.193  22.035  26.865  1.00  0.00     0.163 HD
ATOM     34  O   UNL A   1      42.764  24.407  26.591  1.00  0.00    -0.269 OA
BRANCH  32  35
ATOM     35  C   UNL A   1      40.488  24.913  26.704  1.00  0.00     0.039 A 
ATOM     36  C   UNL A   1      40.804  26.156  26.156  1.00  0.00     0.014 A 
ATOM     37  C   UNL A   1      39.545  24.802  27.715  1.00  0.00     0.014 A 
ATOM     38  C   UNL A   1      40.575  27.282  26.923  1.00  0.00     0.010 A 
ATOM     39  C   UNL A   1      39.416  25.890  28.545  1.00  0.00     0.010 A 
ATOM     40  C   UNL A   1      40.028  27.096  28.188  1.00  0.00    -0.014 A 
BRANCH  40  41
ATOM     41  C   UNL A   1      40.034  28.131  29.197  1.00  0.00     0.031 A 
ATOM     42  C   UNL A   1      39.046  29.204  29.025  1.00  0.00     0.074 A 
ATOM     43  C   UNL A   1      40.912  28.116  30.225  1.00  0.00     0.049 A 
ATOM     44  N   UNL A   1      39.246  30.426  29.366  1.00  0.00    -0.248 NA
ATOM     45  C   UNL A   1      37.780  28.994  28.332  1.00  0.00     0.031 C 
ATOM     46  C   UNL A   1      40.876  28.965  31.411  1.00  0.00     0.029 A 
ATOM     47  N   UNL A   1      42.112  27.395  30.349  1.00  0.00    -0.354 N 
ATOM     48  C   UNL A   1      38.066  31.108  29.178  1.00  0.00     0.074 A 
ATOM     49  C   UNL A   1      37.221  30.200  28.444  1.00  0.00     0.031 C 
ATOM     50  C   UNL A   1      42.069  28.918  32.025  1.00  0.00     0.029 A 
ATOM     51  C   UNL A   1      42.970  28.151  31.186  1.00  0.00     0.049 A 
ATOM     52  H   UNL A   1      42.317  26.527  29.933  1.00  0.00     0.167 HD
ATOM     53  C   UNL A   1      37.909  32.313  29.795  1.00  0.00     0.037 A 
ATOM     54  C   UNL A   1      44.197  28.586  30.765  1.00  0.00     0.037 A 
ATOM     55  C   UNL A   1      39.134  32.667  30.515  1.00  0.00     0.049 A 
ATOM     56  C   UNL A   1      44.287  30.079  30.636  1.00  0.00     0.074 A 
ATOM     57  C   UNL A   1      39.519  32.442  31.826  1.00  0.00     0.029 A 
ATOM     58  N   UNL A   1      40.294  32.969  29.807  1.00  0.00    -0.354 N 
ATOM     59  N   UNL A   1      43.247  30.862  30.627  1.00  0.00    -0.248 NA
ATOM     60  C   UNL A   1      45.542  30.793  30.434  1.00  0.00     0.031 C 
ATOM     61  C   UNL A   1      40.929  32.555  31.892  1.00  0.00     0.029 A 
ATOM     62  C   UNL A   1      41.404  32.883  30.632  1.00  0.00     0.049 A 
ATOM     63  H   UNL A   1      40.323  33.210  28.853  1.00  0.00     0.167 HD
ATOM     64  C   UNL A   1      43.651  32.137  30.342  1.00  0.00     0.074 A 
ATOM     65  C   UNL A   1      45.098  32.052  30.282  1.00  0.00     0.031 C 
ATOM     66  C   UNL A   1      42.749  33.140  30.133  1.00  0.00     0.037 A 
BRANCH  53  67
ATOM     67  C   UNL A   1      36.576  32.990  30.030  1.00  0.00     0.064 A 
ATOM     68  C   UNL A   1      35.904  33.617  28.957  1.00  0.00     0.173 A 
ATOM     69  C   UNL A   1      35.932  33.124  31.276  1.00  0.00     0.173 A 
ATOM     70  F   UNL A   1      36.333  33.493  27.695  1.00  0.00    -0.203 F 
ATOM     71  C   UNL A   1      34.759  34.398  29.136  1.00  0.00     0.198 A 
ATOM     72  C   UNL A   1      34.815  33.945  31.465  1.00  0.00     0.198 A 
ATOM     73  F   UNL A   1      36.314  32.417  32.344  1.00  0.00    -0.203 F 
ATOM     74  F   UNL A   1      34.175  34.975  28.077  1.00  0.00    -0.200 F 
ATOM     75  C   UNL A   1      34.234  34.591  30.396  1.00  0.00     0.200 A 
ATOM     76  F   UNL A   1      34.303  34.097  32.696  1.00  0.00    -0.200 F 
ATOM     77  F   UNL A   1      33.157  35.369  30.575  1.00  0.00    -0.200 F 
ENDBRANCH  53  67
BRANCH  54  78
ATOM     78  C   UNL A   1      44.857  27.633  29.836  1.00  0.00     0.064 A 
ATOM     79  C   UNL A   1      44.810  27.982  28.477  1.00  0.00     0.173 A 
ATOM     80  C   UNL A   1      45.935  26.866  30.291  1.00  0.00     0.173 A 
ATOM     81  F   UNL A   1      43.745  28.637  27.988  1.00  0.00    -0.203 F 
ATOM     82  C   UNL A   1      45.941  27.848  27.688  1.00  0.00     0.198 A 
ATOM     83  C   UNL A   1      47.054  26.703  29.483  1.00  0.00     0.198 A 
ATOM     84  F   UNL A   1      45.970  26.421  31.556  1.00  0.00    -0.203 F 
ATOM     85  F   UNL A   1      45.964  28.397  26.465  1.00  0.00    -0.200 F 
ATOM     86  C   UNL A   1      47.083  27.267  28.214  1.00  0.00     0.200 A 
ATOM     87  F   UNL A   1      48.141  26.093  29.972  1.00  0.00    -0.200 F 
ATOM     88  F   UNL A   1      48.219  27.289  27.508  1.00  0.00    -0.200 F 
ENDBRANCH  54  78
BRANCH  66  89
ATOM     89  C   UNL A   1      43.100  34.486  29.554  1.00  0.00     0.064 A 
ATOM     90  C   UNL A   1      43.185  35.666  30.312  1.00  0.00     0.173 A 
ATOM     91  C   UNL A   1      43.464  34.610  28.194  1.00  0.00     0.173 A 
ATOM     92  F   UNL A   1      43.049  35.656  31.645  1.00  0.00    -0.203 F 
ATOM     93  C   UNL A   1      43.470  36.901  29.728  1.00  0.00     0.198 A 
ATOM     94  C   UNL A   1      43.827  35.831  27.630  1.00  0.00     0.198 A 
ATOM     95  F   UNL A   1      43.498  33.549  27.376  1.00  0.00    -0.203 F 
ATOM     96  F   UNL A   1      43.446  38.010  30.480  1.00  0.00    -0.200 F 
ATOM     97  C   UNL A   1      43.794  36.983  28.387  1.00  0.00     0.200 A 
ATOM     98  F   UNL A   1      44.219  35.881  26.350  1.00  0.00    -0.200 F 
ATOM     99  F   UNL A   1      44.096  38.164  27.836  1.00  0.00    -0.200 F 
ENDBRANCH  66  89
ENDBRANCH  40  41
ENDBRANCH  32  35
ENDBRANCH  30  31
ENDBRANCH  29  30
ENDBRANCH   1  29
TORSDOF 13
ENDMDL
