MODEL 1
REMARK VINA RESULT:     -13.1      0.000      0.000
REMARK SMILES Cc1nc2scc(C)n2c1CNc1ccc(C(=O)NCCCNC(=O)c2ccc(-c3c4nc(c(-c5c(F)c(F)c(F)c(F)c5F)c5ccc([nH]5)c(-c5c(F)c(F)c(F)c(F)c5F)c5nc(c(-c6c(F)c(F)c(F)c(F)c6F)c6ccc3[nH]6)C=C5)C=C4)cc2)cc1
REMARK SMILES IDX 20 1 19 2 17 3 18 4 16 6 13 7 14 8 90 9 15 10 89 11 12 12
REMARK SMILES IDX 11 14 10 15 1 16 2 17 3 18 4 19 9 20 5 21 7 22 6 23 8 24
REMARK SMILES IDX 21 25 22 26 23 27 24 28 25 30 26 31 27 32 88 33 28 34 87 35
REMARK SMILES IDX 29 36 30 37 31 38 81 39 32 40 86 41 80 42 82 43 33 44 85 45
REMARK SMILES IDX 79 46 78 47 34 49 66 50 46 51 65 52 47 53 50 54 64 55 83 56
REMARK SMILES IDX 48 57 49 58 63 60 84 61 51 62 35 63 36 64 44 65 37 66 38 67
REMARK SMILES IDX 42 68 45 69 39 70 40 71 43 72 41 73 67 74 68 75 76 76 69 77
REMARK SMILES IDX 70 78 74 79 77 80 71 81 72 82 75 83 73 84 52 85 53 86 61 87
REMARK SMILES IDX 54 88 55 89 59 90 62 91 56 92 57 93 60 94 58 95
REMARK H PARENT 19 5 12 13 23 29 82 48 50 59
REMARK Flexibility Score: inf
ROOT
ATOM      1  C   UNL A   1      35.542  20.930  25.042  1.00  0.00     0.118 C 
ENDROOT
BRANCH   1   2
ATOM      2  N   UNL A   1      34.525  19.953  25.395  1.00  0.00    -0.352 N 
ATOM      3  C   UNL A   1      33.154  19.966  25.290  1.00  0.00     0.251 C 
ATOM      4  O   UNL A   1      32.553  18.935  25.595  1.00  0.00    -0.269 OA
ATOM      5  H   UNL A   1      34.886  19.123  25.783  1.00  0.00     0.163 HD
BRANCH   3   6
ATOM      6  C   UNL A   1      32.381  21.131  24.775  1.00  0.00     0.039 A 
ATOM      7  C   UNL A   1      31.150  23.433  23.679  1.00  0.00     0.034 A 
ATOM      8  C   UNL A   1      31.799  22.511  22.855  1.00  0.00     0.026 A 
ATOM      9  C   UNL A   1      31.038  23.137  25.035  1.00  0.00     0.026 A 
ATOM     10  C   UNL A   1      32.426  21.382  23.397  1.00  0.00     0.016 A 
ATOM     11  C   UNL A   1      31.616  21.984  25.568  1.00  0.00     0.016 A 
BRANCH   7  12
ATOM     12  N   UNL A   1      30.769  24.658  23.166  1.00  0.00    -0.379 N 
ATOM     13  H   UNL A   1      29.818  24.911  23.160  1.00  0.00     0.160 HD
BRANCH  12  14
ATOM     14  C   UNL A   1      31.762  25.572  22.637  1.00  0.00     0.169 C 
BRANCH  14  15
ATOM     15  C   UNL A   1      32.380  26.412  23.689  1.00  0.00     0.066 A 
ATOM     16  C   UNL A   1      34.412  25.007  24.512  1.00  0.00     0.069 C 
ATOM     17  C   UNL A   1      33.496  26.174  24.491  1.00  0.00     0.062 A 
ATOM     18  N   UNL A   1      33.716  27.213  25.369  1.00  0.00    -0.224 NA
ATOM     19  C   UNL A   1      32.760  28.052  25.092  1.00  0.00     0.194 A 
ATOM     20  N   UNL A   1      31.928  27.655  24.080  1.00  0.00    -0.290 N 
ATOM     21  S   UNL A   1      32.318  29.602  25.730  1.00  0.00    -0.105 S 
ATOM     22  C   UNL A   1      30.928  28.573  23.767  1.00  0.00     0.032 A 
ATOM     23  C   UNL A   1      31.005  29.664  24.559  1.00  0.00     0.090 A 
ATOM     24  C   UNL A   1      29.913  28.418  22.692  1.00  0.00     0.066 C 
ENDBRANCH  14  15
ENDBRANCH  12  14
ENDBRANCH   7  12
ENDBRANCH   3   6
ENDBRANCH   1   2
BRANCH   1  25
ATOM     25  C   UNL A   1      35.764  21.962  26.158  1.00  0.00     0.042 C 
BRANCH  25  26
ATOM     26  C   UNL A   1      37.082  22.700  26.017  1.00  0.00     0.118 C 
BRANCH  26  27
ATOM     27  N   UNL A   1      38.229  21.789  25.982  1.00  0.00    -0.352 N 
ATOM     28  C   UNL A   1      39.544  22.056  26.289  1.00  0.00     0.251 C 
ATOM     29  H   UNL A   1      38.035  20.866  25.702  1.00  0.00     0.163 HD
ATOM     30  O   UNL A   1      40.447  21.313  25.886  1.00  0.00    -0.269 OA
BRANCH  28  31
ATOM     31  C   UNL A   1      39.868  23.240  27.094  1.00  0.00     0.039 A 
ATOM     32  C   UNL A   1      41.006  23.288  27.904  1.00  0.00     0.014 A 
ATOM     33  C   UNL A   1      39.027  24.342  26.986  1.00  0.00     0.014 A 
ATOM     34  C   UNL A   1      41.330  24.486  28.535  1.00  0.00     0.010 A 
ATOM     35  C   UNL A   1      39.453  25.561  27.436  1.00  0.00     0.010 A 
ATOM     36  C   UNL A   1      40.558  25.628  28.274  1.00  0.00    -0.014 A 
BRANCH  36  37
ATOM     37  C   UNL A   1      40.937  26.935  28.795  1.00  0.00     0.031 A 
ATOM     38  C   UNL A   1      42.139  27.533  28.154  1.00  0.00     0.074 A 
ATOM     39  C   UNL A   1      40.132  27.649  29.612  1.00  0.00     0.049 A 
ATOM     40  N   UNL A   1      43.282  27.786  28.699  1.00  0.00    -0.248 NA
ATOM     41  C   UNL A   1      42.112  27.758  26.700  1.00  0.00     0.031 C 
ATOM     42  C   UNL A   1      38.770  27.325  30.057  1.00  0.00     0.029 A 
ATOM     43  N   UNL A   1      40.320  28.892  30.129  1.00  0.00    -0.354 N 
ATOM     44  C   UNL A   1      44.053  28.392  27.710  1.00  0.00     0.074 A 
ATOM     45  C   UNL A   1      43.359  28.170  26.469  1.00  0.00     0.031 C 
ATOM     46  C   UNL A   1      38.178  28.432  30.555  1.00  0.00     0.029 A 
ATOM     47  C   UNL A   1      39.171  29.485  30.636  1.00  0.00     0.049 A 
ATOM     48  H   UNL A   1      41.199  29.336  30.142  1.00  0.00     0.167 HD
ATOM     49  C   UNL A   1      45.052  29.258  28.044  1.00  0.00     0.037 A 
ATOM     50  C   UNL A   1      39.038  30.762  31.069  1.00  0.00     0.037 A 
ATOM     51  C   UNL A   1      45.415  29.107  29.434  1.00  0.00     0.049 A 
ATOM     52  C   UNL A   1      40.403  31.272  31.344  1.00  0.00     0.074 A 
ATOM     53  C   UNL A   1      45.885  28.069  30.215  1.00  0.00     0.029 A 
ATOM     54  N   UNL A   1      44.951  30.051  30.317  1.00  0.00    -0.354 N 
ATOM     55  N   UNL A   1      41.161  30.834  32.310  1.00  0.00    -0.248 NA
ATOM     56  C   UNL A   1      41.097  31.958  30.266  1.00  0.00     0.031 C 
ATOM     57  C   UNL A   1      45.238  28.234  31.478  1.00  0.00     0.029 A 
ATOM     58  C   UNL A   1      44.467  29.395  31.416  1.00  0.00     0.049 A 
ATOM     59  H   UNL A   1      44.964  31.026  30.183  1.00  0.00     0.167 HD
ATOM     60  C   UNL A   1      42.433  30.787  31.761  1.00  0.00     0.074 A 
ATOM     61  C   UNL A   1      42.351  31.589  30.543  1.00  0.00     0.031 C 
ATOM     62  C   UNL A   1      43.344  29.866  32.192  1.00  0.00     0.037 A 
BRANCH  49  63
ATOM     63  C   UNL A   1      45.394  30.518  27.270  1.00  0.00     0.064 A 
ATOM     64  C   UNL A   1      46.752  30.786  26.991  1.00  0.00     0.173 A 
ATOM     65  C   UNL A   1      44.519  31.612  27.096  1.00  0.00     0.173 A 
ATOM     66  F   UNL A   1      47.678  29.823  27.112  1.00  0.00    -0.203 F 
ATOM     67  C   UNL A   1      47.208  32.074  26.696  1.00  0.00     0.198 A 
ATOM     68  C   UNL A   1      44.972  32.883  26.750  1.00  0.00     0.198 A 
ATOM     69  F   UNL A   1      43.210  31.537  27.356  1.00  0.00    -0.203 F 
ATOM     70  F   UNL A   1      48.524  32.305  26.598  1.00  0.00    -0.200 F 
ATOM     71  C   UNL A   1      46.318  33.125  26.592  1.00  0.00     0.200 A 
ATOM     72  F   UNL A   1      44.092  33.893  26.661  1.00  0.00    -0.200 F 
ATOM     73  F   UNL A   1      46.758  34.374  26.390  1.00  0.00    -0.200 F 
ENDBRANCH  49  63
BRANCH  50  74
ATOM     74  C   UNL A   1      37.857  31.653  30.994  1.00  0.00     0.064 A 
ATOM     75  C   UNL A   1      37.392  32.130  29.759  1.00  0.00     0.173 A 
ATOM     76  C   UNL A   1      36.995  31.818  32.096  1.00  0.00     0.173 A 
ATOM     77  F   UNL A   1      38.135  31.976  28.653  1.00  0.00    -0.203 F 
ATOM     78  C   UNL A   1      36.123  32.706  29.626  1.00  0.00     0.198 A 
ATOM     79  C   UNL A   1      35.733  32.399  31.963  1.00  0.00     0.198 A 
ATOM     80  F   UNL A   1      37.320  31.330  33.302  1.00  0.00    -0.203 F 
ATOM     81  F   UNL A   1      35.686  33.087  28.417  1.00  0.00    -0.200 F 
ATOM     82  C   UNL A   1      35.291  32.828  30.725  1.00  0.00     0.200 A 
ATOM     83  F   UNL A   1      34.921  32.479  33.027  1.00  0.00    -0.200 F 
ATOM     84  F   UNL A   1      34.050  33.316  30.585  1.00  0.00    -0.200 F 
ENDBRANCH  50  74
BRANCH  62  85
ATOM     85  C   UNL A   1      43.038  29.124  33.463  1.00  0.00     0.064 A 
ATOM     86  C   UNL A   1      42.269  27.950  33.529  1.00  0.00     0.173 A 
ATOM     87  C   UNL A   1      43.659  29.555  34.642  1.00  0.00     0.173 A 
ATOM     88  F   UNL A   1      41.724  27.416  32.429  1.00  0.00    -0.203 F 
ATOM     89  C   UNL A   1      42.092  27.267  34.732  1.00  0.00     0.198 A 
ATOM     90  C   UNL A   1      43.511  28.852  35.835  1.00  0.00     0.198 A 
ATOM     91  F   UNL A   1      44.449  30.639  34.627  1.00  0.00    -0.203 F 
ATOM     92  F   UNL A   1      41.340  26.158  34.772  1.00  0.00    -0.200 F 
ATOM     93  C   UNL A   1      42.720  27.717  35.882  1.00  0.00     0.200 A 
ATOM     94  F   UNL A   1      44.160  29.263  36.932  1.00  0.00    -0.200 F 
ATOM     95  F   UNL A   1      42.582  27.041  37.032  1.00  0.00    -0.200 F 
ENDBRANCH  62  85
ENDBRANCH  36  37
ENDBRANCH  28  31
ENDBRANCH  26  27
ENDBRANCH  25  26
ENDBRANCH   1  25
TORSDOF 13
ENDMDL
MODEL 2
REMARK VINA RESULT:     -13.1      3.301      8.419
REMARK SMILES Cc1nc2scc(C)n2c1CNc1ccc(C(=O)NCCCNC(=O)c2ccc(-c3c4nc(c(-c5c(F)c(F)c(F)c(F)c5F)c5ccc([nH]5)c(-c5c(F)c(F)c(F)c(F)c5F)c5nc(c(-c6c(F)c(F)c(F)c(F)c6F)c6ccc3[nH]6)C=C5)C=C4)cc2)cc1
REMARK SMILES IDX 20 1 19 2 17 3 18 4 16 6 13 7 14 8 90 9 15 10 89 11 12 12
REMARK SMILES IDX 11 14 10 15 1 16 2 17 3 18 4 19 9 20 5 21 7 22 6 23 8 24
REMARK SMILES IDX 21 25 22 26 23 27 24 28 25 30 26 31 27 32 88 33 28 34 87 35
REMARK SMILES IDX 29 36 30 37 31 38 81 39 32 40 86 41 80 42 82 43 33 44 85 45
REMARK SMILES IDX 79 46 78 47 34 49 66 50 46 51 65 52 47 53 50 54 64 55 83 56
REMARK SMILES IDX 48 57 49 58 63 60 84 61 51 62 35 63 36 64 44 65 37 66 38 67
REMARK SMILES IDX 42 68 45 69 39 70 40 71 43 72 41 73 67 74 68 75 76 76 69 77
REMARK SMILES IDX 70 78 74 79 77 80 71 81 72 82 75 83 73 84 52 85 53 86 61 87
REMARK SMILES IDX 54 88 55 89 59 90 62 91 56 92 57 93 60 94 58 95
REMARK H PARENT 19 5 12 13 23 29 82 48 50 59
REMARK Flexibility Score: inf
ROOT
ATOM      1  C   UNL A   1      32.505  29.699  25.361  1.00  0.00     0.118 C 
ENDROOT
BRANCH   1   2
ATOM      2  N   UNL A   1      31.273  30.107  24.706  1.00  0.00    -0.352 N 
ATOM      3  C   UNL A   1      30.404  29.443  23.874  1.00  0.00     0.251 C 
ATOM      4  O   UNL A   1      29.376  30.033  23.541  1.00  0.00    -0.269 OA
ATOM      5  H   UNL A   1      31.010  31.037  24.895  1.00  0.00     0.163 HD
BRANCH   3   6
ATOM      6  C   UNL A   1      30.618  28.042  23.412  1.00  0.00     0.039 A 
ATOM      7  C   UNL A   1      31.127  25.327  22.789  1.00  0.00     0.034 A 
ATOM      8  C   UNL A   1      30.301  25.671  23.862  1.00  0.00     0.026 A 
ATOM      9  C   UNL A   1      31.607  26.352  21.977  1.00  0.00     0.026 A 
ATOM     10  C   UNL A   1      30.065  27.012  24.184  1.00  0.00     0.016 A 
ATOM     11  C   UNL A   1      31.327  27.688  22.265  1.00  0.00     0.016 A 
BRANCH   7  12
ATOM     12  N   UNL A   1      31.556  24.023  22.647  1.00  0.00    -0.379 N 
ATOM     13  H   UNL A   1      30.903  23.311  22.453  1.00  0.00     0.160 HD
BRANCH  12  14
ATOM     14  C   UNL A   1      32.961  23.694  22.783  1.00  0.00     0.169 C 
BRANCH  14  15
ATOM     15  C   UNL A   1      33.390  23.603  24.198  1.00  0.00     0.066 A 
ATOM     16  C   UNL A   1      34.012  26.051  24.831  1.00  0.00     0.069 C 
ATOM     17  C   UNL A   1      33.843  24.596  25.067  1.00  0.00     0.062 A 
ATOM     18  N   UNL A   1      34.165  24.075  26.301  1.00  0.00    -0.224 NA
ATOM     19  C   UNL A   1      33.904  22.807  26.174  1.00  0.00     0.194 A 
ATOM     20  N   UNL A   1      33.414  22.446  24.948  1.00  0.00    -0.290 N 
ATOM     21  S   UNL A   1      34.029  21.454  27.251  1.00  0.00    -0.105 S 
ATOM     22  C   UNL A   1      33.105  21.093  24.831  1.00  0.00     0.032 A 
ATOM     23  C   UNL A   1      33.376  20.431  25.976  1.00  0.00     0.090 A 
ATOM     24  C   UNL A   1      32.526  20.435  23.630  1.00  0.00     0.066 C 
ENDBRANCH  14  15
ENDBRANCH  12  14
ENDBRANCH   7  12
ENDBRANCH   3   6
ENDBRANCH   1   2
BRANCH   1  25
ATOM     25  C   UNL A   1      32.564  30.165  26.823  1.00  0.00     0.042 C 
BRANCH  25  26
ATOM     26  C   UNL A   1      33.962  30.570  27.252  1.00  0.00     0.118 C 
BRANCH  26  27
ATOM     27  N   UNL A   1      33.948  31.556  28.336  1.00  0.00    -0.352 N 
ATOM     28  C   UNL A   1      34.848  31.709  29.366  1.00  0.00     0.251 C 
ATOM     29  H   UNL A   1      33.197  32.192  28.327  1.00  0.00     0.163 HD
ATOM     30  O   UNL A   1      34.535  32.334  30.386  1.00  0.00    -0.269 OA
BRANCH  28  31
ATOM     31  C   UNL A   1      36.183  31.112  29.248  1.00  0.00     0.039 A 
ATOM     32  C   UNL A   1      37.331  31.900  29.126  1.00  0.00     0.014 A 
ATOM     33  C   UNL A   1      36.278  29.726  29.311  1.00  0.00     0.014 A 
ATOM     34  C   UNL A   1      38.577  31.280  29.155  1.00  0.00     0.010 A 
ATOM     35  C   UNL A   1      37.493  29.144  29.542  1.00  0.00     0.010 A 
ATOM     36  C   UNL A   1      38.649  29.898  29.389  1.00  0.00    -0.014 A 
BRANCH  36  37
ATOM     37  C   UNL A   1      39.928  29.225  29.570  1.00  0.00     0.031 A 
ATOM     38  C   UNL A   1      40.353  29.071  30.986  1.00  0.00     0.074 A 
ATOM     39  C   UNL A   1      40.555  28.581  28.561  1.00  0.00     0.049 A 
ATOM     40  N   UNL A   1      41.372  29.609  31.569  1.00  0.00    -0.248 NA
ATOM     41  C   UNL A   1      39.466  28.335  31.902  1.00  0.00     0.031 C 
ATOM     42  C   UNL A   1      40.083  28.367  27.186  1.00  0.00     0.029 A 
ATOM     43  N   UNL A   1      41.712  27.868  28.586  1.00  0.00    -0.354 N 
ATOM     44  C   UNL A   1      41.375  29.116  32.872  1.00  0.00     0.074 A 
ATOM     45  C   UNL A   1      40.088  28.504  33.070  1.00  0.00     0.031 C 
ATOM     46  C   UNL A   1      40.809  27.389  26.601  1.00  0.00     0.029 A 
ATOM     47  C   UNL A   1      41.905  27.043  27.485  1.00  0.00     0.049 A 
ATOM     48  H   UNL A   1      42.360  27.930  29.325  1.00  0.00     0.167 HD
ATOM     49  C   UNL A   1      42.540  29.017  33.573  1.00  0.00     0.037 A 
ATOM     50  C   UNL A   1      42.884  26.121  27.322  1.00  0.00     0.037 A 
ATOM     51  C   UNL A   1      43.571  29.827  32.967  1.00  0.00     0.049 A 
ATOM     52  C   UNL A   1      43.962  26.456  28.283  1.00  0.00     0.074 A 
ATOM     53  C   UNL A   1      43.716  31.170  32.676  1.00  0.00     0.029 A 
ATOM     54  N   UNL A   1      44.524  29.184  32.217  1.00  0.00    -0.354 N 
ATOM     55  N   UNL A   1      44.706  27.523  28.197  1.00  0.00    -0.248 NA
ATOM     56  C   UNL A   1      43.915  25.831  29.595  1.00  0.00     0.031 C 
ATOM     57  C   UNL A   1      44.402  31.207  31.425  1.00  0.00     0.029 A 
ATOM     58  C   UNL A   1      44.695  29.892  31.058  1.00  0.00     0.049 A 
ATOM     59  H   UNL A   1      45.001  28.360  32.468  1.00  0.00     0.167 HD
ATOM     60  C   UNL A   1      44.853  27.953  29.507  1.00  0.00     0.074 A 
ATOM     61  C   UNL A   1      44.438  26.818  30.328  1.00  0.00     0.031 C 
ATOM     62  C   UNL A   1      45.015  29.278  29.792  1.00  0.00     0.037 A 
BRANCH  49  63
ATOM     63  C   UNL A   1      42.882  27.880  34.519  1.00  0.00     0.064 A 
ATOM     64  C   UNL A   1      43.226  28.197  35.851  1.00  0.00     0.173 A 
ATOM     65  C   UNL A   1      43.213  26.570  34.108  1.00  0.00     0.173 A 
ATOM     66  F   UNL A   1      42.954  29.408  36.359  1.00  0.00    -0.203 F 
ATOM     67  C   UNL A   1      43.962  27.321  36.654  1.00  0.00     0.198 A 
ATOM     68  C   UNL A   1      43.900  25.681  34.932  1.00  0.00     0.198 A 
ATOM     69  F   UNL A   1      42.991  26.126  32.867  1.00  0.00    -0.203 F 
ATOM     70  F   UNL A   1      44.402  27.730  37.851  1.00  0.00    -0.200 F 
ATOM     71  C   UNL A   1      44.312  26.069  36.187  1.00  0.00     0.200 A 
ATOM     72  F   UNL A   1      44.237  24.473  34.456  1.00  0.00    -0.200 F 
ATOM     73  F   UNL A   1      45.085  25.259  36.921  1.00  0.00    -0.200 F 
ENDBRANCH  49  63
BRANCH  50  74
ATOM     74  C   UNL A   1      42.834  24.826  26.604  1.00  0.00     0.064 A 
ATOM     75  C   UNL A   1      43.611  24.608  25.456  1.00  0.00     0.173 A 
ATOM     76  C   UNL A   1      42.246  23.687  27.190  1.00  0.00     0.173 A 
ATOM     77  F   UNL A   1      44.237  25.634  24.861  1.00  0.00    -0.203 F 
ATOM     78  C   UNL A   1      43.820  23.323  24.945  1.00  0.00     0.198 A 
ATOM     79  C   UNL A   1      42.449  22.406  26.674  1.00  0.00     0.198 A 
ATOM     80  F   UNL A   1      41.546  23.784  28.329  1.00  0.00    -0.203 F 
ATOM     81  F   UNL A   1      44.625  23.146  23.888  1.00  0.00    -0.200 F 
ATOM     82  C   UNL A   1      43.249  22.222  25.561  1.00  0.00     0.200 A 
ATOM     83  F   UNL A   1      41.922  21.346  27.301  1.00  0.00    -0.200 F 
ATOM     84  F   UNL A   1      43.505  20.985  25.113  1.00  0.00    -0.200 F 
ENDBRANCH  50  74
BRANCH  62  85
ATOM     85  C   UNL A   1      45.331  30.203  28.649  1.00  0.00     0.064 A 
ATOM     86  C   UNL A   1      44.363  30.838  27.853  1.00  0.00     0.173 A 
ATOM     87  C   UNL A   1      46.670  30.555  28.440  1.00  0.00     0.173 A 
ATOM     88  F   UNL A   1      43.057  30.632  28.055  1.00  0.00    -0.203 F 
ATOM     89  C   UNL A   1      44.727  31.748  26.860  1.00  0.00     0.198 A 
ATOM     90  C   UNL A   1      47.029  31.492  27.474  1.00  0.00     0.198 A 
ATOM     91  F   UNL A   1      47.633  30.022  29.207  1.00  0.00    -0.203 F 
ATOM     92  F   UNL A   1      43.785  32.329  26.103  1.00  0.00    -0.200 F 
ATOM     93  C   UNL A   1      46.059  32.078  26.678  1.00  0.00     0.200 A 
ATOM     94  F   UNL A   1      48.313  31.843  27.335  1.00  0.00    -0.200 F 
ATOM     95  F   UNL A   1      46.408  32.982  25.751  1.00  0.00    -0.200 F 
ENDBRANCH  62  85
ENDBRANCH  36  37
ENDBRANCH  28  31
ENDBRANCH  26  27
ENDBRANCH  25  26
ENDBRANCH   1  25
TORSDOF 13
ENDMDL
MODEL 3
REMARK VINA RESULT:     -13.1      2.309      7.043
REMARK SMILES Cc1nc2scc(C)n2c1CNc1ccc(C(=O)NCCCNC(=O)c2ccc(-c3c4nc(c(-c5c(F)c(F)c(F)c(F)c5F)c5ccc([nH]5)c(-c5c(F)c(F)c(F)c(F)c5F)c5nc(c(-c6c(F)c(F)c(F)c(F)c6F)c6ccc3[nH]6)C=C5)C=C4)cc2)cc1
REMARK SMILES IDX 20 1 19 2 17 3 18 4 16 6 13 7 14 8 90 9 15 10 89 11 12 12
REMARK SMILES IDX 11 14 10 15 1 16 2 17 3 18 4 19 9 20 5 21 7 22 6 23 8 24
REMARK SMILES IDX 21 25 22 26 23 27 24 28 25 30 26 31 27 32 88 33 28 34 87 35
REMARK SMILES IDX 29 36 30 37 31 38 81 39 32 40 86 41 80 42 82 43 33 44 85 45
REMARK SMILES IDX 79 46 78 47 34 49 66 50 46 51 65 52 47 53 50 54 64 55 83 56
REMARK SMILES IDX 48 57 49 58 63 60 84 61 51 62 35 63 36 64 44 65 37 66 38 67
REMARK SMILES IDX 42 68 45 69 39 70 40 71 43 72 41 73 67 74 68 75 76 76 69 77
REMARK SMILES IDX 70 78 74 79 77 80 71 81 72 82 75 83 73 84 52 85 53 86 61 87
REMARK SMILES IDX 54 88 55 89 59 90 62 91 56 92 57 93 60 94 58 95
REMARK H PARENT 19 5 12 13 23 29 82 48 50 59
REMARK Flexibility Score: inf
ROOT
ATOM      1  C   UNL A   1      37.554  20.373  24.927  1.00  0.00     0.118 C 
ENDROOT
BRANCH   1   2
ATOM      2  N   UNL A   1      36.181  19.903  25.028  1.00  0.00    -0.352 N 
ATOM      3  C   UNL A   1      34.974  20.557  24.968  1.00  0.00     0.251 C 
ATOM      4  O   UNL A   1      33.954  19.867  24.997  1.00  0.00    -0.269 OA
ATOM      5  H   UNL A   1      36.101  18.931  25.164  1.00  0.00     0.163 HD
BRANCH   3   6
ATOM      6  C   UNL A   1      34.846  22.034  24.814  1.00  0.00     0.039 A 
ATOM      7  C   UNL A   1      34.446  24.836  24.753  1.00  0.00     0.034 A 
ATOM      8  C   UNL A   1      35.019  24.221  25.869  1.00  0.00     0.026 A 
ATOM      9  C   UNL A   1      34.173  24.048  23.638  1.00  0.00     0.026 A 
ATOM     10  C   UNL A   1      35.199  22.834  25.909  1.00  0.00     0.016 A 
ATOM     11  C   UNL A   1      34.403  22.672  23.658  1.00  0.00     0.016 A 
BRANCH   7  12
ATOM     12  N   UNL A   1      34.039  26.154  24.833  1.00  0.00    -0.379 N 
ATOM     13  H   UNL A   1      34.473  26.834  24.269  1.00  0.00     0.160 HD
BRANCH  12  14
ATOM     14  C   UNL A   1      32.978  26.540  25.742  1.00  0.00     0.169 C 
BRANCH  14  15
ATOM     15  C   UNL A   1      32.368  27.840  25.384  1.00  0.00     0.066 A 
ATOM     16  C   UNL A   1      33.689  29.575  26.807  1.00  0.00     0.069 C 
ATOM     17  C   UNL A   1      32.660  29.127  25.838  1.00  0.00     0.062 A 
ATOM     18  N   UNL A   1      31.829  30.064  25.263  1.00  0.00    -0.224 NA
ATOM     19  C   UNL A   1      31.066  29.356  24.482  1.00  0.00     0.194 A 
ATOM     20  N   UNL A   1      31.341  28.015  24.480  1.00  0.00    -0.290 N 
ATOM     21  S   UNL A   1      29.766  29.757  23.408  1.00  0.00    -0.105 S 
ATOM     22  C   UNL A   1      30.543  27.268  23.617  1.00  0.00     0.032 A 
ATOM     23  C   UNL A   1      29.655  28.056  22.972  1.00  0.00     0.090 A 
ATOM     24  C   UNL A   1      30.646  25.803  23.387  1.00  0.00     0.066 C 
ENDBRANCH  14  15
ENDBRANCH  12  14
ENDBRANCH   7  12
ENDBRANCH   3   6
ENDBRANCH   1   2
BRANCH   1  25
ATOM     25  C   UNL A   1      38.568  19.247  25.176  1.00  0.00     0.042 C 
BRANCH  25  26
ATOM     26  C   UNL A   1      39.698  19.672  26.096  1.00  0.00     0.118 C 
BRANCH  26  27
ATOM     27  N   UNL A   1      40.970  19.035  25.747  1.00  0.00    -0.352 N 
ATOM     28  C   UNL A   1      42.222  19.603  25.674  1.00  0.00     0.251 C 
ATOM     29  H   UNL A   1      40.925  18.074  25.536  1.00  0.00     0.163 HD
ATOM     30  O   UNL A   1      43.127  19.051  25.039  1.00  0.00    -0.269 OA
BRANCH  28  31
ATOM     31  C   UNL A   1      42.470  20.882  26.351  1.00  0.00     0.039 A 
ATOM     32  C   UNL A   1      42.749  22.049  25.635  1.00  0.00     0.014 A 
ATOM     33  C   UNL A   1      42.371  20.907  27.738  1.00  0.00     0.014 A 
ATOM     34  C   UNL A   1      42.840  23.254  26.326  1.00  0.00     0.010 A 
ATOM     35  C   UNL A   1      42.259  22.107  28.383  1.00  0.00     0.010 A 
ATOM     36  C   UNL A   1      42.568  23.277  27.702  1.00  0.00    -0.014 A 
BRANCH  36  37
ATOM     37  C   UNL A   1      42.510  24.530  28.443  1.00  0.00     0.031 A 
ATOM     38  C   UNL A   1      41.272  25.323  28.225  1.00  0.00     0.074 A 
ATOM     39  C   UNL A   1      43.388  24.829  29.426  1.00  0.00     0.049 A 
ATOM     40  N   UNL A   1      41.163  26.483  27.669  1.00  0.00    -0.248 NA
ATOM     41  C   UNL A   1      39.979  24.696  28.547  1.00  0.00     0.031 C 
ATOM     42  C   UNL A   1      44.461  23.989  29.975  1.00  0.00     0.029 A 
ATOM     43  N   UNL A   1      43.429  25.921  30.236  1.00  0.00    -0.354 N 
ATOM     44  C   UNL A   1      39.816  26.826  27.754  1.00  0.00     0.074 A 
ATOM     45  C   UNL A   1      39.119  25.621  28.119  1.00  0.00     0.031 C 
ATOM     46  C   UNL A   1      44.869  24.488  31.162  1.00  0.00     0.029 A 
ATOM     47  C   UNL A   1      44.226  25.771  31.365  1.00  0.00     0.049 A 
ATOM     48  H   UNL A   1      42.934  26.749  30.040  1.00  0.00     0.167 HD
ATOM     49  C   UNL A   1      39.434  28.134  27.785  1.00  0.00     0.037 A 
ATOM     50  C   UNL A   1      44.329  26.631  32.406  1.00  0.00     0.037 A 
ATOM     51  C   UNL A   1      40.502  28.989  27.319  1.00  0.00     0.049 A 
ATOM     52  C   UNL A   1      43.825  27.944  31.938  1.00  0.00     0.074 A 
ATOM     53  C   UNL A   1      41.228  29.099  26.149  1.00  0.00     0.029 A 
ATOM     54  N   UNL A   1      41.225  29.673  28.265  1.00  0.00    -0.354 N 
ATOM     55  N   UNL A   1      44.426  28.676  31.041  1.00  0.00    -0.248 NA
ATOM     56  C   UNL A   1      42.415  28.237  32.140  1.00  0.00     0.031 C 
ATOM     57  C   UNL A   1      42.557  29.414  26.565  1.00  0.00     0.029 A 
ATOM     58  C   UNL A   1      42.551  29.544  27.955  1.00  0.00     0.049 A 
ATOM     59  H   UNL A   1      40.855  30.168  29.031  1.00  0.00     0.167 HD
ATOM     60  C   UNL A   1      43.399  29.194  30.268  1.00  0.00     0.074 A 
ATOM     61  C   UNL A   1      42.186  28.979  31.053  1.00  0.00     0.031 C 
ATOM     62  C   UNL A   1      43.597  29.479  28.947  1.00  0.00     0.037 A 
BRANCH  49  63
ATOM     63  C   UNL A   1      38.296  28.681  28.626  1.00  0.00     0.064 A 
ATOM     64  C   UNL A   1      37.470  29.681  28.070  1.00  0.00     0.173 A 
ATOM     65  C   UNL A   1      38.189  28.524  30.026  1.00  0.00     0.173 A 
ATOM     66  F   UNL A   1      37.476  29.917  26.749  1.00  0.00    -0.203 F 
ATOM     67  C   UNL A   1      36.709  30.541  28.866  1.00  0.00     0.198 A 
ATOM     68  C   UNL A   1      37.388  29.351  30.810  1.00  0.00     0.198 A 
ATOM     69  F   UNL A   1      38.931  27.650  30.712  1.00  0.00    -0.203 F 
ATOM     70  F   UNL A   1      36.070  31.575  28.302  1.00  0.00    -0.200 F 
ATOM     71  C   UNL A   1      36.681  30.385  30.238  1.00  0.00     0.200 A 
ATOM     72  F   UNL A   1      37.381  29.188  32.142  1.00  0.00    -0.200 F 
ATOM     73  F   UNL A   1      36.019  31.256  31.011  1.00  0.00    -0.200 F 
ENDBRANCH  49  63
BRANCH  50  74
ATOM     74  C   UNL A   1      44.565  26.335  33.838  1.00  0.00     0.064 A 
ATOM     75  C   UNL A   1      43.516  25.910  34.668  1.00  0.00     0.173 A 
ATOM     76  C   UNL A   1      45.869  26.187  34.349  1.00  0.00     0.173 A 
ATOM     77  F   UNL A   1      42.246  25.981  34.241  1.00  0.00    -0.203 F 
ATOM     78  C   UNL A   1      43.758  25.335  35.920  1.00  0.00     0.198 A 
ATOM     79  C   UNL A   1      46.109  25.619  35.602  1.00  0.00     0.198 A 
ATOM     80  F   UNL A   1      46.939  26.497  33.603  1.00  0.00    -0.203 F 
ATOM     81  F   UNL A   1      42.735  24.877  36.655  1.00  0.00    -0.200 F 
ATOM     82  C   UNL A   1      45.054  25.179  36.380  1.00  0.00     0.200 A 
ATOM     83  F   UNL A   1      47.370  25.440  36.021  1.00  0.00    -0.200 F 
ATOM     84  F   UNL A   1      45.290  24.566  37.549  1.00  0.00    -0.200 F 
ENDBRANCH  50  74
BRANCH  62  85
ATOM     85  C   UNL A   1      45.014  29.503  28.444  1.00  0.00     0.064 A 
ATOM     86  C   UNL A   1      45.688  28.386  27.921  1.00  0.00     0.173 A 
ATOM     87  C   UNL A   1      45.665  30.740  28.374  1.00  0.00     0.173 A 
ATOM     88  F   UNL A   1      45.097  27.187  27.859  1.00  0.00    -0.203 F 
ATOM     89  C   UNL A   1      46.975  28.498  27.396  1.00  0.00     0.198 A 
ATOM     90  C   UNL A   1      46.936  30.857  27.817  1.00  0.00     0.198 A 
ATOM     91  F   UNL A   1      45.049  31.850  28.809  1.00  0.00    -0.203 F 
ATOM     92  F   UNL A   1      47.603  27.415  26.918  1.00  0.00    -0.200 F 
ATOM     93  C   UNL A   1      47.594  29.736  27.339  1.00  0.00     0.200 A 
ATOM     94  F   UNL A   1      47.509  32.063  27.719  1.00  0.00    -0.200 F 
ATOM     95  F   UNL A   1      48.816  29.853  26.800  1.00  0.00    -0.200 F 
ENDBRANCH  62  85
ENDBRANCH  36  37
ENDBRANCH  28  31
ENDBRANCH  26  27
ENDBRANCH  25  26
ENDBRANCH   1  25
TORSDOF 13
ENDMDL
