MODEL 1
REMARK VINA RESULT:     -11.8      0.000      0.000
REMARK SMILES CC(=O)[C@@H]1CCCC[N@H+]1CC(C)(C)C(=O)NCCCNC(=O)c1ccc(-c2c3nc(c(-c4c(F)c(F)c(F)c(F)c4F)c4ccc([nH]4)c(-c4c(F)c(F)c(F)c(F)c4F)c4nc(c(-c5c(F)c(F)c(F)c(F)c5F)c5ccc2[nH]5)C=C4)C=C3)cc1
REMARK SMILES IDX 17 1 16 2 14 3 15 4 11 6 12 7 13 8 10 9 9 10 4 11 5 12 6 13
REMARK SMILES IDX 8 14 7 16 2 17 1 18 3 19 18 20 19 21 20 22 21 23 22 25 23 26
REMARK SMILES IDX 24 27 85 28 25 29 84 30 26 31 27 32 28 33 78 34 29 35 83 36
REMARK SMILES IDX 77 37 79 38 30 39 82 40 76 41 75 42 31 44 63 45 43 46 62 47
REMARK SMILES IDX 44 48 47 49 61 50 80 51 45 52 46 53 60 55 81 56 48 57 32 58
REMARK SMILES IDX 33 59 41 60 34 61 35 62 39 63 42 64 36 65 37 66 40 67 38 68
REMARK SMILES IDX 64 69 65 70 73 71 66 72 67 73 71 74 74 75 68 76 69 77 72 78
REMARK SMILES IDX 70 79 49 80 50 81 58 82 51 83 52 84 56 85 59 86 53 87 54 88
REMARK SMILES IDX 57 89 55 90
REMARK H PARENT 16 5 9 15 20 24 79 43 47 54
REMARK Flexibility Score: inf
ROOT
ATOM      1  C   UNL A   1      31.479  30.796  26.603  1.00  0.00     0.117 C 
ENDROOT
BRANCH   1   2
ATOM      2  N   UNL A   1      31.704  30.273  25.273  1.00  0.00    -0.355 N 
ATOM      3  C   UNL A   1      32.468  29.238  24.846  1.00  0.00     0.231 C 
ATOM      4  O   UNL A   1      32.956  29.385  23.720  1.00  0.00    -0.274 OA
ATOM      5  H   UNL A   1      31.220  30.748  24.558  1.00  0.00     0.163 HD
BRANCH   3   6
ATOM      6  C   UNL A   1      32.765  27.999  25.708  1.00  0.00     0.092 C 
ATOM      7  C   UNL A   1      31.660  27.601  26.697  1.00  0.00     0.027 C 
ATOM      8  C   UNL A   1      34.032  28.350  26.522  1.00  0.00     0.027 C 
BRANCH   6   9
ATOM      9  C   UNL A   1      33.109  26.787  24.759  1.00  0.00     0.279 C 
BRANCH   9  10
ATOM     10  N   UNL A   1      32.208  25.614  24.572  1.00  0.00    -0.325 N 
ATOM     11  C   UNL A   1      31.529  25.462  23.265  1.00  0.00     0.251 C 
ATOM     12  C   UNL A   1      30.616  24.218  23.217  1.00  0.00     0.074 C 
ATOM     13  C   UNL A   1      31.331  22.956  23.672  1.00  0.00     0.012 C 
ATOM     14  C   UNL A   1      32.829  24.375  25.061  1.00  0.00     0.262 C 
ATOM     15  H   UNL A   1      31.412  25.837  25.168  1.00  0.00     0.348 HD
ATOM     16  C   UNL A   1      31.884  23.178  25.064  1.00  0.00     0.062 C 
BRANCH  11  17
ATOM     17  C   UNL A   1      30.649  26.687  22.893  1.00  0.00     0.186 C 
ATOM     18  C   UNL A   1      29.458  26.951  23.786  1.00  0.00     0.094 C 
ATOM     19  O   UNL A   1      30.861  27.444  21.944  1.00  0.00    -0.293 OA
ENDBRANCH  11  17
ENDBRANCH   9  10
ENDBRANCH   6   9
ENDBRANCH   3   6
ENDBRANCH   1   2
BRANCH   1  20
ATOM     20  C   UNL A   1      31.475  32.318  26.586  1.00  0.00     0.042 C 
BRANCH  20  21
ATOM     21  C   UNL A   1      32.695  32.927  27.260  1.00  0.00     0.118 C 
BRANCH  21  22
ATOM     22  N   UNL A   1      32.483  34.321  27.629  1.00  0.00    -0.352 N 
ATOM     23  C   UNL A   1      33.021  35.045  28.662  1.00  0.00     0.251 C 
ATOM     24  H   UNL A   1      31.862  34.818  27.048  1.00  0.00     0.163 HD
ATOM     25  O   UNL A   1      32.545  36.131  28.967  1.00  0.00    -0.269 OA
BRANCH  23  26
ATOM     26  C   UNL A   1      34.167  34.497  29.416  1.00  0.00     0.039 A 
ATOM     27  C   UNL A   1      33.940  33.871  30.642  1.00  0.00     0.014 A 
ATOM     28  C   UNL A   1      35.465  34.601  28.908  1.00  0.00     0.014 A 
ATOM     29  C   UNL A   1      35.010  33.293  31.327  1.00  0.00     0.010 A 
ATOM     30  C   UNL A   1      36.507  33.929  29.532  1.00  0.00     0.010 A 
ATOM     31  C   UNL A   1      36.295  33.285  30.758  1.00  0.00    -0.014 A 
BRANCH  31  32
ATOM     32  C   UNL A   1      37.434  32.627  31.443  1.00  0.00     0.031 A 
ATOM     33  C   UNL A   1      38.144  31.475  30.785  1.00  0.00     0.074 A 
ATOM     34  C   UNL A   1      37.791  33.027  32.678  1.00  0.00     0.049 A 
ATOM     35  N   UNL A   1      39.130  30.742  31.237  1.00  0.00    -0.248 NA
ATOM     36  C   UNL A   1      37.661  31.071  29.454  1.00  0.00     0.031 C 
ATOM     37  C   UNL A   1      37.135  34.088  33.446  1.00  0.00     0.029 A 
ATOM     38  N   UNL A   1      38.788  32.586  33.510  1.00  0.00    -0.354 N 
ATOM     39  C   UNL A   1      39.373  29.792  30.255  1.00  0.00     0.074 A 
ATOM     40  C   UNL A   1      38.387  29.989  29.217  1.00  0.00     0.031 C 
ATOM     41  C   UNL A   1      37.767  34.237  34.620  1.00  0.00     0.029 A 
ATOM     42  C   UNL A   1      38.845  33.256  34.707  1.00  0.00     0.049 A 
ATOM     43  H   UNL A   1      39.406  31.857  33.271  1.00  0.00     0.167 HD
ATOM     44  C   UNL A   1      40.353  28.859  30.206  1.00  0.00     0.037 A 
ATOM     45  C   UNL A   1      39.671  33.094  35.757  1.00  0.00     0.037 A 
ATOM     46  C   UNL A   1      41.344  28.680  31.233  1.00  0.00     0.049 A 
ATOM     47  C   UNL A   1      40.750  32.048  35.681  1.00  0.00     0.074 A 
ATOM     48  C   UNL A   1      42.414  27.803  31.258  1.00  0.00     0.029 A 
ATOM     49  N   UNL A   1      41.382  29.393  32.424  1.00  0.00    -0.354 N 
ATOM     50  N   UNL A   1      41.023  31.208  34.713  1.00  0.00    -0.248 NA
ATOM     51  C   UNL A   1      41.644  31.935  36.841  1.00  0.00     0.031 C 
ATOM     52  C   UNL A   1      43.067  27.946  32.486  1.00  0.00     0.029 A 
ATOM     53  C   UNL A   1      42.442  28.957  33.201  1.00  0.00     0.049 A 
ATOM     54  H   UNL A   1      40.749  30.102  32.678  1.00  0.00     0.167 HD
ATOM     55  C   UNL A   1      42.131  30.486  35.131  1.00  0.00     0.074 A 
ATOM     56  C   UNL A   1      42.494  31.001  36.436  1.00  0.00     0.031 C 
ATOM     57  C   UNL A   1      42.791  29.486  34.496  1.00  0.00     0.037 A 
BRANCH  44  58
ATOM     58  C   UNL A   1      40.403  27.967  28.997  1.00  0.00     0.064 A 
ATOM     59  C   UNL A   1      41.172  28.297  27.869  1.00  0.00     0.173 A 
ATOM     60  C   UNL A   1      39.697  26.755  28.973  1.00  0.00     0.173 A 
ATOM     61  F   UNL A   1      41.858  29.450  27.833  1.00  0.00    -0.203 F 
ATOM     62  C   UNL A   1      41.202  27.467  26.752  1.00  0.00     0.198 A 
ATOM     63  C   UNL A   1      39.758  25.910  27.868  1.00  0.00     0.198 A 
ATOM     64  F   UNL A   1      38.950  26.387  30.025  1.00  0.00    -0.203 F 
ATOM     65  F   UNL A   1      41.895  27.835  25.665  1.00  0.00    -0.200 F 
ATOM     66  C   UNL A   1      40.501  26.271  26.755  1.00  0.00     0.200 A 
ATOM     67  F   UNL A   1      39.092  24.747  27.879  1.00  0.00    -0.200 F 
ATOM     68  F   UNL A   1      40.537  25.470  25.681  1.00  0.00    -0.200 F 
ENDBRANCH  44  58
BRANCH  45  69
ATOM     69  C   UNL A   1      39.524  33.959  36.958  1.00  0.00     0.064 A 
ATOM     70  C   UNL A   1      40.121  35.226  37.014  1.00  0.00     0.173 A 
ATOM     71  C   UNL A   1      38.783  33.539  38.072  1.00  0.00     0.173 A 
ATOM     72  F   UNL A   1      40.853  35.667  35.981  1.00  0.00    -0.203 F 
ATOM     73  C   UNL A   1      40.004  36.028  38.148  1.00  0.00     0.198 A 
ATOM     74  C   UNL A   1      38.639  34.355  39.192  1.00  0.00     0.198 A 
ATOM     75  F   UNL A   1      38.183  32.339  38.067  1.00  0.00    -0.203 F 
ATOM     76  F   UNL A   1      40.626  37.214  38.193  1.00  0.00    -0.200 F 
ATOM     77  C   UNL A   1      39.258  35.595  39.233  1.00  0.00     0.200 A 
ATOM     78  F   UNL A   1      37.902  33.941  40.231  1.00  0.00    -0.200 F 
ATOM     79  F   UNL A   1      39.140  36.370  40.320  1.00  0.00    -0.200 F 
ENDBRANCH  45  69
BRANCH  57  80
ATOM     80  C   UNL A   1      43.992  28.905  35.186  1.00  0.00     0.064 A 
ATOM     81  C   UNL A   1      45.281  29.417  34.979  1.00  0.00     0.173 A 
ATOM     82  C   UNL A   1      43.842  27.848  36.097  1.00  0.00     0.173 A 
ATOM     83  F   UNL A   1      45.480  30.417  34.107  1.00  0.00    -0.203 F 
ATOM     84  C   UNL A   1      46.381  28.872  35.638  1.00  0.00     0.198 A 
ATOM     85  C   UNL A   1      44.939  27.330  36.780  1.00  0.00     0.198 A 
ATOM     86  F   UNL A   1      42.630  27.327  36.337  1.00  0.00    -0.203 F 
ATOM     87  F   UNL A   1      47.610  29.342  35.384  1.00  0.00    -0.200 F 
ATOM     88  C   UNL A   1      46.208  27.836  36.543  1.00  0.00     0.200 A 
ATOM     89  F   UNL A   1      44.768  26.341  37.668  1.00  0.00    -0.200 F 
ATOM     90  F   UNL A   1      47.266  27.320  37.183  1.00  0.00    -0.200 F 
ENDBRANCH  57  80
ENDBRANCH  31  32
ENDBRANCH  23  26
ENDBRANCH  21  22
ENDBRANCH  20  21
ENDBRANCH   1  20
TORSDOF 13
ENDMDL
MODEL 2
REMARK VINA RESULT:     -11.7      0.665      7.517
REMARK SMILES CC(=O)[C@@H]1CCCC[N@H+]1CC(C)(C)C(=O)NCCCNC(=O)c1ccc(-c2c3nc(c(-c4c(F)c(F)c(F)c(F)c4F)c4ccc([nH]4)c(-c4c(F)c(F)c(F)c(F)c4F)c4nc(c(-c5c(F)c(F)c(F)c(F)c5F)c5ccc2[nH]5)C=C4)C=C3)cc1
REMARK SMILES IDX 17 1 16 2 14 3 15 4 11 6 12 7 13 8 10 9 9 10 4 11 5 12 6 13
REMARK SMILES IDX 8 14 7 16 2 17 1 18 3 19 18 20 19 21 20 22 21 23 22 25 23 26
REMARK SMILES IDX 24 27 85 28 25 29 84 30 26 31 27 32 28 33 78 34 29 35 83 36
REMARK SMILES IDX 77 37 79 38 30 39 82 40 76 41 75 42 31 44 63 45 43 46 62 47
REMARK SMILES IDX 44 48 47 49 61 50 80 51 45 52 46 53 60 55 81 56 48 57 32 58
REMARK SMILES IDX 33 59 41 60 34 61 35 62 39 63 42 64 36 65 37 66 40 67 38 68
REMARK SMILES IDX 64 69 65 70 73 71 66 72 67 73 71 74 74 75 68 76 69 77 72 78
REMARK SMILES IDX 70 79 49 80 50 81 58 82 51 83 52 84 56 85 59 86 53 87 54 88
REMARK SMILES IDX 57 89 55 90
REMARK H PARENT 16 5 9 15 20 24 79 43 47 54
REMARK Flexibility Score: inf
ROOT
ATOM      1  C   UNL A   1      31.393  30.876  26.641  1.00  0.00     0.117 C 
ENDROOT
BRANCH   1   2
ATOM      2  N   UNL A   1      31.646  30.305  25.335  1.00  0.00    -0.355 N 
ATOM      3  C   UNL A   1      32.426  29.261  24.962  1.00  0.00     0.231 C 
ATOM      4  O   UNL A   1      32.933  29.369  23.840  1.00  0.00    -0.274 OA
ATOM      5  H   UNL A   1      31.171  30.748  24.595  1.00  0.00     0.163 HD
BRANCH   3   6
ATOM      6  C   UNL A   1      32.717  28.059  25.876  1.00  0.00     0.092 C 
ATOM      7  C   UNL A   1      31.585  27.668  26.837  1.00  0.00     0.027 C 
ATOM      8  C   UNL A   1      33.945  28.464  26.723  1.00  0.00     0.027 C 
BRANCH   6   9
ATOM      9  C   UNL A   1      33.122  26.824  24.982  1.00  0.00     0.279 C 
BRANCH   9  10
ATOM     10  N   UNL A   1      32.279  25.600  24.847  1.00  0.00    -0.325 N 
ATOM     11  C   UNL A   1      31.679  25.313  23.525  1.00  0.00     0.251 C 
ATOM     12  C   UNL A   1      30.821  24.030  23.534  1.00  0.00     0.074 C 
ATOM     13  C   UNL A   1      31.559  22.842  24.128  1.00  0.00     0.012 C 
ATOM     14  C   UNL A   1      32.921  24.433  25.469  1.00  0.00     0.262 C 
ATOM     15  H   UNL A   1      31.443  25.836  25.382  1.00  0.00     0.348 HD
ATOM     16  C   UNL A   1      32.025  23.201  25.524  1.00  0.00     0.062 C 
BRANCH  11  17
ATOM     17  C   UNL A   1      30.773  26.464  23.008  1.00  0.00     0.186 C 
ATOM     18  C   UNL A   1      29.535  26.759  23.823  1.00  0.00     0.094 C 
ATOM     19  O   UNL A   1      30.999  27.140  22.003  1.00  0.00    -0.293 OA
ENDBRANCH  11  17
ENDBRANCH   9  10
ENDBRANCH   6   9
ENDBRANCH   3   6
ENDBRANCH   1   2
BRANCH   1  20
ATOM     20  C   UNL A   1      31.407  32.396  26.570  1.00  0.00     0.042 C 
BRANCH  20  21
ATOM     21  C   UNL A   1      32.685  33.008  27.123  1.00  0.00     0.118 C 
BRANCH  21  22
ATOM     22  N   UNL A   1      32.474  34.352  27.644  1.00  0.00    -0.352 N 
ATOM     23  C   UNL A   1      33.029  34.964  28.740  1.00  0.00     0.251 C 
ATOM     24  H   UNL A   1      31.838  34.904  27.134  1.00  0.00     0.163 HD
ATOM     25  O   UNL A   1      32.553  36.007  29.169  1.00  0.00    -0.269 OA
BRANCH  23  26
ATOM     26  C   UNL A   1      34.193  34.347  29.407  1.00  0.00     0.039 A 
ATOM     27  C   UNL A   1      33.984  33.495  30.491  1.00  0.00     0.014 A 
ATOM     28  C   UNL A   1      35.489  34.610  28.957  1.00  0.00     0.014 A 
ATOM     29  C   UNL A   1      35.074  32.857  31.084  1.00  0.00     0.010 A 
ATOM     30  C   UNL A   1      36.558  33.890  29.472  1.00  0.00     0.010 A 
ATOM     31  C   UNL A   1      36.365  33.020  30.554  1.00  0.00    -0.014 A 
BRANCH  31  32
ATOM     32  C   UNL A   1      37.530  32.307  31.133  1.00  0.00     0.031 A 
ATOM     33  C   UNL A   1      38.045  32.687  32.494  1.00  0.00     0.074 A 
ATOM     34  C   UNL A   1      38.157  31.359  30.411  1.00  0.00     0.049 A 
ATOM     35  N   UNL A   1      39.073  32.216  33.153  1.00  0.00    -0.248 NA
ATOM     36  C   UNL A   1      37.328  33.765  33.198  1.00  0.00     0.031 C 
ATOM     37  C   UNL A   1      37.792  30.951  29.052  1.00  0.00     0.029 A 
ATOM     38  N   UNL A   1      39.239  30.572  30.713  1.00  0.00    -0.354 N 
ATOM     39  C   UNL A   1      39.130  32.943  34.334  1.00  0.00     0.074 A 
ATOM     40  C   UNL A   1      38.083  33.938  34.272  1.00  0.00     0.031 C 
ATOM     41  C   UNL A   1      38.613  29.967  28.653  1.00  0.00     0.029 A 
ATOM     42  C   UNL A   1      39.588  29.705  29.707  1.00  0.00     0.049 A 
ATOM     43  H   UNL A   1      39.720  30.623  31.571  1.00  0.00     0.167 HD
ATOM     44  C   UNL A   1      39.958  32.775  35.391  1.00  0.00     0.037 A 
ATOM     45  C   UNL A   1      40.585  28.802  29.642  1.00  0.00     0.037 A 
ATOM     46  C   UNL A   1      40.985  31.770  35.455  1.00  0.00     0.049 A 
ATOM     47  C   UNL A   1      41.496  28.636  30.829  1.00  0.00     0.074 A 
ATOM     48  C   UNL A   1      41.843  31.477  36.500  1.00  0.00     0.029 A 
ATOM     49  N   UNL A   1      41.297  30.894  34.423  1.00  0.00    -0.354 N 
ATOM     50  N   UNL A   1      41.490  29.275  31.974  1.00  0.00    -0.248 NA
ATOM     51  C   UNL A   1      42.547  27.616  30.718  1.00  0.00     0.031 C 
ATOM     52  C   UNL A   1      42.709  30.462  36.082  1.00  0.00     0.029 A 
ATOM     53  C   UNL A   1      42.350  30.078  34.799  1.00  0.00     0.049 A 
ATOM     54  H   UNL A   1      40.836  30.859  33.554  1.00  0.00     0.167 HD
ATOM     55  C   UNL A   1      42.513  28.719  32.728  1.00  0.00     0.074 A 
ATOM     56  C   UNL A   1      43.107  27.676  31.918  1.00  0.00     0.031 C 
ATOM     57  C   UNL A   1      42.926  29.041  33.979  1.00  0.00     0.037 A 
BRANCH  44  58
ATOM     58  C   UNL A   1      39.780  33.694  36.566  1.00  0.00     0.064 A 
ATOM     59  C   UNL A   1      40.427  34.940  36.632  1.00  0.00     0.173 A 
ATOM     60  C   UNL A   1      38.933  33.343  37.628  1.00  0.00     0.173 A 
ATOM     61  F   UNL A   1      41.257  35.322  35.650  1.00  0.00    -0.203 F 
ATOM     62  C   UNL A   1      40.260  35.779  37.730  1.00  0.00     0.198 A 
ATOM     63  C   UNL A   1      38.741  34.200  38.708  1.00  0.00     0.198 A 
ATOM     64  F   UNL A   1      38.286  32.167  37.616  1.00  0.00    -0.203 F 
ATOM     65  F   UNL A   1      40.936  36.935  37.796  1.00  0.00    -0.200 F 
ATOM     66  C   UNL A   1      39.412  35.412  38.763  1.00  0.00     0.200 A 
ATOM     67  F   UNL A   1      37.910  33.851  39.699  1.00  0.00    -0.200 F 
ATOM     68  F   UNL A   1      39.248  36.225  39.817  1.00  0.00    -0.200 F 
ENDBRANCH  44  58
BRANCH  45  69
ATOM     69  C   UNL A   1      40.757  27.972  28.421  1.00  0.00     0.064 A 
ATOM     70  C   UNL A   1      41.541  28.418  27.348  1.00  0.00     0.173 A 
ATOM     71  C   UNL A   1      40.143  26.717  28.300  1.00  0.00     0.173 A 
ATOM     72  F   UNL A   1      42.137  29.619  27.408  1.00  0.00    -0.203 F 
ATOM     73  C   UNL A   1      41.686  27.652  26.193  1.00  0.00     0.198 A 
ATOM     74  C   UNL A   1      40.314  25.937  27.158  1.00  0.00     0.198 A 
ATOM     75  F   UNL A   1      39.389  26.239  29.301  1.00  0.00    -0.203 F 
ATOM     76  F   UNL A   1      42.402  28.125  25.164  1.00  0.00    -0.200 F 
ATOM     77  C   UNL A   1      41.077  26.410  26.101  1.00  0.00     0.200 A 
ATOM     78  F   UNL A   1      39.740  24.729  27.081  1.00  0.00    -0.200 F 
ATOM     79  F   UNL A   1      41.221  25.671  24.993  1.00  0.00    -0.200 F 
ENDBRANCH  45  69
BRANCH  57  80
ATOM     80  C   UNL A   1      44.052  28.237  34.562  1.00  0.00     0.064 A 
ATOM     81  C   UNL A   1      43.822  27.042  35.259  1.00  0.00     0.173 A 
ATOM     82  C   UNL A   1      45.382  28.648  34.384  1.00  0.00     0.173 A 
ATOM     83  F   UNL A   1      42.568  26.612  35.470  1.00  0.00    -0.203 F 
ATOM     84  C   UNL A   1      44.881  26.303  35.782  1.00  0.00     0.198 A 
ATOM     85  C   UNL A   1      46.439  27.889  34.877  1.00  0.00     0.198 A 
ATOM     86  F   UNL A   1      45.658  29.779  33.718  1.00  0.00    -0.203 F 
ATOM     87  F   UNL A   1      44.634  25.193  36.491  1.00  0.00    -0.200 F 
ATOM     88  C   UNL A   1      46.187  26.723  35.584  1.00  0.00     0.200 A 
ATOM     89  F   UNL A   1      47.702  28.286  34.669  1.00  0.00    -0.200 F 
ATOM     90  F   UNL A   1      47.206  26.005  36.079  1.00  0.00    -0.200 F 
ENDBRANCH  57  80
ENDBRANCH  31  32
ENDBRANCH  23  26
ENDBRANCH  21  22
ENDBRANCH  20  21
ENDBRANCH   1  20
TORSDOF 13
ENDMDL
MODEL 3
REMARK VINA RESULT:     -11.7      5.915     11.263
REMARK SMILES CC(=O)[C@@H]1CCCC[N@H+]1CC(C)(C)C(=O)NCCCNC(=O)c1ccc(-c2c3nc(c(-c4c(F)c(F)c(F)c(F)c4F)c4ccc([nH]4)c(-c4c(F)c(F)c(F)c(F)c4F)c4nc(c(-c5c(F)c(F)c(F)c(F)c5F)c5ccc2[nH]5)C=C4)C=C3)cc1
REMARK SMILES IDX 17 1 16 2 14 3 15 4 11 6 12 7 13 8 10 9 9 10 4 11 5 12 6 13
REMARK SMILES IDX 8 14 7 16 2 17 1 18 3 19 18 20 19 21 20 22 21 23 22 25 23 26
REMARK SMILES IDX 24 27 85 28 25 29 84 30 26 31 27 32 28 33 78 34 29 35 83 36
REMARK SMILES IDX 77 37 79 38 30 39 82 40 76 41 75 42 31 44 63 45 43 46 62 47
REMARK SMILES IDX 44 48 47 49 61 50 80 51 45 52 46 53 60 55 81 56 48 57 32 58
REMARK SMILES IDX 33 59 41 60 34 61 35 62 39 63 42 64 36 65 37 66 40 67 38 68
REMARK SMILES IDX 64 69 65 70 73 71 66 72 67 73 71 74 74 75 68 76 69 77 72 78
REMARK SMILES IDX 70 79 49 80 50 81 58 82 51 83 52 84 56 85 59 86 53 87 54 88
REMARK SMILES IDX 57 89 55 90
REMARK H PARENT 16 5 9 15 20 24 79 43 47 54
REMARK Flexibility Score: inf
ROOT
ATOM      1  C   UNL A   1      36.972  20.759  24.626  1.00  0.00     0.117 C 
ENDROOT
BRANCH   1   2
ATOM      2  N   UNL A   1      35.773  20.741  25.436  1.00  0.00    -0.355 N 
ATOM      3  C   UNL A   1      35.105  21.747  26.051  1.00  0.00     0.231 C 
ATOM      4  O   UNL A   1      34.547  21.429  27.106  1.00  0.00    -0.274 OA
ATOM      5  H   UNL A   1      35.376  19.848  25.561  1.00  0.00     0.163 HD
BRANCH   3   6
ATOM      6  C   UNL A   1      35.086  23.192  25.522  1.00  0.00     0.092 C 
ATOM      7  C   UNL A   1      34.702  23.351  24.044  1.00  0.00     0.027 C 
ATOM      8  C   UNL A   1      36.527  23.722  25.702  1.00  0.00     0.027 C 
BRANCH   6   9
ATOM      9  C   UNL A   1      34.128  24.055  26.430  1.00  0.00     0.279 C 
BRANCH   9  10
ATOM     10  N   UNL A   1      33.118  25.006  25.881  1.00  0.00    -0.325 N 
ATOM     11  C   UNL A   1      31.773  25.025  26.501  1.00  0.00     0.251 C 
ATOM     12  C   UNL A   1      30.827  26.039  25.824  1.00  0.00     0.074 C 
ATOM     13  C   UNL A   1      31.450  27.420  25.699  1.00  0.00     0.012 C 
ATOM     14  C   UNL A   1      33.692  26.343  25.677  1.00  0.00     0.262 C 
ATOM     15  H   UNL A   1      32.895  24.604  24.970  1.00  0.00     0.348 HD
ATOM     16  C   UNL A   1      32.760  27.303  24.947  1.00  0.00     0.062 C 
BRANCH  11  17
ATOM     17  C   UNL A   1      31.066  23.643  26.457  1.00  0.00     0.186 C 
ATOM     18  C   UNL A   1      31.028  22.953  25.113  1.00  0.00     0.094 C 
ATOM     19  O   UNL A   1      30.553  23.083  27.428  1.00  0.00    -0.293 OA
ENDBRANCH  11  17
ENDBRANCH   9  10
ENDBRANCH   6   9
ENDBRANCH   3   6
ENDBRANCH   1   2
BRANCH   1  20
ATOM     20  C   UNL A   1      37.934  19.666  25.069  1.00  0.00     0.042 C 
BRANCH  20  21
ATOM     21  C   UNL A   1      39.181  20.208  25.751  1.00  0.00     0.118 C 
BRANCH  21  22
ATOM     22  N   UNL A   1      40.189  19.177  25.957  1.00  0.00    -0.352 N 
ATOM     23  C   UNL A   1      41.545  19.299  26.126  1.00  0.00     0.251 C 
ATOM     24  H   UNL A   1      39.846  18.254  25.980  1.00  0.00     0.163 HD
ATOM     25  O   UNL A   1      42.268  18.315  26.041  1.00  0.00    -0.269 OA
BRANCH  23  26
ATOM     26  C   UNL A   1      42.129  20.630  26.393  1.00  0.00     0.039 A 
ATOM     27  C   UNL A   1      42.530  21.425  25.319  1.00  0.00     0.014 A 
ATOM     28  C   UNL A   1      42.275  21.090  27.704  1.00  0.00     0.014 A 
ATOM     29  C   UNL A   1      43.021  22.709  25.562  1.00  0.00     0.010 A 
ATOM     30  C   UNL A   1      42.655  22.404  27.936  1.00  0.00     0.010 A 
ATOM     31  C   UNL A   1      43.051  23.222  26.869  1.00  0.00    -0.014 A 
BRANCH  31  32
ATOM     32  C   UNL A   1      43.515  24.604  27.143  1.00  0.00     0.031 A 
ATOM     33  C   UNL A   1      42.554  25.627  27.684  1.00  0.00     0.074 A 
ATOM     34  C   UNL A   1      44.783  24.951  26.851  1.00  0.00     0.049 A 
ATOM     35  N   UNL A   1      42.753  26.894  27.946  1.00  0.00    -0.248 NA
ATOM     36  C   UNL A   1      41.174  25.176  27.933  1.00  0.00     0.031 C 
ATOM     37  C   UNL A   1      45.788  24.065  26.261  1.00  0.00     0.029 A 
ATOM     38  N   UNL A   1      45.442  26.144  27.004  1.00  0.00    -0.354 N 
ATOM     39  C   UNL A   1      41.529  27.386  28.378  1.00  0.00     0.074 A 
ATOM     40  C   UNL A   1      40.574  26.306  28.271  1.00  0.00     0.031 C 
ATOM     41  C   UNL A   1      46.944  24.735  26.132  1.00  0.00     0.029 A 
ATOM     42  C   UNL A   1      46.751  26.107  26.591  1.00  0.00     0.049 A 
ATOM     43  H   UNL A   1      45.017  26.951  27.375  1.00  0.00     0.167 HD
ATOM     44  C   UNL A   1      41.234  28.619  28.854  1.00  0.00     0.037 A 
ATOM     45  C   UNL A   1      47.689  27.073  26.579  1.00  0.00     0.037 A 
ATOM     46  C   UNL A   1      42.193  29.684  28.976  1.00  0.00     0.049 A 
ATOM     47  C   UNL A   1      47.336  28.437  27.109  1.00  0.00     0.074 A 
ATOM     48  C   UNL A   1      42.014  30.953  29.496  1.00  0.00     0.029 A 
ATOM     49  N   UNL A   1      43.518  29.602  28.565  1.00  0.00    -0.354 N 
ATOM     50  N   UNL A   1      46.196  28.870  27.590  1.00  0.00    -0.248 NA
ATOM     51  C   UNL A   1      48.404  29.445  27.104  1.00  0.00     0.031 C 
ATOM     52  C   UNL A   1      43.213  31.658  29.351  1.00  0.00     0.029 A 
ATOM     53  C   UNL A   1      44.159  30.808  28.798  1.00  0.00     0.049 A 
ATOM     54  H   UNL A   1      43.938  28.806  28.168  1.00  0.00     0.167 HD
ATOM     55  C   UNL A   1      46.414  30.186  27.969  1.00  0.00     0.074 A 
ATOM     56  C   UNL A   1      47.803  30.477  27.680  1.00  0.00     0.031 C 
ATOM     57  C   UNL A   1      45.545  31.077  28.507  1.00  0.00     0.037 A 
BRANCH  44  58
ATOM     58  C   UNL A   1      39.817  28.877  29.283  1.00  0.00     0.064 A 
ATOM     59  C   UNL A   1      38.856  29.379  28.390  1.00  0.00     0.173 A 
ATOM     60  C   UNL A   1      39.405  28.595  30.594  1.00  0.00     0.173 A 
ATOM     61  F   UNL A   1      39.199  29.678  27.127  1.00  0.00    -0.203 F 
ATOM     62  C   UNL A   1      37.550  29.622  28.803  1.00  0.00     0.198 A 
ATOM     63  C   UNL A   1      38.088  28.805  30.993  1.00  0.00     0.198 A 
ATOM     64  F   UNL A   1      40.279  28.108  31.488  1.00  0.00    -0.203 F 
ATOM     65  F   UNL A   1      36.668  30.158  27.948  1.00  0.00    -0.200 F 
ATOM     66  C   UNL A   1      37.164  29.328  30.101  1.00  0.00     0.200 A 
ATOM     67  F   UNL A   1      37.713  28.506  32.245  1.00  0.00    -0.200 F 
ATOM     68  F   UNL A   1      35.903  29.556  30.495  1.00  0.00    -0.200 F 
ENDBRANCH  44  58
BRANCH  45  69
ATOM     69  C   UNL A   1      49.055  26.777  26.071  1.00  0.00     0.064 A 
ATOM     70  C   UNL A   1      50.048  26.273  26.921  1.00  0.00     0.173 A 
ATOM     71  C   UNL A   1      49.394  26.989  24.727  1.00  0.00     0.173 A 
ATOM     72  F   UNL A   1      49.778  26.067  28.219  1.00  0.00    -0.203 F 
ATOM     73  C   UNL A   1      51.336  26.016  26.452  1.00  0.00     0.198 A 
ATOM     74  C   UNL A   1      50.672  26.702  24.252  1.00  0.00     0.198 A 
ATOM     75  F   UNL A   1      48.477  27.462  23.869  1.00  0.00    -0.203 F 
ATOM     76  F   UNL A   1      52.279  25.581  27.298  1.00  0.00    -0.200 F 
ATOM     77  C   UNL A   1      51.645  26.225  25.117  1.00  0.00     0.200 A 
ATOM     78  F   UNL A   1      50.961  26.887  22.957  1.00  0.00    -0.200 F 
ATOM     79  F   UNL A   1      52.880  25.972  24.665  1.00  0.00    -0.200 F 
ENDBRANCH  45  69
BRANCH  57  80
ATOM     80  C   UNL A   1      46.077  32.439  28.850  1.00  0.00     0.064 A 
ATOM     81  C   UNL A   1      46.017  33.506  27.942  1.00  0.00     0.173 A 
ATOM     82  C   UNL A   1      46.615  32.688  30.122  1.00  0.00     0.173 A 
ATOM     83  F   UNL A   1      45.524  33.316  26.708  1.00  0.00    -0.203 F 
ATOM     84  C   UNL A   1      46.504  34.764  28.283  1.00  0.00     0.198 A 
ATOM     85  C   UNL A   1      47.069  33.957  30.472  1.00  0.00     0.198 A 
ATOM     86  F   UNL A   1      46.689  31.705  31.032  1.00  0.00    -0.203 F 
ATOM     87  F   UNL A   1      46.485  35.754  27.380  1.00  0.00    -0.200 F 
ATOM     88  C   UNL A   1      47.021  34.991  29.550  1.00  0.00     0.200 A 
ATOM     89  F   UNL A   1      47.551  34.179  31.702  1.00  0.00    -0.200 F 
ATOM     90  F   UNL A   1      47.480  36.206  29.880  1.00  0.00    -0.200 F 
ENDBRANCH  57  80
ENDBRANCH  31  32
ENDBRANCH  23  26
ENDBRANCH  21  22
ENDBRANCH  20  21
ENDBRANCH   1  20
TORSDOF 13
ENDMDL
