MODEL 1
REMARK VINA RESULT:     -12.7      0.000      0.000
REMARK SMILES COc1ccc(-c2c(C)n[nH]c2C)c(C(=O)NCCCNC(=O)c2ccc(-c3c4nc(c(-c5c(F)c(F)c(F)c(F)c5F)c5ccc([nH]5)c(-c5c(F)c(F)c(F)c(F)c5F)c5nc(c(-c6c(F)c(F)c(F)c(F)c6F)c6ccc3[nH]6)C=C5)C=C4)cc2)c1
REMARK SMILES IDX 19 1 18 2 17 3 15 4 16 5 14 7 3 8 4 9 87 10 5 11 6 12 2 13
REMARK SMILES IDX 1 14 7 15 8 16 12 17 9 18 10 19 11 20 13 21 20 23 21 24
REMARK SMILES IDX 22 25 23 27 24 28 25 29 86 30 26 31 85 32 27 33 28 34 29 35
REMARK SMILES IDX 79 36 30 37 84 38 78 39 80 40 31 41 83 42 77 43 76 44 32 46
REMARK SMILES IDX 64 47 44 48 63 49 45 50 48 51 62 52 81 53 46 54 47 55 61 57
REMARK SMILES IDX 82 58 49 59 33 60 34 61 42 62 35 63 36 64 40 65 43 66 37 67
REMARK SMILES IDX 38 68 41 69 39 70 65 71 66 72 74 73 67 74 68 75 72 76 75 77
REMARK SMILES IDX 69 78 70 79 73 80 71 81 50 82 51 83 59 84 52 85 53 86 57 87
REMARK SMILES IDX 60 88 54 89 55 90 58 91 56 92
REMARK H PARENT 17 6 11 22 21 26 80 45 48 56
REMARK Flexibility Score: inf
ROOT
ATOM      1  C   UNL A   1      31.595  31.719  26.579  1.00  0.00     0.042 C 
ENDROOT
BRANCH   1   2
ATOM      2  C   UNL A   1      31.787  30.224  26.384  1.00  0.00     0.118 C 
BRANCH   2   3
ATOM      3  N   UNL A   1      32.589  29.862  25.222  1.00  0.00    -0.352 N 
ATOM      4  C   UNL A   1      32.294  29.312  23.990  1.00  0.00     0.252 C 
ATOM      5  O   UNL A   1      33.227  29.222  23.198  1.00  0.00    -0.269 OA
ATOM      6  H   UNL A   1      33.548  30.050  25.341  1.00  0.00     0.163 HD
BRANCH   4   7
ATOM      7  C   UNL A   1      30.925  28.822  23.641  1.00  0.00     0.051 A 
ATOM      8  C   UNL A   1      28.632  29.382  23.018  1.00  0.00     0.119 A 
ATOM      9  C   UNL A   1      28.249  28.064  23.237  1.00  0.00     0.047 A 
ATOM     10  C   UNL A   1      29.974  29.732  23.155  1.00  0.00     0.060 A 
ATOM     11  C   UNL A   1      29.208  27.105  23.565  1.00  0.00     0.013 A 
ATOM     12  C   UNL A   1      30.556  27.466  23.749  1.00  0.00    -0.002 A 
BRANCH   8  13
ATOM     13  O   UNL A   1      27.628  30.238  22.662  1.00  0.00    -0.497 OA
ATOM     14  C   UNL A   1      27.539  31.451  23.406  1.00  0.00     0.278 C 
ENDBRANCH   8  13
BRANCH  12  15
ATOM     15  C   UNL A   1      31.506  26.372  23.842  1.00  0.00     0.026 A 
ATOM     16  C   UNL A   1      32.039  25.778  25.022  1.00  0.00     0.067 A 
ATOM     17  C   UNL A   1      32.137  25.723  22.800  1.00  0.00     0.040 A 
ATOM     18  C   UNL A   1      31.713  26.110  26.432  1.00  0.00     0.069 C 
ATOM     19  N   UNL A   1      32.938  24.830  24.737  1.00  0.00    -0.180 NA
ATOM     20  N   UNL A   1      32.937  24.784  23.397  1.00  0.00    -0.282 N 
ATOM     21  C   UNL A   1      32.058  25.855  21.331  1.00  0.00     0.067 C 
ATOM     22  H   UNL A   1      33.467  24.130  22.884  1.00  0.00     0.190 HD
ENDBRANCH  12  15
ENDBRANCH   4   7
ENDBRANCH   2   3
ENDBRANCH   1   2
BRANCH   1  23
ATOM     23  C   UNL A   1      32.772  32.438  27.213  1.00  0.00     0.118 C 
BRANCH  23  24
ATOM     24  N   UNL A   1      32.486  33.828  27.549  1.00  0.00    -0.352 N 
ATOM     25  C   UNL A   1      33.039  34.664  28.493  1.00  0.00     0.251 C 
ATOM     26  H   UNL A   1      31.774  34.239  27.008  1.00  0.00     0.163 HD
ATOM     27  O   UNL A   1      32.526  35.750  28.721  1.00  0.00    -0.269 OA
BRANCH  25  28
ATOM     28  C   UNL A   1      34.236  34.244  29.257  1.00  0.00     0.039 A 
ATOM     29  C   UNL A   1      34.072  33.533  30.451  1.00  0.00     0.014 A 
ATOM     30  C   UNL A   1      35.517  34.562  28.811  1.00  0.00     0.014 A 
ATOM     31  C   UNL A   1      35.193  33.058  31.140  1.00  0.00     0.010 A 
ATOM     32  C   UNL A   1      36.624  34.003  29.434  1.00  0.00     0.010 A 
ATOM     33  C   UNL A   1      36.478  33.247  30.608  1.00  0.00    -0.014 A 
BRANCH  33  34
ATOM     34  C   UNL A   1      37.703  32.707  31.252  1.00  0.00     0.031 A 
ATOM     35  C   UNL A   1      38.443  31.579  30.585  1.00  0.00     0.074 A 
ATOM     36  C   UNL A   1      38.071  33.128  32.476  1.00  0.00     0.049 A 
ATOM     37  N   UNL A   1      39.372  30.793  31.067  1.00  0.00    -0.248 NA
ATOM     38  C   UNL A   1      38.047  31.264  29.203  1.00  0.00     0.031 C 
ATOM     39  C   UNL A   1      37.422  34.193  33.241  1.00  0.00     0.029 A 
ATOM     40  N   UNL A   1      39.068  32.683  33.310  1.00  0.00    -0.354 N 
ATOM     41  C   UNL A   1      39.634  29.866  30.066  1.00  0.00     0.074 A 
ATOM     42  C   UNL A   1      38.737  30.159  28.969  1.00  0.00     0.031 C 
ATOM     43  C   UNL A   1      38.039  34.325  34.426  1.00  0.00     0.029 A 
ATOM     44  C   UNL A   1      39.093  33.319  34.528  1.00  0.00     0.049 A 
ATOM     45  H   UNL A   1      39.705  31.975  33.059  1.00  0.00     0.167 HD
ATOM     46  C   UNL A   1      40.553  28.872  30.056  1.00  0.00     0.037 A 
ATOM     47  C   UNL A   1      39.861  33.097  35.612  1.00  0.00     0.037 A 
ATOM     48  C   UNL A   1      41.475  28.620  31.131  1.00  0.00     0.049 A 
ATOM     49  C   UNL A   1      40.884  31.993  35.574  1.00  0.00     0.074 A 
ATOM     50  C   UNL A   1      42.484  27.676  31.199  1.00  0.00     0.029 A 
ATOM     51  N   UNL A   1      41.506  29.328  32.323  1.00  0.00    -0.354 N 
ATOM     52  N   UNL A   1      41.149  31.144  34.612  1.00  0.00    -0.248 NA
ATOM     53  C   UNL A   1      41.717  31.818  36.772  1.00  0.00     0.031 C 
ATOM     54  C   UNL A   1      43.103  27.788  32.448  1.00  0.00     0.029 A 
ATOM     55  C   UNL A   1      42.512  28.836  33.137  1.00  0.00     0.049 A 
ATOM     56  H   UNL A   1      40.901  30.069  32.557  1.00  0.00     0.167 HD
ATOM     57  C   UNL A   1      42.202  30.364  35.068  1.00  0.00     0.074 A 
ATOM     58  C   UNL A   1      42.529  30.840  36.396  1.00  0.00     0.031 C 
ATOM     59  C   UNL A   1      42.844  29.348  34.442  1.00  0.00     0.037 A 
BRANCH  46  60
ATOM     60  C   UNL A   1      40.605  27.985  28.846  1.00  0.00     0.064 A 
ATOM     61  C   UNL A   1      41.416  28.288  27.742  1.00  0.00     0.173 A 
ATOM     62  C   UNL A   1      39.852  26.801  28.799  1.00  0.00     0.173 A 
ATOM     63  F   UNL A   1      42.146  29.415  27.731  1.00  0.00    -0.203 F 
ATOM     64  C   UNL A   1      41.443  27.461  26.623  1.00  0.00     0.198 A 
ATOM     65  C   UNL A   1      39.908  25.958  27.692  1.00  0.00     0.198 A 
ATOM     66  F   UNL A   1      39.064  26.458  29.829  1.00  0.00    -0.203 F 
ATOM     67  F   UNL A   1      42.182  27.804  25.557  1.00  0.00    -0.200 F 
ATOM     68  C   UNL A   1      40.697  26.294  26.601  1.00  0.00     0.200 A 
ATOM     69  F   UNL A   1      39.196  24.823  27.679  1.00  0.00    -0.200 F 
ATOM     70  F   UNL A   1      40.729  25.495  25.526  1.00  0.00    -0.200 F 
ENDBRANCH  46  60
BRANCH  47  71
ATOM     71  C   UNL A   1      39.706  33.950  36.820  1.00  0.00     0.064 A 
ATOM     72  C   UNL A   1      38.900  33.533  37.890  1.00  0.00     0.173 A 
ATOM     73  C   UNL A   1      40.352  35.188  36.935  1.00  0.00     0.173 A 
ATOM     74  F   UNL A   1      38.245  32.365  37.818  1.00  0.00    -0.203 F 
ATOM     75  C   UNL A   1      38.728  34.333  39.018  1.00  0.00     0.198 A 
ATOM     76  C   UNL A   1      40.203  35.975  38.076  1.00  0.00     0.198 A 
ATOM     77  F   UNL A   1      41.141  35.630  35.944  1.00  0.00    -0.203 F 
ATOM     78  F   UNL A   1      37.916  33.932  40.004  1.00  0.00    -0.200 F 
ATOM     79  C   UNL A   1      39.384  35.551  39.113  1.00  0.00     0.200 A 
ATOM     80  F   UNL A   1      40.851  37.144  38.170  1.00  0.00    -0.200 F 
ATOM     81  F   UNL A   1      39.223  36.318  40.199  1.00  0.00    -0.200 F 
ENDBRANCH  47  71
BRANCH  59  82
ATOM     82  C   UNL A   1      44.011  28.724  35.147  1.00  0.00     0.064 A 
ATOM     83  C   UNL A   1      45.317  29.209  34.989  1.00  0.00     0.173 A 
ATOM     84  C   UNL A   1      43.803  27.674  36.055  1.00  0.00     0.173 A 
ATOM     85  F   UNL A   1      45.568  30.202  34.122  1.00  0.00    -0.203 F 
ATOM     86  C   UNL A   1      46.375  28.655  35.704  1.00  0.00     0.198 A 
ATOM     87  C   UNL A   1      44.858  27.141  36.788  1.00  0.00     0.198 A 
ATOM     88  F   UNL A   1      42.569  27.181  36.246  1.00  0.00    -0.203 F 
ATOM     89  F   UNL A   1      47.620  29.111  35.515  1.00  0.00    -0.200 F 
ATOM     90  C   UNL A   1      46.143  27.630  36.610  1.00  0.00     0.200 A 
ATOM     91  F   UNL A   1      44.629  26.161  37.674  1.00  0.00    -0.200 F 
ATOM     92  F   UNL A   1      47.160  27.111  37.311  1.00  0.00    -0.200 F 
ENDBRANCH  59  82
ENDBRANCH  33  34
ENDBRANCH  25  28
ENDBRANCH  23  24
ENDBRANCH   1  23
TORSDOF 12
ENDMDL
MODEL 2
REMARK VINA RESULT:     -12.7      0.140      1.977
REMARK SMILES COc1ccc(-c2c(C)n[nH]c2C)c(C(=O)NCCCNC(=O)c2ccc(-c3c4nc(c(-c5c(F)c(F)c(F)c(F)c5F)c5ccc([nH]5)c(-c5c(F)c(F)c(F)c(F)c5F)c5nc(c(-c6c(F)c(F)c(F)c(F)c6F)c6ccc3[nH]6)C=C5)C=C4)cc2)c1
REMARK SMILES IDX 19 1 18 2 17 3 15 4 16 5 14 7 3 8 4 9 87 10 5 11 6 12 2 13
REMARK SMILES IDX 1 14 7 15 8 16 12 17 9 18 10 19 11 20 13 21 20 23 21 24
REMARK SMILES IDX 22 25 23 27 24 28 25 29 86 30 26 31 85 32 27 33 28 34 29 35
REMARK SMILES IDX 79 36 30 37 84 38 78 39 80 40 31 41 83 42 77 43 76 44 32 46
REMARK SMILES IDX 64 47 44 48 63 49 45 50 48 51 62 52 81 53 46 54 47 55 61 57
REMARK SMILES IDX 82 58 49 59 33 60 34 61 42 62 35 63 36 64 40 65 43 66 37 67
REMARK SMILES IDX 38 68 41 69 39 70 65 71 66 72 74 73 67 74 68 75 72 76 75 77
REMARK SMILES IDX 69 78 70 79 73 80 71 81 50 82 51 83 59 84 52 85 53 86 57 87
REMARK SMILES IDX 60 88 54 89 55 90 58 91 56 92
REMARK H PARENT 17 6 11 22 21 26 80 45 48 56
REMARK Flexibility Score: inf
ROOT
ATOM      1  C   UNL A   1      31.592  31.735  26.552  1.00  0.00     0.042 C 
ENDROOT
BRANCH   1   2
ATOM      2  C   UNL A   1      31.780  30.239  26.367  1.00  0.00     0.118 C 
BRANCH   2   3
ATOM      3  N   UNL A   1      32.575  29.866  25.203  1.00  0.00    -0.352 N 
ATOM      4  C   UNL A   1      32.271  29.305  23.978  1.00  0.00     0.252 C 
ATOM      5  O   UNL A   1      33.198  29.207  23.180  1.00  0.00    -0.269 OA
ATOM      6  H   UNL A   1      33.534  30.054  25.314  1.00  0.00     0.163 HD
BRANCH   4   7
ATOM      7  C   UNL A   1      30.899  28.812  23.643  1.00  0.00     0.051 A 
ATOM      8  C   UNL A   1      28.601  29.367  23.034  1.00  0.00     0.119 A 
ATOM      9  C   UNL A   1      28.221  28.051  23.265  1.00  0.00     0.047 A 
ATOM     10  C   UNL A   1      29.944  29.719  23.159  1.00  0.00     0.060 A 
ATOM     11  C   UNL A   1      29.182  27.094  23.592  1.00  0.00     0.013 A 
ATOM     12  C   UNL A   1      30.531  27.457  23.764  1.00  0.00    -0.002 A 
BRANCH   8  13
ATOM     13  O   UNL A   1      27.594  30.221  22.680  1.00  0.00    -0.497 OA
ATOM     14  C   UNL A   1      27.522  31.447  23.405  1.00  0.00     0.278 C 
ENDBRANCH   8  13
BRANCH  12  15
ATOM     15  C   UNL A   1      31.483  26.364  23.856  1.00  0.00     0.026 A 
ATOM     16  C   UNL A   1      32.012  25.767  25.036  1.00  0.00     0.067 A 
ATOM     17  C   UNL A   1      32.118  25.718  22.815  1.00  0.00     0.040 A 
ATOM     18  C   UNL A   1      31.681  26.094  26.446  1.00  0.00     0.069 C 
ATOM     19  N   UNL A   1      32.913  24.820  24.751  1.00  0.00    -0.180 NA
ATOM     20  N   UNL A   1      32.917  24.778  23.411  1.00  0.00    -0.282 N 
ATOM     21  C   UNL A   1      32.044  25.855  21.345  1.00  0.00     0.067 C 
ATOM     22  H   UNL A   1      33.449  24.126  22.898  1.00  0.00     0.190 HD
ENDBRANCH  12  15
ENDBRANCH   4   7
ENDBRANCH   2   3
ENDBRANCH   1   2
BRANCH   1  23
ATOM     23  C   UNL A   1      32.766  32.453  27.195  1.00  0.00     0.118 C 
BRANCH  23  24
ATOM     24  N   UNL A   1      32.471  33.838  27.547  1.00  0.00    -0.352 N 
ATOM     25  C   UNL A   1      33.022  34.667  28.499  1.00  0.00     0.251 C 
ATOM     26  H   UNL A   1      31.756  34.250  27.012  1.00  0.00     0.163 HD
ATOM     27  O   UNL A   1      32.503  35.748  28.740  1.00  0.00    -0.269 OA
BRANCH  25  28
ATOM     28  C   UNL A   1      34.223  34.246  29.255  1.00  0.00     0.039 A 
ATOM     29  C   UNL A   1      34.067  33.514  30.438  1.00  0.00     0.014 A 
ATOM     30  C   UNL A   1      35.500  34.583  28.813  1.00  0.00     0.014 A 
ATOM     31  C   UNL A   1      35.193  33.040  31.118  1.00  0.00     0.010 A 
ATOM     32  C   UNL A   1      36.614  34.025  29.427  1.00  0.00     0.010 A 
ATOM     33  C   UNL A   1      36.476  33.249  30.589  1.00  0.00    -0.014 A 
BRANCH  33  34
ATOM     34  C   UNL A   1      37.706  32.710  31.222  1.00  0.00     0.031 A 
ATOM     35  C   UNL A   1      38.444  31.585  30.549  1.00  0.00     0.074 A 
ATOM     36  C   UNL A   1      38.082  33.130  32.445  1.00  0.00     0.049 A 
ATOM     37  N   UNL A   1      39.378  30.801  31.022  1.00  0.00    -0.248 NA
ATOM     38  C   UNL A   1      38.039  31.272  29.169  1.00  0.00     0.031 C 
ATOM     39  C   UNL A   1      37.436  34.192  33.216  1.00  0.00     0.029 A 
ATOM     40  N   UNL A   1      39.086  32.686  33.271  1.00  0.00    -0.354 N 
ATOM     41  C   UNL A   1      39.635  29.876  30.018  1.00  0.00     0.074 A 
ATOM     42  C   UNL A   1      38.730  30.169  28.928  1.00  0.00     0.031 C 
ATOM     43  C   UNL A   1      38.061  34.323  34.397  1.00  0.00     0.029 A 
ATOM     44  C   UNL A   1      39.117  33.319  34.490  1.00  0.00     0.049 A 
ATOM     45  H   UNL A   1      39.722  31.979  33.015  1.00  0.00     0.167 HD
ATOM     46  C   UNL A   1      40.556  28.884  29.999  1.00  0.00     0.037 A 
ATOM     47  C   UNL A   1      39.893  33.097  35.569  1.00  0.00     0.037 A 
ATOM     48  C   UNL A   1      41.486  28.632  31.067  1.00  0.00     0.049 A 
ATOM     49  C   UNL A   1      40.919  31.995  35.521  1.00  0.00     0.074 A 
ATOM     50  C   UNL A   1      42.498  27.690  31.127  1.00  0.00     0.029 A 
ATOM     51  N   UNL A   1      41.524  29.338  32.261  1.00  0.00    -0.354 N 
ATOM     52  N   UNL A   1      41.179  31.149  34.555  1.00  0.00    -0.248 NA
ATOM     53  C   UNL A   1      41.761  31.819  36.713  1.00  0.00     0.031 C 
ATOM     54  C   UNL A   1      43.125  27.801  32.372  1.00  0.00     0.029 A 
ATOM     55  C   UNL A   1      42.536  28.847  33.067  1.00  0.00     0.049 A 
ATOM     56  H   UNL A   1      40.919  30.077  32.500  1.00  0.00     0.167 HD
ATOM     57  C   UNL A   1      42.237  30.370  35.003  1.00  0.00     0.074 A 
ATOM     58  C   UNL A   1      42.572  30.844  36.330  1.00  0.00     0.031 C 
ATOM     59  C   UNL A   1      42.876  29.356  34.370  1.00  0.00     0.037 A 
BRANCH  46  60
ATOM     60  C   UNL A   1      40.602  27.999  28.788  1.00  0.00     0.064 A 
ATOM     61  C   UNL A   1      39.861  26.809  28.714  1.00  0.00     0.173 A 
ATOM     62  C   UNL A   1      41.377  28.357  27.674  1.00  0.00     0.173 A 
ATOM     63  F   UNL A   1      39.114  26.414  29.756  1.00  0.00    -0.203 F 
ATOM     64  C   UNL A   1      39.925  25.993  27.588  1.00  0.00     0.198 A 
ATOM     65  C   UNL A   1      41.411  27.557  26.535  1.00  0.00     0.198 A 
ATOM     66  F   UNL A   1      42.099  29.487  27.687  1.00  0.00    -0.203 F 
ATOM     67  F   UNL A   1      39.254  24.833  27.565  1.00  0.00    -0.200 F 
ATOM     68  C   UNL A   1      40.692  26.371  26.497  1.00  0.00     0.200 A 
ATOM     69  F   UNL A   1      42.143  27.930  25.477  1.00  0.00    -0.200 F 
ATOM     70  F   UNL A   1      40.747  25.587  25.411  1.00  0.00    -0.200 F 
ENDBRANCH  46  60
BRANCH  47  71
ATOM     71  C   UNL A   1      39.745  33.946  36.780  1.00  0.00     0.064 A 
ATOM     72  C   UNL A   1      40.422  35.171  36.880  1.00  0.00     0.173 A 
ATOM     73  C   UNL A   1      38.935  33.560  37.856  1.00  0.00     0.173 A 
ATOM     74  F   UNL A   1      41.225  35.574  35.885  1.00  0.00    -0.203 F 
ATOM     75  C   UNL A   1      40.309  35.966  38.019  1.00  0.00     0.198 A 
ATOM     76  C   UNL A   1      38.800  34.369  38.983  1.00  0.00     0.198 A 
ATOM     77  F   UNL A   1      38.260  32.401  37.808  1.00  0.00    -0.203 F 
ATOM     78  F   UNL A   1      41.003  37.109  38.106  1.00  0.00    -0.200 F 
ATOM     79  C   UNL A   1      39.494  35.567  39.067  1.00  0.00     0.200 A 
ATOM     80  F   UNL A   1      38.000  33.988  39.987  1.00  0.00    -0.200 F 
ATOM     81  F   UNL A   1      39.383  36.333  40.161  1.00  0.00    -0.200 F 
ENDBRANCH  47  71
BRANCH  59  82
ATOM     82  C   UNL A   1      44.050  28.734  35.066  1.00  0.00     0.064 A 
ATOM     83  C   UNL A   1      43.904  27.642  35.932  1.00  0.00     0.173 A 
ATOM     84  C   UNL A   1      45.349  29.194  34.797  1.00  0.00     0.173 A 
ATOM     85  F   UNL A   1      42.682  27.176  36.230  1.00  0.00    -0.203 F 
ATOM     86  C   UNL A   1      45.017  27.040  36.515  1.00  0.00     0.198 A 
ATOM     87  C   UNL A   1      46.459  28.573  35.359  1.00  0.00     0.198 A 
ATOM     88  F   UNL A   1      45.540  30.232  33.968  1.00  0.00    -0.203 F 
ATOM     89  F   UNL A   1      44.853  26.017  37.365  1.00  0.00    -0.200 F 
ATOM     90  C   UNL A   1      46.292  27.499  36.220  1.00  0.00     0.200 A 
ATOM     91  F   UNL A   1      47.692  29.008  35.061  1.00  0.00    -0.200 F 
ATOM     92  F   UNL A   1      47.362  26.906  36.768  1.00  0.00    -0.200 F 
ENDBRANCH  59  82
ENDBRANCH  33  34
ENDBRANCH  25  28
ENDBRANCH  23  24
ENDBRANCH   1  23
TORSDOF 12
ENDMDL
MODEL 3
REMARK VINA RESULT:     -12.7      6.080     10.989
REMARK SMILES COc1ccc(-c2c(C)n[nH]c2C)c(C(=O)NCCCNC(=O)c2ccc(-c3c4nc(c(-c5c(F)c(F)c(F)c(F)c5F)c5ccc([nH]5)c(-c5c(F)c(F)c(F)c(F)c5F)c5nc(c(-c6c(F)c(F)c(F)c(F)c6F)c6ccc3[nH]6)C=C5)C=C4)cc2)c1
REMARK SMILES IDX 19 1 18 2 17 3 15 4 16 5 14 7 3 8 4 9 87 10 5 11 6 12 2 13
REMARK SMILES IDX 1 14 7 15 8 16 12 17 9 18 10 19 11 20 13 21 20 23 21 24
REMARK SMILES IDX 22 25 23 27 24 28 25 29 86 30 26 31 85 32 27 33 28 34 29 35
REMARK SMILES IDX 79 36 30 37 84 38 78 39 80 40 31 41 83 42 77 43 76 44 32 46
REMARK SMILES IDX 64 47 44 48 63 49 45 50 48 51 62 52 81 53 46 54 47 55 61 57
REMARK SMILES IDX 82 58 49 59 33 60 34 61 42 62 35 63 36 64 40 65 43 66 37 67
REMARK SMILES IDX 38 68 41 69 39 70 65 71 66 72 74 73 67 74 68 75 72 76 75 77
REMARK SMILES IDX 69 78 70 79 73 80 71 81 50 82 51 83 59 84 52 85 53 86 57 87
REMARK SMILES IDX 60 88 54 89 55 90 58 91 56 92
REMARK H PARENT 17 6 11 22 21 26 80 45 48 56
REMARK Flexibility Score: inf
ROOT
ATOM      1  C   UNL A   1      37.752  20.111  25.016  1.00  0.00     0.042 C 
ENDROOT
BRANCH   1   2
ATOM      2  C   UNL A   1      36.749  21.236  24.820  1.00  0.00     0.118 C 
BRANCH   2   3
ATOM      3  N   UNL A   1      35.861  21.462  25.953  1.00  0.00    -0.352 N 
ATOM      4  C   UNL A   1      34.538  21.159  26.205  1.00  0.00     0.252 C 
ATOM      5  O   UNL A   1      34.124  21.425  27.330  1.00  0.00    -0.269 OA
ATOM      6  H   UNL A   1      36.299  21.932  26.699  1.00  0.00     0.163 HD
BRANCH   4   7
ATOM      7  C   UNL A   1      33.641  20.569  25.165  1.00  0.00     0.051 A 
ATOM      8  C   UNL A   1      32.892  18.568  23.983  1.00  0.00     0.119 A 
ATOM      9  C   UNL A   1      32.219  19.362  23.063  1.00  0.00     0.047 A 
ATOM     10  C   UNL A   1      33.537  19.173  25.060  1.00  0.00     0.060 A 
ATOM     11  C   UNL A   1      32.173  20.745  23.237  1.00  0.00     0.013 A 
ATOM     12  C   UNL A   1      32.863  21.361  24.297  1.00  0.00    -0.002 A 
BRANCH   8  13
ATOM     13  O   UNL A   1      32.846  17.221  23.749  1.00  0.00    -0.497 OA
ATOM     14  C   UNL A   1      34.039  16.629  23.240  1.00  0.00     0.278 C 
ENDBRANCH   8  13
BRANCH  12  15
ATOM     15  C   UNL A   1      32.554  22.760  24.537  1.00  0.00     0.026 A 
ATOM     16  C   UNL A   1      33.237  23.902  24.029  1.00  0.00     0.067 A 
ATOM     17  C   UNL A   1      31.568  23.270  25.357  1.00  0.00     0.040 A 
ATOM     18  C   UNL A   1      34.397  23.930  23.103  1.00  0.00     0.069 C 
ATOM     19  N   UNL A   1      32.717  25.041  24.501  1.00  0.00    -0.180 NA
ATOM     20  N   UNL A   1      31.686  24.631  25.253  1.00  0.00    -0.282 N 
ATOM     21  C   UNL A   1      30.523  22.642  26.192  1.00  0.00     0.067 C 
ATOM     22  H   UNL A   1      31.064  25.256  25.694  1.00  0.00     0.190 HD
ENDBRANCH  12  15
ENDBRANCH   4   7
ENDBRANCH   2   3
ENDBRANCH   1   2
BRANCH   1  23
ATOM     23  C   UNL A   1      39.006  20.497  25.780  1.00  0.00     0.118 C 
BRANCH  23  24
ATOM     24  N   UNL A   1      40.009  19.438  25.815  1.00  0.00    -0.352 N 
ATOM     25  C   UNL A   1      41.365  19.483  26.046  1.00  0.00     0.251 C 
ATOM     26  H   UNL A   1      39.655  18.537  25.641  1.00  0.00     0.163 HD
ATOM     27  O   UNL A   1      42.050  18.488  25.857  1.00  0.00    -0.269 OA
BRANCH  25  28
ATOM     28  C   UNL A   1      42.008  20.739  26.496  1.00  0.00     0.039 A 
ATOM     29  C   UNL A   1      42.436  21.670  25.542  1.00  0.00     0.014 A 
ATOM     30  C   UNL A   1      42.204  20.996  27.851  1.00  0.00     0.014 A 
ATOM     31  C   UNL A   1      42.969  22.896  25.954  1.00  0.00     0.010 A 
ATOM     32  C   UNL A   1      42.634  22.251  28.261  1.00  0.00     0.010 A 
ATOM     33  C   UNL A   1      43.025  23.216  27.319  1.00  0.00    -0.014 A 
BRANCH  33  34
ATOM     34  C   UNL A   1      43.512  24.527  27.819  1.00  0.00     0.031 A 
ATOM     35  C   UNL A   1      42.510  25.587  28.188  1.00  0.00     0.074 A 
ATOM     36  C   UNL A   1      44.828  24.811  27.817  1.00  0.00     0.049 A 
ATOM     37  N   UNL A   1      42.691  26.865  28.405  1.00  0.00    -0.248 NA
ATOM     38  C   UNL A   1      41.105  25.157  28.276  1.00  0.00     0.031 C 
ATOM     39  C   UNL A   1      45.898  23.881  27.455  1.00  0.00     0.029 A 
ATOM     40  N   UNL A   1      45.488  25.982  28.098  1.00  0.00    -0.354 N 
ATOM     41  C   UNL A   1      41.423  27.394  28.608  1.00  0.00     0.074 A 
ATOM     42  C   UNL A   1      40.479  26.311  28.445  1.00  0.00     0.031 C 
ATOM     43  C   UNL A   1      47.080  24.513  27.543  1.00  0.00     0.029 A 
ATOM     44  C   UNL A   1      46.848  25.905  27.915  1.00  0.00     0.049 A 
ATOM     45  H   UNL A   1      45.031  26.799  28.403  1.00  0.00     0.167 HD
ATOM     46  C   UNL A   1      41.079  28.666  28.920  1.00  0.00     0.037 A 
ATOM     47  C   UNL A   1      47.796  26.858  28.010  1.00  0.00     0.037 A 
ATOM     48  C   UNL A   1      42.029  29.726  29.131  1.00  0.00     0.049 A 
ATOM     49  C   UNL A   1      47.391  28.263  28.370  1.00  0.00     0.074 A 
ATOM     50  C   UNL A   1      41.792  31.036  29.508  1.00  0.00     0.029 A 
ATOM     51  N   UNL A   1      43.402  29.590  28.994  1.00  0.00    -0.354 N 
ATOM     52  N   UNL A   1      46.194  28.747  28.594  1.00  0.00    -0.248 NA
ATOM     53  C   UNL A   1      48.469  29.254  28.494  1.00  0.00     0.031 C 
ATOM     54  C   UNL A   1      43.019  31.703  29.563  1.00  0.00     0.029 A 
ATOM     55  C   UNL A   1      44.025  30.795  29.271  1.00  0.00     0.049 A 
ATOM     56  H   UNL A   1      43.866  28.761  28.736  1.00  0.00     0.167 HD
ATOM     57  C   UNL A   1      46.376  30.083  28.924  1.00  0.00     0.074 A 
ATOM     58  C   UNL A   1      47.801  30.335  28.871  1.00  0.00     0.031 C 
ATOM     59  C   UNL A   1      45.447  31.016  29.247  1.00  0.00     0.037 A 
BRANCH  46  60
ATOM     60  C   UNL A   1      39.617  28.979  29.053  1.00  0.00     0.064 A 
ATOM     61  C   UNL A   1      38.840  29.359  27.948  1.00  0.00     0.173 A 
ATOM     62  C   UNL A   1      38.977  28.874  30.298  1.00  0.00     0.173 A 
ATOM     63  F   UNL A   1      39.406  29.487  26.738  1.00  0.00    -0.203 F 
ATOM     64  C   UNL A   1      37.488  29.658  28.091  1.00  0.00     0.198 A 
ATOM     65  C   UNL A   1      37.617  29.140  30.431  1.00  0.00     0.198 A 
ATOM     66  F   UNL A   1      39.670  28.508  31.387  1.00  0.00    -0.203 F 
ATOM     67  F   UNL A   1      36.781  30.076  27.031  1.00  0.00    -0.200 F 
ATOM     68  C   UNL A   1      36.876  29.541  29.329  1.00  0.00     0.200 A 
ATOM     69  F   UNL A   1      37.024  29.013  31.626  1.00  0.00    -0.200 F 
ATOM     70  F   UNL A   1      35.573  29.823  29.463  1.00  0.00    -0.200 F 
ENDBRANCH  46  60
BRANCH  47  71
ATOM     71  C   UNL A   1      49.223  26.513  27.780  1.00  0.00     0.064 A 
ATOM     72  C   UNL A   1      50.096  26.325  28.862  1.00  0.00     0.173 A 
ATOM     73  C   UNL A   1      49.746  26.367  26.488  1.00  0.00     0.173 A 
ATOM     74  F   UNL A   1      49.647  26.474  30.116  1.00  0.00    -0.203 F 
ATOM     75  C   UNL A   1      51.441  26.023  28.659  1.00  0.00     0.198 A 
ATOM     76  C   UNL A   1      51.085  26.037  26.286  1.00  0.00     0.198 A 
ATOM     77  F   UNL A   1      48.953  26.529  25.418  1.00  0.00    -0.203 F 
ATOM     78  F   UNL A   1      52.262  25.893  29.710  1.00  0.00    -0.200 F 
ATOM     79  C   UNL A   1      51.934  25.874  27.371  1.00  0.00     0.200 A 
ATOM     80  F   UNL A   1      51.554  25.879  25.041  1.00  0.00    -0.200 F 
ATOM     81  F   UNL A   1      53.226  25.581  27.177  1.00  0.00    -0.200 F 
ENDBRANCH  47  71
BRANCH  59  82
ATOM     82  C   UNL A   1      45.938  32.378  29.640  1.00  0.00     0.064 A 
ATOM     83  C   UNL A   1      46.043  33.423  28.712  1.00  0.00     0.173 A 
ATOM     84  C   UNL A   1      46.233  32.656  30.984  1.00  0.00     0.173 A 
ATOM     85  F   UNL A   1      45.785  33.202  27.414  1.00  0.00    -0.203 F 
ATOM     86  C   UNL A   1      46.438  34.696  29.114  1.00  0.00     0.198 A 
ATOM     87  C   UNL A   1      46.601  33.935  31.386  1.00  0.00     0.198 A 
ATOM     88  F   UNL A   1      46.140  31.689  31.910  1.00  0.00    -0.203 F 
ATOM     89  F   UNL A   1      46.562  35.674  28.207  1.00  0.00    -0.200 F 
ATOM     90  C   UNL A   1      46.706  34.953  30.451  1.00  0.00     0.200 A 
ATOM     91  F   UNL A   1      46.845  34.185  32.681  1.00  0.00    -0.200 F 
ATOM     92  F   UNL A   1      47.069  36.184  30.838  1.00  0.00    -0.200 F 
ENDBRANCH  59  82
ENDBRANCH  33  34
ENDBRANCH  25  28
ENDBRANCH  23  24
ENDBRANCH   1  23
TORSDOF 12
ENDMDL
