MODEL 1
REMARK VINA RESULT:     -12.1      0.000      0.000
REMARK SMILES CCNC(=O)[C@@H](C)Oc1ccc(OC)cc1/C=C/C(=O)NCCCNC(=O)c1ccc(-c2c3nc(c(-c4c(F)c(F)c(F)c(F)c4F)c4ccc([nH]4)c(-c4c(F)c(F)c(F)c(F)c4F)c4nc(c(-c5c(F)c(F)c(F)c(F)c5F)c5ccc2[nH]5)C=C4)C=C3)cc1
REMARK SMILES IDX 19 1 20 2 21 3 18 5 17 6 16 7 9 8 10 9 11 10 15 11 12 12
REMARK SMILES IDX 8 13 6 14 7 15 4 16 3 17 5 19 2 20 1 21 13 22 14 23 22 24
REMARK SMILES IDX 23 25 24 26 25 27 26 28 27 30 28 31 29 32 90 33 30 34 89 35
REMARK SMILES IDX 31 36 32 37 33 38 83 39 34 40 88 41 82 42 84 43 35 44 87 45
REMARK SMILES IDX 81 46 80 47 36 49 68 50 48 51 67 52 49 53 52 54 66 55 85 56
REMARK SMILES IDX 50 57 51 58 65 60 86 61 53 62 37 63 38 64 46 65 39 66 40 67
REMARK SMILES IDX 44 68 47 69 41 70 42 71 45 72 43 73 69 74 70 75 78 76 71 77
REMARK SMILES IDX 72 78 76 79 79 80 73 81 74 82 77 83 75 84 54 85 55 86 63 87
REMARK SMILES IDX 56 88 57 89 61 90 64 91 58 92 59 93 62 94 60 95
REMARK H PARENT 21 4 3 18 25 29 84 48 52 59
REMARK Flexibility Score: inf
ROOT
ATOM      1  C   UNL A   1      34.023  29.039  26.723  1.00  0.00     0.244 C 
ATOM      2  O   UNL A   1      35.235  28.989  26.923  1.00  0.00    -0.270 OA
ATOM      3  N   UNL A   1      33.398  30.244  26.687  1.00  0.00    -0.352 N 
ATOM      4  H   UNL A   1      33.948  31.016  26.955  1.00  0.00     0.163 HD
ENDROOT
BRANCH   1   5
ATOM      5  C   UNL A   1      33.304  27.791  26.383  1.00  0.00     0.072 C 
ATOM      6  C   UNL A   1      33.775  26.690  25.768  1.00  0.00     0.018 C 
BRANCH   6   7
ATOM      7  C   UNL A   1      32.889  25.532  25.517  1.00  0.00     0.020 A 
ATOM      8  C   UNL A   1      32.846  24.853  24.283  1.00  0.00     0.127 A 
ATOM      9  C   UNL A   1      31.965  23.779  24.109  1.00  0.00     0.051 A 
ATOM     10  C   UNL A   1      31.214  23.297  25.184  1.00  0.00     0.050 A 
ATOM     11  C   UNL A   1      32.088  25.057  26.573  1.00  0.00     0.058 A 
ATOM     12  C   UNL A   1      31.309  23.910  26.428  1.00  0.00     0.119 A 
BRANCH   8  13
ATOM     13  O   UNL A   1      33.535  25.318  23.202  1.00  0.00    -0.480 OA
BRANCH  13  14
ATOM     14  C   UNL A   1      32.839  26.100  22.227  1.00  0.00     0.258 C 
ATOM     15  C   UNL A   1      32.641  25.493  20.841  1.00  0.00     0.064 C 
BRANCH  14  16
ATOM     16  C   UNL A   1      33.085  27.623  22.173  1.00  0.00     0.260 C 
ATOM     17  N   UNL A   1      32.104  28.552  22.307  1.00  0.00    -0.353 N 
ATOM     18  H   UNL A   1      32.411  29.482  22.204  1.00  0.00     0.163 HD
ATOM     19  O   UNL A   1      34.232  28.057  22.001  1.00  0.00    -0.271 OA
BRANCH  17  20
ATOM     20  C   UNL A   1      30.687  28.421  22.576  1.00  0.00     0.112 C 
ATOM     21  C   UNL A   1      30.452  27.974  24.005  1.00  0.00     0.027 C 
ENDBRANCH  17  20
ENDBRANCH  14  16
ENDBRANCH  13  14
ENDBRANCH   8  13
BRANCH  12  22
ATOM     22  O   UNL A   1      30.590  23.345  27.446  1.00  0.00    -0.497 OA
ATOM     23  C   UNL A   1      29.431  22.632  27.010  1.00  0.00     0.278 C 
ENDBRANCH  12  22
ENDBRANCH   6   7
ENDBRANCH   1   5
BRANCH   3  24
ATOM     24  C   UNL A   1      32.035  30.551  26.309  1.00  0.00     0.118 C 
BRANCH  24  25
ATOM     25  C   UNL A   1      31.620  31.945  26.738  1.00  0.00     0.042 C 
BRANCH  25  26
ATOM     26  C   UNL A   1      32.776  32.719  27.348  1.00  0.00     0.118 C 
BRANCH  26  27
ATOM     27  N   UNL A   1      32.429  34.100  27.674  1.00  0.00    -0.352 N 
ATOM     28  C   UNL A   1      32.976  34.984  28.582  1.00  0.00     0.251 C 
ATOM     29  H   UNL A   1      31.674  34.464  27.156  1.00  0.00     0.163 HD
ATOM     30  O   UNL A   1      32.458  36.073  28.768  1.00  0.00    -0.269 OA
BRANCH  28  31
ATOM     31  C   UNL A   1      34.168  34.597  29.373  1.00  0.00     0.039 A 
ATOM     32  C   UNL A   1      33.988  34.091  30.664  1.00  0.00     0.014 A 
ATOM     33  C   UNL A   1      35.451  34.701  28.844  1.00  0.00     0.014 A 
ATOM     34  C   UNL A   1      35.084  33.591  31.374  1.00  0.00     0.010 A 
ATOM     35  C   UNL A   1      36.515  34.084  29.491  1.00  0.00     0.010 A 
ATOM     36  C   UNL A   1      36.346  33.523  30.766  1.00  0.00    -0.014 A 
BRANCH  36  37
ATOM     37  C   UNL A   1      37.517  32.890  31.430  1.00  0.00     0.031 A 
ATOM     38  C   UNL A   1      38.219  31.737  30.763  1.00  0.00     0.074 A 
ATOM     39  C   UNL A   1      37.880  33.269  32.673  1.00  0.00     0.049 A 
ATOM     40  N   UNL A   1      39.135  30.931  31.240  1.00  0.00    -0.248 NA
ATOM     41  C   UNL A   1      37.799  31.415  29.388  1.00  0.00     0.031 C 
ATOM     42  C   UNL A   1      37.251  34.336  33.453  1.00  0.00     0.029 A 
ATOM     43  N   UNL A   1      38.858  32.784  33.507  1.00  0.00    -0.354 N 
ATOM     44  C   UNL A   1      39.367  29.992  30.243  1.00  0.00     0.074 A 
ATOM     45  C   UNL A   1      38.454  30.287  29.161  1.00  0.00     0.031 C 
ATOM     46  C   UNL A   1      37.872  34.441  34.639  1.00  0.00     0.029 A 
ATOM     47  C   UNL A   1      38.909  33.417  34.725  1.00  0.00     0.049 A 
ATOM     48  H   UNL A   1      39.464  32.050  33.256  1.00  0.00     0.167 HD
ATOM     49  C   UNL A   1      40.277  28.990  30.216  1.00  0.00     0.037 A 
ATOM     50  C   UNL A   1      39.692  33.189  35.797  1.00  0.00     0.037 A 
ATOM     51  C   UNL A   1      41.219  28.732  31.273  1.00  0.00     0.049 A 
ATOM     52  C   UNL A   1      40.707  32.079  35.739  1.00  0.00     0.074 A 
ATOM     53  C   UNL A   1      42.232  27.790  31.314  1.00  0.00     0.029 A 
ATOM     54  N   UNL A   1      41.268  29.427  32.474  1.00  0.00    -0.354 N 
ATOM     55  N   UNL A   1      40.958  31.235  34.768  1.00  0.00    -0.248 NA
ATOM     56  C   UNL A   1      41.552  31.891  36.927  1.00  0.00     0.031 C 
ATOM     57  C   UNL A   1      42.865  27.885  32.557  1.00  0.00     0.029 A 
ATOM     58  C   UNL A   1      42.283  28.922  33.269  1.00  0.00     0.049 A 
ATOM     59  H   UNL A   1      40.669  30.168  32.722  1.00  0.00     0.167 HD
ATOM     60  C   UNL A   1      42.006  30.441  35.211  1.00  0.00     0.074 A 
ATOM     61  C   UNL A   1      42.353  30.911  36.536  1.00  0.00     0.031 C 
ATOM     62  C   UNL A   1      42.627  29.415  34.578  1.00  0.00     0.037 A 
BRANCH  49  63
ATOM     63  C   UNL A   1      40.306  28.107  29.003  1.00  0.00     0.064 A 
ATOM     64  C   UNL A   1      41.060  28.439  27.866  1.00  0.00     0.173 A 
ATOM     65  C   UNL A   1      39.592  26.899  28.984  1.00  0.00     0.173 A 
ATOM     66  F   UNL A   1      41.752  29.587  27.827  1.00  0.00    -0.203 F 
ATOM     67  C   UNL A   1      41.069  27.615  26.744  1.00  0.00     0.198 A 
ATOM     68  C   UNL A   1      39.632  26.060  27.873  1.00  0.00     0.198 A 
ATOM     69  F   UNL A   1      38.859  26.528  30.044  1.00  0.00    -0.203 F 
ATOM     70  F   UNL A   1      41.749  27.983  25.649  1.00  0.00    -0.200 F 
ATOM     71  C   UNL A   1      40.361  26.423  26.751  1.00  0.00     0.200 A 
ATOM     72  F   UNL A   1      38.959  24.901  27.887  1.00  0.00    -0.200 F 
ATOM     73  F   UNL A   1      40.376  25.627  25.673  1.00  0.00    -0.200 F 
ENDBRANCH  49  63
BRANCH  50  74
ATOM     74  C   UNL A   1      39.568  34.044  37.007  1.00  0.00     0.064 A 
ATOM     75  C   UNL A   1      38.790  33.631  38.098  1.00  0.00     0.173 A 
ATOM     76  C   UNL A   1      40.210  35.286  37.099  1.00  0.00     0.173 A 
ATOM     77  F   UNL A   1      38.137  32.461  38.050  1.00  0.00    -0.203 F 
ATOM     78  C   UNL A   1      38.641  34.438  39.224  1.00  0.00     0.198 A 
ATOM     79  C   UNL A   1      40.086  36.080  38.238  1.00  0.00     0.198 A 
ATOM     80  F   UNL A   1      40.970  35.727  36.085  1.00  0.00    -0.203 F 
ATOM     81  F   UNL A   1      37.851  34.040  40.232  1.00  0.00    -0.200 F 
ATOM     82  C   UNL A   1      39.294  35.660  39.296  1.00  0.00     0.200 A 
ATOM     83  F   UNL A   1      40.729  37.253  38.309  1.00  0.00    -0.200 F 
ATOM     84  F   UNL A   1      39.153  36.434  40.380  1.00  0.00    -0.200 F 
ENDBRANCH  50  74
BRANCH  62  85
ATOM     85  C   UNL A   1      43.777  28.761  35.286  1.00  0.00     0.064 A 
ATOM     86  C   UNL A   1      43.590  27.672  36.148  1.00  0.00     0.173 A 
ATOM     87  C   UNL A   1      45.090  29.199  35.052  1.00  0.00     0.173 A 
ATOM     88  F   UNL A   1      42.354  27.225  36.415  1.00  0.00    -0.203 F 
ATOM     89  C   UNL A   1      44.675  27.059  36.769  1.00  0.00     0.198 A 
ATOM     90  C   UNL A   1      46.174  28.564  35.650  1.00  0.00     0.198 A 
ATOM     91  F   UNL A   1      45.322  30.232  34.228  1.00  0.00    -0.203 F 
ATOM     92  F   UNL A   1      44.472  26.047  37.624  1.00  0.00    -0.200 F 
ATOM     93  C   UNL A   1      45.966  27.499  36.512  1.00  0.00     0.200 A 
ATOM     94  F   UNL A   1      47.421  28.981  35.389  1.00  0.00    -0.200 F 
ATOM     95  F   UNL A   1      47.010  26.899  37.102  1.00  0.00    -0.200 F 
ENDBRANCH  62  85
ENDBRANCH  36  37
ENDBRANCH  28  31
ENDBRANCH  26  27
ENDBRANCH  25  26
ENDBRANCH  24  25
ENDBRANCH   3  24
TORSDOF 16
ENDMDL
MODEL 2
REMARK VINA RESULT:     -11.9      1.199      3.237
REMARK SMILES CCNC(=O)[C@@H](C)Oc1ccc(OC)cc1/C=C/C(=O)NCCCNC(=O)c1ccc(-c2c3nc(c(-c4c(F)c(F)c(F)c(F)c4F)c4ccc([nH]4)c(-c4c(F)c(F)c(F)c(F)c4F)c4nc(c(-c5c(F)c(F)c(F)c(F)c5F)c5ccc2[nH]5)C=C4)C=C3)cc1
REMARK SMILES IDX 19 1 20 2 21 3 18 5 17 6 16 7 9 8 10 9 11 10 15 11 12 12
REMARK SMILES IDX 8 13 6 14 7 15 4 16 3 17 5 19 2 20 1 21 13 22 14 23 22 24
REMARK SMILES IDX 23 25 24 26 25 27 26 28 27 30 28 31 29 32 90 33 30 34 89 35
REMARK SMILES IDX 31 36 32 37 33 38 83 39 34 40 88 41 82 42 84 43 35 44 87 45
REMARK SMILES IDX 81 46 80 47 36 49 68 50 48 51 67 52 49 53 52 54 66 55 85 56
REMARK SMILES IDX 50 57 51 58 65 60 86 61 53 62 37 63 38 64 46 65 39 66 40 67
REMARK SMILES IDX 44 68 47 69 41 70 42 71 45 72 43 73 69 74 70 75 78 76 71 77
REMARK SMILES IDX 72 78 76 79 79 80 73 81 74 82 77 83 75 84 54 85 55 86 63 87
REMARK SMILES IDX 56 88 57 89 61 90 64 91 58 92 59 93 62 94 60 95
REMARK H PARENT 21 4 3 18 25 29 84 48 52 59
REMARK Flexibility Score: inf
ROOT
ATOM      1  C   UNL A   1      34.110  29.162  26.945  1.00  0.00     0.244 C 
ATOM      2  O   UNL A   1      35.267  29.153  27.357  1.00  0.00    -0.270 OA
ATOM      3  N   UNL A   1      33.272  30.165  27.317  1.00  0.00    -0.352 N 
ATOM      4  H   UNL A   1      33.618  30.770  28.013  1.00  0.00     0.163 HD
ENDROOT
BRANCH   1   5
ATOM      5  C   UNL A   1      33.703  28.157  25.938  1.00  0.00     0.072 C 
ATOM      6  C   UNL A   1      33.595  26.822  26.078  1.00  0.00     0.018 C 
BRANCH   6   7
ATOM      7  C   UNL A   1      33.167  25.978  24.941  1.00  0.00     0.020 A 
ATOM      8  C   UNL A   1      32.259  24.910  25.078  1.00  0.00     0.127 A 
ATOM      9  C   UNL A   1      31.916  24.139  23.961  1.00  0.00     0.051 A 
ATOM     10  C   UNL A   1      32.374  24.492  22.689  1.00  0.00     0.050 A 
ATOM     11  C   UNL A   1      33.652  26.286  23.655  1.00  0.00     0.058 A 
ATOM     12  C   UNL A   1      33.207  25.593  22.531  1.00  0.00     0.119 A 
BRANCH   8  13
ATOM     13  O   UNL A   1      31.823  24.513  26.308  1.00  0.00    -0.480 OA
BRANCH  13  14
ATOM     14  C   UNL A   1      31.533  23.129  26.522  1.00  0.00     0.258 C 
ATOM     15  C   UNL A   1      30.096  22.750  26.869  1.00  0.00     0.064 C 
BRANCH  14  16
ATOM     16  C   UNL A   1      32.567  22.252  27.259  1.00  0.00     0.260 C 
ATOM     17  N   UNL A   1      33.341  21.320  26.646  1.00  0.00    -0.353 N 
ATOM     18  H   UNL A   1      33.920  20.810  27.258  1.00  0.00     0.163 HD
ATOM     19  O   UNL A   1      32.728  22.382  28.481  1.00  0.00    -0.271 OA
BRANCH  17  20
ATOM     20  C   UNL A   1      33.469  20.942  25.255  1.00  0.00     0.112 C 
ATOM     21  C   UNL A   1      32.525  19.805  24.920  1.00  0.00     0.027 C 
ENDBRANCH  17  20
ENDBRANCH  14  16
ENDBRANCH  13  14
ENDBRANCH   8  13
BRANCH  12  22
ATOM     22  O   UNL A   1      33.565  25.912  21.249  1.00  0.00    -0.497 OA
ATOM     23  C   UNL A   1      32.576  25.578  20.273  1.00  0.00     0.278 C 
ENDBRANCH  12  22
ENDBRANCH   6   7
ENDBRANCH   1   5
BRANCH   3  24
ATOM     24  C   UNL A   1      31.943  30.466  26.832  1.00  0.00     0.118 C 
BRANCH  24  25
ATOM     25  C   UNL A   1      31.639  31.952  26.874  1.00  0.00     0.042 C 
BRANCH  25  26
ATOM     26  C   UNL A   1      32.827  32.760  27.369  1.00  0.00     0.118 C 
BRANCH  26  27
ATOM     27  N   UNL A   1      32.479  34.139  27.703  1.00  0.00    -0.352 N 
ATOM     28  C   UNL A   1      33.023  35.016  28.619  1.00  0.00     0.251 C 
ATOM     29  H   UNL A   1      31.727  34.506  27.185  1.00  0.00     0.163 HD
ATOM     30  O   UNL A   1      32.505  36.104  28.811  1.00  0.00    -0.269 OA
BRANCH  28  31
ATOM     31  C   UNL A   1      34.212  34.623  29.411  1.00  0.00     0.039 A 
ATOM     32  C   UNL A   1      34.030  34.143  30.713  1.00  0.00     0.014 A 
ATOM     33  C   UNL A   1      35.494  34.696  28.876  1.00  0.00     0.014 A 
ATOM     34  C   UNL A   1      35.121  33.637  31.426  1.00  0.00     0.010 A 
ATOM     35  C   UNL A   1      36.551  34.073  29.528  1.00  0.00     0.010 A 
ATOM     36  C   UNL A   1      36.379  33.537  30.814  1.00  0.00    -0.014 A 
BRANCH  36  37
ATOM     37  C   UNL A   1      37.543  32.896  31.484  1.00  0.00     0.031 A 
ATOM     38  C   UNL A   1      38.231  31.729  30.827  1.00  0.00     0.074 A 
ATOM     39  C   UNL A   1      37.909  33.282  32.723  1.00  0.00     0.049 A 
ATOM     40  N   UNL A   1      39.137  30.917  31.311  1.00  0.00    -0.248 NA
ATOM     41  C   UNL A   1      37.808  31.400  29.455  1.00  0.00     0.031 C 
ATOM     42  C   UNL A   1      37.293  34.363  33.494  1.00  0.00     0.029 A 
ATOM     43  N   UNL A   1      38.882  32.792  33.562  1.00  0.00    -0.354 N 
ATOM     44  C   UNL A   1      39.358  29.967  30.322  1.00  0.00     0.074 A 
ATOM     45  C   UNL A   1      38.449  30.263  29.238  1.00  0.00     0.031 C 
ATOM     46  C   UNL A   1      37.915  34.471  34.679  1.00  0.00     0.029 A 
ATOM     47  C   UNL A   1      38.939  33.436  34.774  1.00  0.00     0.049 A 
ATOM     48  H   UNL A   1      39.479  32.050  33.317  1.00  0.00     0.167 HD
ATOM     49  C   UNL A   1      40.257  28.954  30.305  1.00  0.00     0.037 A 
ATOM     50  C   UNL A   1      39.720  33.207  35.849  1.00  0.00     0.037 A 
ATOM     51  C   UNL A   1      41.196  28.694  31.364  1.00  0.00     0.049 A 
ATOM     52  C   UNL A   1      40.722  32.085  35.801  1.00  0.00     0.074 A 
ATOM     53  C   UNL A   1      42.197  27.740  31.414  1.00  0.00     0.029 A 
ATOM     54  N   UNL A   1      41.252  29.398  32.559  1.00  0.00    -0.354 N 
ATOM     55  N   UNL A   1      40.963  31.230  34.837  1.00  0.00    -0.248 NA
ATOM     56  C   UNL A   1      41.564  31.898  36.991  1.00  0.00     0.031 C 
ATOM     57  C   UNL A   1      42.831  27.839  32.657  1.00  0.00     0.029 A 
ATOM     58  C   UNL A   1      42.261  28.889  33.359  1.00  0.00     0.049 A 
ATOM     59  H   UNL A   1      40.662  30.149  32.801  1.00  0.00     0.167 HD
ATOM     60  C   UNL A   1      42.002  30.428  35.288  1.00  0.00     0.074 A 
ATOM     61  C   UNL A   1      42.354  30.905  36.609  1.00  0.00     0.031 C 
ATOM     62  C   UNL A   1      42.610  29.389  34.664  1.00  0.00     0.037 A 
BRANCH  49  63
ATOM     63  C   UNL A   1      40.276  28.060  29.099  1.00  0.00     0.064 A 
ATOM     64  C   UNL A   1      39.544  26.863  29.056  1.00  0.00     0.173 A 
ATOM     65  C   UNL A   1      41.014  28.417  27.960  1.00  0.00     0.173 A 
ATOM     66  F   UNL A   1      38.831  26.469  30.121  1.00  0.00    -0.203 F 
ATOM     67  C   UNL A   1      39.580  26.039  27.934  1.00  0.00     0.198 A 
ATOM     68  C   UNL A   1      41.018  27.607  26.826  1.00  0.00     0.198 A 
ATOM     69  F   UNL A   1      41.727  29.552  27.942  1.00  0.00    -0.203 F 
ATOM     70  F   UNL A   1      38.920  24.872  27.940  1.00  0.00    -0.200 F 
ATOM     71  C   UNL A   1      40.310  26.415  26.818  1.00  0.00     0.200 A 
ATOM     72  F   UNL A   1      41.713  27.980  25.743  1.00  0.00    -0.200 F 
ATOM     73  F   UNL A   1      40.338  25.625  25.735  1.00  0.00    -0.200 F 
ENDBRANCH  49  63
BRANCH  50  74
ATOM     74  C   UNL A   1      39.605  34.074  37.052  1.00  0.00     0.064 A 
ATOM     75  C   UNL A   1      40.287  35.297  37.121  1.00  0.00     0.173 A 
ATOM     76  C   UNL A   1      38.825  33.701  38.155  1.00  0.00     0.173 A 
ATOM     77  F   UNL A   1      41.064  35.688  36.100  1.00  0.00    -0.203 F 
ATOM     78  C   UNL A   1      40.212  36.102  38.255  1.00  0.00     0.198 A 
ATOM     79  C   UNL A   1      38.725  34.520  39.278  1.00  0.00     0.198 A 
ATOM     80  F   UNL A   1      38.148  32.543  38.139  1.00  0.00    -0.203 F 
ATOM     81  F   UNL A   1      40.914  37.242  38.313  1.00  0.00    -0.200 F 
ATOM     82  C   UNL A   1      39.426  35.716  39.331  1.00  0.00     0.200 A 
ATOM     83  F   UNL A   1      37.954  34.151  40.309  1.00  0.00    -0.200 F 
ATOM     84  F   UNL A   1      39.350  36.492  40.421  1.00  0.00    -0.200 F 
ENDBRANCH  50  74
BRANCH  62  85
ATOM     85  C   UNL A   1      43.753  28.727  35.378  1.00  0.00     0.064 A 
ATOM     86  C   UNL A   1      45.079  29.135  35.185  1.00  0.00     0.173 A 
ATOM     87  C   UNL A   1      43.505  27.706  36.309  1.00  0.00     0.173 A 
ATOM     88  F   UNL A   1      45.368  30.096  34.295  1.00  0.00    -0.203 F 
ATOM     89  C   UNL A   1      46.121  28.529  35.882  1.00  0.00     0.198 A 
ATOM     90  C   UNL A   1      44.545  27.125  37.027  1.00  0.00     0.198 A 
ATOM     91  F   UNL A   1      42.251  27.286  36.536  1.00  0.00    -0.203 F 
ATOM     92  F   UNL A   1      47.387  28.903  35.651  1.00  0.00    -0.200 F 
ATOM     93  C   UNL A   1      45.852  27.532  36.809  1.00  0.00     0.200 A 
ATOM     94  F   UNL A   1      44.282  26.173  37.933  1.00  0.00    -0.200 F 
ATOM     95  F   UNL A   1      46.855  26.959  37.488  1.00  0.00    -0.200 F 
ENDBRANCH  62  85
ENDBRANCH  36  37
ENDBRANCH  28  31
ENDBRANCH  26  27
ENDBRANCH  25  26
ENDBRANCH  24  25
ENDBRANCH   3  24
TORSDOF 16
ENDMDL
MODEL 3
REMARK VINA RESULT:     -11.9      0.593      7.298
REMARK SMILES CCNC(=O)[C@@H](C)Oc1ccc(OC)cc1/C=C/C(=O)NCCCNC(=O)c1ccc(-c2c3nc(c(-c4c(F)c(F)c(F)c(F)c4F)c4ccc([nH]4)c(-c4c(F)c(F)c(F)c(F)c4F)c4nc(c(-c5c(F)c(F)c(F)c(F)c5F)c5ccc2[nH]5)C=C4)C=C3)cc1
REMARK SMILES IDX 19 1 20 2 21 3 18 5 17 6 16 7 9 8 10 9 11 10 15 11 12 12
REMARK SMILES IDX 8 13 6 14 7 15 4 16 3 17 5 19 2 20 1 21 13 22 14 23 22 24
REMARK SMILES IDX 23 25 24 26 25 27 26 28 27 30 28 31 29 32 90 33 30 34 89 35
REMARK SMILES IDX 31 36 32 37 33 38 83 39 34 40 88 41 82 42 84 43 35 44 87 45
REMARK SMILES IDX 81 46 80 47 36 49 68 50 48 51 67 52 49 53 52 54 66 55 85 56
REMARK SMILES IDX 50 57 51 58 65 60 86 61 53 62 37 63 38 64 46 65 39 66 40 67
REMARK SMILES IDX 44 68 47 69 41 70 42 71 45 72 43 73 69 74 70 75 78 76 71 77
REMARK SMILES IDX 72 78 76 79 79 80 73 81 74 82 77 83 75 84 54 85 55 86 63 87
REMARK SMILES IDX 56 88 57 89 61 90 64 91 58 92 59 93 62 94 60 95
REMARK H PARENT 21 4 3 18 25 29 84 48 52 59
REMARK Flexibility Score: inf
ROOT
ATOM      1  C   UNL A   1      33.875  29.211  26.934  1.00  0.00     0.244 C 
ATOM      2  O   UNL A   1      35.093  29.173  27.096  1.00  0.00    -0.270 OA
ATOM      3  N   UNL A   1      33.227  30.403  26.989  1.00  0.00    -0.352 N 
ATOM      4  H   UNL A   1      33.770  31.169  27.287  1.00  0.00     0.163 HD
ENDROOT
BRANCH   1   5
ATOM      5  C   UNL A   1      33.168  27.971  26.540  1.00  0.00     0.072 C 
ATOM      6  C   UNL A   1      33.625  26.941  25.803  1.00  0.00     0.018 C 
BRANCH   6   7
ATOM      7  C   UNL A   1      32.757  25.778  25.517  1.00  0.00     0.020 A 
ATOM      8  C   UNL A   1      32.772  25.095  24.285  1.00  0.00     0.127 A 
ATOM      9  C   UNL A   1      31.905  24.016  24.075  1.00  0.00     0.051 A 
ATOM     10  C   UNL A   1      31.109  23.535  25.117  1.00  0.00     0.050 A 
ATOM     11  C   UNL A   1      31.911  25.304  26.537  1.00  0.00     0.058 A 
ATOM     12  C   UNL A   1      31.145  24.152  26.361  1.00  0.00     0.119 A 
BRANCH   8  13
ATOM     13  O   UNL A   1      33.508  25.560  23.233  1.00  0.00    -0.480 OA
BRANCH  13  14
ATOM     14  C   UNL A   1      32.869  26.396  22.264  1.00  0.00     0.258 C 
ATOM     15  C   UNL A   1      32.580  25.795  20.890  1.00  0.00     0.064 C 
BRANCH  14  16
ATOM     16  C   UNL A   1      33.263  27.885  22.184  1.00  0.00     0.260 C 
ATOM     17  N   UNL A   1      32.472  28.900  22.620  1.00  0.00    -0.353 N 
ATOM     18  H   UNL A   1      32.843  29.799  22.459  1.00  0.00     0.163 HD
ATOM     19  O   UNL A   1      34.357  28.211  21.703  1.00  0.00    -0.271 OA
BRANCH  17  20
ATOM     20  C   UNL A   1      31.183  28.899  23.278  1.00  0.00     0.112 C 
ATOM     21  C   UNL A   1      30.082  29.256  22.300  1.00  0.00     0.027 C 
ENDBRANCH  17  20
ENDBRANCH  14  16
ENDBRANCH  13  14
ENDBRANCH   8  13
BRANCH  12  22
ATOM     22  O   UNL A   1      30.383  23.588  27.348  1.00  0.00    -0.497 OA
ATOM     23  C   UNL A   1      29.536  22.531  26.892  1.00  0.00     0.278 C 
ENDBRANCH  12  22
ENDBRANCH   6   7
ENDBRANCH   1   5
BRANCH   3  24
ATOM     24  C   UNL A   1      31.848  30.704  26.669  1.00  0.00     0.118 C 
BRANCH  24  25
ATOM     25  C   UNL A   1      31.529  32.178  26.835  1.00  0.00     0.042 C 
BRANCH  25  26
ATOM     26  C   UNL A   1      32.775  33.001  27.115  1.00  0.00     0.118 C 
BRANCH  26  27
ATOM     27  N   UNL A   1      32.475  34.327  27.649  1.00  0.00    -0.352 N 
ATOM     28  C   UNL A   1      33.022  35.026  28.706  1.00  0.00     0.251 C 
ATOM     29  H   UNL A   1      31.759  34.806  27.172  1.00  0.00     0.163 HD
ATOM     30  O   UNL A   1      32.544  36.094  29.049  1.00  0.00    -0.269 OA
BRANCH  28  31
ATOM     31  C   UNL A   1      34.163  34.458  29.463  1.00  0.00     0.039 A 
ATOM     32  C   UNL A   1      33.907  33.739  30.635  1.00  0.00     0.014 A 
ATOM     33  C   UNL A   1      35.472  34.604  29.014  1.00  0.00     0.014 A 
ATOM     34  C   UNL A   1      34.952  33.078  31.288  1.00  0.00     0.010 A 
ATOM     35  C   UNL A   1      36.484  33.841  29.583  1.00  0.00     0.010 A 
ATOM     36  C   UNL A   1      36.239  33.070  30.730  1.00  0.00    -0.014 A 
BRANCH  36  37
ATOM     37  C   UNL A   1      37.357  32.284  31.317  1.00  0.00     0.031 A 
ATOM     38  C   UNL A   1      37.885  32.642  32.681  1.00  0.00     0.074 A 
ATOM     39  C   UNL A   1      37.971  31.330  30.588  1.00  0.00     0.049 A 
ATOM     40  N   UNL A   1      38.957  32.213  33.299  1.00  0.00    -0.248 NA
ATOM     41  C   UNL A   1      37.130  33.659  33.434  1.00  0.00     0.031 C 
ATOM     42  C   UNL A   1      37.596  30.921  29.234  1.00  0.00     0.029 A 
ATOM     43  N   UNL A   1      39.059  30.542  30.881  1.00  0.00    -0.354 N 
ATOM     44  C   UNL A   1      39.022  32.933  34.485  1.00  0.00     0.074 A 
ATOM     45  C   UNL A   1      37.921  33.870  34.474  1.00  0.00     0.031 C 
ATOM     46  C   UNL A   1      38.420  29.944  28.823  1.00  0.00     0.029 A 
ATOM     47  C   UNL A   1      39.414  29.693  29.861  1.00  0.00     0.049 A 
ATOM     48  H   UNL A   1      39.539  30.584  31.739  1.00  0.00     0.167 HD
ATOM     49  C   UNL A   1      39.902  32.807  35.506  1.00  0.00     0.037 A 
ATOM     50  C   UNL A   1      40.437  28.819  29.768  1.00  0.00     0.037 A 
ATOM     51  C   UNL A   1      40.965  31.837  35.536  1.00  0.00     0.049 A 
ATOM     52  C   UNL A   1      41.394  28.686  30.921  1.00  0.00     0.074 A 
ATOM     53  C   UNL A   1      41.866  31.576  36.553  1.00  0.00     0.029 A 
ATOM     54  N   UNL A   1      41.264  30.962  34.501  1.00  0.00    -0.354 N 
ATOM     55  N   UNL A   1      41.411  29.331  32.063  1.00  0.00    -0.248 NA
ATOM     56  C   UNL A   1      42.475  27.700  30.774  1.00  0.00     0.031 C 
ATOM     57  C   UNL A   1      42.738  30.574  36.117  1.00  0.00     0.029 A 
ATOM     58  C   UNL A   1      42.347  30.172  34.850  1.00  0.00     0.049 A 
ATOM     59  H   UNL A   1      40.778  30.912  33.645  1.00  0.00     0.167 HD
ATOM     60  C   UNL A   1      42.477  28.808  32.781  1.00  0.00     0.074 A 
ATOM     61  C   UNL A   1      43.078  27.784  31.952  1.00  0.00     0.031 C 
ATOM     62  C   UNL A   1      42.919  29.145  34.018  1.00  0.00     0.037 A 
BRANCH  49  63
ATOM     63  C   UNL A   1      39.746  33.731  36.678  1.00  0.00     0.064 A 
ATOM     64  C   UNL A   1      40.393  34.976  36.729  1.00  0.00     0.173 A 
ATOM     65  C   UNL A   1      38.917  33.381  37.756  1.00  0.00     0.173 A 
ATOM     66  F   UNL A   1      41.206  35.354  35.731  1.00  0.00    -0.203 F 
ATOM     67  C   UNL A   1      40.246  35.817  37.828  1.00  0.00     0.198 A 
ATOM     68  C   UNL A   1      38.745  34.242  38.837  1.00  0.00     0.198 A 
ATOM     69  F   UNL A   1      38.269  32.207  37.758  1.00  0.00    -0.203 F 
ATOM     70  F   UNL A   1      40.922  36.974  37.879  1.00  0.00    -0.200 F 
ATOM     71  C   UNL A   1      39.417  35.453  38.877  1.00  0.00     0.200 A 
ATOM     72  F   UNL A   1      37.931  33.894  39.843  1.00  0.00    -0.200 F 
ATOM     73  F   UNL A   1      39.270  36.268  39.932  1.00  0.00    -0.200 F 
ENDBRANCH  49  63
BRANCH  50  74
ATOM     74  C   UNL A   1      40.593  27.983  28.548  1.00  0.00     0.064 A 
ATOM     75  C   UNL A   1      39.982  26.724  28.459  1.00  0.00     0.173 A 
ATOM     76  C   UNL A   1      41.359  28.413  27.455  1.00  0.00     0.173 A 
ATOM     77  F   UNL A   1      39.258  26.259  29.487  1.00  0.00    -0.203 F 
ATOM     78  C   UNL A   1      40.148  25.920  27.334  1.00  0.00     0.198 A 
ATOM     79  C   UNL A   1      41.500  27.621  26.317  1.00  0.00     0.198 A 
ATOM     80  F   UNL A   1      41.962  29.611  27.486  1.00  0.00    -0.203 F 
ATOM     81  F   UNL A   1      39.591  24.701  27.297  1.00  0.00    -0.200 F 
ATOM     82  C   UNL A   1      40.902  26.370  26.261  1.00  0.00     0.200 A 
ATOM     83  F   UNL A   1      42.218  28.065  25.277  1.00  0.00    -0.200 F 
ATOM     84  F   UNL A   1      41.058  25.598  25.178  1.00  0.00    -0.200 F 
ENDBRANCH  50  74
BRANCH  62  85
ATOM     85  C   UNL A   1      44.078  28.369  34.573  1.00  0.00     0.064 A 
ATOM     86  C   UNL A   1      45.400  28.811  34.426  1.00  0.00     0.173 A 
ATOM     87  C   UNL A   1      43.853  27.194  35.308  1.00  0.00     0.173 A 
ATOM     88  F   UNL A   1      45.668  29.919  33.721  1.00  0.00    -0.203 F 
ATOM     89  C   UNL A   1      46.458  28.092  34.978  1.00  0.00     0.198 A 
ATOM     90  C   UNL A   1      44.910  26.496  35.884  1.00  0.00     0.198 A 
ATOM     91  F   UNL A   1      42.605  26.735  35.483  1.00  0.00    -0.203 F 
ATOM     92  F   UNL A   1      47.718  28.508  34.789  1.00  0.00    -0.200 F 
ATOM     93  C   UNL A   1      46.211  26.941  35.713  1.00  0.00     0.200 A 
ATOM     94  F   UNL A   1      44.668  25.394  36.606  1.00  0.00    -0.200 F 
ATOM     95  F   UNL A   1      47.230  26.259  36.253  1.00  0.00    -0.200 F 
ENDBRANCH  62  85
ENDBRANCH  36  37
ENDBRANCH  28  31
ENDBRANCH  26  27
ENDBRANCH  25  26
ENDBRANCH  24  25
ENDBRANCH   3  24
TORSDOF 16
ENDMDL
