MODEL 1
REMARK VINA RESULT:     -12.6      0.000      0.000
REMARK SMILES C[C@@H]1Oc2c(C(=O)NCCCNC(=O)c3ccc(-c4c5nc(c(-c6c(F)c(F)c(F)c(F)c6F)c6ccc([nH]6)c(-c6c(F)c(F)c(F)c(F)c6F)c6nc(c(-c7c(F)c(F)c(F)c(F)c7F)c7ccc4[nH]7)C=C6)C=C5)cc3)cccc2[C@@H]1C
REMARK SMILES IDX 11 1 10 2 9 3 8 4 6 5 7 6 5 8 1 9 2 10 3 11 82 12 4 13 81 14
REMARK SMILES IDX 83 15 80 16 78 17 79 18 12 19 13 20 14 22 15 23 16 24 77 25
REMARK SMILES IDX 17 26 76 27 18 28 19 29 20 30 70 31 21 32 75 33 69 34 71 35
REMARK SMILES IDX 22 36 74 37 68 38 67 39 23 41 55 42 35 43 54 44 36 45 39 46
REMARK SMILES IDX 53 47 72 48 37 49 38 50 52 52 73 53 40 54 24 55 25 56 33 57
REMARK SMILES IDX 26 58 27 59 31 60 34 61 28 62 29 63 32 64 30 65 56 66 57 67
REMARK SMILES IDX 65 68 58 69 59 70 63 71 66 72 60 73 61 74 64 75 62 76 41 77
REMARK SMILES IDX 42 78 50 79 43 80 44 81 48 82 51 83 45 84 46 85 49 86 47 87
REMARK H PARENT 8 7 12 21 71 40 39 51
REMARK Flexibility Score: inf
ROOT
ATOM      1  C   UNL A   1      32.692  32.834  27.221  1.00  0.00     0.118 C 
ENDROOT
BRANCH   1   2
ATOM      2  C   UNL A   1      31.403  32.139  26.785  1.00  0.00     0.042 C 
BRANCH   2   3
ATOM      3  C   UNL A   1      31.521  30.616  26.788  1.00  0.00     0.118 C 
BRANCH   3   4
ATOM      4  N   UNL A   1      32.460  30.178  25.774  1.00  0.00    -0.352 N 
ATOM      5  C   UNL A   1      32.365  29.385  24.657  1.00  0.00     0.255 C 
ATOM      6  O   UNL A   1      33.430  29.188  24.070  1.00  0.00    -0.269 OA
ATOM      7  H   UNL A   1      33.369  30.528  25.918  1.00  0.00     0.163 HD
BRANCH   5   8
ATOM      8  C   UNL A   1      31.085  28.809  24.137  1.00  0.00     0.082 A 
ATOM      9  C   UNL A   1      28.876  32.703  22.581  1.00  0.00     0.053 C 
ATOM     10  C   UNL A   1      28.747  31.497  23.500  1.00  0.00     0.177 C 
ATOM     11  O   UNL A   1      30.081  31.033  23.820  1.00  0.00    -0.489 OA
ATOM     12  C   UNL A   1      27.914  30.314  22.958  1.00  0.00     0.060 C 
ATOM     13  C   UNL A   1      30.031  29.662  23.802  1.00  0.00     0.136 A 
ATOM     14  C   UNL A   1      28.805  29.184  23.348  1.00  0.00     0.001 A 
ATOM     15  C   UNL A   1      27.653  30.298  21.454  1.00  0.00     0.017 C 
ATOM     16  C   UNL A   1      28.564  27.827  23.228  1.00  0.00     0.008 A 
ATOM     17  C   UNL A   1      30.861  27.441  23.918  1.00  0.00     0.018 A 
ATOM     18  C   UNL A   1      29.608  26.953  23.501  1.00  0.00     0.001 A 
ENDBRANCH   5   8
ENDBRANCH   3   4
ENDBRANCH   2   3
ENDBRANCH   1   2
BRANCH   1  19
ATOM     19  N   UNL A   1      32.454  34.203  27.669  1.00  0.00    -0.352 N 
ATOM     20  C   UNL A   1      33.021  34.917  28.697  1.00  0.00     0.251 C 
ATOM     21  H   UNL A   1      31.777  34.694  27.149  1.00  0.00     0.163 HD
ATOM     22  O   UNL A   1      32.528  35.983  29.041  1.00  0.00    -0.269 OA
BRANCH  20  23
ATOM     23  C   UNL A   1      34.210  34.393  29.406  1.00  0.00     0.039 A 
ATOM     24  C   UNL A   1      35.492  34.580  28.890  1.00  0.00     0.014 A 
ATOM     25  C   UNL A   1      34.036  33.718  30.617  1.00  0.00     0.014 A 
ATOM     26  C   UNL A   1      36.575  33.945  29.486  1.00  0.00     0.010 A 
ATOM     27  C   UNL A   1      35.140  33.158  31.267  1.00  0.00     0.010 A 
ATOM     28  C   UNL A   1      36.413  33.223  30.680  1.00  0.00    -0.014 A 
BRANCH  28  29
ATOM     29  C   UNL A   1      37.585  32.536  31.283  1.00  0.00     0.031 A 
ATOM     30  C   UNL A   1      38.043  32.883  32.674  1.00  0.00     0.074 A 
ATOM     31  C   UNL A   1      38.199  31.554  30.596  1.00  0.00     0.049 A 
ATOM     32  N   UNL A   1      39.031  32.375  33.369  1.00  0.00    -0.248 NA
ATOM     33  C   UNL A   1      37.302  33.941  33.379  1.00  0.00     0.031 C 
ATOM     34  C   UNL A   1      37.835  31.119  29.247  1.00  0.00     0.029 A 
ATOM     35  N   UNL A   1      39.236  30.725  30.944  1.00  0.00    -0.354 N 
ATOM     36  C   UNL A   1      39.035  33.055  34.580  1.00  0.00     0.074 A 
ATOM     37  C   UNL A   1      37.978  34.041  34.514  1.00  0.00     0.031 C 
ATOM     38  C   UNL A   1      38.594  30.069  28.904  1.00  0.00     0.029 A 
ATOM     39  C   UNL A   1      39.545  29.800  29.977  1.00  0.00     0.049 A 
ATOM     40  H   UNL A   1      39.712  30.789  31.803  1.00  0.00     0.167 HD
ATOM     41  C   UNL A   1      39.835  32.861  35.655  1.00  0.00     0.037 A 
ATOM     42  C   UNL A   1      40.497  28.848  29.951  1.00  0.00     0.037 A 
ATOM     43  C   UNL A   1      40.872  31.864  35.723  1.00  0.00     0.049 A 
ATOM     44  C   UNL A   1      41.410  28.694  31.134  1.00  0.00     0.074 A 
ATOM     45  C   UNL A   1      41.725  31.579  36.775  1.00  0.00     0.029 A 
ATOM     46  N   UNL A   1      41.196  30.988  34.698  1.00  0.00    -0.354 N 
ATOM     47  N   UNL A   1      41.397  29.338  32.276  1.00  0.00    -0.248 NA
ATOM     48  C   UNL A   1      42.476  27.689  31.022  1.00  0.00     0.031 C 
ATOM     49  C   UNL A   1      42.598  30.567  36.369  1.00  0.00     0.029 A 
ATOM     50  C   UNL A   1      42.254  30.180  35.083  1.00  0.00     0.049 A 
ATOM     51  H   UNL A   1      40.742  30.947  33.825  1.00  0.00     0.167 HD
ATOM     52  C   UNL A   1      42.439  28.808  33.024  1.00  0.00     0.074 A 
ATOM     53  C   UNL A   1      43.051  27.775  32.215  1.00  0.00     0.031 C 
ATOM     54  C   UNL A   1      42.852  29.152  34.268  1.00  0.00     0.037 A 
BRANCH  41  55
ATOM     55  C   UNL A   1      39.631  33.744  36.853  1.00  0.00     0.064 A 
ATOM     56  C   UNL A   1      40.203  35.023  36.933  1.00  0.00     0.173 A 
ATOM     57  C   UNL A   1      38.794  33.335  37.904  1.00  0.00     0.173 A 
ATOM     58  F   UNL A   1      41.019  35.458  35.961  1.00  0.00    -0.203 F 
ATOM     59  C   UNL A   1      39.959  35.851  38.026  1.00  0.00     0.198 A 
ATOM     60  C   UNL A   1      38.528  34.179  38.980  1.00  0.00     0.198 A 
ATOM     61  F   UNL A   1      38.214  32.126  37.876  1.00  0.00    -0.203 F 
ATOM     62  F   UNL A   1      40.547  37.053  38.097  1.00  0.00    -0.200 F 
ATOM     63  C   UNL A   1      39.114  35.433  39.043  1.00  0.00     0.200 A 
ATOM     64  F   UNL A   1      37.699  33.778  39.955  1.00  0.00    -0.200 F 
ATOM     65  F   UNL A   1      38.868  36.239  40.085  1.00  0.00    -0.200 F 
ENDBRANCH  41  55
BRANCH  42  66
ATOM     66  C   UNL A   1      40.620  27.968  28.760  1.00  0.00     0.064 A 
ATOM     67  C   UNL A   1      39.937  26.746  28.693  1.00  0.00     0.173 A 
ATOM     68  C   UNL A   1      41.391  28.345  27.650  1.00  0.00     0.173 A 
ATOM     69  F   UNL A   1      39.203  26.332  29.737  1.00  0.00    -0.203 F 
ATOM     70  C   UNL A   1      40.023  25.934  27.564  1.00  0.00     0.198 A 
ATOM     71  C   UNL A   1      41.451  27.548  26.509  1.00  0.00     0.198 A 
ATOM     72  F   UNL A   1      42.063  29.506  27.662  1.00  0.00    -0.203 F 
ATOM     73  F   UNL A   1      39.383  24.757  27.538  1.00  0.00    -0.200 F 
ATOM     74  C   UNL A   1      40.770  26.341  26.469  1.00  0.00     0.200 A 
ATOM     75  F   UNL A   1      42.160  27.954  25.447  1.00  0.00    -0.200 F 
ATOM     76  F   UNL A   1      40.837  25.569  25.376  1.00  0.00    -0.200 F 
ENDBRANCH  42  66
BRANCH  54  77
ATOM     77  C   UNL A   1      44.014  28.399  34.847  1.00  0.00     0.064 A 
ATOM     78  C   UNL A   1      45.326  28.884  34.743  1.00  0.00     0.173 A 
ATOM     79  C   UNL A   1      43.805  27.220  35.578  1.00  0.00     0.173 A 
ATOM     80  F   UNL A   1      45.579  30.000  34.043  1.00  0.00    -0.203 F 
ATOM     81  C   UNL A   1      46.387  28.208  35.339  1.00  0.00     0.198 A 
ATOM     82  C   UNL A   1      44.864  26.564  36.199  1.00  0.00     0.198 A 
ATOM     83  F   UNL A   1      42.567  26.719  35.714  1.00  0.00    -0.203 F 
ATOM     84  F   UNL A   1      47.637  28.670  35.198  1.00  0.00    -0.200 F 
ATOM     85  C   UNL A   1      46.154  27.056  36.075  1.00  0.00     0.200 A 
ATOM     86  F   UNL A   1      44.634  25.461  36.924  1.00  0.00    -0.200 F 
ATOM     87  F   UNL A   1      47.174  26.419  36.665  1.00  0.00    -0.200 F 
ENDBRANCH  54  77
ENDBRANCH  28  29
ENDBRANCH  20  23
ENDBRANCH   1  19
TORSDOF 10
ENDMDL
MODEL 2
REMARK VINA RESULT:     -12.6      1.598      2.517
REMARK SMILES C[C@@H]1Oc2c(C(=O)NCCCNC(=O)c3ccc(-c4c5nc(c(-c6c(F)c(F)c(F)c(F)c6F)c6ccc([nH]6)c(-c6c(F)c(F)c(F)c(F)c6F)c6nc(c(-c7c(F)c(F)c(F)c(F)c7F)c7ccc4[nH]7)C=C6)C=C5)cc3)cccc2[C@@H]1C
REMARK SMILES IDX 11 1 10 2 9 3 8 4 6 5 7 6 5 8 1 9 2 10 3 11 82 12 4 13 81 14
REMARK SMILES IDX 83 15 80 16 78 17 79 18 12 19 13 20 14 22 15 23 16 24 77 25
REMARK SMILES IDX 17 26 76 27 18 28 19 29 20 30 70 31 21 32 75 33 69 34 71 35
REMARK SMILES IDX 22 36 74 37 68 38 67 39 23 41 55 42 35 43 54 44 36 45 39 46
REMARK SMILES IDX 53 47 72 48 37 49 38 50 52 52 73 53 40 54 24 55 25 56 33 57
REMARK SMILES IDX 26 58 27 59 31 60 34 61 28 62 29 63 32 64 30 65 56 66 57 67
REMARK SMILES IDX 65 68 58 69 59 70 63 71 66 72 60 73 61 74 64 75 62 76 41 77
REMARK SMILES IDX 42 78 50 79 43 80 44 81 48 82 51 83 45 84 46 85 49 86 47 87
REMARK H PARENT 8 7 12 21 71 40 39 51
REMARK Flexibility Score: inf
ROOT
ATOM      1  C   UNL A   1      32.608  32.731  27.249  1.00  0.00     0.118 C 
ENDROOT
BRANCH   1   2
ATOM      2  C   UNL A   1      31.403  32.164  26.501  1.00  0.00     0.042 C 
BRANCH   2   3
ATOM      3  C   UNL A   1      31.596  30.707  26.084  1.00  0.00     0.118 C 
BRANCH   3   4
ATOM      4  N   UNL A   1      32.868  30.206  26.565  1.00  0.00    -0.352 N 
ATOM      5  C   UNL A   1      33.739  29.232  26.141  1.00  0.00     0.255 C 
ATOM      6  O   UNL A   1      34.711  29.052  26.876  1.00  0.00    -0.269 OA
ATOM      7  H   UNL A   1      33.178  30.667  27.378  1.00  0.00     0.163 HD
BRANCH   5   8
ATOM      8  C   UNL A   1      33.577  28.448  24.877  1.00  0.00     0.082 A 
ATOM      9  C   UNL A   1      31.609  24.454  26.501  1.00  0.00     0.053 C 
ATOM     10  C   UNL A   1      32.776  25.017  25.701  1.00  0.00     0.177 C 
ATOM     11  O   UNL A   1      32.961  26.399  26.091  1.00  0.00    -0.489 OA
ATOM     12  C   UNL A   1      32.649  24.936  24.164  1.00  0.00     0.060 C 
ATOM     13  C   UNL A   1      33.247  27.093  24.943  1.00  0.00     0.136 A 
ATOM     14  C   UNL A   1      33.119  26.303  23.804  1.00  0.00     0.001 A 
ATOM     15  C   UNL A   1      31.249  24.685  23.608  1.00  0.00     0.017 C 
ATOM     16  C   UNL A   1      33.337  26.826  22.541  1.00  0.00     0.008 A 
ATOM     17  C   UNL A   1      33.700  28.988  23.587  1.00  0.00     0.018 A 
ATOM     18  C   UNL A   1      33.613  28.183  22.436  1.00  0.00     0.001 A 
ENDBRANCH   5   8
ENDBRANCH   3   4
ENDBRANCH   2   3
ENDBRANCH   1   2
BRANCH   1  19
ATOM     19  N   UNL A   1      32.410  34.125  27.636  1.00  0.00    -0.352 N 
ATOM     20  C   UNL A   1      33.012  34.873  28.619  1.00  0.00     0.251 C 
ATOM     21  H   UNL A   1      31.735  34.607  27.106  1.00  0.00     0.163 HD
ATOM     22  O   UNL A   1      32.550  35.965  28.921  1.00  0.00    -0.269 OA
BRANCH  20  23
ATOM     23  C   UNL A   1      34.202  34.355  29.330  1.00  0.00     0.039 A 
ATOM     24  C   UNL A   1      35.485  34.554  28.821  1.00  0.00     0.014 A 
ATOM     25  C   UNL A   1      34.029  33.673  30.538  1.00  0.00     0.014 A 
ATOM     26  C   UNL A   1      36.570  33.923  29.419  1.00  0.00     0.010 A 
ATOM     27  C   UNL A   1      35.134  33.119  31.191  1.00  0.00     0.010 A 
ATOM     28  C   UNL A   1      36.408  33.196  30.609  1.00  0.00    -0.014 A 
BRANCH  28  29
ATOM     29  C   UNL A   1      37.583  32.515  31.214  1.00  0.00     0.031 A 
ATOM     30  C   UNL A   1      38.042  32.871  32.602  1.00  0.00     0.074 A 
ATOM     31  C   UNL A   1      38.199  31.531  30.531  1.00  0.00     0.049 A 
ATOM     32  N   UNL A   1      39.033  32.369  33.298  1.00  0.00    -0.248 NA
ATOM     33  C   UNL A   1      37.299  33.930  33.303  1.00  0.00     0.031 C 
ATOM     34  C   UNL A   1      37.834  31.087  29.185  1.00  0.00     0.029 A 
ATOM     35  N   UNL A   1      39.238  30.707  30.882  1.00  0.00    -0.354 N 
ATOM     36  C   UNL A   1      39.037  33.055  34.506  1.00  0.00     0.074 A 
ATOM     37  C   UNL A   1      37.977  34.038  34.436  1.00  0.00     0.031 C 
ATOM     38  C   UNL A   1      38.595  30.038  28.846  1.00  0.00     0.029 A 
ATOM     39  C   UNL A   1      39.549  29.777  29.920  1.00  0.00     0.049 A 
ATOM     40  H   UNL A   1      39.715  30.776  31.740  1.00  0.00     0.167 HD
ATOM     41  C   UNL A   1      39.839  32.870  35.581  1.00  0.00     0.037 A 
ATOM     42  C   UNL A   1      40.503  28.827  29.897  1.00  0.00     0.037 A 
ATOM     43  C   UNL A   1      40.879  31.875  35.653  1.00  0.00     0.049 A 
ATOM     44  C   UNL A   1      41.418  28.682  31.080  1.00  0.00     0.074 A 
ATOM     45  C   UNL A   1      41.733  31.598  36.705  1.00  0.00     0.029 A 
ATOM     46  N   UNL A   1      41.203  30.995  34.631  1.00  0.00    -0.354 N 
ATOM     47  N   UNL A   1      41.405  29.332  32.218  1.00  0.00    -0.248 NA
ATOM     48  C   UNL A   1      42.487  27.680  30.972  1.00  0.00     0.031 C 
ATOM     49  C   UNL A   1      42.609  30.586  36.303  1.00  0.00     0.029 A 
ATOM     50  C   UNL A   1      42.264  30.192  35.020  1.00  0.00     0.049 A 
ATOM     51  H   UNL A   1      40.748  30.948  33.760  1.00  0.00     0.167 HD
ATOM     52  C   UNL A   1      42.449  28.809  32.967  1.00  0.00     0.074 A 
ATOM     53  C   UNL A   1      43.062  27.773  32.164  1.00  0.00     0.031 C 
ATOM     54  C   UNL A   1      42.864  29.161  34.209  1.00  0.00     0.037 A 
BRANCH  41  55
ATOM     55  C   UNL A   1      39.634  33.758  36.774  1.00  0.00     0.064 A 
ATOM     56  C   UNL A   1      40.207  35.037  36.848  1.00  0.00     0.173 A 
ATOM     57  C   UNL A   1      38.795  33.355  37.826  1.00  0.00     0.173 A 
ATOM     58  F   UNL A   1      41.026  35.466  35.876  1.00  0.00    -0.203 F 
ATOM     59  C   UNL A   1      39.963  35.871  37.938  1.00  0.00     0.198 A 
ATOM     60  C   UNL A   1      38.529  34.204  38.898  1.00  0.00     0.198 A 
ATOM     61  F   UNL A   1      38.214  32.147  37.803  1.00  0.00    -0.203 F 
ATOM     62  F   UNL A   1      40.553  37.072  38.004  1.00  0.00    -0.200 F 
ATOM     63  C   UNL A   1      39.117  35.458  38.955  1.00  0.00     0.200 A 
ATOM     64  F   UNL A   1      37.698  33.809  39.873  1.00  0.00    -0.200 F 
ATOM     65  F   UNL A   1      38.870  36.269  39.994  1.00  0.00    -0.200 F 
ENDBRANCH  41  55
BRANCH  42  66
ATOM     66  C   UNL A   1      40.626  27.941  28.711  1.00  0.00     0.064 A 
ATOM     67  C   UNL A   1      39.936  26.723  28.646  1.00  0.00     0.173 A 
ATOM     68  C   UNL A   1      41.405  28.309  27.603  1.00  0.00     0.173 A 
ATOM     69  F   UNL A   1      39.195  26.319  29.688  1.00  0.00    -0.203 F 
ATOM     70  C   UNL A   1      40.023  25.906  27.521  1.00  0.00     0.198 A 
ATOM     71  C   UNL A   1      41.466  27.506  26.466  1.00  0.00     0.198 A 
ATOM     72  F   UNL A   1      42.084  29.465  27.613  1.00  0.00    -0.203 F 
ATOM     73  F   UNL A   1      39.376  24.733  27.497  1.00  0.00    -0.200 F 
ATOM     74  C   UNL A   1      40.778  26.303  26.428  1.00  0.00     0.200 A 
ATOM     75  F   UNL A   1      42.182  27.903  25.406  1.00  0.00    -0.200 F 
ATOM     76  F   UNL A   1      40.845  25.525  25.339  1.00  0.00    -0.200 F 
ENDBRANCH  42  66
BRANCH  54  77
ATOM     77  C   UNL A   1      44.028  28.413  34.790  1.00  0.00     0.064 A 
ATOM     78  C   UNL A   1      43.851  27.205  35.480  1.00  0.00     0.173 A 
ATOM     79  C   UNL A   1      45.339  28.871  34.589  1.00  0.00     0.173 A 
ATOM     80  F   UNL A   1      42.618  26.733  35.709  1.00  0.00    -0.203 F 
ATOM     81  C   UNL A   1      44.946  26.488  35.958  1.00  0.00     0.198 A 
ATOM     82  C   UNL A   1      46.432  28.137  35.042  1.00  0.00     0.198 A 
ATOM     83  F   UNL A   1      45.561  30.018  33.929  1.00  0.00    -0.203 F 
ATOM     84  F   UNL A   1      44.753  25.354  36.645  1.00  0.00    -0.200 F 
ATOM     85  C   UNL A   1      46.234  26.949  35.730  1.00  0.00     0.200 A 
ATOM     86  F   UNL A   1      47.675  28.574  34.804  1.00  0.00    -0.200 F 
ATOM     87  F   UNL A   1      47.286  26.248  36.173  1.00  0.00    -0.200 F 
ENDBRANCH  54  77
ENDBRANCH  28  29
ENDBRANCH  20  23
ENDBRANCH   1  19
TORSDOF 10
ENDMDL
MODEL 3
REMARK VINA RESULT:     -12.6      1.598      2.236
REMARK SMILES C[C@@H]1Oc2c(C(=O)NCCCNC(=O)c3ccc(-c4c5nc(c(-c6c(F)c(F)c(F)c(F)c6F)c6ccc([nH]6)c(-c6c(F)c(F)c(F)c(F)c6F)c6nc(c(-c7c(F)c(F)c(F)c(F)c7F)c7ccc4[nH]7)C=C6)C=C5)cc3)cccc2[C@@H]1C
REMARK SMILES IDX 11 1 10 2 9 3 8 4 6 5 7 6 5 8 1 9 2 10 3 11 82 12 4 13 81 14
REMARK SMILES IDX 83 15 80 16 78 17 79 18 12 19 13 20 14 22 15 23 16 24 77 25
REMARK SMILES IDX 17 26 76 27 18 28 19 29 20 30 70 31 21 32 75 33 69 34 71 35
REMARK SMILES IDX 22 36 74 37 68 38 67 39 23 41 55 42 35 43 54 44 36 45 39 46
REMARK SMILES IDX 53 47 72 48 37 49 38 50 52 52 73 53 40 54 24 55 25 56 33 57
REMARK SMILES IDX 26 58 27 59 31 60 34 61 28 62 29 63 32 64 30 65 56 66 57 67
REMARK SMILES IDX 65 68 58 69 59 70 63 71 66 72 60 73 61 74 64 75 62 76 41 77
REMARK SMILES IDX 42 78 50 79 43 80 44 81 48 82 51 83 45 84 46 85 49 86 47 87
REMARK H PARENT 8 7 12 21 71 40 39 51
REMARK Flexibility Score: inf
ROOT
ATOM      1  C   UNL A   1      32.606  32.694  27.252  1.00  0.00     0.118 C 
ENDROOT
BRANCH   1   2
ATOM      2  C   UNL A   1      31.402  32.130  26.500  1.00  0.00     0.042 C 
BRANCH   2   3
ATOM      3  C   UNL A   1      31.592  30.672  26.087  1.00  0.00     0.118 C 
BRANCH   3   4
ATOM      4  N   UNL A   1      32.864  30.169  26.567  1.00  0.00    -0.352 N 
ATOM      5  C   UNL A   1      33.734  29.196  26.142  1.00  0.00     0.255 C 
ATOM      6  O   UNL A   1      34.706  29.015  26.876  1.00  0.00    -0.269 OA
ATOM      7  H   UNL A   1      33.175  30.630  27.380  1.00  0.00     0.163 HD
BRANCH   5   8
ATOM      8  C   UNL A   1      33.572  28.413  24.877  1.00  0.00     0.082 A 
ATOM      9  C   UNL A   1      31.626  24.408  26.502  1.00  0.00     0.053 C 
ATOM     10  C   UNL A   1      32.788  24.977  25.699  1.00  0.00     0.177 C 
ATOM     11  O   UNL A   1      32.968  26.360  26.090  1.00  0.00    -0.489 OA
ATOM     12  C   UNL A   1      32.656  24.898  24.162  1.00  0.00     0.060 C 
ATOM     13  C   UNL A   1      33.248  27.056  24.942  1.00  0.00     0.136 A 
ATOM     14  C   UNL A   1      33.119  26.268  23.802  1.00  0.00     0.001 A 
ATOM     15  C   UNL A   1      31.255  24.642  23.611  1.00  0.00     0.017 C 
ATOM     16  C   UNL A   1      33.330  26.793  22.539  1.00  0.00     0.008 A 
ATOM     17  C   UNL A   1      33.688  28.955  23.587  1.00  0.00     0.018 A 
ATOM     18  C   UNL A   1      33.601  28.151  22.435  1.00  0.00     0.001 A 
ENDBRANCH   5   8
ENDBRANCH   3   4
ENDBRANCH   2   3
ENDBRANCH   1   2
BRANCH   1  19
ATOM     19  N   UNL A   1      32.415  34.092  27.626  1.00  0.00    -0.352 N 
ATOM     20  C   UNL A   1      33.020  34.846  28.603  1.00  0.00     0.251 C 
ATOM     21  H   UNL A   1      31.742  34.573  27.092  1.00  0.00     0.163 HD
ATOM     22  O   UNL A   1      32.564  35.943  28.896  1.00  0.00    -0.269 OA
BRANCH  20  23
ATOM     23  C   UNL A   1      34.208  34.328  29.319  1.00  0.00     0.039 A 
ATOM     24  C   UNL A   1      35.494  34.542  28.825  1.00  0.00     0.014 A 
ATOM     25  C   UNL A   1      34.028  33.630  30.517  1.00  0.00     0.014 A 
ATOM     26  C   UNL A   1      36.578  33.913  29.425  1.00  0.00     0.010 A 
ATOM     27  C   UNL A   1      35.131  33.076  31.173  1.00  0.00     0.010 A 
ATOM     28  C   UNL A   1      36.411  33.169  30.604  1.00  0.00    -0.014 A 
BRANCH  28  29
ATOM     29  C   UNL A   1      37.585  32.490  31.212  1.00  0.00     0.031 A 
ATOM     30  C   UNL A   1      38.044  32.850  32.600  1.00  0.00     0.074 A 
ATOM     31  C   UNL A   1      38.200  31.503  30.533  1.00  0.00     0.049 A 
ATOM     32  N   UNL A   1      39.033  32.349  33.298  1.00  0.00    -0.248 NA
ATOM     33  C   UNL A   1      37.301  33.912  33.296  1.00  0.00     0.031 C 
ATOM     34  C   UNL A   1      37.836  31.056  29.187  1.00  0.00     0.029 A 
ATOM     35  N   UNL A   1      39.239  30.680  30.886  1.00  0.00    -0.354 N 
ATOM     36  C   UNL A   1      39.037  33.040  34.503  1.00  0.00     0.074 A 
ATOM     37  C   UNL A   1      37.978  34.023  34.429  1.00  0.00     0.031 C 
ATOM     38  C   UNL A   1      38.596  30.005  28.853  1.00  0.00     0.029 A 
ATOM     39  C   UNL A   1      39.549  29.747  29.927  1.00  0.00     0.049 A 
ATOM     40  H   UNL A   1      39.716  30.751  31.745  1.00  0.00     0.167 HD
ATOM     41  C   UNL A   1      39.839  32.857  35.579  1.00  0.00     0.037 A 
ATOM     42  C   UNL A   1      40.503  28.796  29.908  1.00  0.00     0.037 A 
ATOM     43  C   UNL A   1      40.878  31.862  35.654  1.00  0.00     0.049 A 
ATOM     44  C   UNL A   1      41.418  28.654  31.092  1.00  0.00     0.074 A 
ATOM     45  C   UNL A   1      41.732  31.587  36.708  1.00  0.00     0.029 A 
ATOM     46  N   UNL A   1      41.203  30.978  34.636  1.00  0.00    -0.354 N 
ATOM     47  N   UNL A   1      41.404  29.308  32.228  1.00  0.00    -0.248 NA
ATOM     48  C   UNL A   1      42.486  27.651  30.987  1.00  0.00     0.031 C 
ATOM     49  C   UNL A   1      42.608  30.574  36.310  1.00  0.00     0.029 A 
ATOM     50  C   UNL A   1      42.263  30.176  35.027  1.00  0.00     0.049 A 
ATOM     51  H   UNL A   1      40.748  30.929  33.764  1.00  0.00     0.167 HD
ATOM     52  C   UNL A   1      42.448  28.786  32.979  1.00  0.00     0.074 A 
ATOM     53  C   UNL A   1      43.061  27.747  32.179  1.00  0.00     0.031 C 
ATOM     54  C   UNL A   1      42.862  29.142  34.221  1.00  0.00     0.037 A 
BRANCH  41  55
ATOM     55  C   UNL A   1      39.634  33.750  36.770  1.00  0.00     0.064 A 
ATOM     56  C   UNL A   1      40.207  35.028  36.839  1.00  0.00     0.173 A 
ATOM     57  C   UNL A   1      38.795  33.350  37.822  1.00  0.00     0.173 A 
ATOM     58  F   UNL A   1      41.025  35.454  35.866  1.00  0.00    -0.203 F 
ATOM     59  C   UNL A   1      39.963  35.866  37.926  1.00  0.00     0.198 A 
ATOM     60  C   UNL A   1      38.529  34.202  38.892  1.00  0.00     0.198 A 
ATOM     61  F   UNL A   1      38.215  32.141  37.804  1.00  0.00    -0.203 F 
ATOM     62  F   UNL A   1      40.552  37.067  37.988  1.00  0.00    -0.200 F 
ATOM     63  C   UNL A   1      39.117  35.457  38.945  1.00  0.00     0.200 A 
ATOM     64  F   UNL A   1      37.699  33.810  39.869  1.00  0.00    -0.200 F 
ATOM     65  F   UNL A   1      38.870  36.270  39.981  1.00  0.00    -0.200 F 
ENDBRANCH  41  55
BRANCH  42  66
ATOM     66  C   UNL A   1      40.626  27.906  28.725  1.00  0.00     0.064 A 
ATOM     67  C   UNL A   1      39.932  26.691  28.661  1.00  0.00     0.173 A 
ATOM     68  C   UNL A   1      41.411  28.268  27.618  1.00  0.00     0.173 A 
ATOM     69  F   UNL A   1      39.185  26.292  29.702  1.00  0.00    -0.203 F 
ATOM     70  C   UNL A   1      40.018  25.870  27.539  1.00  0.00     0.198 A 
ATOM     71  C   UNL A   1      41.472  27.461  26.484  1.00  0.00     0.198 A 
ATOM     72  F   UNL A   1      42.094  29.421  27.628  1.00  0.00    -0.203 F 
ATOM     73  F   UNL A   1      39.367  24.700  27.516  1.00  0.00    -0.200 F 
ATOM     74  C   UNL A   1      40.778  26.261  26.447  1.00  0.00     0.200 A 
ATOM     75  F   UNL A   1      42.193  27.852  25.425  1.00  0.00    -0.200 F 
ATOM     76  F   UNL A   1      40.846  25.480  25.360  1.00  0.00    -0.200 F 
ENDBRANCH  42  66
BRANCH  54  77
ATOM     77  C   UNL A   1      44.026  28.396  34.804  1.00  0.00     0.064 A 
ATOM     78  C   UNL A   1      45.337  28.882  34.694  1.00  0.00     0.173 A 
ATOM     79  C   UNL A   1      43.819  27.223  35.546  1.00  0.00     0.173 A 
ATOM     80  F   UNL A   1      45.587  29.992  33.985  1.00  0.00    -0.203 F 
ATOM     81  C   UNL A   1      46.400  28.214  35.296  1.00  0.00     0.198 A 
ATOM     82  C   UNL A   1      44.880  26.574  36.171  1.00  0.00     0.198 A 
ATOM     83  F   UNL A   1      42.583  26.721  35.688  1.00  0.00    -0.203 F 
ATOM     84  F   UNL A   1      47.649  28.677  35.149  1.00  0.00    -0.200 F 
ATOM     85  C   UNL A   1      46.170  27.068  36.041  1.00  0.00     0.200 A 
ATOM     86  F   UNL A   1      44.654  25.478  36.907  1.00  0.00    -0.200 F 
ATOM     87  F   UNL A   1      47.192  26.437  36.636  1.00  0.00    -0.200 F 
ENDBRANCH  54  77
ENDBRANCH  28  29
ENDBRANCH  20  23
ENDBRANCH   1  19
TORSDOF 10
ENDMDL
