MODEL 1
REMARK VINA RESULT:     -12.6      0.000      0.000
REMARK SMILES C[C@@H]1CN(C(=O)NC[C@@H]2CCC[C@@H]2C(=O)NCCCNC(=O)c2ccc(-c3c4nc(c(-c5c(F)c(F)c(F)c(F)c5F)c5ccc([nH]5)c(-c5c(F)c(F)c(F)c(F)c5F)c5nc(c(-c6c(F)c(F)c(F)c(F)c6F)c6ccc3[nH]6)C=C5)C=C4)cc2)C[C@@H]1C
REMARK SMILES IDX 17 1 16 2 14 3 15 4 13 6 9 7 10 8 11 9 12 10 8 11 7 12 5 13
REMARK SMILES IDX 6 14 4 16 1 17 2 18 3 19 87 20 86 21 88 22 18 23 19 24 20 25
REMARK SMILES IDX 21 26 22 28 23 29 24 30 85 31 25 32 84 33 26 34 27 35 28 36
REMARK SMILES IDX 78 37 29 38 83 39 77 40 79 41 30 42 82 43 76 44 75 45 31 47
REMARK SMILES IDX 63 48 43 49 62 50 44 51 47 52 61 53 80 54 45 55 46 56 60 58
REMARK SMILES IDX 81 59 48 60 32 61 33 62 41 63 34 64 35 65 39 66 42 67 36 68
REMARK SMILES IDX 37 69 40 70 38 71 64 72 65 73 73 74 66 75 67 76 71 77 74 78
REMARK SMILES IDX 68 79 69 80 72 81 70 82 49 83 50 84 58 85 51 86 52 87 56 88
REMARK SMILES IDX 59 89 53 90 54 91 57 92 55 93
REMARK H PARENT 16 5 7 15 20 27 79 46 47 57
REMARK Flexibility Score: inf
ROOT
ATOM      1  C   UNL A   1      36.421  20.731  24.991  1.00  0.00     0.117 C 
ENDROOT
BRANCH   1   2
ATOM      2  N   UNL A   1      35.246  19.969  25.332  1.00  0.00    -0.356 N 
ATOM      3  C   UNL A   1      33.918  20.114  25.029  1.00  0.00     0.223 C 
ATOM      4  O   UNL A   1      33.342  19.356  24.255  1.00  0.00    -0.275 OA
ATOM      5  H   UNL A   1      35.436  19.185  25.897  1.00  0.00     0.163 HD
BRANCH   3   6
ATOM      6  C   UNL A   1      33.181  21.086  25.924  1.00  0.00     0.083 C 
ATOM      7  C   UNL A   1      32.798  22.432  25.245  1.00  0.00     0.021 C 
ATOM      8  C   UNL A   1      33.091  23.501  26.305  1.00  0.00     0.006 C 
ATOM      9  C   UNL A   1      34.222  22.948  27.146  1.00  0.00     0.001 C 
ATOM     10  C   UNL A   1      33.953  21.452  27.214  1.00  0.00     0.014 C 
BRANCH   7  11
ATOM     11  C   UNL A   1      33.370  22.804  23.831  1.00  0.00     0.122 C 
BRANCH  11  12
ATOM     12  N   UNL A   1      32.507  23.639  22.953  1.00  0.00    -0.338 N 
ATOM     13  C   UNL A   1      32.750  24.953  22.619  1.00  0.00     0.317 C 
ATOM     14  O   UNL A   1      33.732  25.205  21.923  1.00  0.00    -0.249 OA
ATOM     15  H   UNL A   1      31.699  23.218  22.580  1.00  0.00     0.165 HD
BRANCH  13  16
ATOM     16  N   UNL A   1      31.818  25.929  22.961  1.00  0.00    -0.324 N 
ATOM     17  C   UNL A   1      29.618  28.948  22.721  1.00  0.00     0.010 C 
ATOM     18  C   UNL A   1      30.607  27.990  23.400  1.00  0.00     0.010 C 
ATOM     19  C   UNL A   1      31.449  27.226  22.383  1.00  0.00     0.125 C 
ATOM     20  C   UNL A   1      30.014  26.879  24.276  1.00  0.00     0.010 C 
ATOM     21  C   UNL A   1      31.036  25.730  24.170  1.00  0.00     0.125 C 
ATOM     22  C   UNL A   1      28.603  26.446  23.900  1.00  0.00     0.010 C 
ENDBRANCH  13  16
ENDBRANCH  11  12
ENDBRANCH   7  11
ENDBRANCH   3   6
ENDBRANCH   1   2
BRANCH   1  23
ATOM     23  C   UNL A   1      37.744  19.916  24.903  1.00  0.00     0.042 C 
BRANCH  23  24
ATOM     24  C   UNL A   1      38.996  20.256  25.756  1.00  0.00     0.118 C 
BRANCH  24  25
ATOM     25  N   UNL A   1      40.047  19.254  25.742  1.00  0.00    -0.352 N 
ATOM     26  C   UNL A   1      41.392  19.354  26.049  1.00  0.00     0.251 C 
ATOM     27  H   UNL A   1      39.754  18.355  25.467  1.00  0.00     0.163 HD
ATOM     28  O   UNL A   1      42.110  18.378  25.868  1.00  0.00    -0.269 OA
BRANCH  26  29
ATOM     29  C   UNL A   1      42.024  20.604  26.555  1.00  0.00     0.039 A 
ATOM     30  C   UNL A   1      42.598  21.454  25.599  1.00  0.00     0.014 A 
ATOM     31  C   UNL A   1      42.160  20.919  27.911  1.00  0.00     0.014 A 
ATOM     32  C   UNL A   1      43.204  22.656  25.983  1.00  0.00     0.010 A 
ATOM     33  C   UNL A   1      42.753  22.138  28.296  1.00  0.00     0.010 A 
ATOM     34  C   UNL A   1      43.240  23.037  27.332  1.00  0.00    -0.014 A 
BRANCH  34  35
ATOM     35  C   UNL A   1      43.635  24.435  27.679  1.00  0.00     0.031 A 
ATOM     36  C   UNL A   1      45.064  24.898  27.661  1.00  0.00     0.074 A 
ATOM     37  C   UNL A   1      42.656  25.306  27.999  1.00  0.00     0.049 A 
ATOM     38  N   UNL A   1      45.544  26.105  27.853  1.00  0.00    -0.248 NA
ATOM     39  C   UNL A   1      46.089  23.880  27.405  1.00  0.00     0.031 C 
ATOM     40  C   UNL A   1      41.232  24.967  28.077  1.00  0.00     0.029 A 
ATOM     41  N   UNL A   1      42.690  26.645  28.302  1.00  0.00    -0.354 N 
ATOM     42  C   UNL A   1      46.924  25.992  27.738  1.00  0.00     0.074 A 
ATOM     43  C   UNL A   1      47.207  24.592  27.495  1.00  0.00     0.031 C 
ATOM     44  C   UNL A   1      40.529  26.071  28.368  1.00  0.00     0.029 A 
ATOM     45  C   UNL A   1      41.449  27.190  28.537  1.00  0.00     0.049 A 
ATOM     46  H   UNL A   1      43.524  27.166  28.348  1.00  0.00     0.167 HD
ATOM     47  C   UNL A   1      47.862  26.971  27.819  1.00  0.00     0.037 A 
ATOM     48  C   UNL A   1      41.089  28.449  28.851  1.00  0.00     0.037 A 
ATOM     49  C   UNL A   1      47.568  28.362  28.069  1.00  0.00     0.049 A 
ATOM     50  C   UNL A   1      42.154  29.506  28.958  1.00  0.00     0.074 A 
ATOM     51  C   UNL A   1      48.442  29.436  28.121  1.00  0.00     0.029 A 
ATOM     52  N   UNL A   1      46.302  28.871  28.327  1.00  0.00    -0.354 N 
ATOM     53  N   UNL A   1      43.445  29.401  28.759  1.00  0.00    -0.248 NA
ATOM     54  C   UNL A   1      41.712  30.859  29.325  1.00  0.00     0.031 C 
ATOM     55  C   UNL A   1      47.717  30.579  28.472  1.00  0.00     0.029 A 
ATOM     56  C   UNL A   1      46.379  30.235  28.573  1.00  0.00     0.049 A 
ATOM     57  H   UNL A   1      45.472  28.343  28.333  1.00  0.00     0.167 HD
ATOM     58  C   UNL A   1      43.965  30.673  28.948  1.00  0.00     0.074 A 
ATOM     59  C   UNL A   1      42.847  31.539  29.256  1.00  0.00     0.031 C 
ATOM     60  C   UNL A   1      45.255  31.087  28.873  1.00  0.00     0.037 A 
BRANCH  47  61
ATOM     61  C   UNL A   1      49.304  26.576  27.654  1.00  0.00     0.064 A 
ATOM     62  C   UNL A   1      49.891  26.431  26.387  1.00  0.00     0.173 A 
ATOM     63  C   UNL A   1      50.127  26.393  28.778  1.00  0.00     0.173 A 
ATOM     64  F   UNL A   1      49.154  26.596  25.280  1.00  0.00    -0.203 F 
ATOM     65  C   UNL A   1      51.235  26.086  26.252  1.00  0.00     0.198 A 
ATOM     66  C   UNL A   1      51.478  26.078  28.638  1.00  0.00     0.198 A 
ATOM     67  F   UNL A   1      49.626  26.535  30.014  1.00  0.00    -0.203 F 
ATOM     68  F   UNL A   1      51.760  25.908  25.032  1.00  0.00    -0.200 F 
ATOM     69  C   UNL A   1      52.028  25.915  27.376  1.00  0.00     0.200 A 
ATOM     70  F   UNL A   1      52.246  25.932  29.727  1.00  0.00    -0.200 F 
ATOM     71  F   UNL A   1      53.322  25.590  27.244  1.00  0.00    -0.200 F 
ENDBRANCH  47  61
BRANCH  48  72
ATOM     72  C   UNL A   1      39.654  28.785  29.072  1.00  0.00     0.064 A 
ATOM     73  C   UNL A   1      38.851  29.257  28.023  1.00  0.00     0.173 A 
ATOM     74  C   UNL A   1      39.062  28.657  30.337  1.00  0.00     0.173 A 
ATOM     75  F   UNL A   1      39.373  29.415  26.798  1.00  0.00    -0.203 F 
ATOM     76  C   UNL A   1      37.520  29.611  28.238  1.00  0.00     0.198 A 
ATOM     77  C   UNL A   1      37.721  28.980  30.542  1.00  0.00     0.198 A 
ATOM     78  F   UNL A   1      39.781  28.207  31.374  1.00  0.00    -0.203 F 
ATOM     79  F   UNL A   1      36.791  30.111  27.229  1.00  0.00    -0.200 F 
ATOM     80  C   UNL A   1      36.955  29.468  29.495  1.00  0.00     0.200 A 
ATOM     81  F   UNL A   1      37.175  28.822  31.755  1.00  0.00    -0.200 F 
ATOM     82  F   UNL A   1      35.674  29.806  29.701  1.00  0.00    -0.200 F 
ENDBRANCH  48  72
BRANCH  60  83
ATOM     83  C   UNL A   1      45.521  32.550  29.095  1.00  0.00     0.064 A 
ATOM     84  C   UNL A   1      45.468  33.478  28.044  1.00  0.00     0.173 A 
ATOM     85  C   UNL A   1      45.800  33.032  30.383  1.00  0.00     0.173 A 
ATOM     86  F   UNL A   1      45.222  33.067  26.791  1.00  0.00    -0.203 F 
ATOM     87  C   UNL A   1      45.713  34.830  28.271  1.00  0.00     0.198 A 
ATOM     88  C   UNL A   1      46.011  34.389  30.611  1.00  0.00     0.198 A 
ATOM     89  F   UNL A   1      45.859  32.188  31.424  1.00  0.00    -0.203 F 
ATOM     90  F   UNL A   1      45.712  35.690  27.243  1.00  0.00    -0.200 F 
ATOM     91  C   UNL A   1      45.976  35.285  29.555  1.00  0.00     0.200 A 
ATOM     92  F   UNL A   1      46.250  34.828  31.855  1.00  0.00    -0.200 F 
ATOM     93  F   UNL A   1      46.203  36.588  29.772  1.00  0.00    -0.200 F 
ENDBRANCH  60  83
ENDBRANCH  34  35
ENDBRANCH  26  29
ENDBRANCH  24  25
ENDBRANCH  23  24
ENDBRANCH   1  23
TORSDOF 13
ENDMDL
MODEL 2
REMARK VINA RESULT:     -12.6      5.541     10.865
REMARK SMILES C[C@@H]1CN(C(=O)NC[C@@H]2CCC[C@@H]2C(=O)NCCCNC(=O)c2ccc(-c3c4nc(c(-c5c(F)c(F)c(F)c(F)c5F)c5ccc([nH]5)c(-c5c(F)c(F)c(F)c(F)c5F)c5nc(c(-c6c(F)c(F)c(F)c(F)c6F)c6ccc3[nH]6)C=C5)C=C4)cc2)C[C@@H]1C
REMARK SMILES IDX 17 1 16 2 14 3 15 4 13 6 9 7 10 8 11 9 12 10 8 11 7 12 5 13
REMARK SMILES IDX 6 14 4 16 1 17 2 18 3 19 87 20 86 21 88 22 18 23 19 24 20 25
REMARK SMILES IDX 21 26 22 28 23 29 24 30 85 31 25 32 84 33 26 34 27 35 28 36
REMARK SMILES IDX 78 37 29 38 83 39 77 40 79 41 30 42 82 43 76 44 75 45 31 47
REMARK SMILES IDX 63 48 43 49 62 50 44 51 47 52 61 53 80 54 45 55 46 56 60 58
REMARK SMILES IDX 81 59 48 60 32 61 33 62 41 63 34 64 35 65 39 66 42 67 36 68
REMARK SMILES IDX 37 69 40 70 38 71 64 72 65 73 73 74 66 75 67 76 71 77 74 78
REMARK SMILES IDX 68 79 69 80 72 81 70 82 49 83 50 84 58 85 51 86 52 87 56 88
REMARK SMILES IDX 59 89 53 90 54 91 57 92 55 93
REMARK H PARENT 16 5 7 15 20 27 79 46 47 57
REMARK Flexibility Score: inf
ROOT
ATOM      1  C   UNL A   1      31.532  30.304  25.962  1.00  0.00     0.117 C 
ENDROOT
BRANCH   1   2
ATOM      2  N   UNL A   1      31.125  30.252  24.579  1.00  0.00    -0.356 N 
ATOM      3  C   UNL A   1      30.674  29.239  23.775  1.00  0.00     0.223 C 
ATOM      4  O   UNL A   1      29.507  29.174  23.405  1.00  0.00    -0.275 OA
ATOM      5  H   UNL A   1      31.181  31.122  24.121  1.00  0.00     0.163 HD
BRANCH   3   6
ATOM      6  C   UNL A   1      31.774  28.393  23.171  1.00  0.00     0.083 C 
ATOM      7  C   UNL A   1      31.901  26.965  23.775  1.00  0.00     0.021 C 
ATOM      8  C   UNL A   1      33.411  26.734  23.913  1.00  0.00     0.006 C 
ATOM      9  C   UNL A   1      34.020  28.104  24.127  1.00  0.00     0.001 C 
ATOM     10  C   UNL A   1      33.178  29.036  23.268  1.00  0.00     0.014 C 
BRANCH   7  11
ATOM     11  C   UNL A   1      31.104  26.572  25.069  1.00  0.00     0.122 C 
BRANCH  11  12
ATOM     12  N   UNL A   1      30.702  25.147  25.205  1.00  0.00    -0.338 N 
ATOM     13  C   UNL A   1      31.386  24.196  25.930  1.00  0.00     0.317 C 
ATOM     14  O   UNL A   1      31.432  24.317  27.153  1.00  0.00    -0.249 OA
ATOM     15  H   UNL A   1      29.882  24.861  24.742  1.00  0.00     0.165 HD
BRANCH  13  16
ATOM     16  N   UNL A   1      31.883  23.067  25.281  1.00  0.00    -0.324 N 
ATOM     17  C   UNL A   1      32.507  19.479  24.420  1.00  0.00     0.010 C 
ATOM     18  C   UNL A   1      32.895  20.941  24.679  1.00  0.00     0.010 C 
ATOM     19  C   UNL A   1      31.903  21.637  25.607  1.00  0.00     0.125 C 
ATOM     20  C   UNL A   1      32.957  21.874  23.463  1.00  0.00     0.010 C 
ATOM     21  C   UNL A   1      32.602  23.261  24.034  1.00  0.00     0.125 C 
ATOM     22  C   UNL A   1      32.063  21.473  22.297  1.00  0.00     0.010 C 
ENDBRANCH  13  16
ENDBRANCH  11  12
ENDBRANCH   7  11
ENDBRANCH   3   6
ENDBRANCH   1   2
BRANCH   1  23
ATOM     23  C   UNL A   1      31.406  31.697  26.644  1.00  0.00     0.042 C 
BRANCH  23  24
ATOM     24  C   UNL A   1      32.638  32.497  27.147  1.00  0.00     0.118 C 
BRANCH  24  25
ATOM     25  N   UNL A   1      32.361  33.855  27.579  1.00  0.00    -0.352 N 
ATOM     26  C   UNL A   1      33.022  34.667  28.483  1.00  0.00     0.251 C 
ATOM     27  H   UNL A   1      31.570  34.266  27.161  1.00  0.00     0.163 HD
ATOM     28  O   UNL A   1      32.537  35.758  28.758  1.00  0.00    -0.269 OA
BRANCH  26  29
ATOM     29  C   UNL A   1      34.280  34.267  29.172  1.00  0.00     0.039 A 
ATOM     30  C   UNL A   1      34.146  33.629  30.413  1.00  0.00     0.014 A 
ATOM     31  C   UNL A   1      35.562  34.575  28.703  1.00  0.00     0.014 A 
ATOM     32  C   UNL A   1      35.274  33.208  31.127  1.00  0.00     0.010 A 
ATOM     33  C   UNL A   1      36.698  34.135  29.412  1.00  0.00     0.010 A 
ATOM     34  C   UNL A   1      36.562  33.408  30.608  1.00  0.00    -0.014 A 
BRANCH  34  35
ATOM     35  C   UNL A   1      37.717  32.708  31.246  1.00  0.00     0.031 A 
ATOM     36  C   UNL A   1      38.229  33.073  32.610  1.00  0.00     0.074 A 
ATOM     37  C   UNL A   1      38.297  31.699  30.563  1.00  0.00     0.049 A 
ATOM     38  N   UNL A   1      39.165  32.492  33.323  1.00  0.00    -0.248 NA
ATOM     39  C   UNL A   1      37.622  34.242  33.256  1.00  0.00     0.031 C 
ATOM     40  C   UNL A   1      37.906  31.270  29.218  1.00  0.00     0.029 A 
ATOM     41  N   UNL A   1      39.318  30.843  30.896  1.00  0.00    -0.354 N 
ATOM     42  C   UNL A   1      39.258  33.222  34.502  1.00  0.00     0.074 A 
ATOM     43  C   UNL A   1      38.307  34.310  34.392  1.00  0.00     0.031 C 
ATOM     44  C   UNL A   1      38.647  30.213  28.856  1.00  0.00     0.029 A 
ATOM     45  C   UNL A   1      39.594  29.910  29.923  1.00  0.00     0.049 A 
ATOM     46  H   UNL A   1      39.805  30.892  31.749  1.00  0.00     0.167 HD
ATOM     47  C   UNL A   1      40.057  32.995  35.576  1.00  0.00     0.037 A 
ATOM     48  C   UNL A   1      40.507  28.919  29.892  1.00  0.00     0.037 A 
ATOM     49  C   UNL A   1      41.006  31.911  35.671  1.00  0.00     0.049 A 
ATOM     50  C   UNL A   1      41.395  28.709  31.089  1.00  0.00     0.074 A 
ATOM     51  C   UNL A   1      41.825  31.569  36.735  1.00  0.00     0.029 A 
ATOM     52  N   UNL A   1      41.276  31.003  34.657  1.00  0.00    -0.354 N 
ATOM     53  N   UNL A   1      41.409  29.353  32.230  1.00  0.00    -0.248 NA
ATOM     54  C   UNL A   1      42.388  27.629  30.995  1.00  0.00     0.031 C 
ATOM     55  C   UNL A   1      42.634  30.497  36.341  1.00  0.00     0.029 A 
ATOM     56  C   UNL A   1      42.273  30.125  35.057  1.00  0.00     0.049 A 
ATOM     57  H   UNL A   1      40.826  30.983  33.781  1.00  0.00     0.167 HD
ATOM     58  C   UNL A   1      42.388  28.742  33.000  1.00  0.00     0.074 A 
ATOM     59  C   UNL A   1      42.931  27.661  32.204  1.00  0.00     0.031 C 
ATOM     60  C   UNL A   1      42.801  29.048  34.255  1.00  0.00     0.037 A 
BRANCH  47  61
ATOM     61  C   UNL A   1      39.958  33.947  36.737  1.00  0.00     0.064 A 
ATOM     62  C   UNL A   1      39.110  33.699  37.827  1.00  0.00     0.173 A 
ATOM     63  C   UNL A   1      40.764  35.096  36.788  1.00  0.00     0.173 A 
ATOM     64  F   UNL A   1      38.319  32.616  37.833  1.00  0.00    -0.203 F 
ATOM     65  C   UNL A   1      39.047  34.580  38.905  1.00  0.00     0.198 A 
ATOM     66  C   UNL A   1      40.722  35.959  37.882  1.00  0.00     0.198 A 
ATOM     67  F   UNL A   1      41.608  35.376  35.784  1.00  0.00    -0.203 F 
ATOM     68  F   UNL A   1      38.194  34.345  39.912  1.00  0.00    -0.200 F 
ATOM     69  C   UNL A   1      39.856  35.705  38.935  1.00  0.00     0.200 A 
ATOM     70  F   UNL A   1      41.519  37.036  37.916  1.00  0.00    -0.200 F 
ATOM     71  F   UNL A   1      39.798  36.548  39.976  1.00  0.00    -0.200 F 
ENDBRANCH  47  61
BRANCH  48  72
ATOM     72  C   UNL A   1      40.617  28.039  28.695  1.00  0.00     0.064 A 
ATOM     73  C   UNL A   1      41.410  28.405  27.597  1.00  0.00     0.173 A 
ATOM     74  C   UNL A   1      39.919  26.825  28.616  1.00  0.00     0.173 A 
ATOM     75  F   UNL A   1      42.084  29.565  27.613  1.00  0.00    -0.203 F 
ATOM     76  C   UNL A   1      41.480  27.603  26.459  1.00  0.00     0.198 A 
ATOM     77  C   UNL A   1      40.017  26.008  27.491  1.00  0.00     0.198 A 
ATOM     78  F   UNL A   1      39.150  26.423  29.638  1.00  0.00    -0.203 F 
ATOM     79  F   UNL A   1      42.203  28.004  25.404  1.00  0.00    -0.200 F 
ATOM     80  C   UNL A   1      40.788  26.403  26.408  1.00  0.00     0.200 A 
ATOM     81  F   UNL A   1      39.361  24.840  27.455  1.00  0.00    -0.200 F 
ATOM     82  F   UNL A   1      40.858  25.631  25.316  1.00  0.00    -0.200 F 
ENDBRANCH  48  72
BRANCH  60  83
ATOM     83  C   UNL A   1      43.870  28.181  34.858  1.00  0.00     0.064 A 
ATOM     84  C   UNL A   1      45.232  28.503  34.751  1.00  0.00     0.173 A 
ATOM     85  C   UNL A   1      43.524  27.028  35.580  1.00  0.00     0.173 A 
ATOM     86  F   UNL A   1      45.617  29.585  34.056  1.00  0.00    -0.203 F 
ATOM     87  C   UNL A   1      46.207  27.689  35.320  1.00  0.00     0.198 A 
ATOM     88  C   UNL A   1      44.500  26.236  36.177  1.00  0.00     0.198 A 
ATOM     89  F   UNL A   1      42.237  26.676  35.716  1.00  0.00    -0.203 F 
ATOM     90  F   UNL A   1      47.504  27.987  35.158  1.00  0.00    -0.200 F 
ATOM     91  C   UNL A   1      45.840  26.561  36.039  1.00  0.00     0.200 A 
ATOM     92  F   UNL A   1      44.142  25.154  36.883  1.00  0.00    -0.200 F 
ATOM     93  F   UNL A   1      46.780  25.783  36.594  1.00  0.00    -0.200 F 
ENDBRANCH  60  83
ENDBRANCH  34  35
ENDBRANCH  26  29
ENDBRANCH  24  25
ENDBRANCH  23  24
ENDBRANCH   1  23
TORSDOF 13
ENDMDL
MODEL 3
REMARK VINA RESULT:     -12.6      0.425      1.712
REMARK SMILES C[C@@H]1CN(C(=O)NC[C@@H]2CCC[C@@H]2C(=O)NCCCNC(=O)c2ccc(-c3c4nc(c(-c5c(F)c(F)c(F)c(F)c5F)c5ccc([nH]5)c(-c5c(F)c(F)c(F)c(F)c5F)c5nc(c(-c6c(F)c(F)c(F)c(F)c6F)c6ccc3[nH]6)C=C5)C=C4)cc2)C[C@@H]1C
REMARK SMILES IDX 17 1 16 2 14 3 15 4 13 6 9 7 10 8 11 9 12 10 8 11 7 12 5 13
REMARK SMILES IDX 6 14 4 16 1 17 2 18 3 19 87 20 86 21 88 22 18 23 19 24 20 25
REMARK SMILES IDX 21 26 22 28 23 29 24 30 85 31 25 32 84 33 26 34 27 35 28 36
REMARK SMILES IDX 78 37 29 38 83 39 77 40 79 41 30 42 82 43 76 44 75 45 31 47
REMARK SMILES IDX 63 48 43 49 62 50 44 51 47 52 61 53 80 54 45 55 46 56 60 58
REMARK SMILES IDX 81 59 48 60 32 61 33 62 41 63 34 64 35 65 39 66 42 67 36 68
REMARK SMILES IDX 37 69 40 70 38 71 64 72 65 73 73 74 66 75 67 76 71 77 74 78
REMARK SMILES IDX 68 79 69 80 72 81 70 82 49 83 50 84 58 85 51 86 52 87 56 88
REMARK SMILES IDX 59 89 53 90 54 91 57 92 55 93
REMARK H PARENT 16 5 7 15 20 27 79 46 47 57
REMARK Flexibility Score: inf
ROOT
ATOM      1  C   UNL A   1      36.410  20.756  24.999  1.00  0.00     0.117 C 
ENDROOT
BRANCH   1   2
ATOM      2  N   UNL A   1      35.239  19.980  25.325  1.00  0.00    -0.356 N 
ATOM      3  C   UNL A   1      33.911  20.120  25.019  1.00  0.00     0.223 C 
ATOM      4  O   UNL A   1      33.344  19.370  24.232  1.00  0.00    -0.275 OA
ATOM      5  H   UNL A   1      35.433  19.190  25.878  1.00  0.00     0.163 HD
BRANCH   3   6
ATOM      6  C   UNL A   1      33.163  21.073  25.925  1.00  0.00     0.083 C 
ATOM      7  C   UNL A   1      32.741  22.412  25.255  1.00  0.00     0.021 C 
ATOM      8  C   UNL A   1      33.024  23.485  26.314  1.00  0.00     0.006 C 
ATOM      9  C   UNL A   1      34.177  22.955  27.139  1.00  0.00     0.001 C 
ATOM     10  C   UNL A   1      33.943  21.454  27.207  1.00  0.00     0.014 C 
BRANCH   7  11
ATOM     11  C   UNL A   1      33.287  22.800  23.834  1.00  0.00     0.122 C 
BRANCH  11  12
ATOM     12  N   UNL A   1      32.552  23.861  23.097  1.00  0.00    -0.338 N 
ATOM     13  C   UNL A   1      33.010  25.143  22.886  1.00  0.00     0.317 C 
ATOM     14  O   UNL A   1      33.994  25.299  22.163  1.00  0.00    -0.249 OA
ATOM     15  H   UNL A   1      31.669  23.629  22.730  1.00  0.00     0.165 HD
BRANCH  13  16
ATOM     16  N   UNL A   1      32.279  26.221  23.378  1.00  0.00    -0.324 N 
ATOM     17  C   UNL A   1      31.454  29.410  25.156  1.00  0.00     0.010 C 
ATOM     18  C   UNL A   1      31.239  27.950  24.733  1.00  0.00     0.010 C 
ATOM     19  C   UNL A   1      32.553  27.262  24.375  1.00  0.00     0.125 C 
ATOM     20  C   UNL A   1      30.361  27.701  23.501  1.00  0.00     0.010 C 
ATOM     21  C   UNL A   1      30.919  26.397  22.897  1.00  0.00     0.125 C 
ATOM     22  C   UNL A   1      30.323  28.844  22.495  1.00  0.00     0.010 C 
ENDBRANCH  13  16
ENDBRANCH  11  12
ENDBRANCH   7  11
ENDBRANCH   3   6
ENDBRANCH   1   2
BRANCH   1  23
ATOM     23  C   UNL A   1      37.737  19.950  24.892  1.00  0.00     0.042 C 
BRANCH  23  24
ATOM     24  C   UNL A   1      39.009  20.319  25.701  1.00  0.00     0.118 C 
BRANCH  24  25
ATOM     25  N   UNL A   1      40.043  19.301  25.730  1.00  0.00    -0.352 N 
ATOM     26  C   UNL A   1      41.382  19.384  26.067  1.00  0.00     0.251 C 
ATOM     27  H   UNL A   1      39.742  18.402  25.464  1.00  0.00     0.163 HD
ATOM     28  O   UNL A   1      42.088  18.394  25.920  1.00  0.00    -0.269 OA
BRANCH  26  29
ATOM     29  C   UNL A   1      42.023  20.633  26.565  1.00  0.00     0.039 A 
ATOM     30  C   UNL A   1      42.577  21.488  25.601  1.00  0.00     0.014 A 
ATOM     31  C   UNL A   1      42.185  20.943  27.919  1.00  0.00     0.014 A 
ATOM     32  C   UNL A   1      43.189  22.688  25.978  1.00  0.00     0.010 A 
ATOM     33  C   UNL A   1      42.785  22.161  28.298  1.00  0.00     0.010 A 
ATOM     34  C   UNL A   1      43.252  23.065  27.328  1.00  0.00    -0.014 A 
BRANCH  34  35
ATOM     35  C   UNL A   1      43.653  24.461  27.672  1.00  0.00     0.031 A 
ATOM     36  C   UNL A   1      45.084  24.918  27.658  1.00  0.00     0.074 A 
ATOM     37  C   UNL A   1      42.676  25.338  27.987  1.00  0.00     0.049 A 
ATOM     38  N   UNL A   1      45.568  26.123  27.848  1.00  0.00    -0.248 NA
ATOM     39  C   UNL A   1      46.104  23.895  27.406  1.00  0.00     0.031 C 
ATOM     40  C   UNL A   1      41.251  25.005  28.062  1.00  0.00     0.029 A 
ATOM     41  N   UNL A   1      42.716  26.677  28.288  1.00  0.00    -0.354 N 
ATOM     42  C   UNL A   1      46.948  26.004  27.737  1.00  0.00     0.074 A 
ATOM     43  C   UNL A   1      47.225  24.602  27.498  1.00  0.00     0.031 C 
ATOM     44  C   UNL A   1      40.552  26.113  28.348  1.00  0.00     0.029 A 
ATOM     45  C   UNL A   1      41.476  27.228  28.517  1.00  0.00     0.049 A 
ATOM     46  H   UNL A   1      43.552  27.194  28.334  1.00  0.00     0.167 HD
ATOM     47  C   UNL A   1      47.890  26.979  27.818  1.00  0.00     0.037 A 
ATOM     48  C   UNL A   1      41.121  28.490  28.828  1.00  0.00     0.037 A 
ATOM     49  C   UNL A   1      47.602  28.372  28.064  1.00  0.00     0.049 A 
ATOM     50  C   UNL A   1      42.191  29.542  28.935  1.00  0.00     0.074 A 
ATOM     51  C   UNL A   1      48.481  29.441  28.116  1.00  0.00     0.029 A 
ATOM     52  N   UNL A   1      46.338  28.887  28.317  1.00  0.00    -0.354 N 
ATOM     53  N   UNL A   1      43.482  29.431  28.740  1.00  0.00    -0.248 NA
ATOM     54  C   UNL A   1      41.753  30.897  29.297  1.00  0.00     0.031 C 
ATOM     55  C   UNL A   1      47.759  30.589  28.462  1.00  0.00     0.029 A 
ATOM     56  C   UNL A   1      46.420  30.251  28.560  1.00  0.00     0.049 A 
ATOM     57  H   UNL A   1      45.505  28.363  28.323  1.00  0.00     0.167 HD
ATOM     58  C   UNL A   1      44.007  30.701  28.927  1.00  0.00     0.074 A 
ATOM     59  C   UNL A   1      42.891  31.573  29.230  1.00  0.00     0.031 C 
ATOM     60  C   UNL A   1      45.299  31.109  28.856  1.00  0.00     0.037 A 
BRANCH  47  61
ATOM     61  C   UNL A   1      49.331  26.576  27.659  1.00  0.00     0.064 A 
ATOM     62  C   UNL A   1      49.921  26.427  26.394  1.00  0.00     0.173 A 
ATOM     63  C   UNL A   1      50.149  26.392  28.785  1.00  0.00     0.173 A 
ATOM     64  F   UNL A   1      49.188  26.594  25.284  1.00  0.00    -0.203 F 
ATOM     65  C   UNL A   1      51.264  26.075  26.263  1.00  0.00     0.198 A 
ATOM     66  C   UNL A   1      51.500  26.070  28.650  1.00  0.00     0.198 A 
ATOM     67  F   UNL A   1      49.646  26.538  30.019  1.00  0.00    -0.203 F 
ATOM     68  F   UNL A   1      51.792  25.893  25.045  1.00  0.00    -0.200 F 
ATOM     69  C   UNL A   1      52.052  25.903  27.390  1.00  0.00     0.200 A 
ATOM     70  F   UNL A   1      52.264  25.923  29.742  1.00  0.00    -0.200 F 
ATOM     71  F   UNL A   1      53.345  25.571  27.262  1.00  0.00    -0.200 F 
ENDBRANCH  47  61
BRANCH  48  72
ATOM     72  C   UNL A   1      39.687  28.833  29.044  1.00  0.00     0.064 A 
ATOM     73  C   UNL A   1      39.092  28.700  30.307  1.00  0.00     0.173 A 
ATOM     74  C   UNL A   1      38.879  29.284  27.989  1.00  0.00     0.173 A 
ATOM     75  F   UNL A   1      39.815  28.255  31.345  1.00  0.00    -0.203 F 
ATOM     76  C   UNL A   1      37.740  28.980  30.500  1.00  0.00     0.198 A 
ATOM     77  C   UNL A   1      37.536  29.596  28.192  1.00  0.00     0.198 A 
ATOM     78  F   UNL A   1      39.396  29.434  26.762  1.00  0.00    -0.203 F 
ATOM     79  F   UNL A   1      37.186  28.792  31.706  1.00  0.00    -0.200 F 
ATOM     80  C   UNL A   1      36.964  29.432  29.445  1.00  0.00     0.200 A 
ATOM     81  F   UNL A   1      36.795  30.051  27.172  1.00  0.00    -0.200 F 
ATOM     82  F   UNL A   1      35.665  29.704  29.631  1.00  0.00    -0.200 F 
ENDBRANCH  48  72
BRANCH  60  83
ATOM     83  C   UNL A   1      45.570  32.571  29.075  1.00  0.00     0.064 A 
ATOM     84  C   UNL A   1      45.888  33.082  30.342  1.00  0.00     0.173 A 
ATOM     85  C   UNL A   1      45.544  33.466  27.994  1.00  0.00     0.173 A 
ATOM     86  F   UNL A   1      45.909  32.272  31.411  1.00  0.00    -0.203 F 
ATOM     87  C   UNL A   1      46.141  34.439  30.524  1.00  0.00     0.198 A 
ATOM     88  C   UNL A   1      45.831  34.816  28.174  1.00  0.00     0.198 A 
ATOM     89  F   UNL A   1      45.249  33.030  26.760  1.00  0.00    -0.203 F 
ATOM     90  F   UNL A   1      46.388  34.914  31.753  1.00  0.00    -0.200 F 
ATOM     91  C   UNL A   1      46.120  35.303  29.439  1.00  0.00     0.200 A 
ATOM     92  F   UNL A   1      45.825  35.646  27.122  1.00  0.00    -0.200 F 
ATOM     93  F   UNL A   1      46.372  36.608  29.615  1.00  0.00    -0.200 F 
ENDBRANCH  60  83
ENDBRANCH  34  35
ENDBRANCH  26  29
ENDBRANCH  24  25
ENDBRANCH  23  24
ENDBRANCH   1  23
TORSDOF 13
ENDMDL
