MODEL 1
REMARK VINA RESULT:     -13.2      0.000      0.000
REMARK SMILES NC(=O)c1ccc(NC(=O)Cc2ccccc2C(=O)NCCCNC(=O)c2ccc(-c3c4nc(c(-c5c(F)c(F)c(F)c(F)c5F)c5ccc([nH]5)c(-c5c(F)c(F)c(F)c(F)c5F)c5nc(c(-c6c(F)c(F)c(F)c(F)c6F)c6ccc3[nH]6)C=C5)C=C4)cc2)cc1
REMARK SMILES IDX 21 1 20 2 18 3 19 4 17 6 12 7 13 8 14 9 16 10 15 11 11 12
REMARK SMILES IDX 9 13 8 14 10 16 7 17 4 18 5 19 91 20 6 21 90 22 2 23 1 24
REMARK SMILES IDX 3 27 22 28 23 29 24 30 25 31 26 33 27 34 28 35 89 36 29 37
REMARK SMILES IDX 88 38 30 39 31 40 32 41 82 42 33 43 87 44 81 45 83 46 34 47
REMARK SMILES IDX 86 48 80 49 79 50 35 52 67 53 47 54 66 55 48 56 51 57 65 58
REMARK SMILES IDX 84 59 49 60 50 61 64 63 85 64 52 65 36 66 37 67 45 68 38 69
REMARK SMILES IDX 39 70 43 71 46 72 40 73 41 74 44 75 42 76 68 77 69 78 77 79
REMARK SMILES IDX 70 80 71 81 75 82 78 83 72 84 73 85 76 86 74 87 53 88 54 89
REMARK SMILES IDX 62 90 55 91 56 92 60 93 63 94 57 95 58 96 61 97 59 98
REMARK H PARENT 20 5 8 15 1 25 1 26 24 32 83 51 51 62
REMARK Flexibility Score: inf
ROOT
ATOM      1  C   UNL A   1      31.458  30.681  26.508  1.00  0.00     0.118 C 
ENDROOT
BRANCH   1   2
ATOM      2  N   UNL A   1      32.826  30.201  26.571  1.00  0.00    -0.352 N 
ATOM      3  C   UNL A   1      33.634  29.286  25.955  1.00  0.00     0.251 C 
ATOM      4  O   UNL A   1      34.730  29.159  26.519  1.00  0.00    -0.269 OA
ATOM      5  H   UNL A   1      33.324  30.680  27.271  1.00  0.00     0.163 HD
BRANCH   3   6
ATOM      6  C   UNL A   1      33.429  28.515  24.670  1.00  0.00     0.043 A 
ATOM      7  C   UNL A   1      32.453  27.564  24.275  1.00  0.00    -0.026 A 
ATOM      8  C   UNL A   1      32.539  26.977  22.986  1.00  0.00     0.005 A 
ATOM      9  C   UNL A   1      33.491  27.374  22.057  1.00  0.00     0.000 A 
ATOM     10  C   UNL A   1      34.359  28.919  23.675  1.00  0.00     0.014 A 
ATOM     11  C   UNL A   1      34.384  28.374  22.390  1.00  0.00     0.001 A 
BRANCH   7  12
ATOM     12  C   UNL A   1      31.293  27.082  25.090  1.00  0.00     0.136 C 
BRANCH  12  13
ATOM     13  C   UNL A   1      30.047  26.513  24.389  1.00  0.00     0.228 C 
ATOM     14  N   UNL A   1      29.091  27.139  23.640  1.00  0.00    -0.326 N 
ATOM     15  H   UNL A   1      28.351  26.523  23.436  1.00  0.00     0.169 HD
ATOM     16  O   UNL A   1      29.792  25.312  24.606  1.00  0.00    -0.274 OA
BRANCH  14  17
ATOM     17  C   UNL A   1      28.854  28.407  23.072  1.00  0.00     0.041 A 
ATOM     18  C   UNL A   1      28.315  30.986  21.997  1.00  0.00     0.039 A 
ATOM     19  C   UNL A   1      29.555  30.393  21.835  1.00  0.00     0.016 A 
ATOM     20  C   UNL A   1      27.318  30.281  22.679  1.00  0.00     0.016 A 
ATOM     21  C   UNL A   1      29.787  29.125  22.358  1.00  0.00     0.027 A 
ATOM     22  C   UNL A   1      27.590  29.000  23.211  1.00  0.00     0.027 A 
BRANCH  18  23
ATOM     23  C   UNL A   1      28.143  32.330  21.396  1.00  0.00     0.248 C 
ATOM     24  N   UNL A   1      27.775  32.393  20.087  1.00  0.00    -0.366 N 
ATOM     25  H   UNL A   1      27.652  33.267  19.651  1.00  0.00     0.159 HD
ATOM     26  H   UNL A   1      27.634  31.564  19.575  1.00  0.00     0.159 HD
ATOM     27  O   UNL A   1      28.268  33.348  22.065  1.00  0.00    -0.270 OA
ENDBRANCH  18  23
ENDBRANCH  14  17
ENDBRANCH  12  13
ENDBRANCH   7  12
ENDBRANCH   3   6
ENDBRANCH   1   2
BRANCH   1  28
ATOM     28  C   UNL A   1      31.439  32.207  26.503  1.00  0.00     0.042 C 
BRANCH  28  29
ATOM     29  C   UNL A   1      32.568  32.802  27.314  1.00  0.00     0.118 C 
BRANCH  29  30
ATOM     30  N   UNL A   1      32.352  34.213  27.608  1.00  0.00    -0.352 N 
ATOM     31  C   UNL A   1      32.977  34.976  28.569  1.00  0.00     0.251 C 
ATOM     32  H   UNL A   1      31.681  34.675  27.056  1.00  0.00     0.163 HD
ATOM     33  O   UNL A   1      32.584  36.108  28.829  1.00  0.00    -0.269 OA
BRANCH  31  34
ATOM     34  C   UNL A   1      34.112  34.387  29.313  1.00  0.00     0.039 A 
ATOM     35  C   UNL A   1      33.864  33.574  30.420  1.00  0.00     0.014 A 
ATOM     36  C   UNL A   1      35.417  34.578  28.854  1.00  0.00     0.014 A 
ATOM     37  C   UNL A   1      34.926  32.894  31.024  1.00  0.00     0.010 A 
ATOM     38  C   UNL A   1      36.448  33.812  29.378  1.00  0.00     0.010 A 
ATOM     39  C   UNL A   1      36.218  32.977  30.481  1.00  0.00    -0.014 A 
BRANCH  39  40
ATOM     40  C   UNL A   1      37.362  32.234  31.066  1.00  0.00     0.031 A 
ATOM     41  C   UNL A   1      37.847  32.592  32.446  1.00  0.00     0.074 A 
ATOM     42  C   UNL A   1      38.013  31.308  30.336  1.00  0.00     0.049 A 
ATOM     43  N   UNL A   1      38.886  32.144  33.104  1.00  0.00    -0.248 NA
ATOM     44  C   UNL A   1      37.085  33.626  33.167  1.00  0.00     0.031 C 
ATOM     45  C   UNL A   1      37.681  30.924  28.963  1.00  0.00     0.029 A 
ATOM     46  N   UNL A   1      39.100  30.528  30.644  1.00  0.00    -0.354 N 
ATOM     47  C   UNL A   1      38.915  32.861  34.293  1.00  0.00     0.074 A 
ATOM     48  C   UNL A   1      37.836  33.819  34.240  1.00  0.00     0.031 C 
ATOM     49  C   UNL A   1      38.525  29.961  28.558  1.00  0.00     0.029 A 
ATOM     50  C   UNL A   1      39.481  29.686  29.627  1.00  0.00     0.049 A 
ATOM     51  H   UNL A   1      39.562  30.568  31.512  1.00  0.00     0.167 HD
ATOM     52  C   UNL A   1      39.746  32.710  35.351  1.00  0.00     0.037 A 
ATOM     53  C   UNL A   1      40.490  28.797  29.567  1.00  0.00     0.037 A 
ATOM     54  C   UNL A   1      40.785  31.719  35.417  1.00  0.00     0.049 A 
ATOM     55  C   UNL A   1      41.382  28.626  30.768  1.00  0.00     0.074 A 
ATOM     56  C   UNL A   1      41.633  31.427  36.469  1.00  0.00     0.029 A 
ATOM     57  N   UNL A   1      41.114  30.854  34.384  1.00  0.00    -0.354 N 
ATOM     58  N   UNL A   1      41.352  29.255  31.918  1.00  0.00    -0.248 NA
ATOM     59  C   UNL A   1      42.443  27.615  30.666  1.00  0.00     0.031 C 
ATOM     60  C   UNL A   1      42.504  30.413  36.057  1.00  0.00     0.029 A 
ATOM     61  C   UNL A   1      42.164  30.038  34.767  1.00  0.00     0.049 A 
ATOM     62  H   UNL A   1      40.666  30.824  33.507  1.00  0.00     0.167 HD
ATOM     63  C   UNL A   1      42.366  28.699  32.685  1.00  0.00     0.074 A 
ATOM     64  C   UNL A   1      42.985  27.670  31.875  1.00  0.00     0.031 C 
ATOM     65  C   UNL A   1      42.754  29.012  33.946  1.00  0.00     0.037 A 
BRANCH  52  66
ATOM     66  C   UNL A   1      39.550  33.627  36.525  1.00  0.00     0.064 A 
ATOM     67  C   UNL A   1      40.137  34.900  36.570  1.00  0.00     0.173 A 
ATOM     68  C   UNL A   1      38.749  33.236  37.608  1.00  0.00     0.173 A 
ATOM     69  F   UNL A   1      40.925  35.318  35.568  1.00  0.00    -0.203 F 
ATOM     70  C   UNL A   1      39.959  35.734  37.671  1.00  0.00     0.198 A 
ATOM     71  C   UNL A   1      38.544  34.086  38.692  1.00  0.00     0.198 A 
ATOM     72  F   UNL A   1      38.161  32.030  37.615  1.00  0.00    -0.203 F 
ATOM     73  F   UNL A   1      40.578  36.922  37.718  1.00  0.00    -0.200 F 
ATOM     74  C   UNL A   1      39.157  35.329  38.727  1.00  0.00     0.200 A 
ATOM     75  F   UNL A   1      37.759  33.698  39.706  1.00  0.00    -0.200 F 
ATOM     76  F   UNL A   1      38.981  36.135  39.783  1.00  0.00    -0.200 F 
ENDBRANCH  52  66
BRANCH  53  77
ATOM     77  C   UNL A   1      40.688  27.975  28.345  1.00  0.00     0.064 A 
ATOM     78  C   UNL A   1      40.100  26.708  28.226  1.00  0.00     0.173 A 
ATOM     79  C   UNL A   1      41.467  28.433  27.272  1.00  0.00     0.173 A 
ATOM     80  F   UNL A   1      39.361  26.217  29.233  1.00  0.00    -0.203 F 
ATOM     81  C   UNL A   1      40.301  25.921  27.094  1.00  0.00     0.198 A 
ATOM     82  C   UNL A   1      41.644  27.658  26.127  1.00  0.00     0.198 A 
ATOM     83  F   UNL A   1      42.047  29.641  27.331  1.00  0.00    -0.203 F 
ATOM     84  F   UNL A   1      39.764  24.695  27.028  1.00  0.00    -0.200 F 
ATOM     85  C   UNL A   1      41.068  26.400  26.042  1.00  0.00     0.200 A 
ATOM     86  F   UNL A   1      42.374  28.129  25.107  1.00  0.00    -0.200 F 
ATOM     87  F   UNL A   1      41.258  25.644  24.952  1.00  0.00    -0.200 F 
ENDBRANCH  53  77
BRANCH  65  88
ATOM     88  C   UNL A   1      43.875  28.210  34.540  1.00  0.00     0.064 A 
ATOM     89  C   UNL A   1      45.206  28.647  34.480  1.00  0.00     0.173 A 
ATOM     90  C   UNL A   1      43.605  27.014  35.221  1.00  0.00     0.173 A 
ATOM     91  F   UNL A   1      45.517  29.778  33.828  1.00  0.00    -0.203 F 
ATOM     92  C   UNL A   1      46.230  27.902  35.059  1.00  0.00     0.198 A 
ATOM     93  C   UNL A   1      44.626  26.288  35.826  1.00  0.00     0.198 A 
ATOM     94  F   UNL A   1      42.347  26.558  35.315  1.00  0.00    -0.203 F 
ATOM     95  F   UNL A   1      47.499  28.314  34.949  1.00  0.00    -0.200 F 
ATOM     96  C   UNL A   1      45.938  26.728  35.738  1.00  0.00     0.200 A 
ATOM     97  F   UNL A   1      44.341  25.163  36.496  1.00  0.00    -0.200 F 
ATOM     98  F   UNL A   1      46.923  26.018  36.303  1.00  0.00    -0.200 F 
ENDBRANCH  65  88
ENDBRANCH  39  40
ENDBRANCH  31  34
ENDBRANCH  29  30
ENDBRANCH  28  29
ENDBRANCH   1  28
TORSDOF 14
ENDMDL
MODEL 2
REMARK VINA RESULT:     -13.1      2.136      2.944
REMARK SMILES NC(=O)c1ccc(NC(=O)Cc2ccccc2C(=O)NCCCNC(=O)c2ccc(-c3c4nc(c(-c5c(F)c(F)c(F)c(F)c5F)c5ccc([nH]5)c(-c5c(F)c(F)c(F)c(F)c5F)c5nc(c(-c6c(F)c(F)c(F)c(F)c6F)c6ccc3[nH]6)C=C5)C=C4)cc2)cc1
REMARK SMILES IDX 21 1 20 2 18 3 19 4 17 6 12 7 13 8 14 9 16 10 15 11 11 12
REMARK SMILES IDX 9 13 8 14 10 16 7 17 4 18 5 19 91 20 6 21 90 22 2 23 1 24
REMARK SMILES IDX 3 27 22 28 23 29 24 30 25 31 26 33 27 34 28 35 89 36 29 37
REMARK SMILES IDX 88 38 30 39 31 40 32 41 82 42 33 43 87 44 81 45 83 46 34 47
REMARK SMILES IDX 86 48 80 49 79 50 35 52 67 53 47 54 66 55 48 56 51 57 65 58
REMARK SMILES IDX 84 59 49 60 50 61 64 63 85 64 52 65 36 66 37 67 45 68 38 69
REMARK SMILES IDX 39 70 43 71 46 72 40 73 41 74 44 75 42 76 68 77 69 78 77 79
REMARK SMILES IDX 70 80 71 81 75 82 78 83 72 84 73 85 76 86 74 87 53 88 54 89
REMARK SMILES IDX 62 90 55 91 56 92 60 93 63 94 57 95 58 96 61 97 59 98
REMARK H PARENT 20 5 8 15 1 25 1 26 24 32 83 51 51 62
REMARK Flexibility Score: inf
ROOT
ATOM      1  C   UNL A   1      31.810  27.833  27.176  1.00  0.00     0.118 C 
ENDROOT
BRANCH   1   2
ATOM      2  N   UNL A   1      31.189  26.579  26.794  1.00  0.00    -0.352 N 
ATOM      3  C   UNL A   1      31.529  25.385  26.219  1.00  0.00     0.251 C 
ATOM      4  O   UNL A   1      30.543  24.679  25.965  1.00  0.00    -0.269 OA
ATOM      5  H   UNL A   1      30.230  26.590  27.016  1.00  0.00     0.163 HD
BRANCH   3   6
ATOM      6  C   UNL A   1      32.891  24.783  25.958  1.00  0.00     0.043 A 
ATOM      7  C   UNL A   1      33.936  25.143  25.068  1.00  0.00    -0.026 A 
ATOM      8  C   UNL A   1      35.114  24.353  25.026  1.00  0.00     0.005 A 
ATOM      9  C   UNL A   1      35.321  23.291  25.897  1.00  0.00     0.000 A 
ATOM     10  C   UNL A   1      33.162  23.717  26.856  1.00  0.00     0.014 A 
ATOM     11  C   UNL A   1      34.356  22.993  26.840  1.00  0.00     0.001 A 
BRANCH   7  12
ATOM     12  C   UNL A   1      33.948  26.308  24.126  1.00  0.00     0.136 C 
BRANCH  12  13
ATOM     13  C   UNL A   1      33.413  26.140  22.693  1.00  0.00     0.228 C 
ATOM     14  N   UNL A   1      32.255  26.589  22.124  1.00  0.00    -0.326 N 
ATOM     15  H   UNL A   1      32.140  26.210  21.224  1.00  0.00     0.169 HD
ATOM     16  O   UNL A   1      34.074  25.398  21.941  1.00  0.00    -0.274 OA
BRANCH  14  17
ATOM     17  C   UNL A   1      31.176  27.437  22.448  1.00  0.00     0.041 A 
ATOM     18  C   UNL A   1      29.021  29.203  23.028  1.00  0.00     0.039 A 
ATOM     19  C   UNL A   1      28.926  27.850  23.306  1.00  0.00     0.016 A 
ATOM     20  C   UNL A   1      30.210  29.693  22.478  1.00  0.00     0.016 A 
ATOM     21  C   UNL A   1      30.000  27.012  23.026  1.00  0.00     0.027 A 
ATOM     22  C   UNL A   1      31.278  28.812  22.192  1.00  0.00     0.027 A 
BRANCH  18  23
ATOM     23  C   UNL A   1      27.841  30.031  23.371  1.00  0.00     0.248 C 
ATOM     24  N   UNL A   1      28.047  31.355  23.608  1.00  0.00    -0.366 N 
ATOM     25  H   UNL A   1      27.288  31.938  23.839  1.00  0.00     0.159 HD
ATOM     26  H   UNL A   1      28.955  31.730  23.548  1.00  0.00     0.159 HD
ATOM     27  O   UNL A   1      26.711  29.557  23.383  1.00  0.00    -0.270 OA
ENDBRANCH  18  23
ENDBRANCH  14  17
ENDBRANCH  12  13
ENDBRANCH   7  12
ENDBRANCH   3   6
ENDBRANCH   1   2
BRANCH   1  28
ATOM     28  C   UNL A   1      31.736  28.827  26.019  1.00  0.00     0.042 C 
BRANCH  28  29
ATOM     29  C   UNL A   1      32.951  29.723  25.949  1.00  0.00     0.118 C 
BRANCH  29  30
ATOM     30  N   UNL A   1      32.650  31.092  26.352  1.00  0.00    -0.352 N 
ATOM     31  C   UNL A   1      33.342  31.875  27.249  1.00  0.00     0.251 C 
ATOM     32  H   UNL A   1      31.860  31.505  25.934  1.00  0.00     0.163 HD
ATOM     33  O   UNL A   1      32.888  32.949  27.628  1.00  0.00    -0.269 OA
BRANCH  31  34
ATOM     34  C   UNL A   1      34.629  31.375  27.779  1.00  0.00     0.039 A 
ATOM     35  C   UNL A   1      35.697  32.258  27.944  1.00  0.00     0.014 A 
ATOM     36  C   UNL A   1      34.742  30.045  28.190  1.00  0.00     0.014 A 
ATOM     37  C   UNL A   1      36.856  31.821  28.589  1.00  0.00     0.010 A 
ATOM     38  C   UNL A   1      35.843  29.647  28.934  1.00  0.00     0.010 A 
ATOM     39  C   UNL A   1      36.921  30.524  29.125  1.00  0.00    -0.014 A 
BRANCH  39  40
ATOM     40  C   UNL A   1      38.117  30.037  29.856  1.00  0.00     0.031 A 
ATOM     41  C   UNL A   1      38.372  30.518  31.260  1.00  0.00     0.074 A 
ATOM     42  C   UNL A   1      39.010  29.240  29.238  1.00  0.00     0.049 A 
ATOM     43  N   UNL A   1      39.401  30.302  32.039  1.00  0.00    -0.248 NA
ATOM     44  C   UNL A   1      37.351  31.399  31.853  1.00  0.00     0.031 C 
ATOM     45  C   UNL A   1      38.909  28.763  27.858  1.00  0.00     0.029 A 
ATOM     46  N   UNL A   1      40.187  28.698  29.690  1.00  0.00    -0.354 N 
ATOM     47  C   UNL A   1      39.161  31.040  33.190  1.00  0.00     0.074 A 
ATOM     48  C   UNL A   1      37.929  31.764  32.985  1.00  0.00     0.031 C 
ATOM     49  C   UNL A   1      39.962  27.977  27.585  1.00  0.00     0.029 A 
ATOM     50  C   UNL A   1      40.832  27.923  28.756  1.00  0.00     0.049 A 
ATOM     51  H   UNL A   1      40.537  28.850  30.598  1.00  0.00     0.167 HD
ATOM     52  C   UNL A   1      39.887  31.082  34.333  1.00  0.00     0.037 A 
ATOM     53  C   UNL A   1      41.995  27.249  28.840  1.00  0.00     0.037 A 
ATOM     54  C   UNL A   1      41.085  30.319  34.549  1.00  0.00     0.049 A 
ATOM     55  C   UNL A   1      42.768  27.288  30.131  1.00  0.00     0.074 A 
ATOM     56  C   UNL A   1      41.855  30.227  35.694  1.00  0.00     0.029 A 
ATOM     57  N   UNL A   1      41.685  29.510  33.595  1.00  0.00    -0.354 N 
ATOM     58  N   UNL A   1      42.493  27.928  31.242  1.00  0.00    -0.248 NA
ATOM     59  C   UNL A   1      44.010  26.504  30.183  1.00  0.00     0.031 C 
ATOM     60  C   UNL A   1      42.946  29.395  35.419  1.00  0.00     0.029 A 
ATOM     61  C   UNL A   1      42.826  28.928  34.119  1.00  0.00     0.049 A 
ATOM     62  H   UNL A   1      41.348  29.370  32.680  1.00  0.00     0.167 HD
ATOM     63  C   UNL A   1      43.507  27.603  32.132  1.00  0.00     0.074 A 
ATOM     64  C   UNL A   1      44.397  26.696  31.436  1.00  0.00     0.031 C 
ATOM     65  C   UNL A   1      43.689  28.018  33.409  1.00  0.00     0.037 A 
BRANCH  52  66
ATOM     66  C   UNL A   1      39.392  31.972  35.438  1.00  0.00     0.064 A 
ATOM     67  C   UNL A   1      39.760  33.324  35.516  1.00  0.00     0.173 A 
ATOM     68  C   UNL A   1      38.522  31.472  36.418  1.00  0.00     0.173 A 
ATOM     69  F   UNL A   1      40.602  33.848  34.613  1.00  0.00    -0.203 F 
ATOM     70  C   UNL A   1      39.305  34.133  36.554  1.00  0.00     0.198 A 
ATOM     71  C   UNL A   1      38.041  32.293  37.435  1.00  0.00     0.198 A 
ATOM     72  F   UNL A   1      38.135  30.188  36.389  1.00  0.00    -0.203 F 
ATOM     73  F   UNL A   1      39.719  35.405  36.641  1.00  0.00    -0.200 F 
ATOM     74  C   UNL A   1      38.440  33.619  37.508  1.00  0.00     0.200 A 
ATOM     75  F   UNL A   1      37.195  31.799  38.349  1.00  0.00    -0.200 F 
ATOM     76  F   UNL A   1      37.998  34.401  38.502  1.00  0.00    -0.200 F 
ENDBRANCH  52  66
BRANCH  53  77
ATOM     77  C   UNL A   1      42.480  26.452  27.682  1.00  0.00     0.064 A 
ATOM     78  C   UNL A   1      42.023  25.144  27.468  1.00  0.00     0.173 A 
ATOM     79  C   UNL A   1      43.406  26.975  26.769  1.00  0.00     0.173 A 
ATOM     80  F   UNL A   1      41.150  24.591  28.324  1.00  0.00    -0.203 F 
ATOM     81  C   UNL A   1      42.490  24.382  26.399  1.00  0.00     0.198 A 
ATOM     82  C   UNL A   1      43.852  26.223  25.683  1.00  0.00     0.198 A 
ATOM     83  F   UNL A   1      43.870  28.224  26.924  1.00  0.00    -0.203 F 
ATOM     84  F   UNL A   1      42.071  23.118  26.246  1.00  0.00    -0.200 F 
ATOM     85  C   UNL A   1      43.400  24.924  25.504  1.00  0.00     0.200 A 
ATOM     86  F   UNL A   1      44.720  26.755  24.812  1.00  0.00    -0.200 F 
ATOM     87  F   UNL A   1      43.847  24.192  24.474  1.00  0.00    -0.200 F 
ENDBRANCH  53  77
BRANCH  65  88
ATOM     88  C   UNL A   1      44.873  27.469  34.150  1.00  0.00     0.064 A 
ATOM     89  C   UNL A   1      46.125  28.099  34.109  1.00  0.00     0.173 A 
ATOM     90  C   UNL A   1      44.739  26.324  34.950  1.00  0.00     0.173 A 
ATOM     91  F   UNL A   1      46.307  29.188  33.347  1.00  0.00    -0.203 F 
ATOM     92  C   UNL A   1      47.206  27.589  34.822  1.00  0.00     0.198 A 
ATOM     93  C   UNL A   1      45.812  25.836  35.687  1.00  0.00     0.198 A 
ATOM     94  F   UNL A   1      43.559  25.690  35.030  1.00  0.00    -0.203 F 
ATOM     95  F   UNL A   1      48.404  28.180  34.731  1.00  0.00    -0.200 F 
ATOM     96  C   UNL A   1      47.046  26.463  35.616  1.00  0.00     0.200 A 
ATOM     97  F   UNL A   1      45.653  24.757  36.467  1.00  0.00    -0.200 F 
ATOM     98  F   UNL A   1      48.085  25.979  36.310  1.00  0.00    -0.200 F 
ENDBRANCH  65  88
ENDBRANCH  39  40
ENDBRANCH  31  34
ENDBRANCH  29  30
ENDBRANCH  28  29
ENDBRANCH   1  28
TORSDOF 14
ENDMDL
MODEL 3
REMARK VINA RESULT:     -13.1      0.451      7.270
REMARK SMILES NC(=O)c1ccc(NC(=O)Cc2ccccc2C(=O)NCCCNC(=O)c2ccc(-c3c4nc(c(-c5c(F)c(F)c(F)c(F)c5F)c5ccc([nH]5)c(-c5c(F)c(F)c(F)c(F)c5F)c5nc(c(-c6c(F)c(F)c(F)c(F)c6F)c6ccc3[nH]6)C=C5)C=C4)cc2)cc1
REMARK SMILES IDX 21 1 20 2 18 3 19 4 17 6 12 7 13 8 14 9 16 10 15 11 11 12
REMARK SMILES IDX 9 13 8 14 10 16 7 17 4 18 5 19 91 20 6 21 90 22 2 23 1 24
REMARK SMILES IDX 3 27 22 28 23 29 24 30 25 31 26 33 27 34 28 35 89 36 29 37
REMARK SMILES IDX 88 38 30 39 31 40 32 41 82 42 33 43 87 44 81 45 83 46 34 47
REMARK SMILES IDX 86 48 80 49 79 50 35 52 67 53 47 54 66 55 48 56 51 57 65 58
REMARK SMILES IDX 84 59 49 60 50 61 64 63 85 64 52 65 36 66 37 67 45 68 38 69
REMARK SMILES IDX 39 70 43 71 46 72 40 73 41 74 44 75 42 76 68 77 69 78 77 79
REMARK SMILES IDX 70 80 71 81 75 82 78 83 72 84 73 85 76 86 74 87 53 88 54 89
REMARK SMILES IDX 62 90 55 91 56 92 60 93 63 94 57 95 58 96 61 97 59 98
REMARK H PARENT 20 5 8 15 1 25 1 26 24 32 83 51 51 62
REMARK Flexibility Score: inf
ROOT
ATOM      1  C   UNL A   1      31.252  30.988  25.770  1.00  0.00     0.118 C 
ENDROOT
BRANCH   1   2
ATOM      2  N   UNL A   1      32.519  30.371  26.120  1.00  0.00    -0.352 N 
ATOM      3  C   UNL A   1      33.301  29.318  25.734  1.00  0.00     0.251 C 
ATOM      4  O   UNL A   1      34.258  29.129  26.499  1.00  0.00    -0.269 OA
ATOM      5  H   UNL A   1      32.943  30.859  26.861  1.00  0.00     0.163 HD
BRANCH   3   6
ATOM      6  C   UNL A   1      33.229  28.454  24.495  1.00  0.00     0.043 A 
ATOM      7  C   UNL A   1      32.362  27.395  24.123  1.00  0.00    -0.026 A 
ATOM      8  C   UNL A   1      32.562  26.739  22.881  1.00  0.00     0.005 A 
ATOM      9  C   UNL A   1      33.520  27.162  21.969  1.00  0.00     0.000 A 
ATOM     10  C   UNL A   1      34.168  28.878  23.518  1.00  0.00     0.014 A 
ATOM     11  C   UNL A   1      34.304  28.259  22.274  1.00  0.00     0.001 A 
BRANCH   7  12
ATOM     12  C   UNL A   1      31.209  26.861  24.917  1.00  0.00     0.136 C 
BRANCH  12  13
ATOM     13  C   UNL A   1      29.938  26.379  24.195  1.00  0.00     0.228 C 
ATOM     14  N   UNL A   1      28.994  27.083  23.504  1.00  0.00    -0.326 N 
ATOM     15  H   UNL A   1      28.233  26.506  23.268  1.00  0.00     0.169 HD
ATOM     16  O   UNL A   1      29.649  25.175  24.333  1.00  0.00    -0.274 OA
BRANCH  14  17
ATOM     17  C   UNL A   1      28.790  28.394  23.027  1.00  0.00     0.041 A 
ATOM     18  C   UNL A   1      28.317  31.055  22.136  1.00  0.00     0.039 A 
ATOM     19  C   UNL A   1      29.546  30.448  21.943  1.00  0.00     0.016 A 
ATOM     20  C   UNL A   1      27.299  30.325  22.757  1.00  0.00     0.016 A 
ATOM     21  C   UNL A   1      29.745  29.141  22.375  1.00  0.00     0.027 A 
ATOM     22  C   UNL A   1      27.538  29.003  23.198  1.00  0.00     0.027 A 
BRANCH  18  23
ATOM     23  C   UNL A   1      28.180  32.442  21.632  1.00  0.00     0.248 C 
ATOM     24  N   UNL A   1      27.731  32.609  20.358  1.00  0.00    -0.366 N 
ATOM     25  H   UNL A   1      27.627  33.515  19.987  1.00  0.00     0.159 HD
ATOM     26  H   UNL A   1      27.510  31.823  19.807  1.00  0.00     0.159 HD
ATOM     27  O   UNL A   1      28.405  33.407  22.353  1.00  0.00    -0.270 OA
ENDBRANCH  18  23
ENDBRANCH  14  17
ENDBRANCH  12  13
ENDBRANCH   7  12
ENDBRANCH   3   6
ENDBRANCH   1   2
BRANCH   1  28
ATOM     28  C   UNL A   1      31.104  32.323  26.496  1.00  0.00     0.042 C 
BRANCH  28  29
ATOM     29  C   UNL A   1      32.412  32.817  27.070  1.00  0.00     0.118 C 
BRANCH  29  30
ATOM     30  N   UNL A   1      32.303  34.168  27.608  1.00  0.00    -0.352 N 
ATOM     31  C   UNL A   1      33.068  34.741  28.599  1.00  0.00     0.251 C 
ATOM     32  H   UNL A   1      31.601  34.736  27.218  1.00  0.00     0.163 HD
ATOM     33  O   UNL A   1      32.765  35.829  29.079  1.00  0.00    -0.269 OA
BRANCH  31  34
ATOM     34  C   UNL A   1      34.245  34.001  29.104  1.00  0.00     0.039 A 
ATOM     35  C   UNL A   1      35.528  34.478  28.837  1.00  0.00     0.014 A 
ATOM     36  C   UNL A   1      34.063  32.878  29.916  1.00  0.00     0.014 A 
ATOM     37  C   UNL A   1      36.628  33.868  29.445  1.00  0.00     0.010 A 
ATOM     38  C   UNL A   1      35.142  32.351  30.610  1.00  0.00     0.010 A 
ATOM     39  C   UNL A   1      36.439  32.826  30.367  1.00  0.00    -0.014 A 
BRANCH  39  40
ATOM     40  C   UNL A   1      37.579  32.183  31.068  1.00  0.00     0.031 A 
ATOM     41  C   UNL A   1      38.359  31.101  30.369  1.00  0.00     0.074 A 
ATOM     42  C   UNL A   1      37.857  32.506  32.345  1.00  0.00     0.049 A 
ATOM     43  N   UNL A   1      39.320  30.342  30.829  1.00  0.00    -0.248 NA
ATOM     44  C   UNL A   1      37.978  30.804  28.978  1.00  0.00     0.031 C 
ATOM     45  C   UNL A   1      37.128  33.487  33.151  1.00  0.00     0.029 A 
ATOM     46  N   UNL A   1      38.823  32.030  33.197  1.00  0.00    -0.354 N 
ATOM     47  C   UNL A   1      39.631  29.465  29.798  1.00  0.00     0.074 A 
ATOM     48  C   UNL A   1      38.715  29.736  28.716  1.00  0.00     0.031 C 
ATOM     49  C   UNL A   1      37.691  33.564  34.367  1.00  0.00     0.029 A 
ATOM     50  C   UNL A   1      38.795  32.612  34.442  1.00  0.00     0.049 A 
ATOM     51  H   UNL A   1      39.474  31.339  32.940  1.00  0.00     0.167 HD
ATOM     52  C   UNL A   1      40.617  28.539  29.745  1.00  0.00     0.037 A 
ATOM     53  C   UNL A   1      39.572  32.395  35.520  1.00  0.00     0.037 A 
ATOM     54  C   UNL A   1      41.558  28.310  30.807  1.00  0.00     0.049 A 
ATOM     55  C   UNL A   1      40.681  31.381  35.426  1.00  0.00     0.074 A 
ATOM     56  C   UNL A   1      42.643  27.452  30.829  1.00  0.00     0.029 A 
ATOM     57  N   UNL A   1      41.525  28.948  32.038  1.00  0.00    -0.354 N 
ATOM     58  N   UNL A   1      41.016  30.612  34.418  1.00  0.00    -0.248 NA
ATOM     59  C   UNL A   1      41.526  31.211  36.616  1.00  0.00     0.031 C 
ATOM     60  C   UNL A   1      43.242  27.541  32.090  1.00  0.00     0.029 A 
ATOM     61  C   UNL A   1      42.561  28.492  32.835  1.00  0.00     0.049 A 
ATOM     62  H   UNL A   1      40.863  29.627  32.305  1.00  0.00     0.167 HD
ATOM     63  C   UNL A   1      42.124  29.890  34.841  1.00  0.00     0.074 A 
ATOM     64  C   UNL A   1      42.414  30.324  36.192  1.00  0.00     0.031 C 
ATOM     65  C   UNL A   1      42.837  28.949  34.173  1.00  0.00     0.037 A 
BRANCH  52  66
ATOM     66  C   UNL A   1      40.734  27.719  28.491  1.00  0.00     0.064 A 
ATOM     67  C   UNL A   1      40.078  26.487  28.353  1.00  0.00     0.173 A 
ATOM     68  C   UNL A   1      41.494  28.182  27.407  1.00  0.00     0.173 A 
ATOM     69  F   UNL A   1      39.351  25.990  29.365  1.00  0.00    -0.203 F 
ATOM     70  C   UNL A   1      40.207  25.731  27.190  1.00  0.00     0.198 A 
ATOM     71  C   UNL A   1      41.593  27.440  26.232  1.00  0.00     0.198 A 
ATOM     72  F   UNL A   1      42.139  29.356  27.484  1.00  0.00    -0.203 F 
ATOM     73  F   UNL A   1      39.620  24.530  27.105  1.00  0.00    -0.200 F 
ATOM     74  C   UNL A   1      40.958  26.212  26.128  1.00  0.00     0.200 A 
ATOM     75  F   UNL A   1      42.308  27.912  25.202  1.00  0.00    -0.200 F 
ATOM     76  F   UNL A   1      41.076  25.487  25.008  1.00  0.00    -0.200 F 
ENDBRANCH  52  66
BRANCH  53  77
ATOM     77  C   UNL A   1      39.356  33.178  36.765  1.00  0.00     0.064 A 
ATOM     78  C   UNL A   1      38.505  32.704  37.773  1.00  0.00     0.173 A 
ATOM     79  C   UNL A   1      39.989  34.411  36.975  1.00  0.00     0.173 A 
ATOM     80  F   UNL A   1      37.860  31.538  37.612  1.00  0.00    -0.203 F 
ATOM     81  C   UNL A   1      38.277  33.443  38.933  1.00  0.00     0.198 A 
ATOM     82  C   UNL A   1      39.784  35.136  38.148  1.00  0.00     0.198 A 
ATOM     83  F   UNL A   1      40.818  34.906  36.045  1.00  0.00    -0.203 F 
ATOM     84  F   UNL A   1      37.422  32.987  39.859  1.00  0.00    -0.200 F 
ATOM     85  C   UNL A   1      38.922  34.656  39.122  1.00  0.00     0.200 A 
ATOM     86  F   UNL A   1      40.420  36.301  38.333  1.00  0.00    -0.200 F 
ATOM     87  F   UNL A   1      38.706  35.364  40.238  1.00  0.00    -0.200 F 
ENDBRANCH  53  77
BRANCH  65  88
ATOM     88  C   UNL A   1      44.020  28.353  34.878  1.00  0.00     0.064 A 
ATOM     89  C   UNL A   1      45.293  28.936  34.802  1.00  0.00     0.173 A 
ATOM     90  C   UNL A   1      43.865  27.211  35.678  1.00  0.00     0.173 A 
ATOM     91  F   UNL A   1      45.494  30.021  34.038  1.00  0.00    -0.203 F 
ATOM     92  C   UNL A   1      46.374  28.383  35.483  1.00  0.00     0.198 A 
ATOM     93  C   UNL A   1      44.941  26.681  36.383  1.00  0.00     0.198 A 
ATOM     94  F   UNL A   1      42.666  26.622  35.790  1.00  0.00    -0.203 F 
ATOM     95  F   UNL A   1      47.591  28.929  35.359  1.00  0.00    -0.200 F 
ATOM     96  C   UNL A   1      46.195  27.261  36.278  1.00  0.00     0.200 A 
ATOM     97  F   UNL A   1      44.763  25.606  37.164  1.00  0.00    -0.200 F 
ATOM     98  F   UNL A   1      47.235  26.737  36.940  1.00  0.00    -0.200 F 
ENDBRANCH  65  88
ENDBRANCH  39  40
ENDBRANCH  31  34
ENDBRANCH  29  30
ENDBRANCH  28  29
ENDBRANCH   1  28
TORSDOF 14
ENDMDL
