MODEL 1
REMARK VINA RESULT:     -12.2      0.000      0.000
REMARK SMILES COc1ccc(NC(=O)C[C@@H](C[NH+]2CCOCC2)C(=O)NCCCNC(=O)c2ccc(-c3c4nc(c(-c5c(F)c(F)c(F)c(F)c5F)c5ccc([nH]5)c(-c5c(F)c(F)c(F)c(F)c5F)c5nc(c(-c6c(F)c(F)c(F)c(F)c6F)c6ccc3[nH]6)C=C5)C=C4)cc2)cc1
REMARK SMILES IDX 22 1 21 2 19 3 20 4 11 6 10 7 8 8 7 9 9 11 6 12 3 13 4 14
REMARK SMILES IDX 92 15 5 16 91 17 2 18 1 19 12 20 13 21 14 22 18 23 15 25
REMARK SMILES IDX 17 26 16 27 23 28 24 29 25 30 26 31 27 33 28 34 29 35 90 36
REMARK SMILES IDX 30 37 89 38 31 39 32 40 33 41 83 42 34 43 88 44 82 45 84 46
REMARK SMILES IDX 35 47 87 48 81 49 80 50 36 52 68 53 48 54 67 55 49 56 52 57
REMARK SMILES IDX 66 58 85 59 50 60 51 61 65 63 86 64 53 65 37 66 38 67 46 68
REMARK SMILES IDX 39 69 40 70 44 71 47 72 41 73 42 74 45 75 43 76 69 77 70 78
REMARK SMILES IDX 78 79 71 80 72 81 76 82 79 83 73 84 74 85 77 86 75 87 54 88
REMARK SMILES IDX 55 89 63 90 56 91 57 92 61 93 64 94 58 95 59 96 62 97 60 98
REMARK H PARENT 21 5 7 10 13 24 25 32 84 51 52 62
REMARK Flexibility Score: inf
ROOT
ATOM      1  C   UNL A   1      31.410  27.062  26.134  1.00  0.00     0.117 C 
ENDROOT
BRANCH   1   2
ATOM      2  N   UNL A   1      31.342  25.626  26.696  1.00  0.00    -0.356 N 
ATOM      3  C   UNL A   1      31.259  24.269  26.438  1.00  0.00     0.229 C 
ATOM      4  O   UNL A   1      31.296  23.600  27.488  1.00  0.00    -0.275 OA
ATOM      5  H   UNL A   1      31.372  25.716  27.676  1.00  0.00     0.163 HD
BRANCH   3   6
ATOM      6  C   UNL A   1      31.205  23.436  25.063  1.00  0.00     0.142 C 
BRANCH   6   7
ATOM      7  C   UNL A   1      30.877  24.220  23.721  1.00  0.00     0.119 C 
BRANCH   7   8
ATOM      8  C   UNL A   1      31.571  25.352  22.790  1.00  0.00     0.225 C 
ATOM      9  N   UNL A   1      31.371  26.666  22.434  1.00  0.00    -0.326 N 
ATOM     10  H   UNL A   1      32.089  26.962  21.829  1.00  0.00     0.169 HD
ATOM     11  O   UNL A   1      32.528  24.891  22.117  1.00  0.00    -0.275 OA
BRANCH   9  12
ATOM     12  C   UNL A   1      30.461  27.728  22.661  1.00  0.00     0.041 A 
ATOM     13  C   UNL A   1      28.325  29.620  22.968  1.00  0.00     0.119 A 
ATOM     14  C   UNL A   1      28.153  28.303  23.304  1.00  0.00     0.048 A 
ATOM     15  C   UNL A   1      29.602  30.016  22.541  1.00  0.00     0.048 A 
ATOM     16  C   UNL A   1      29.221  27.439  23.120  1.00  0.00     0.030 A 
ATOM     17  C   UNL A   1      30.666  29.073  22.375  1.00  0.00     0.030 A 
BRANCH  13  18
ATOM     18  O   UNL A   1      27.316  30.542  22.992  1.00  0.00    -0.497 OA
ATOM     19  C   UNL A   1      27.725  31.905  23.195  1.00  0.00     0.278 C 
ENDBRANCH  13  18
ENDBRANCH   9  12
ENDBRANCH   7   8
ENDBRANCH   6   7
BRANCH   6  20
ATOM     20  C   UNL A   1      32.363  22.488  24.971  1.00  0.00     0.276 C 
BRANCH  20  21
ATOM     21  N   UNL A   1      33.626  22.728  25.713  1.00  0.00    -0.330 N 
ATOM     22  C   UNL A   1      34.460  23.636  24.968  1.00  0.00     0.291 C 
ATOM     23  C   UNL A   1      34.573  21.800  26.373  1.00  0.00     0.291 C 
ATOM     24  H   UNL A   1      33.088  22.959  26.548  1.00  0.00     0.348 HD
ATOM     25  C   UNL A   1      35.392  22.894  23.992  1.00  0.00     0.221 C 
ATOM     26  C   UNL A   1      35.915  21.395  25.681  1.00  0.00     0.221 C 
ATOM     27  O   UNL A   1      36.449  22.357  24.773  1.00  0.00    -0.370 OA
ENDBRANCH  20  21
ENDBRANCH   6  20
ENDBRANCH   3   6
ENDBRANCH   1   2
BRANCH   1  28
ATOM     28  C   UNL A   1      32.858  27.538  25.780  1.00  0.00     0.042 C 
BRANCH  28  29
ATOM     29  C   UNL A   1      33.198  28.914  25.199  1.00  0.00     0.118 C 
BRANCH  29  30
ATOM     30  N   UNL A   1      32.633  30.098  25.852  1.00  0.00    -0.352 N 
ATOM     31  C   UNL A   1      33.137  30.960  26.830  1.00  0.00     0.251 C 
ATOM     32  H   UNL A   1      31.727  30.329  25.544  1.00  0.00     0.163 HD
ATOM     33  O   UNL A   1      32.458  31.917  27.171  1.00  0.00    -0.269 OA
BRANCH  31  34
ATOM     34  C   UNL A   1      34.451  30.734  27.510  1.00  0.00     0.039 A 
ATOM     35  C   UNL A   1      35.348  31.801  27.687  1.00  0.00     0.014 A 
ATOM     36  C   UNL A   1      34.823  29.482  27.980  1.00  0.00     0.014 A 
ATOM     37  C   UNL A   1      36.542  31.618  28.410  1.00  0.00     0.010 A 
ATOM     38  C   UNL A   1      35.901  29.345  28.846  1.00  0.00     0.010 A 
ATOM     39  C   UNL A   1      36.805  30.395  29.043  1.00  0.00    -0.014 A 
BRANCH  39  40
ATOM     40  C   UNL A   1      38.031  30.132  29.852  1.00  0.00     0.031 A 
ATOM     41  C   UNL A   1      39.109  29.229  29.293  1.00  0.00     0.074 A 
ATOM     42  C   UNL A   1      38.135  30.602  31.112  1.00  0.00     0.049 A 
ATOM     43  N   UNL A   1      40.171  28.732  29.877  1.00  0.00    -0.248 NA
ATOM     44  C   UNL A   1      38.933  28.767  27.904  1.00  0.00     0.031 C 
ATOM     45  C   UNL A   1      37.130  31.415  31.800  1.00  0.00     0.029 A 
ATOM     46  N   UNL A   1      39.131  30.452  32.045  1.00  0.00    -0.354 N 
ATOM     47  C   UNL A   1      40.745  27.872  28.947  1.00  0.00     0.074 A 
ATOM     48  C   UNL A   1      39.869  27.838  27.802  1.00  0.00     0.031 C 
ATOM     49  C   UNL A   1      37.580  31.730  33.026  1.00  0.00     0.029 A 
ATOM     50  C   UNL A   1      38.882  31.105  33.230  1.00  0.00     0.049 A 
ATOM     51  H   UNL A   1      39.948  29.927  31.882  1.00  0.00     0.167 HD
ATOM     52  C   UNL A   1      41.924  27.208  29.017  1.00  0.00     0.037 A 
ATOM     53  C   UNL A   1      39.623  31.186  34.352  1.00  0.00     0.037 A 
ATOM     54  C   UNL A   1      42.826  27.309  30.130  1.00  0.00     0.049 A 
ATOM     55  C   UNL A   1      40.953  30.477  34.392  1.00  0.00     0.074 A 
ATOM     56  C   UNL A   1      44.085  26.759  30.278  1.00  0.00     0.029 A 
ATOM     57  N   UNL A   1      42.562  28.030  31.287  1.00  0.00    -0.354 N 
ATOM     58  N   UNL A   1      41.521  29.730  33.475  1.00  0.00    -0.248 NA
ATOM     59  C   UNL A   1      41.747  30.628  35.619  1.00  0.00     0.031 C 
ATOM     60  C   UNL A   1      44.564  27.106  31.545  1.00  0.00     0.029 A 
ATOM     61  C   UNL A   1      43.628  27.921  32.162  1.00  0.00     0.049 A 
ATOM     62  H   UNL A   1      41.738  28.540  31.460  1.00  0.00     0.167 HD
ATOM     63  C   UNL A   1      42.748  29.347  34.000  1.00  0.00     0.074 A 
ATOM     64  C   UNL A   1      42.850  29.962  35.308  1.00  0.00     0.031 C 
ATOM     65  C   UNL A   1      43.704  28.555  33.455  1.00  0.00     0.037 A 
BRANCH  52  66
ATOM     66  C   UNL A   1      42.310  26.341  27.848  1.00  0.00     0.064 A 
ATOM     67  C   UNL A   1      41.839  25.025  27.713  1.00  0.00     0.173 A 
ATOM     68  C   UNL A   1      43.154  26.835  26.841  1.00  0.00     0.173 A 
ATOM     69  F   UNL A   1      41.039  24.494  28.651  1.00  0.00    -0.203 F 
ATOM     70  C   UNL A   1      42.233  24.224  26.644  1.00  0.00     0.198 A 
ATOM     71  C   UNL A   1      43.513  26.044  25.751  1.00  0.00     0.198 A 
ATOM     72  F   UNL A   1      43.632  28.086  26.911  1.00  0.00    -0.203 F 
ATOM     73  F   UNL A   1      41.825  22.948  26.579  1.00  0.00    -0.200 F 
ATOM     74  C   UNL A   1      43.063  24.736  25.660  1.00  0.00     0.200 A 
ATOM     75  F   UNL A   1      44.305  26.545  24.793  1.00  0.00    -0.200 F 
ATOM     76  F   UNL A   1      43.437  23.966  24.629  1.00  0.00    -0.200 F 
ENDBRANCH  52  66
BRANCH  53  77
ATOM     77  C   UNL A   1      39.154  32.004  35.504  1.00  0.00     0.064 A 
ATOM     78  C   UNL A   1      39.477  33.366  35.599  1.00  0.00     0.173 A 
ATOM     79  C   UNL A   1      38.371  31.452  36.529  1.00  0.00     0.173 A 
ATOM     80  F   UNL A   1      40.239  33.939  34.655  1.00  0.00    -0.203 F 
ATOM     81  C   UNL A   1      39.058  34.136  36.683  1.00  0.00     0.198 A 
ATOM     82  C   UNL A   1      37.924  32.230  37.597  1.00  0.00     0.198 A 
ATOM     83  F   UNL A   1      38.025  30.157  36.487  1.00  0.00    -0.203 F 
ATOM     84  F   UNL A   1      39.424  35.422  36.770  1.00  0.00    -0.200 F 
ATOM     85  C   UNL A   1      38.276  33.570  37.677  1.00  0.00     0.200 A 
ATOM     86  F   UNL A   1      37.155  31.684  38.547  1.00  0.00    -0.200 F 
ATOM     87  F   UNL A   1      37.866  34.311  38.715  1.00  0.00    -0.200 F 
ENDBRANCH  53  77
BRANCH  65  88
ATOM     88  C   UNL A   1      44.955  28.340  34.255  1.00  0.00     0.064 A 
ATOM     89  C   UNL A   1      46.049  29.210  34.157  1.00  0.00     0.173 A 
ATOM     90  C   UNL A   1      45.036  27.278  35.168  1.00  0.00     0.173 A 
ATOM     91  F   UNL A   1      46.022  30.234  33.289  1.00  0.00    -0.203 F 
ATOM     92  C   UNL A   1      47.193  29.007  34.922  1.00  0.00     0.198 A 
ATOM     93  C   UNL A   1      46.168  27.100  35.958  1.00  0.00     0.198 A 
ATOM     94  F   UNL A   1      44.011  26.424  35.308  1.00  0.00    -0.203 F 
ATOM     95  F   UNL A   1      48.248  29.821  34.774  1.00  0.00    -0.200 F 
ATOM     96  C   UNL A   1      47.248  27.958  35.828  1.00  0.00     0.200 A 
ATOM     97  F   UNL A   1      46.211  26.097  36.846  1.00  0.00    -0.200 F 
ATOM     98  F   UNL A   1      48.347  27.772  36.571  1.00  0.00    -0.200 F 
ENDBRANCH  65  88
ENDBRANCH  39  40
ENDBRANCH  31  34
ENDBRANCH  29  30
ENDBRANCH  28  29
ENDBRANCH   1  28
TORSDOF 16
ENDMDL
MODEL 2
REMARK VINA RESULT:     -12.1      1.574      3.385
REMARK SMILES COc1ccc(NC(=O)C[C@@H](C[NH+]2CCOCC2)C(=O)NCCCNC(=O)c2ccc(-c3c4nc(c(-c5c(F)c(F)c(F)c(F)c5F)c5ccc([nH]5)c(-c5c(F)c(F)c(F)c(F)c5F)c5nc(c(-c6c(F)c(F)c(F)c(F)c6F)c6ccc3[nH]6)C=C5)C=C4)cc2)cc1
REMARK SMILES IDX 22 1 21 2 19 3 20 4 11 6 10 7 8 8 7 9 9 11 6 12 3 13 4 14
REMARK SMILES IDX 92 15 5 16 91 17 2 18 1 19 12 20 13 21 14 22 18 23 15 25
REMARK SMILES IDX 17 26 16 27 23 28 24 29 25 30 26 31 27 33 28 34 29 35 90 36
REMARK SMILES IDX 30 37 89 38 31 39 32 40 33 41 83 42 34 43 88 44 82 45 84 46
REMARK SMILES IDX 35 47 87 48 81 49 80 50 36 52 68 53 48 54 67 55 49 56 52 57
REMARK SMILES IDX 66 58 85 59 50 60 51 61 65 63 86 64 53 65 37 66 38 67 46 68
REMARK SMILES IDX 39 69 40 70 44 71 47 72 41 73 42 74 45 75 43 76 69 77 70 78
REMARK SMILES IDX 78 79 71 80 72 81 76 82 79 83 73 84 74 85 77 86 75 87 54 88
REMARK SMILES IDX 55 89 63 90 56 91 57 92 61 93 64 94 58 95 59 96 62 97 60 98
REMARK H PARENT 21 5 7 10 13 24 25 32 84 51 52 62
REMARK Flexibility Score: inf
ROOT
ATOM      1  C   UNL A   1      31.545  27.261  26.425  1.00  0.00     0.117 C 
ENDROOT
BRANCH   1   2
ATOM      2  N   UNL A   1      31.544  25.777  26.846  1.00  0.00    -0.356 N 
ATOM      3  C   UNL A   1      31.298  24.460  26.499  1.00  0.00     0.229 C 
ATOM      4  O   UNL A   1      31.589  23.680  27.424  1.00  0.00    -0.275 OA
ATOM      5  H   UNL A   1      31.860  25.758  27.778  1.00  0.00     0.163 HD
BRANCH   3   6
ATOM      6  C   UNL A   1      30.795  23.784  25.128  1.00  0.00     0.142 C 
BRANCH   6   7
ATOM      7  C   UNL A   1      31.097  24.538  23.763  1.00  0.00     0.119 C 
BRANCH   7   8
ATOM      8  C   UNL A   1      32.391  24.945  22.874  1.00  0.00     0.225 C 
ATOM      9  N   UNL A   1      33.753  24.747  22.877  1.00  0.00    -0.326 N 
ATOM     10  H   UNL A   1      34.156  25.188  22.094  1.00  0.00     0.169 HD
ATOM     11  O   UNL A   1      32.099  25.749  21.953  1.00  0.00    -0.275 OA
BRANCH   9  12
ATOM     12  C   UNL A   1      34.759  24.114  23.647  1.00  0.00     0.041 A 
ATOM     13  C   UNL A   1      36.870  23.209  25.367  1.00  0.00     0.119 A 
ATOM     14  C   UNL A   1      35.928  24.096  25.815  1.00  0.00     0.048 A 
ATOM     15  C   UNL A   1      36.717  22.708  24.065  1.00  0.00     0.048 A 
ATOM     16  C   UNL A   1      34.942  24.503  24.930  1.00  0.00     0.030 A 
ATOM     17  C   UNL A   1      35.673  23.165  23.200  1.00  0.00     0.030 A 
BRANCH  13  18
ATOM     18  O   UNL A   1      37.956  22.826  26.104  1.00  0.00    -0.497 OA
ATOM     19  C   UNL A   1      38.627  21.639  25.650  1.00  0.00     0.278 C 
ENDBRANCH  13  18
ENDBRANCH   9  12
ENDBRANCH   7   8
ENDBRANCH   6   7
BRANCH   6  20
ATOM     20  C   UNL A   1      31.101  22.316  25.117  1.00  0.00     0.276 C 
BRANCH  20  21
ATOM     21  N   UNL A   1      32.486  21.811  24.943  1.00  0.00    -0.330 N 
ATOM     22  C   UNL A   1      32.623  21.216  23.638  1.00  0.00     0.291 C 
ATOM     23  C   UNL A   1      33.356  20.998  25.822  1.00  0.00     0.291 C 
ATOM     24  H   UNL A   1      32.850  22.721  25.227  1.00  0.00     0.348 HD
ATOM     25  C   UNL A   1      32.276  19.716  23.649  1.00  0.00     0.221 C 
ATOM     26  C   UNL A   1      33.549  19.467  25.570  1.00  0.00     0.221 C 
ATOM     27  O   UNL A   1      33.392  19.048  24.216  1.00  0.00    -0.370 OA
ENDBRANCH  20  21
ENDBRANCH   6  20
ENDBRANCH   3   6
ENDBRANCH   1   2
BRANCH   1  28
ATOM     28  C   UNL A   1      32.572  27.600  25.293  1.00  0.00     0.042 C 
BRANCH  28  29
ATOM     29  C   UNL A   1      33.258  28.959  25.127  1.00  0.00     0.118 C 
BRANCH  29  30
ATOM     30  N   UNL A   1      32.672  30.117  25.809  1.00  0.00    -0.352 N 
ATOM     31  C   UNL A   1      33.156  30.958  26.814  1.00  0.00     0.251 C 
ATOM     32  H   UNL A   1      31.765  30.344  25.501  1.00  0.00     0.163 HD
ATOM     33  O   UNL A   1      32.462  31.896  27.177  1.00  0.00    -0.269 OA
BRANCH  31  34
ATOM     34  C   UNL A   1      34.469  30.732  27.497  1.00  0.00     0.039 A 
ATOM     35  C   UNL A   1      35.348  31.807  27.713  1.00  0.00     0.014 A 
ATOM     36  C   UNL A   1      34.858  29.473  27.932  1.00  0.00     0.014 A 
ATOM     37  C   UNL A   1      36.540  31.622  28.439  1.00  0.00     0.010 A 
ATOM     38  C   UNL A   1      35.932  29.326  28.800  1.00  0.00     0.010 A 
ATOM     39  C   UNL A   1      36.818  30.384  29.036  1.00  0.00    -0.014 A 
BRANCH  39  40
ATOM     40  C   UNL A   1      38.042  30.116  29.846  1.00  0.00     0.031 A 
ATOM     41  C   UNL A   1      39.114  29.203  29.291  1.00  0.00     0.074 A 
ATOM     42  C   UNL A   1      38.150  30.590  31.104  1.00  0.00     0.049 A 
ATOM     43  N   UNL A   1      40.172  28.701  29.877  1.00  0.00    -0.248 NA
ATOM     44  C   UNL A   1      38.934  28.736  27.904  1.00  0.00     0.031 C 
ATOM     45  C   UNL A   1      37.151  31.414  31.789  1.00  0.00     0.029 A 
ATOM     46  N   UNL A   1      39.145  30.437  32.038  1.00  0.00    -0.354 N 
ATOM     47  C   UNL A   1      40.740  27.832  28.951  1.00  0.00     0.074 A 
ATOM     48  C   UNL A   1      39.863  27.799  27.806  1.00  0.00     0.031 C 
ATOM     49  C   UNL A   1      37.604  31.731  33.013  1.00  0.00     0.029 A 
ATOM     50  C   UNL A   1      38.901  31.097  33.220  1.00  0.00     0.049 A 
ATOM     51  H   UNL A   1      39.958  29.906  31.877  1.00  0.00     0.167 HD
ATOM     52  C   UNL A   1      41.913  27.159  29.023  1.00  0.00     0.037 A 
ATOM     53  C   UNL A   1      39.643  31.178  34.341  1.00  0.00     0.037 A 
ATOM     54  C   UNL A   1      42.817  27.260  30.136  1.00  0.00     0.049 A 
ATOM     55  C   UNL A   1      40.968  30.460  34.384  1.00  0.00     0.074 A 
ATOM     56  C   UNL A   1      44.071  26.701  30.286  1.00  0.00     0.029 A 
ATOM     57  N   UNL A   1      42.558  27.987  31.290  1.00  0.00    -0.354 N 
ATOM     58  N   UNL A   1      41.530  29.705  33.471  1.00  0.00    -0.248 NA
ATOM     59  C   UNL A   1      41.763  30.611  35.610  1.00  0.00     0.031 C 
ATOM     60  C   UNL A   1      44.554  27.050  31.551  1.00  0.00     0.029 A 
ATOM     61  C   UNL A   1      43.623  27.875  32.165  1.00  0.00     0.049 A 
ATOM     62  H   UNL A   1      41.738  28.505  31.461  1.00  0.00     0.167 HD
ATOM     63  C   UNL A   1      42.754  29.315  33.997  1.00  0.00     0.074 A 
ATOM     64  C   UNL A   1      42.861  29.935  35.302  1.00  0.00     0.031 C 
ATOM     65  C   UNL A   1      43.704  28.514  33.455  1.00  0.00     0.037 A 
BRANCH  52  66
ATOM     66  C   UNL A   1      42.293  26.285  27.858  1.00  0.00     0.064 A 
ATOM     67  C   UNL A   1      43.195  26.715  26.872  1.00  0.00     0.173 A 
ATOM     68  C   UNL A   1      41.760  24.993  27.731  1.00  0.00     0.173 A 
ATOM     69  F   UNL A   1      43.729  27.944  26.935  1.00  0.00    -0.203 F 
ATOM     70  C   UNL A   1      43.512  25.907  25.782  1.00  0.00     0.198 A 
ATOM     71  C   UNL A   1      42.109  24.172  26.661  1.00  0.00     0.198 A 
ATOM     72  F   UNL A   1      40.897  24.523  28.644  1.00  0.00    -0.203 F 
ATOM     73  F   UNL A   1      44.320  26.372  24.818  1.00  0.00    -0.200 F 
ATOM     74  C   UNL A   1      42.975  24.634  25.681  1.00  0.00     0.200 A 
ATOM     75  F   UNL A   1      41.600  22.936  26.572  1.00  0.00    -0.200 F 
ATOM     76  F   UNL A   1      43.283  23.856  24.634  1.00  0.00    -0.200 F 
ENDBRANCH  52  66
BRANCH  53  77
ATOM     77  C   UNL A   1      39.180  32.005  35.490  1.00  0.00     0.064 A 
ATOM     78  C   UNL A   1      39.514  33.365  35.579  1.00  0.00     0.173 A 
ATOM     79  C   UNL A   1      38.393  31.463  36.517  1.00  0.00     0.173 A 
ATOM     80  F   UNL A   1      40.280  33.928  34.633  1.00  0.00    -0.203 F 
ATOM     81  C   UNL A   1      39.101  34.143  36.659  1.00  0.00     0.198 A 
ATOM     82  C   UNL A   1      37.952  32.250  37.581  1.00  0.00     0.198 A 
ATOM     83  F   UNL A   1      38.037  30.171  36.480  1.00  0.00    -0.203 F 
ATOM     84  F   UNL A   1      39.477  35.426  36.741  1.00  0.00    -0.200 F 
ATOM     85  C   UNL A   1      38.314  33.587  37.656  1.00  0.00     0.200 A 
ATOM     86  F   UNL A   1      37.179  31.713  38.534  1.00  0.00    -0.200 F 
ATOM     87  F   UNL A   1      37.910  34.336  38.691  1.00  0.00    -0.200 F 
ENDBRANCH  53  77
BRANCH  65  88
ATOM     88  C   UNL A   1      44.954  28.293  34.255  1.00  0.00     0.064 A 
ATOM     89  C   UNL A   1      46.052  29.160  34.159  1.00  0.00     0.173 A 
ATOM     90  C   UNL A   1      45.031  27.231  35.168  1.00  0.00     0.173 A 
ATOM     91  F   UNL A   1      46.029  30.184  33.291  1.00  0.00    -0.203 F 
ATOM     92  C   UNL A   1      47.195  28.952  34.924  1.00  0.00     0.198 A 
ATOM     93  C   UNL A   1      46.161  27.048  35.958  1.00  0.00     0.198 A 
ATOM     94  F   UNL A   1      44.002  26.380  35.307  1.00  0.00    -0.203 F 
ATOM     95  F   UNL A   1      48.252  29.761  34.778  1.00  0.00    -0.200 F 
ATOM     96  C   UNL A   1      47.245  27.902  35.829  1.00  0.00     0.200 A 
ATOM     97  F   UNL A   1      46.200  26.044  36.846  1.00  0.00    -0.200 F 
ATOM     98  F   UNL A   1      48.342  27.710  36.574  1.00  0.00    -0.200 F 
ENDBRANCH  65  88
ENDBRANCH  39  40
ENDBRANCH  31  34
ENDBRANCH  29  30
ENDBRANCH  28  29
ENDBRANCH   1  28
TORSDOF 16
ENDMDL
MODEL 3
REMARK VINA RESULT:     -12.1      0.748      7.260
REMARK SMILES COc1ccc(NC(=O)C[C@@H](C[NH+]2CCOCC2)C(=O)NCCCNC(=O)c2ccc(-c3c4nc(c(-c5c(F)c(F)c(F)c(F)c5F)c5ccc([nH]5)c(-c5c(F)c(F)c(F)c(F)c5F)c5nc(c(-c6c(F)c(F)c(F)c(F)c6F)c6ccc3[nH]6)C=C5)C=C4)cc2)cc1
REMARK SMILES IDX 22 1 21 2 19 3 20 4 11 6 10 7 8 8 7 9 9 11 6 12 3 13 4 14
REMARK SMILES IDX 92 15 5 16 91 17 2 18 1 19 12 20 13 21 14 22 18 23 15 25
REMARK SMILES IDX 17 26 16 27 23 28 24 29 25 30 26 31 27 33 28 34 29 35 90 36
REMARK SMILES IDX 30 37 89 38 31 39 32 40 33 41 83 42 34 43 88 44 82 45 84 46
REMARK SMILES IDX 35 47 87 48 81 49 80 50 36 52 68 53 48 54 67 55 49 56 52 57
REMARK SMILES IDX 66 58 85 59 50 60 51 61 65 63 86 64 53 65 37 66 38 67 46 68
REMARK SMILES IDX 39 69 40 70 44 71 47 72 41 73 42 74 45 75 43 76 69 77 70 78
REMARK SMILES IDX 78 79 71 80 72 81 76 82 79 83 73 84 74 85 77 86 75 87 54 88
REMARK SMILES IDX 55 89 63 90 56 91 57 92 61 93 64 94 58 95 59 96 62 97 60 98
REMARK H PARENT 21 5 7 10 13 24 25 32 84 51 52 62
REMARK Flexibility Score: inf
ROOT
ATOM      1  C   UNL A   1      31.455  27.694  26.534  1.00  0.00     0.117 C 
ENDROOT
BRANCH   1   2
ATOM      2  N   UNL A   1      31.338  26.180  26.802  1.00  0.00    -0.356 N 
ATOM      3  C   UNL A   1      31.731  24.896  26.466  1.00  0.00     0.229 C 
ATOM      4  O   UNL A   1      31.210  24.047  27.213  1.00  0.00    -0.275 OA
ATOM      5  H   UNL A   1      30.698  26.083  27.544  1.00  0.00     0.163 HD
BRANCH   3   6
ATOM      6  C   UNL A   1      32.768  24.340  25.369  1.00  0.00     0.142 C 
BRANCH   6   7
ATOM      7  C   UNL A   1      32.439  24.580  23.834  1.00  0.00     0.119 C 
BRANCH   7   8
ATOM      8  C   UNL A   1      32.702  25.722  22.712  1.00  0.00     0.225 C 
ATOM      9  N   UNL A   1      32.143  26.905  22.287  1.00  0.00    -0.326 N 
ATOM     10  H   UNL A   1      32.677  27.282  21.550  1.00  0.00     0.169 HD
ATOM     11  O   UNL A   1      33.638  25.412  21.932  1.00  0.00    -0.275 OA
BRANCH   9  12
ATOM     12  C   UNL A   1      31.045  27.753  22.572  1.00  0.00     0.041 A 
ATOM     13  C   UNL A   1      28.580  29.150  23.029  1.00  0.00     0.119 A 
ATOM     14  C   UNL A   1      28.730  27.843  23.411  1.00  0.00     0.048 A 
ATOM     15  C   UNL A   1      29.698  29.794  22.477  1.00  0.00     0.048 A 
ATOM     16  C   UNL A   1      29.942  27.223  23.149  1.00  0.00     0.030 A 
ATOM     17  C   UNL A   1      30.925  29.098  22.236  1.00  0.00     0.030 A 
BRANCH  13  18
ATOM     18  O   UNL A   1      27.399  29.832  23.124  1.00  0.00    -0.497 OA
ATOM     19  C   UNL A   1      27.510  31.218  23.489  1.00  0.00     0.278 C 
ENDBRANCH  13  18
ENDBRANCH   9  12
ENDBRANCH   7   8
ENDBRANCH   6   7
BRANCH   6  20
ATOM     20  C   UNL A   1      34.179  24.653  25.767  1.00  0.00     0.276 C 
BRANCH  20  21
ATOM     21  N   UNL A   1      35.156  23.581  26.081  1.00  0.00    -0.330 N 
ATOM     22  C   UNL A   1      36.348  23.766  25.294  1.00  0.00     0.291 C 
ATOM     23  C   UNL A   1      35.003  22.113  26.197  1.00  0.00     0.291 C 
ATOM     24  H   UNL A   1      35.057  23.787  27.075  1.00  0.00     0.348 HD
ATOM     25  C   UNL A   1      36.263  23.036  23.940  1.00  0.00     0.221 C 
ATOM     26  C   UNL A   1      35.446  21.164  25.035  1.00  0.00     0.221 C 
ATOM     27  O   UNL A   1      36.495  21.661  24.208  1.00  0.00    -0.370 OA
ENDBRANCH  20  21
ENDBRANCH   6  20
ENDBRANCH   3   6
ENDBRANCH   1   2
BRANCH   1  28
ATOM     28  C   UNL A   1      32.794  28.116  25.842  1.00  0.00     0.042 C 
BRANCH  28  29
ATOM     29  C   UNL A   1      33.073  29.513  25.279  1.00  0.00     0.118 C 
BRANCH  29  30
ATOM     30  N   UNL A   1      32.651  30.673  26.069  1.00  0.00    -0.352 N 
ATOM     31  C   UNL A   1      33.272  31.382  27.101  1.00  0.00     0.251 C 
ATOM     32  H   UNL A   1      31.761  31.017  25.828  1.00  0.00     0.163 HD
ATOM     33  O   UNL A   1      32.703  32.359  27.563  1.00  0.00    -0.269 OA
BRANCH  31  34
ATOM     34  C   UNL A   1      34.583  30.968  27.693  1.00  0.00     0.039 A 
ATOM     35  C   UNL A   1      35.606  31.914  27.878  1.00  0.00     0.014 A 
ATOM     36  C   UNL A   1      34.829  29.656  28.073  1.00  0.00     0.014 A 
ATOM     37  C   UNL A   1      36.805  31.554  28.522  1.00  0.00     0.010 A 
ATOM     38  C   UNL A   1      35.926  29.346  28.869  1.00  0.00     0.010 A 
ATOM     39  C   UNL A   1      36.954  30.273  29.072  1.00  0.00    -0.014 A 
BRANCH  39  40
ATOM     40  C   UNL A   1      38.180  29.825  29.797  1.00  0.00     0.031 A 
ATOM     41  C   UNL A   1      38.441  30.335  31.197  1.00  0.00     0.074 A 
ATOM     42  C   UNL A   1      39.102  29.062  29.176  1.00  0.00     0.049 A 
ATOM     43  N   UNL A   1      39.509  30.214  31.946  1.00  0.00    -0.248 NA
ATOM     44  C   UNL A   1      37.381  31.151  31.815  1.00  0.00     0.031 C 
ATOM     45  C   UNL A   1      39.011  28.571  27.799  1.00  0.00     0.029 A 
ATOM     46  N   UNL A   1      40.307  28.574  29.619  1.00  0.00    -0.354 N 
ATOM     47  C   UNL A   1      39.261  30.975  33.083  1.00  0.00     0.074 A 
ATOM     48  C   UNL A   1      37.991  31.630  32.887  1.00  0.00     0.031 C 
ATOM     49  C   UNL A   1      40.089  27.816  27.527  1.00  0.00     0.029 A 
ATOM     50  C   UNL A   1      40.969  27.806  28.689  1.00  0.00     0.049 A 
ATOM     51  H   UNL A   1      40.664  28.756  30.518  1.00  0.00     0.167 HD
ATOM     52  C   UNL A   1      39.998  31.081  34.214  1.00  0.00     0.037 A 
ATOM     53  C   UNL A   1      42.153  27.169  28.770  1.00  0.00     0.037 A 
ATOM     54  C   UNL A   1      41.224  30.363  34.431  1.00  0.00     0.049 A 
ATOM     55  C   UNL A   1      42.937  27.262  30.055  1.00  0.00     0.074 A 
ATOM     56  C   UNL A   1      42.012  30.318  35.565  1.00  0.00     0.029 A 
ATOM     57  N   UNL A   1      41.831  29.549  33.484  1.00  0.00    -0.354 N 
ATOM     58  N   UNL A   1      42.653  27.921  31.152  1.00  0.00    -0.248 NA
ATOM     59  C   UNL A   1      44.201  26.516  30.114  1.00  0.00     0.031 C 
ATOM     60  C   UNL A   1      43.122  29.513  35.290  1.00  0.00     0.029 A 
ATOM     61  C   UNL A   1      42.995  29.011  34.004  1.00  0.00     0.049 A 
ATOM     62  H   UNL A   1      41.485  29.379  32.578  1.00  0.00     0.167 HD
ATOM     63  C   UNL A   1      43.684  27.649  32.040  1.00  0.00     0.074 A 
ATOM     64  C   UNL A   1      44.590  26.746  31.360  1.00  0.00     0.031 C 
ATOM     65  C   UNL A   1      43.871  28.105  33.303  1.00  0.00     0.037 A 
BRANCH  52  66
ATOM     66  C   UNL A   1      39.483  31.980  35.306  1.00  0.00     0.064 A 
ATOM     67  C   UNL A   1      38.611  31.511  36.303  1.00  0.00     0.173 A 
ATOM     68  C   UNL A   1      39.874  33.326  35.368  1.00  0.00     0.173 A 
ATOM     69  F   UNL A   1      38.193  30.236  36.289  1.00  0.00    -0.203 F 
ATOM     70  C   UNL A   1      38.116  32.363  37.287  1.00  0.00     0.198 A 
ATOM     71  C   UNL A   1      39.408  34.165  36.377  1.00  0.00     0.198 A 
ATOM     72  F   UNL A   1      40.709  33.831  34.447  1.00  0.00    -0.203 F 
ATOM     73  F   UNL A   1      37.229  31.905  38.183  1.00  0.00    -0.200 F 
ATOM     74  C   UNL A   1      38.520  33.687  37.329  1.00  0.00     0.200 A 
ATOM     75  F   UNL A   1      39.812  35.443  36.424  1.00  0.00    -0.200 F 
ATOM     76  F   UNL A   1      38.047  34.505  38.280  1.00  0.00    -0.200 F 
ENDBRANCH  52  66
BRANCH  53  77
ATOM     77  C   UNL A   1      42.645  26.350  27.628  1.00  0.00     0.064 A 
ATOM     78  C   UNL A   1      43.580  26.868  26.720  1.00  0.00     0.173 A 
ATOM     79  C   UNL A   1      42.202  25.034  27.421  1.00  0.00     0.173 A 
ATOM     80  F   UNL A   1      44.022  28.127  26.862  1.00  0.00    -0.203 F 
ATOM     81  C   UNL A   1      44.033  26.116  25.638  1.00  0.00     0.198 A 
ATOM     82  C   UNL A   1      42.680  24.270  26.357  1.00  0.00     0.198 A 
ATOM     83  F   UNL A   1      41.315  24.484  28.262  1.00  0.00    -0.203 F 
ATOM     84  F   UNL A   1      44.888  26.656  24.760  1.00  0.00    -0.200 F 
ATOM     85  C   UNL A   1      43.588  24.815  25.460  1.00  0.00     0.200 A 
ATOM     86  F   UNL A   1      42.261  23.008  26.198  1.00  0.00    -0.200 F 
ATOM     87  F   UNL A   1      44.029  24.088  24.425  1.00  0.00    -0.200 F 
ENDBRANCH  53  77
BRANCH  65  88
ATOM     88  C   UNL A   1      45.078  27.607  34.041  1.00  0.00     0.064 A 
ATOM     89  C   UNL A   1      45.046  26.423  34.792  1.00  0.00     0.173 A 
ATOM     90  C   UNL A   1      46.296  28.297  33.952  1.00  0.00     0.173 A 
ATOM     91  F   UNL A   1      43.901  25.733  34.915  1.00  0.00    -0.203 F 
ATOM     92  C   UNL A   1      46.181  25.965  35.452  1.00  0.00     0.198 A 
ATOM     93  C   UNL A   1      47.438  27.817  34.585  1.00  0.00     0.198 A 
ATOM     94  F   UNL A   1      46.383  29.429  33.238  1.00  0.00    -0.203 F 
ATOM     95  F   UNL A   1      46.114  24.859  36.206  1.00  0.00    -0.200 F 
ATOM     96  C   UNL A   1      47.378  26.657  35.341  1.00  0.00     0.200 A 
ATOM     97  F   UNL A   1      48.599  28.477  34.460  1.00  0.00    -0.200 F 
ATOM     98  F   UNL A   1      48.472  26.208  35.969  1.00  0.00    -0.200 F 
ENDBRANCH  65  88
ENDBRANCH  39  40
ENDBRANCH  31  34
ENDBRANCH  29  30
ENDBRANCH  28  29
ENDBRANCH   1  28
TORSDOF 16
ENDMDL
