MODEL 1
REMARK VINA RESULT:     -12.6      0.000      0.000
REMARK SMILES C[C@H]1CCCC[C@H]1[N@H+]1[C@@H](C(=O)NCCCNC(=O)c2ccc(-c3c4nc(c(-c5c(F)c(F)c(F)c(F)c5F)c5ccc([nH]5)c(-c5c(F)c(F)c(F)c(F)c5F)c5nc(c(-c6c(F)c(F)c(F)c(F)c6F)c6ccc3[nH]6)C=C5)C=C4)cc2)CC[C@@H]2CCCC[C@@H]21
REMARK SMILES IDX 14 1 13 2 12 3 10 4 11 5 9 7 8 8 89 9 82 11 84 12 88 13
REMARK SMILES IDX 83 14 85 15 87 16 86 17 7 18 1 19 2 20 3 21 4 22 6 23 5 24
REMARK SMILES IDX 15 25 16 26 17 27 18 29 19 30 20 31 81 32 21 33 80 34 22 35
REMARK SMILES IDX 23 36 24 37 74 38 25 39 79 40 73 41 75 42 26 43 78 44 72 45
REMARK SMILES IDX 71 46 27 48 59 49 39 50 58 51 40 52 43 53 57 54 76 55 41 56
REMARK SMILES IDX 42 57 56 59 77 60 44 61 28 62 29 63 37 64 30 65 31 66 35 67
REMARK SMILES IDX 38 68 32 69 33 70 36 71 34 72 60 73 61 74 69 75 62 76 63 77
REMARK SMILES IDX 67 78 70 79 64 80 65 81 68 82 66 83 45 84 46 85 54 86 47 87
REMARK SMILES IDX 48 88 52 89 55 90 49 91 50 92 53 93 51 94
REMARK H PARENT 12 6 8 10 16 28 75 47 43 58
REMARK Flexibility Score: inf
ROOT
ATOM      1  C   UNL A   1      34.146  27.915  26.019  1.00  0.00     0.042 C 
ENDROOT
BRANCH   1   2
ATOM      2  C   UNL A   1      33.793  28.741  24.789  1.00  0.00     0.118 C 
BRANCH   2   3
ATOM      3  N   UNL A   1      34.146  28.103  23.525  1.00  0.00    -0.351 N 
ATOM      4  C   UNL A   1      33.467  27.175  22.775  1.00  0.00     0.278 C 
ATOM      5  O   UNL A   1      33.819  27.029  21.601  1.00  0.00    -0.268 OA
ATOM      6  H   UNL A   1      35.012  28.384  23.150  1.00  0.00     0.163 HD
BRANCH   4   7
ATOM      7  C   UNL A   1      32.261  26.449  23.355  1.00  0.00     0.274 C 
ATOM      8  N   UNL A   1      32.338  25.020  23.774  1.00  0.00    -0.319 N 
ATOM      9  C   UNL A   1      30.964  24.483  24.058  1.00  0.00     0.188 C 
ATOM     10  H   UNL A   1      32.906  25.129  24.614  1.00  0.00     0.349 HD
ATOM     11  C   UNL A   1      30.988  26.783  22.569  1.00  0.00     0.076 C 
ATOM     12  C   UNL A   1      29.964  25.569  24.556  1.00  0.00     0.048 C 
ATOM     13  C   UNL A   1      30.871  23.289  25.042  1.00  0.00     0.065 C 
ATOM     14  C   UNL A   1      29.783  26.684  23.508  1.00  0.00     0.016 C 
ATOM     15  C   UNL A   1      30.331  26.106  25.963  1.00  0.00     0.010 C 
ATOM     16  C   UNL A   1      30.631  23.672  26.505  1.00  0.00     0.006 C 
ATOM     17  C   UNL A   1      31.093  25.085  26.812  1.00  0.00     0.001 C 
BRANCH   8  18
ATOM     18  C   UNL A   1      33.312  24.037  23.225  1.00  0.00     0.187 C 
ATOM     19  C   UNL A   1      35.408  24.316  24.815  1.00  0.00     0.014 C 
ATOM     20  C   UNL A   1      34.454  23.392  24.066  1.00  0.00     0.044 C 
ATOM     21  C   UNL A   1      33.907  22.299  24.971  1.00  0.00     0.009 C 
ATOM     22  C   UNL A   1      33.388  21.135  24.135  1.00  0.00     0.001 C 
ATOM     23  C   UNL A   1      32.736  22.916  22.316  1.00  0.00     0.065 C 
ATOM     24  C   UNL A   1      32.572  21.505  22.895  1.00  0.00     0.006 C 
ENDBRANCH   8  18
ENDBRANCH   4   7
ENDBRANCH   2   3
ENDBRANCH   1   2
BRANCH   1  25
ATOM     25  C   UNL A   1      33.454  28.378  27.299  1.00  0.00     0.118 C 
BRANCH  25  26
ATOM     26  N   UNL A   1      33.479  29.829  27.452  1.00  0.00    -0.352 N 
ATOM     27  C   UNL A   1      34.419  30.663  27.999  1.00  0.00     0.251 C 
ATOM     28  H   UNL A   1      32.681  30.288  27.103  1.00  0.00     0.163 HD
ATOM     29  O   UNL A   1      34.126  31.842  28.202  1.00  0.00    -0.269 OA
BRANCH  27  30
ATOM     30  C   UNL A   1      35.770  30.181  28.366  1.00  0.00     0.039 A 
ATOM     31  C   UNL A   1      36.786  30.237  27.405  1.00  0.00     0.014 A 
ATOM     32  C   UNL A   1      36.035  29.619  29.617  1.00  0.00     0.014 A 
ATOM     33  C   UNL A   1      38.074  29.797  27.720  1.00  0.00     0.010 A 
ATOM     34  C   UNL A   1      37.337  29.249  29.955  1.00  0.00     0.010 A 
ATOM     35  C   UNL A   1      38.372  29.334  29.011  1.00  0.00    -0.014 A 
BRANCH  35  36
ATOM     36  C   UNL A   1      39.756  28.949  29.394  1.00  0.00     0.031 A 
ATOM     37  C   UNL A   1      40.600  29.866  30.235  1.00  0.00     0.074 A 
ATOM     38  C   UNL A   1      40.279  27.799  28.927  1.00  0.00     0.049 A 
ATOM     39  N   UNL A   1      41.853  29.740  30.598  1.00  0.00    -0.248 NA
ATOM     40  C   UNL A   1      39.960  31.100  30.713  1.00  0.00     0.031 C 
ATOM     41  C   UNL A   1      39.580  26.840  28.070  1.00  0.00     0.029 A 
ATOM     42  N   UNL A   1      41.526  27.248  29.093  1.00  0.00    -0.354 N 
ATOM     43  C   UNL A   1      42.154  30.881  31.330  1.00  0.00     0.074 A 
ATOM     44  C   UNL A   1      40.967  31.710  31.323  1.00  0.00     0.031 C 
ATOM     45  C   UNL A   1      40.400  25.811  27.801  1.00  0.00     0.029 A 
ATOM     46  C   UNL A   1      41.695  26.056  28.429  1.00  0.00     0.049 A 
ATOM     47  H   UNL A   1      42.232  27.666  29.637  1.00  0.00     0.167 HD
ATOM     48  C   UNL A   1      43.307  31.198  31.967  1.00  0.00     0.037 A 
ATOM     49  C   UNL A   1      42.774  25.258  28.327  1.00  0.00     0.037 A 
ATOM     50  C   UNL A   1      44.479  30.362  31.995  1.00  0.00     0.049 A 
ATOM     51  C   UNL A   1      44.047  25.642  29.032  1.00  0.00     0.074 A 
ATOM     52  C   UNL A   1      45.673  30.573  32.663  1.00  0.00     0.029 A 
ATOM     53  N   UNL A   1      44.606  29.157  31.321  1.00  0.00    -0.354 N 
ATOM     54  N   UNL A   1      44.297  26.693  29.774  1.00  0.00    -0.248 NA
ATOM     55  C   UNL A   1      45.185  24.723  28.890  1.00  0.00     0.031 C 
ATOM     56  C   UNL A   1      46.540  29.518  32.356  1.00  0.00     0.029 A 
ATOM     57  C   UNL A   1      45.868  28.624  31.537  1.00  0.00     0.049 A 
ATOM     58  H   UNL A   1      43.905  28.741  30.769  1.00  0.00     0.167 HD
ATOM     59  C   UNL A   1      45.608  26.550  30.208  1.00  0.00     0.074 A 
ATOM     60  C   UNL A   1      46.096  25.302  29.659  1.00  0.00     0.031 C 
ATOM     61  C   UNL A   1      46.340  27.378  30.992  1.00  0.00     0.037 A 
BRANCH  48  62
ATOM     62  C   UNL A   1      43.359  32.512  32.694  1.00  0.00     0.064 A 
ATOM     63  C   UNL A   1      43.768  33.692  32.053  1.00  0.00     0.173 A 
ATOM     64  C   UNL A   1      42.956  32.601  34.034  1.00  0.00     0.173 A 
ATOM     65  F   UNL A   1      44.172  33.660  30.774  1.00  0.00    -0.203 F 
ATOM     66  C   UNL A   1      43.799  34.905  32.735  1.00  0.00     0.198 A 
ATOM     67  C   UNL A   1      42.958  33.822  34.705  1.00  0.00     0.198 A 
ATOM     68  F   UNL A   1      42.549  31.506  34.693  1.00  0.00    -0.203 F 
ATOM     69  F   UNL A   1      44.237  36.010  32.115  1.00  0.00    -0.200 F 
ATOM     70  C   UNL A   1      43.387  34.971  34.058  1.00  0.00     0.200 A 
ATOM     71  F   UNL A   1      42.547  33.886  35.979  1.00  0.00    -0.200 F 
ATOM     72  F   UNL A   1      43.409  36.141  34.710  1.00  0.00    -0.200 F 
ENDBRANCH  48  62
BRANCH  49  73
ATOM     73  C   UNL A   1      42.693  24.002  27.538  1.00  0.00     0.064 A 
ATOM     74  C   UNL A   1      42.315  22.796  28.144  1.00  0.00     0.173 A 
ATOM     75  C   UNL A   1      42.995  23.978  26.169  1.00  0.00     0.173 A 
ATOM     76  F   UNL A   1      42.038  22.765  29.456  1.00  0.00    -0.203 F 
ATOM     77  C   UNL A   1      42.260  21.609  27.415  1.00  0.00     0.198 A 
ATOM     78  C   UNL A   1      42.913  22.797  25.435  1.00  0.00     0.198 A 
ATOM     79  F   UNL A   1      43.359  25.106  25.541  1.00  0.00    -0.203 F 
ATOM     80  F   UNL A   1      41.940  20.463  28.030  1.00  0.00    -0.200 F 
ATOM     81  C   UNL A   1      42.553  21.612  26.060  1.00  0.00     0.200 A 
ATOM     82  F   UNL A   1      43.182  22.805  24.122  1.00  0.00    -0.200 F 
ATOM     83  F   UNL A   1      42.497  20.472  25.359  1.00  0.00    -0.200 F 
ENDBRANCH  49  73
BRANCH  61  84
ATOM     84  C   UNL A   1      47.737  26.946  31.334  1.00  0.00     0.064 A 
ATOM     85  C   UNL A   1      48.005  26.114  32.431  1.00  0.00     0.173 A 
ATOM     86  C   UNL A   1      48.819  27.344  30.533  1.00  0.00     0.173 A 
ATOM     87  F   UNL A   1      47.008  25.719  33.237  1.00  0.00    -0.203 F 
ATOM     88  C   UNL A   1      49.306  25.715  32.727  1.00  0.00     0.198 A 
ATOM     89  C   UNL A   1      50.114  26.919  30.814  1.00  0.00     0.198 A 
ATOM     90  F   UNL A   1      48.617  28.136  29.469  1.00  0.00    -0.203 F 
ATOM     91  F   UNL A   1      49.544  24.959  33.806  1.00  0.00    -0.200 F 
ATOM     92  C   UNL A   1      50.358  26.112  31.914  1.00  0.00     0.200 A 
ATOM     93  F   UNL A   1      51.127  27.293  30.020  1.00  0.00    -0.200 F 
ATOM     94  F   UNL A   1      51.608  25.722  32.197  1.00  0.00    -0.200 F 
ENDBRANCH  61  84
ENDBRANCH  35  36
ENDBRANCH  27  30
ENDBRANCH  25  26
ENDBRANCH   1  25
TORSDOF 11
ENDMDL
MODEL 2
REMARK VINA RESULT:     -12.5      2.667      7.718
REMARK SMILES C[C@H]1CCCC[C@H]1[N@H+]1[C@@H](C(=O)NCCCNC(=O)c2ccc(-c3c4nc(c(-c5c(F)c(F)c(F)c(F)c5F)c5ccc([nH]5)c(-c5c(F)c(F)c(F)c(F)c5F)c5nc(c(-c6c(F)c(F)c(F)c(F)c6F)c6ccc3[nH]6)C=C5)C=C4)cc2)CC[C@@H]2CCCC[C@@H]21
REMARK SMILES IDX 14 1 13 2 12 3 10 4 11 5 9 7 8 8 89 9 82 11 84 12 88 13
REMARK SMILES IDX 83 14 85 15 87 16 86 17 7 18 1 19 2 20 3 21 4 22 6 23 5 24
REMARK SMILES IDX 15 25 16 26 17 27 18 29 19 30 20 31 81 32 21 33 80 34 22 35
REMARK SMILES IDX 23 36 24 37 74 38 25 39 79 40 73 41 75 42 26 43 78 44 72 45
REMARK SMILES IDX 71 46 27 48 59 49 39 50 58 51 40 52 43 53 57 54 76 55 41 56
REMARK SMILES IDX 42 57 56 59 77 60 44 61 28 62 29 63 37 64 30 65 31 66 35 67
REMARK SMILES IDX 38 68 32 69 33 70 36 71 34 72 60 73 61 74 69 75 62 76 63 77
REMARK SMILES IDX 67 78 70 79 64 80 65 81 68 82 66 83 45 84 46 85 54 86 47 87
REMARK SMILES IDX 48 88 52 89 55 90 49 91 50 92 53 93 51 94
REMARK H PARENT 12 6 8 10 16 28 75 47 43 58
REMARK Flexibility Score: inf
ROOT
ATOM      1  C   UNL A   1      33.139  28.956  24.161  1.00  0.00     0.042 C 
ENDROOT
BRANCH   1   2
ATOM      2  C   UNL A   1      34.263  27.946  23.969  1.00  0.00     0.118 C 
BRANCH   2   3
ATOM      3  N   UNL A   1      34.209  27.234  22.697  1.00  0.00    -0.351 N 
ATOM      4  C   UNL A   1      33.283  26.342  22.212  1.00  0.00     0.278 C 
ATOM      5  O   UNL A   1      33.290  26.123  20.998  1.00  0.00    -0.268 OA
ATOM      6  H   UNL A   1      34.958  27.423  22.087  1.00  0.00     0.163 HD
BRANCH   4   7
ATOM      7  C   UNL A   1      32.230  25.747  23.136  1.00  0.00     0.274 C 
ATOM      8  N   UNL A   1      32.347  24.354  23.656  1.00  0.00    -0.319 N 
ATOM      9  C   UNL A   1      31.066  23.934  24.318  1.00  0.00     0.188 C 
ATOM     10  H   UNL A   1      33.112  24.492  24.317  1.00  0.00     0.349 HD
ATOM     11  C   UNL A   1      30.817  26.100  22.660  1.00  0.00     0.076 C 
ATOM     12  C   UNL A   1      30.272  25.120  24.943  1.00  0.00     0.048 C 
ATOM     13  C   UNL A   1      31.170  22.830  25.403  1.00  0.00     0.065 C 
ATOM     14  C   UNL A   1      29.883  26.157  23.871  1.00  0.00     0.016 C 
ATOM     15  C   UNL A   1      31.003  25.742  26.160  1.00  0.00     0.010 C 
ATOM     16  C   UNL A   1      31.322  23.344  26.837  1.00  0.00     0.006 C 
ATOM     17  C   UNL A   1      31.908  24.744  26.887  1.00  0.00     0.001 C 
BRANCH   8  18
ATOM     18  C   UNL A   1      33.107  23.267  22.979  1.00  0.00     0.187 C 
ATOM     19  C   UNL A   1      35.581  23.638  23.843  1.00  0.00     0.014 C 
ATOM     20  C   UNL A   1      34.440  22.676  23.528  1.00  0.00     0.044 C 
ATOM     21  C   UNL A   1      34.173  21.726  24.685  1.00  0.00     0.009 C 
ATOM     22  C   UNL A   1      33.420  20.495  24.194  1.00  0.00     0.001 C 
ATOM     23  C   UNL A   1      32.280  22.073  22.428  1.00  0.00     0.065 C 
ATOM     24  C   UNL A   1      32.280  20.751  23.206  1.00  0.00     0.006 C 
ENDBRANCH   8  18
ENDBRANCH   4   7
ENDBRANCH   2   3
ENDBRANCH   1   2
BRANCH   1  25
ATOM     25  C   UNL A   1      32.661  29.088  25.604  1.00  0.00     0.118 C 
BRANCH  25  26
ATOM     26  N   UNL A   1      32.359  30.468  25.968  1.00  0.00    -0.352 N 
ATOM     27  C   UNL A   1      32.933  31.305  26.889  1.00  0.00     0.251 C 
ATOM     28  H   UNL A   1      31.613  30.868  25.464  1.00  0.00     0.163 HD
ATOM     29  O   UNL A   1      32.371  32.367  27.164  1.00  0.00    -0.269 OA
BRANCH  27  30
ATOM     30  C   UNL A   1      34.199  30.960  27.574  1.00  0.00     0.039 A 
ATOM     31  C   UNL A   1      35.170  31.956  27.730  1.00  0.00     0.014 A 
ATOM     32  C   UNL A   1      34.470  29.660  28.007  1.00  0.00     0.014 A 
ATOM     33  C   UNL A   1      36.374  31.667  28.378  1.00  0.00     0.010 A 
ATOM     34  C   UNL A   1      35.640  29.390  28.718  1.00  0.00     0.010 A 
ATOM     35  C   UNL A   1      36.605  30.390  28.913  1.00  0.00    -0.014 A 
BRANCH  35  36
ATOM     36  C   UNL A   1      37.838  30.087  29.686  1.00  0.00     0.031 A 
ATOM     37  C   UNL A   1      38.869  29.138  29.141  1.00  0.00     0.074 A 
ATOM     38  C   UNL A   1      38.000  30.618  30.914  1.00  0.00     0.049 A 
ATOM     39  N   UNL A   1      39.964  28.690  29.706  1.00  0.00    -0.248 NA
ATOM     40  C   UNL A   1      38.629  28.604  27.793  1.00  0.00     0.031 C 
ATOM     41  C   UNL A   1      37.056  31.522  31.574  1.00  0.00     0.029 A 
ATOM     42  N   UNL A   1      39.008  30.462  31.833  1.00  0.00    -0.354 N 
ATOM     43  C   UNL A   1      40.531  27.812  28.791  1.00  0.00     0.074 A 
ATOM     44  C   UNL A   1      39.637  27.755  27.653  1.00  0.00     0.031 C 
ATOM     45  C   UNL A   1      37.538  31.854  32.782  1.00  0.00     0.029 A 
ATOM     46  C   UNL A   1      38.801  31.156  33.001  1.00  0.00     0.049 A 
ATOM     47  H   UNL A   1      39.804  29.906  31.670  1.00  0.00     0.167 HD
ATOM     48  C   UNL A   1      41.699  27.131  28.883  1.00  0.00     0.037 A 
ATOM     49  C   UNL A   1      39.539  31.213  34.126  1.00  0.00     0.037 A 
ATOM     50  C   UNL A   1      42.598  27.206  30.004  1.00  0.00     0.049 A 
ATOM     51  C   UNL A   1      40.824  30.436  34.207  1.00  0.00     0.074 A 
ATOM     52  C   UNL A   1      43.833  26.599  30.162  1.00  0.00     0.029 A 
ATOM     53  N   UNL A   1      42.359  27.930  31.163  1.00  0.00    -0.354 N 
ATOM     54  N   UNL A   1      41.379  29.659  33.310  1.00  0.00    -0.248 NA
ATOM     55  C   UNL A   1      41.588  30.549  35.457  1.00  0.00     0.031 C 
ATOM     56  C   UNL A   1      44.319  26.917  31.434  1.00  0.00     0.029 A 
ATOM     57  C   UNL A   1      43.413  27.765  32.050  1.00  0.00     0.049 A 
ATOM     58  H   UNL A   1      41.560  28.479  31.331  1.00  0.00     0.167 HD
ATOM     59  C   UNL A   1      42.567  29.213  33.873  1.00  0.00     0.074 A 
ATOM     60  C   UNL A   1      42.660  29.818  35.186  1.00  0.00     0.031 C 
ATOM     61  C   UNL A   1      43.498  28.378  33.350  1.00  0.00     0.037 A 
BRANCH  48  62
ATOM     62  C   UNL A   1      42.075  26.240  27.733  1.00  0.00     0.064 A 
ATOM     63  C   UNL A   1      42.997  26.648  26.757  1.00  0.00     0.173 A 
ATOM     64  C   UNL A   1      41.540  24.947  27.629  1.00  0.00     0.173 A 
ATOM     65  F   UNL A   1      43.532  27.878  26.805  1.00  0.00    -0.203 F 
ATOM     66  C   UNL A   1      43.347  25.806  25.705  1.00  0.00     0.198 A 
ATOM     67  C   UNL A   1      41.916  24.096  26.592  1.00  0.00     0.198 A 
ATOM     68  F   UNL A   1      40.661  24.503  28.539  1.00  0.00    -0.203 F 
ATOM     69  F   UNL A   1      44.194  26.236  24.759  1.00  0.00    -0.200 F 
ATOM     70  C   UNL A   1      42.812  24.529  25.627  1.00  0.00     0.200 A 
ATOM     71  F   UNL A   1      41.408  22.857  26.527  1.00  0.00    -0.200 F 
ATOM     72  F   UNL A   1      43.156  23.718  24.618  1.00  0.00    -0.200 F 
ENDBRANCH  48  62
BRANCH  49  73
ATOM     73  C   UNL A   1      39.087  32.055  35.264  1.00  0.00     0.064 A 
ATOM     74  C   UNL A   1      39.392  33.422  35.311  1.00  0.00     0.173 A 
ATOM     75  C   UNL A   1      38.350  31.513  36.326  1.00  0.00     0.173 A 
ATOM     76  F   UNL A   1      40.115  33.981  34.329  1.00  0.00    -0.203 F 
ATOM     77  C   UNL A   1      38.993  34.213  36.387  1.00  0.00     0.198 A 
ATOM     78  C   UNL A   1      37.927  32.310  37.389  1.00  0.00     0.198 A 
ATOM     79  F   UNL A   1      38.030  30.211  36.327  1.00  0.00    -0.203 F 
ATOM     80  F   UNL A   1      39.337  35.506  36.429  1.00  0.00    -0.200 F 
ATOM     81  C   UNL A   1      38.256  33.657  37.422  1.00  0.00     0.200 A 
ATOM     82  F   UNL A   1      37.203  31.773  38.379  1.00  0.00    -0.200 F 
ATOM     83  F   UNL A   1      37.869  34.417  38.455  1.00  0.00    -0.200 F 
ENDBRANCH  49  73
BRANCH  61  84
ATOM     84  C   UNL A   1      44.716  28.095  34.181  1.00  0.00     0.064 A 
ATOM     85  C   UNL A   1      45.851  28.918  34.130  1.00  0.00     0.173 A 
ATOM     86  C   UNL A   1      44.734  27.006  35.066  1.00  0.00     0.173 A 
ATOM     87  F   UNL A   1      45.890  29.962  33.288  1.00  0.00    -0.203 F 
ATOM     88  C   UNL A   1      46.968  28.646  34.916  1.00  0.00     0.198 A 
ATOM     89  C   UNL A   1      45.840  26.756  35.873  1.00  0.00     0.198 A 
ATOM     90  F   UNL A   1      43.672  26.192  35.158  1.00  0.00    -0.203 F 
ATOM     91  F   UNL A   1      48.059  29.417  34.816  1.00  0.00    -0.200 F 
ATOM     92  C   UNL A   1      46.959  27.570  35.791  1.00  0.00     0.200 A 
ATOM     93  F   UNL A   1      45.824  25.723  36.727  1.00  0.00    -0.200 F 
ATOM     94  F   UNL A   1      48.032  27.315  36.552  1.00  0.00    -0.200 F 
ENDBRANCH  61  84
ENDBRANCH  35  36
ENDBRANCH  27  30
ENDBRANCH  25  26
ENDBRANCH   1  25
TORSDOF 11
ENDMDL
MODEL 3
REMARK VINA RESULT:     -12.4      2.663      7.708
REMARK SMILES C[C@H]1CCCC[C@H]1[N@H+]1[C@@H](C(=O)NCCCNC(=O)c2ccc(-c3c4nc(c(-c5c(F)c(F)c(F)c(F)c5F)c5ccc([nH]5)c(-c5c(F)c(F)c(F)c(F)c5F)c5nc(c(-c6c(F)c(F)c(F)c(F)c6F)c6ccc3[nH]6)C=C5)C=C4)cc2)CC[C@@H]2CCCC[C@@H]21
REMARK SMILES IDX 14 1 13 2 12 3 10 4 11 5 9 7 8 8 89 9 82 11 84 12 88 13
REMARK SMILES IDX 83 14 85 15 87 16 86 17 7 18 1 19 2 20 3 21 4 22 6 23 5 24
REMARK SMILES IDX 15 25 16 26 17 27 18 29 19 30 20 31 81 32 21 33 80 34 22 35
REMARK SMILES IDX 23 36 24 37 74 38 25 39 79 40 73 41 75 42 26 43 78 44 72 45
REMARK SMILES IDX 71 46 27 48 59 49 39 50 58 51 40 52 43 53 57 54 76 55 41 56
REMARK SMILES IDX 42 57 56 59 77 60 44 61 28 62 29 63 37 64 30 65 31 66 35 67
REMARK SMILES IDX 38 68 32 69 33 70 36 71 34 72 60 73 61 74 69 75 62 76 63 77
REMARK SMILES IDX 67 78 70 79 64 80 65 81 68 82 66 83 45 84 46 85 54 86 47 87
REMARK SMILES IDX 48 88 52 89 55 90 49 91 50 92 53 93 51 94
REMARK H PARENT 12 6 8 10 16 28 75 47 43 58
REMARK Flexibility Score: inf
ROOT
ATOM      1  C   UNL A   1      33.219  28.960  24.231  1.00  0.00     0.042 C 
ENDROOT
BRANCH   1   2
ATOM      2  C   UNL A   1      34.284  27.885  24.058  1.00  0.00     0.118 C 
BRANCH   2   3
ATOM      3  N   UNL A   1      34.231  27.199  22.772  1.00  0.00    -0.351 N 
ATOM      4  C   UNL A   1      33.293  26.335  22.261  1.00  0.00     0.278 C 
ATOM      5  O   UNL A   1      33.310  26.139  21.042  1.00  0.00    -0.268 OA
ATOM      6  H   UNL A   1      34.990  27.385  22.174  1.00  0.00     0.163 HD
BRANCH   4   7
ATOM      7  C   UNL A   1      32.218  25.744  23.162  1.00  0.00     0.274 C 
ATOM      8  N   UNL A   1      32.312  24.345  23.672  1.00  0.00    -0.319 N 
ATOM      9  C   UNL A   1      31.015  23.933  24.308  1.00  0.00     0.188 C 
ATOM     10  H   UNL A   1      33.066  24.469  24.346  1.00  0.00     0.349 HD
ATOM     11  C   UNL A   1      30.817  26.116  22.665  1.00  0.00     0.076 C 
ATOM     12  C   UNL A   1      30.223  25.122  24.929  1.00  0.00     0.048 C 
ATOM     13  C   UNL A   1      31.089  22.820  25.385  1.00  0.00     0.065 C 
ATOM     14  C   UNL A   1      29.863  26.172  23.860  1.00  0.00     0.016 C 
ATOM     15  C   UNL A   1      30.940  25.727  26.164  1.00  0.00     0.010 C 
ATOM     16  C   UNL A   1      31.222  23.320  26.826  1.00  0.00     0.006 C 
ATOM     17  C   UNL A   1      31.821  24.713  26.898  1.00  0.00     0.001 C 
BRANCH   8  18
ATOM     18  C   UNL A   1      33.072  23.256  22.999  1.00  0.00     0.187 C 
ATOM     19  C   UNL A   1      35.559  23.678  23.798  1.00  0.00     0.014 C 
ATOM     20  C   UNL A   1      34.425  22.695  23.528  1.00  0.00     0.044 C 
ATOM     21  C   UNL A   1      34.198  21.764  24.709  1.00  0.00     0.009 C 
ATOM     22  C   UNL A   1      33.452  20.513  24.259  1.00  0.00     0.001 C 
ATOM     23  C   UNL A   1      32.249  22.040  22.490  1.00  0.00     0.065 C 
ATOM     24  C   UNL A   1      32.286  20.734  23.293  1.00  0.00     0.006 C 
ENDBRANCH   8  18
ENDBRANCH   4   7
ENDBRANCH   2   3
ENDBRANCH   1   2
BRANCH   1  25
ATOM     25  C   UNL A   1      32.708  29.106  25.661  1.00  0.00     0.118 C 
BRANCH  25  26
ATOM     26  N   UNL A   1      32.409  30.491  26.009  1.00  0.00    -0.352 N 
ATOM     27  C   UNL A   1      32.985  31.337  26.920  1.00  0.00     0.251 C 
ATOM     28  H   UNL A   1      31.664  30.886  25.501  1.00  0.00     0.163 HD
ATOM     29  O   UNL A   1      32.426  32.403  27.183  1.00  0.00    -0.269 OA
BRANCH  27  30
ATOM     30  C   UNL A   1      34.252  30.997  27.608  1.00  0.00     0.039 A 
ATOM     31  C   UNL A   1      35.180  32.018  27.846  1.00  0.00     0.014 A 
ATOM     32  C   UNL A   1      34.565  29.684  27.965  1.00  0.00     0.014 A 
ATOM     33  C   UNL A   1      36.382  31.734  28.499  1.00  0.00     0.010 A 
ATOM     34  C   UNL A   1      35.731  29.413  28.681  1.00  0.00     0.010 A 
ATOM     35  C   UNL A   1      36.653  30.435  28.958  1.00  0.00    -0.014 A 
BRANCH  35  36
ATOM     36  C   UNL A   1      37.883  30.131  29.736  1.00  0.00     0.031 A 
ATOM     37  C   UNL A   1      38.917  29.184  29.193  1.00  0.00     0.074 A 
ATOM     38  C   UNL A   1      38.038  30.658  30.966  1.00  0.00     0.049 A 
ATOM     39  N   UNL A   1      40.009  28.735  29.761  1.00  0.00    -0.248 NA
ATOM     40  C   UNL A   1      38.683  28.654  27.842  1.00  0.00     0.031 C 
ATOM     41  C   UNL A   1      37.091  31.560  31.624  1.00  0.00     0.029 A 
ATOM     42  N   UNL A   1      39.042  30.500  31.889  1.00  0.00    -0.354 N 
ATOM     43  C   UNL A   1      40.581  27.860  28.846  1.00  0.00     0.074 A 
ATOM     44  C   UNL A   1      39.692  27.806  27.704  1.00  0.00     0.031 C 
ATOM     45  C   UNL A   1      37.567  31.889  32.836  1.00  0.00     0.029 A 
ATOM     46  C   UNL A   1      38.830  31.191  33.058  1.00  0.00     0.049 A 
ATOM     47  H   UNL A   1      39.839  29.946  31.729  1.00  0.00     0.167 HD
ATOM     48  C   UNL A   1      41.749  27.179  28.942  1.00  0.00     0.037 A 
ATOM     49  C   UNL A   1      39.562  31.245  34.187  1.00  0.00     0.037 A 
ATOM     50  C   UNL A   1      42.643  27.252  30.068  1.00  0.00     0.049 A 
ATOM     51  C   UNL A   1      40.847  30.468  34.272  1.00  0.00     0.074 A 
ATOM     52  C   UNL A   1      43.878  26.645  30.230  1.00  0.00     0.029 A 
ATOM     53  N   UNL A   1      42.399  27.972  31.227  1.00  0.00    -0.354 N 
ATOM     54  N   UNL A   1      41.407  29.694  33.375  1.00  0.00    -0.248 NA
ATOM     55  C   UNL A   1      41.605  30.578  35.526  1.00  0.00     0.031 C 
ATOM     56  C   UNL A   1      44.358  26.960  31.505  1.00  0.00     0.029 A 
ATOM     57  C   UNL A   1      43.448  27.806  32.119  1.00  0.00     0.049 A 
ATOM     58  H   UNL A   1      41.598  28.520  31.394  1.00  0.00     0.167 HD
ATOM     59  C   UNL A   1      42.593  29.248  33.943  1.00  0.00     0.074 A 
ATOM     60  C   UNL A   1      42.679  29.849  35.258  1.00  0.00     0.031 C 
ATOM     61  C   UNL A   1      43.526  28.415  33.421  1.00  0.00     0.037 A 
BRANCH  48  62
ATOM     62  C   UNL A   1      42.131  26.292  27.792  1.00  0.00     0.064 A 
ATOM     63  C   UNL A   1      41.577  25.013  27.632  1.00  0.00     0.173 A 
ATOM     64  C   UNL A   1      43.030  26.743  26.814  1.00  0.00     0.173 A 
ATOM     65  F   UNL A   1      40.718  24.531  28.544  1.00  0.00    -0.203 F 
ATOM     66  C   UNL A   1      41.930  24.207  26.554  1.00  0.00     0.198 A 
ATOM     67  C   UNL A   1      43.358  25.946  25.719  1.00  0.00     0.198 A 
ATOM     68  F   UNL A   1      43.584  27.960  26.912  1.00  0.00    -0.203 F 
ATOM     69  F   UNL A   1      41.423  22.971  26.448  1.00  0.00    -0.200 F 
ATOM     70  C   UNL A   1      42.815  24.677  25.594  1.00  0.00     0.200 A 
ATOM     71  F   UNL A   1      44.203  26.407  24.785  1.00  0.00    -0.200 F 
ATOM     72  F   UNL A   1      43.148  23.903  24.552  1.00  0.00    -0.200 F 
ENDBRANCH  48  62
BRANCH  49  73
ATOM     73  C   UNL A   1      39.105  32.083  35.325  1.00  0.00     0.064 A 
ATOM     74  C   UNL A   1      39.421  33.448  35.386  1.00  0.00     0.173 A 
ATOM     75  C   UNL A   1      38.350  31.541  36.375  1.00  0.00     0.173 A 
ATOM     76  F   UNL A   1      40.161  34.006  34.416  1.00  0.00    -0.203 F 
ATOM     77  C   UNL A   1      39.017  34.234  36.463  1.00  0.00     0.198 A 
ATOM     78  C   UNL A   1      37.922  32.334  37.438  1.00  0.00     0.198 A 
ATOM     79  F   UNL A   1      38.018  30.242  36.363  1.00  0.00    -0.203 F 
ATOM     80  F   UNL A   1      39.372  35.524  36.517  1.00  0.00    -0.200 F 
ATOM     81  C   UNL A   1      38.263  33.678  37.484  1.00  0.00     0.200 A 
ATOM     82  F   UNL A   1      37.180  31.798  38.416  1.00  0.00    -0.200 F 
ATOM     83  F   UNL A   1      37.870  34.435  38.518  1.00  0.00    -0.200 F 
ENDBRANCH  49  73
BRANCH  61  84
ATOM     84  C   UNL A   1      44.741  28.131  34.257  1.00  0.00     0.064 A 
ATOM     85  C   UNL A   1      44.798  27.030  35.125  1.00  0.00     0.173 A 
ATOM     86  C   UNL A   1      45.875  28.952  34.163  1.00  0.00     0.173 A 
ATOM     87  F   UNL A   1      43.734  26.224  35.263  1.00  0.00    -0.203 F 
ATOM     88  C   UNL A   1      45.937  26.776  35.885  1.00  0.00     0.198 A 
ATOM     89  C   UNL A   1      47.022  28.677  34.901  1.00  0.00     0.198 A 
ATOM     90  F   UNL A   1      45.874  30.014  33.344  1.00  0.00    -0.203 F 
ATOM     91  F   UNL A   1      45.952  25.746  36.742  1.00  0.00    -0.200 F 
ATOM     92  C   UNL A   1      47.050  27.595  35.767  1.00  0.00     0.200 A 
ATOM     93  F   UNL A   1      48.102  29.462  34.776  1.00  0.00    -0.200 F 
ATOM     94  F   UNL A   1      48.147  27.344  36.494  1.00  0.00    -0.200 F 
ENDBRANCH  61  84
ENDBRANCH  35  36
ENDBRANCH  27  30
ENDBRANCH  25  26
ENDBRANCH   1  25
TORSDOF 11
ENDMDL
