MODEL 1
REMARK VINA RESULT:     -12.5      0.000      0.000
REMARK SMILES Cc1nccc(CNC(=O)N2CC[C@@H](C(=O)NCCCNC(=O)c3ccc(-c4c5nc(c(-c6c(F)c(F)c(F)c(F)c6F)c6ccc([nH]6)c(-c6c(F)c(F)c(F)c(F)c6F)c6nc(c(-c7c(F)c(F)c(F)c(F)c7F)c7ccc4[nH]7)C=C6)C=C5)cc3)[C@H]2C)n1
REMARK SMILES IDX 18 1 17 2 15 3 16 4 14 6 11 7 12 8 87 9 13 10 88 11 9 12
REMARK SMILES IDX 8 13 10 15 7 16 6 17 1 18 2 19 3 20 89 21 4 22 5 23 19 24
REMARK SMILES IDX 20 25 21 26 22 27 23 29 24 30 25 31 86 32 26 33 85 34 27 35
REMARK SMILES IDX 28 36 29 37 79 38 30 39 84 40 78 41 80 42 31 43 83 44 77 45
REMARK SMILES IDX 76 46 32 48 64 49 44 50 63 51 45 52 48 53 62 54 81 55 46 56
REMARK SMILES IDX 47 57 61 59 82 60 49 61 33 62 34 63 42 64 35 65 36 66 40 67
REMARK SMILES IDX 43 68 37 69 38 70 41 71 39 72 65 73 66 74 74 75 67 76 68 77
REMARK SMILES IDX 72 78 75 79 69 80 70 81 73 82 71 83 50 84 51 85 59 86 52 87
REMARK SMILES IDX 53 88 57 89 60 90 54 91 55 92 58 93 56 94
REMARK H PARENT 17 5 8 14 21 28 80 47 48 58
REMARK Flexibility Score: inf
ROOT
ATOM      1  C   UNL A   1      32.499  28.020  22.781  1.00  0.00     0.117 C 
ENDROOT
BRANCH   1   2
ATOM      2  N   UNL A   1      33.084  26.778  22.303  1.00  0.00    -0.356 N 
ATOM      3  C   UNL A   1      33.511  25.652  22.925  1.00  0.00     0.225 C 
ATOM      4  O   UNL A   1      33.976  24.771  22.194  1.00  0.00    -0.275 OA
ATOM      5  H   UNL A   1      33.192  26.749  21.325  1.00  0.00     0.163 HD
BRANCH   3   6
ATOM      6  C   UNL A   1      33.469  25.427  24.428  1.00  0.00     0.102 C 
ATOM      7  N   UNL A   1      33.042  23.425  25.669  1.00  0.00    -0.321 N 
ATOM      8  C   UNL A   1      34.340  23.927  26.094  1.00  0.00     0.122 C 
ATOM      9  C   UNL A   1      32.346  24.526  24.984  1.00  0.00     0.096 C 
ATOM     10  C   UNL A   1      34.777  24.916  25.034  1.00  0.00     0.037 C 
ATOM     11  C   UNL A   1      31.237  24.182  24.000  1.00  0.00     0.032 C 
BRANCH   7  12
ATOM     12  C   UNL A   1      32.398  22.626  26.590  1.00  0.00     0.317 C 
ATOM     13  N   UNL A   1      32.714  21.312  26.639  1.00  0.00    -0.332 N 
ATOM     14  H   UNL A   1      32.114  20.754  27.185  1.00  0.00     0.165 HD
ATOM     15  O   UNL A   1      31.616  23.070  27.428  1.00  0.00    -0.249 OA
BRANCH  13  16
ATOM     16  C   UNL A   1      33.806  20.610  26.006  1.00  0.00     0.174 C 
BRANCH  16  17
ATOM     17  C   UNL A   1      33.417  19.849  24.762  1.00  0.00     0.063 A 
ATOM     18  C   UNL A   1      34.009  16.470  23.462  1.00  0.00     0.089 C 
ATOM     19  C   UNL A   1      33.484  17.865  23.595  1.00  0.00     0.125 A 
ATOM     20  N   UNL A   1      32.576  18.277  22.695  1.00  0.00    -0.242 NA
ATOM     21  N   UNL A   1      33.922  18.601  24.632  1.00  0.00    -0.236 NA
ATOM     22  C   UNL A   1      32.102  19.526  22.856  1.00  0.00     0.115 A 
ATOM     23  C   UNL A   1      32.488  20.362  23.877  1.00  0.00     0.046 A 
ENDBRANCH  16  17
ENDBRANCH  13  16
ENDBRANCH   7  12
ENDBRANCH   3   6
ENDBRANCH   1   2
BRANCH   1  24
ATOM     24  C   UNL A   1      33.538  29.005  23.315  1.00  0.00     0.042 C 
BRANCH  24  25
ATOM     25  C   UNL A   1      33.659  29.069  24.835  1.00  0.00     0.118 C 
BRANCH  25  26
ATOM     26  N   UNL A   1      32.946  30.193  25.418  1.00  0.00    -0.352 N 
ATOM     27  C   UNL A   1      33.182  30.893  26.578  1.00  0.00     0.251 C 
ATOM     28  H   UNL A   1      32.169  30.504  24.898  1.00  0.00     0.163 HD
ATOM     29  O   UNL A   1      32.348  31.708  26.965  1.00  0.00    -0.269 OA
BRANCH  27  30
ATOM     30  C   UNL A   1      34.406  30.668  27.386  1.00  0.00     0.039 A 
ATOM     31  C   UNL A   1      34.597  29.412  27.972  1.00  0.00     0.014 A 
ATOM     32  C   UNL A   1      35.333  31.685  27.627  1.00  0.00     0.014 A 
ATOM     33  C   UNL A   1      35.737  29.161  28.743  1.00  0.00     0.010 A 
ATOM     34  C   UNL A   1      36.510  31.410  28.327  1.00  0.00     0.010 A 
ATOM     35  C   UNL A   1      36.721  30.148  28.904  1.00  0.00    -0.014 A 
BRANCH  35  36
ATOM     36  C   UNL A   1      37.954  29.894  29.695  1.00  0.00     0.031 A 
ATOM     37  C   UNL A   1      39.017  28.967  29.166  1.00  0.00     0.074 A 
ATOM     38  C   UNL A   1      38.103  30.451  30.914  1.00  0.00     0.049 A 
ATOM     39  N   UNL A   1      40.116  28.547  29.743  1.00  0.00    -0.248 NA
ATOM     40  C   UNL A   1      38.803  28.417  27.818  1.00  0.00     0.031 C 
ATOM     41  C   UNL A   1      37.137  31.336  31.564  1.00  0.00     0.029 A 
ATOM     42  N   UNL A   1      39.123  30.344  31.829  1.00  0.00    -0.354 N 
ATOM     43  C   UNL A   1      40.707  27.671  28.842  1.00  0.00     0.074 A 
ATOM     44  C   UNL A   1      39.826  27.584  27.697  1.00  0.00     0.031 C 
ATOM     45  C   UNL A   1      37.617  31.705  32.762  1.00  0.00     0.029 A 
ATOM     46  C   UNL A   1      38.905  31.055  32.983  1.00  0.00     0.049 A 
ATOM     47  H   UNL A   1      39.933  29.808  31.671  1.00  0.00     0.167 HD
ATOM     48  C   UNL A   1      41.888  27.016  28.945  1.00  0.00     0.037 A 
ATOM     49  C   UNL A   1      39.653  31.165  34.096  1.00  0.00     0.037 A 
ATOM     50  C   UNL A   1      42.789  27.132  30.061  1.00  0.00     0.049 A 
ATOM     51  C   UNL A   1      40.971  30.443  34.179  1.00  0.00     0.074 A 
ATOM     52  C   UNL A   1      44.033  26.548  30.231  1.00  0.00     0.029 A 
ATOM     53  N   UNL A   1      42.547  27.893  31.194  1.00  0.00    -0.354 N 
ATOM     54  N   UNL A   1      41.538  29.655  33.299  1.00  0.00    -0.248 NA
ATOM     55  C   UNL A   1      41.756  30.634  35.408  1.00  0.00     0.031 C 
ATOM     56  C   UNL A   1      44.531  26.934  31.480  1.00  0.00     0.029 A 
ATOM     57  C   UNL A   1      43.614  27.787  32.071  1.00  0.00     0.049 A 
ATOM     58  H   UNL A   1      41.737  28.430  31.352  1.00  0.00     0.167 HD
ATOM     59  C   UNL A   1      42.752  29.276  33.854  1.00  0.00     0.074 A 
ATOM     60  C   UNL A   1      42.849  29.932  35.141  1.00  0.00     0.031 C 
ATOM     61  C   UNL A   1      43.702  28.456  33.342  1.00  0.00     0.037 A 
BRANCH  48  62
ATOM     62  C   UNL A   1      42.285  26.119  27.810  1.00  0.00     0.064 A 
ATOM     63  C   UNL A   1      41.793  24.810  27.704  1.00  0.00     0.173 A 
ATOM     64  C   UNL A   1      43.131  26.588  26.794  1.00  0.00     0.173 A 
ATOM     65  F   UNL A   1      40.991  24.311  28.656  1.00  0.00    -0.203 F 
ATOM     66  C   UNL A   1      42.154  23.994  26.634  1.00  0.00     0.198 A 
ATOM     67  C   UNL A   1      43.468  25.779  25.711  1.00  0.00     0.198 A 
ATOM     68  F   UNL A   1      43.624  27.835  26.844  1.00  0.00    -0.203 F 
ATOM     69  F   UNL A   1      41.706  22.732  26.576  1.00  0.00    -0.200 F 
ATOM     70  C   UNL A   1      42.984  24.481  25.636  1.00  0.00     0.200 A 
ATOM     71  F   UNL A   1      44.262  26.253  24.742  1.00  0.00    -0.200 F 
ATOM     72  F   UNL A   1      43.325  23.697  24.604  1.00  0.00    -0.200 F 
ENDBRANCH  48  62
BRANCH  49  73
ATOM     73  C   UNL A   1      39.182  32.012  35.224  1.00  0.00     0.064 A 
ATOM     74  C   UNL A   1      38.431  31.462  36.271  1.00  0.00     0.173 A 
ATOM     75  C   UNL A   1      39.467  33.383  35.274  1.00  0.00     0.173 A 
ATOM     76  F   UNL A   1      38.116  30.159  36.256  1.00  0.00    -0.203 F 
ATOM     77  C   UNL A   1      37.966  32.256  37.317  1.00  0.00     0.198 A 
ATOM     78  C   UNL A   1      39.023  34.172  36.333  1.00  0.00     0.198 A 
ATOM     79  F   UNL A   1      40.188  33.956  34.298  1.00  0.00    -0.203 F 
ATOM     80  F   UNL A   1      37.213  31.713  38.283  1.00  0.00    -0.200 F 
ATOM     81  C   UNL A   1      38.267  33.609  37.350  1.00  0.00     0.200 A 
ATOM     82  F   UNL A   1      39.329  35.476  36.368  1.00  0.00    -0.200 F 
ATOM     83  F   UNL A   1      37.821  34.372  38.357  1.00  0.00    -0.200 F 
ENDBRANCH  49  73
BRANCH  61  84
ATOM     84  C   UNL A   1      44.943  28.249  34.157  1.00  0.00     0.064 A 
ATOM     85  C   UNL A   1      46.058  29.087  34.020  1.00  0.00     0.173 A 
ATOM     86  C   UNL A   1      45.001  27.226  35.115  1.00  0.00     0.173 A 
ATOM     87  F   UNL A   1      46.055  30.071  33.107  1.00  0.00    -0.203 F 
ATOM     88  C   UNL A   1      47.196  28.896  34.798  1.00  0.00     0.198 A 
ATOM     89  C   UNL A   1      46.132  27.052  35.908  1.00  0.00     0.198 A 
ATOM     90  F   UNL A   1      43.958  26.401  35.287  1.00  0.00    -0.203 F 
ATOM     91  F   UNL A   1      48.266  29.685  34.624  1.00  0.00    -0.200 F 
ATOM     92  C   UNL A   1      47.230  27.883  35.746  1.00  0.00     0.200 A 
ATOM     93  F   UNL A   1      46.160  26.080  36.830  1.00  0.00    -0.200 F 
ATOM     94  F   UNL A   1      48.324  27.705  36.499  1.00  0.00    -0.200 F 
ENDBRANCH  61  84
ENDBRANCH  35  36
ENDBRANCH  27  30
ENDBRANCH  25  26
ENDBRANCH  24  25
ENDBRANCH   1  24
TORSDOF 13
ENDMDL
MODEL 2
REMARK VINA RESULT:     -12.5      3.797      7.497
REMARK SMILES Cc1nccc(CNC(=O)N2CC[C@@H](C(=O)NCCCNC(=O)c3ccc(-c4c5nc(c(-c6c(F)c(F)c(F)c(F)c6F)c6ccc([nH]6)c(-c6c(F)c(F)c(F)c(F)c6F)c6nc(c(-c7c(F)c(F)c(F)c(F)c7F)c7ccc4[nH]7)C=C6)C=C5)cc3)[C@H]2C)n1
REMARK SMILES IDX 18 1 17 2 15 3 16 4 14 6 11 7 12 8 87 9 13 10 88 11 9 12
REMARK SMILES IDX 8 13 10 15 7 16 6 17 1 18 2 19 3 20 89 21 4 22 5 23 19 24
REMARK SMILES IDX 20 25 21 26 22 27 23 29 24 30 25 31 86 32 26 33 85 34 27 35
REMARK SMILES IDX 28 36 29 37 79 38 30 39 84 40 78 41 80 42 31 43 83 44 77 45
REMARK SMILES IDX 76 46 32 48 64 49 44 50 63 51 45 52 48 53 62 54 81 55 46 56
REMARK SMILES IDX 47 57 61 59 82 60 49 61 33 62 34 63 42 64 35 65 36 66 40 67
REMARK SMILES IDX 43 68 37 69 38 70 41 71 39 72 65 73 66 74 74 75 67 76 68 77
REMARK SMILES IDX 72 78 75 79 69 80 70 81 73 82 71 83 50 84 51 85 59 86 52 87
REMARK SMILES IDX 53 88 57 89 60 90 54 91 55 92 58 93 56 94
REMARK H PARENT 17 5 8 14 21 28 80 47 48 58
REMARK Flexibility Score: inf
ROOT
ATOM      1  C   UNL A   1      33.967  24.073  25.946  1.00  0.00     0.117 C 
ENDROOT
BRANCH   1   2
ATOM      2  N   UNL A   1      32.776  23.717  26.701  1.00  0.00    -0.356 N 
ATOM      3  C   UNL A   1      31.451  23.751  26.417  1.00  0.00     0.225 C 
ATOM      4  O   UNL A   1      30.693  23.375  27.318  1.00  0.00    -0.275 OA
ATOM      5  H   UNL A   1      32.974  23.383  27.606  1.00  0.00     0.163 HD
BRANCH   3   6
ATOM      6  C   UNL A   1      30.862  24.228  25.100  1.00  0.00     0.102 C 
ATOM      7  N   UNL A   1      31.564  26.006  23.658  1.00  0.00    -0.321 N 
ATOM      8  C   UNL A   1      31.551  24.786  22.865  1.00  0.00     0.122 C 
ATOM      9  C   UNL A   1      30.768  25.752  24.870  1.00  0.00     0.096 C 
ATOM     10  C   UNL A   1      31.523  23.639  23.853  1.00  0.00     0.037 C 
ATOM     11  C   UNL A   1      31.022  26.614  26.098  1.00  0.00     0.032 C 
BRANCH   7  12
ATOM     12  C   UNL A   1      31.426  27.171  22.936  1.00  0.00     0.317 C 
ATOM     13  N   UNL A   1      32.314  28.170  23.143  1.00  0.00    -0.332 N 
ATOM     14  H   UNL A   1      32.078  29.035  22.737  1.00  0.00     0.165 HD
ATOM     15  O   UNL A   1      30.587  27.311  22.048  1.00  0.00    -0.249 OA
BRANCH  13  16
ATOM     16  C   UNL A   1      33.559  28.149  23.874  1.00  0.00     0.174 C 
BRANCH  16  17
ATOM     17  C   UNL A   1      33.545  28.956  25.149  1.00  0.00     0.063 A 
ATOM     18  C   UNL A   1      31.418  31.590  26.561  1.00  0.00     0.089 C 
ATOM     19  C   UNL A   1      32.489  30.553  26.428  1.00  0.00     0.125 A 
ATOM     20  N   UNL A   1      33.246  30.297  27.507  1.00  0.00    -0.242 NA
ATOM     21  N   UNL A   1      32.595  29.913  25.249  1.00  0.00    -0.236 NA
ATOM     22  C   UNL A   1      34.182  29.341  27.366  1.00  0.00     0.115 A 
ATOM     23  C   UNL A   1      34.378  28.633  26.203  1.00  0.00     0.046 A 
ENDBRANCH  16  17
ENDBRANCH  13  16
ENDBRANCH   7  12
ENDBRANCH   3   6
ENDBRANCH   1   2
BRANCH   1  24
ATOM     24  C   UNL A   1      35.210  23.302  26.389  1.00  0.00     0.042 C 
BRANCH  24  25
ATOM     25  C   UNL A   1      36.495  23.650  25.646  1.00  0.00     0.118 C 
BRANCH  25  26
ATOM     26  N   UNL A   1      37.557  22.680  25.855  1.00  0.00    -0.352 N 
ATOM     27  C   UNL A   1      38.829  22.843  26.351  1.00  0.00     0.251 C 
ATOM     28  H   UNL A   1      37.328  21.756  25.601  1.00  0.00     0.163 HD
ATOM     29  O   UNL A   1      39.622  21.907  26.286  1.00  0.00    -0.269 OA
BRANCH  27  30
ATOM     30  C   UNL A   1      39.274  24.131  26.939  1.00  0.00     0.039 A 
ATOM     31  C   UNL A   1      39.946  25.043  26.118  1.00  0.00     0.014 A 
ATOM     32  C   UNL A   1      39.098  24.428  28.293  1.00  0.00     0.014 A 
ATOM     33  C   UNL A   1      40.384  26.266  26.636  1.00  0.00     0.010 A 
ATOM     34  C   UNL A   1      39.460  25.682  28.789  1.00  0.00     0.010 A 
ATOM     35  C   UNL A   1      40.119  26.612  27.970  1.00  0.00    -0.014 A 
BRANCH  35  36
ATOM     36  C   UNL A   1      40.550  27.919  28.533  1.00  0.00     0.031 A 
ATOM     37  C   UNL A   1      41.990  28.142  28.918  1.00  0.00     0.074 A 
ATOM     38  C   UNL A   1      39.644  28.893  28.752  1.00  0.00     0.049 A 
ATOM     39  N   UNL A   1      42.542  29.173  29.506  1.00  0.00    -0.248 NA
ATOM     40  C   UNL A   1      42.928  27.047  28.625  1.00  0.00     0.031 C 
ATOM     41  C   UNL A   1      38.213  28.799  28.463  1.00  0.00     0.029 A 
ATOM     42  N   UNL A   1      39.794  30.154  29.279  1.00  0.00    -0.354 N 
ATOM     43  C   UNL A   1      43.881  28.843  29.674  1.00  0.00     0.074 A 
ATOM     44  C   UNL A   1      44.050  27.498  29.165  1.00  0.00     0.031 C 
ATOM     45  C   UNL A   1      37.620  29.956  28.800  1.00  0.00     0.029 A 
ATOM     46  C   UNL A   1      38.619  30.859  29.362  1.00  0.00     0.049 A 
ATOM     47  H   UNL A   1      40.662  30.515  29.571  1.00  0.00     0.167 HD
ATOM     48  C   UNL A   1      44.884  29.597  30.182  1.00  0.00     0.037 A 
ATOM     49  C   UNL A   1      38.372  32.092  29.844  1.00  0.00     0.037 A 
ATOM     50  C   UNL A   1      44.731  30.950  30.648  1.00  0.00     0.049 A 
ATOM     51  C   UNL A   1      39.507  32.918  30.386  1.00  0.00     0.074 A 
ATOM     52  C   UNL A   1      45.701  31.811  31.132  1.00  0.00     0.029 A 
ATOM     53  N   UNL A   1      43.530  31.641  30.680  1.00  0.00    -0.354 N 
ATOM     54  N   UNL A   1      40.776  32.608  30.495  1.00  0.00    -0.248 NA
ATOM     55  C   UNL A   1      39.176  34.269  30.863  1.00  0.00     0.031 C 
ATOM     56  C   UNL A   1      45.081  33.016  31.482  1.00  0.00     0.029 A 
ATOM     57  C   UNL A   1      43.732  32.916  31.182  1.00  0.00     0.049 A 
ATOM     58  H   UNL A   1      42.661  31.280  30.389  1.00  0.00     0.167 HD
ATOM     59  C   UNL A   1      41.397  33.729  31.029  1.00  0.00     0.074 A 
ATOM     60  C   UNL A   1      40.370  34.733  31.208  1.00  0.00     0.031 C 
ATOM     61  C   UNL A   1      42.702  33.909  31.343  1.00  0.00     0.037 A 
BRANCH  48  62
ATOM     62  C   UNL A   1      46.250  28.980  30.249  1.00  0.00     0.064 A 
ATOM     63  C   UNL A   1      46.676  28.264  31.378  1.00  0.00     0.173 A 
ATOM     64  C   UNL A   1      47.125  29.067  29.156  1.00  0.00     0.173 A 
ATOM     65  F   UNL A   1      45.880  28.163  32.453  1.00  0.00    -0.203 F 
ATOM     66  C   UNL A   1      47.939  27.679  31.420  1.00  0.00     0.198 A 
ATOM     67  C   UNL A   1      48.377  28.457  29.192  1.00  0.00     0.198 A 
ATOM     68  F   UNL A   1      46.764  29.734  28.051  1.00  0.00    -0.203 F 
ATOM     69  F   UNL A   1      48.341  27.037  32.526  1.00  0.00    -0.200 F 
ATOM     70  C   UNL A   1      48.785  27.770  30.325  1.00  0.00     0.200 A 
ATOM     71  F   UNL A   1      49.190  28.536  28.129  1.00  0.00    -0.200 F 
ATOM     72  F   UNL A   1      49.997  27.200  30.365  1.00  0.00    -0.200 F 
ENDBRANCH  48  62
BRANCH  49  73
ATOM     73  C   UNL A   1      36.987  32.633  29.819  1.00  0.00     0.064 A 
ATOM     74  C   UNL A   1      36.513  33.341  28.707  1.00  0.00     0.173 A 
ATOM     75  C   UNL A   1      36.117  32.459  30.904  1.00  0.00     0.173 A 
ATOM     76  F   UNL A   1      37.316  33.551  27.655  1.00  0.00    -0.203 F 
ATOM     77  C   UNL A   1      35.224  33.872  28.689  1.00  0.00     0.198 A 
ATOM     78  C   UNL A   1      34.821  32.968  30.876  1.00  0.00     0.198 A 
ATOM     79  F   UNL A   1      36.523  31.783  31.990  1.00  0.00    -0.203 F 
ATOM     80  F   UNL A   1      34.810  34.582  27.632  1.00  0.00    -0.200 F 
ATOM     81  C   UNL A   1      34.378  33.681  29.771  1.00  0.00     0.200 A 
ATOM     82  F   UNL A   1      34.002  32.768  31.917  1.00  0.00    -0.200 F 
ATOM     83  F   UNL A   1      33.139  34.190  29.753  1.00  0.00    -0.200 F 
ENDBRANCH  49  73
BRANCH  61  84
ATOM     84  C   UNL A   1      43.102  35.250  31.880  1.00  0.00     0.064 A 
ATOM     85  C   UNL A   1      42.993  35.555  33.245  1.00  0.00     0.173 A 
ATOM     86  C   UNL A   1      43.640  36.225  31.027  1.00  0.00     0.173 A 
ATOM     87  F   UNL A   1      42.471  34.660  34.097  1.00  0.00    -0.203 F 
ATOM     88  C   UNL A   1      43.388  36.797  33.733  1.00  0.00     0.198 A 
ATOM     89  C   UNL A   1      44.056  37.458  31.523  1.00  0.00     0.198 A 
ATOM     90  F   UNL A   1      43.769  35.979  29.716  1.00  0.00    -0.203 F 
ATOM     91  F   UNL A   1      43.239  37.083  35.034  1.00  0.00    -0.200 F 
ATOM     92  C   UNL A   1      43.925  37.745  32.873  1.00  0.00     0.200 A 
ATOM     93  F   UNL A   1      44.583  38.369  30.694  1.00  0.00    -0.200 F 
ATOM     94  F   UNL A   1      44.311  38.938  33.347  1.00  0.00    -0.200 F 
ENDBRANCH  61  84
ENDBRANCH  35  36
ENDBRANCH  27  30
ENDBRANCH  25  26
ENDBRANCH  24  25
ENDBRANCH   1  24
TORSDOF 13
ENDMDL
MODEL 3
REMARK VINA RESULT:     -12.4      2.980      8.437
REMARK SMILES Cc1nccc(CNC(=O)N2CC[C@@H](C(=O)NCCCNC(=O)c3ccc(-c4c5nc(c(-c6c(F)c(F)c(F)c(F)c6F)c6ccc([nH]6)c(-c6c(F)c(F)c(F)c(F)c6F)c6nc(c(-c7c(F)c(F)c(F)c(F)c7F)c7ccc4[nH]7)C=C6)C=C5)cc3)[C@H]2C)n1
REMARK SMILES IDX 18 1 17 2 15 3 16 4 14 6 11 7 12 8 87 9 13 10 88 11 9 12
REMARK SMILES IDX 8 13 10 15 7 16 6 17 1 18 2 19 3 20 89 21 4 22 5 23 19 24
REMARK SMILES IDX 20 25 21 26 22 27 23 29 24 30 25 31 86 32 26 33 85 34 27 35
REMARK SMILES IDX 28 36 29 37 79 38 30 39 84 40 78 41 80 42 31 43 83 44 77 45
REMARK SMILES IDX 76 46 32 48 64 49 44 50 63 51 45 52 48 53 62 54 81 55 46 56
REMARK SMILES IDX 47 57 61 59 82 60 49 61 33 62 34 63 42 64 35 65 36 66 40 67
REMARK SMILES IDX 43 68 37 69 38 70 41 71 39 72 65 73 66 74 74 75 67 76 68 77
REMARK SMILES IDX 72 78 75 79 69 80 70 81 73 82 71 83 50 84 51 85 59 86 52 87
REMARK SMILES IDX 53 88 57 89 60 90 54 91 55 92 58 93 56 94
REMARK H PARENT 17 5 8 14 21 28 80 47 48 58
REMARK Flexibility Score: inf
ROOT
ATOM      1  C   UNL A   1      31.388  27.144  26.639  1.00  0.00     0.117 C 
ENDROOT
BRANCH   1   2
ATOM      2  N   UNL A   1      31.215  25.754  27.030  1.00  0.00    -0.356 N 
ATOM      3  C   UNL A   1      31.690  24.584  26.537  1.00  0.00     0.225 C 
ATOM      4  O   UNL A   1      31.324  23.560  27.124  1.00  0.00    -0.275 OA
ATOM      5  H   UNL A   1      30.632  25.639  27.815  1.00  0.00     0.163 HD
BRANCH   3   6
ATOM      6  C   UNL A   1      32.605  24.463  25.329  1.00  0.00     0.102 C 
ATOM      7  N   UNL A   1      32.793  25.867  23.399  1.00  0.00    -0.321 N 
ATOM      8  C   UNL A   1      34.110  25.800  24.014  1.00  0.00     0.122 C 
ATOM      9  C   UNL A   1      31.997  24.754  23.941  1.00  0.00     0.096 C 
ATOM     10  C   UNL A   1      33.894  25.281  25.420  1.00  0.00     0.037 C 
ATOM     11  C   UNL A   1      30.479  24.863  23.903  1.00  0.00     0.032 C 
BRANCH   7  12
ATOM     12  C   UNL A   1      32.794  26.166  22.054  1.00  0.00     0.317 C 
ATOM     13  N   UNL A   1      32.325  27.372  21.659  1.00  0.00    -0.332 N 
ATOM     14  H   UNL A   1      32.186  27.473  20.689  1.00  0.00     0.165 HD
ATOM     15  O   UNL A   1      33.282  25.423  21.205  1.00  0.00    -0.249 OA
BRANCH  13  16
ATOM     16  C   UNL A   1      32.001  28.532  22.455  1.00  0.00     0.174 C 
BRANCH  16  17
ATOM     17  C   UNL A   1      30.527  28.849  22.520  1.00  0.00     0.063 A 
ATOM     18  C   UNL A   1      28.280  31.222  20.854  1.00  0.00     0.089 C 
ATOM     19  C   UNL A   1      28.770  30.100  21.713  1.00  0.00     0.125 A 
ATOM     20  N   UNL A   1      27.850  29.350  22.343  1.00  0.00    -0.242 NA
ATOM     21  N   UNL A   1      30.097  29.885  21.765  1.00  0.00    -0.236 NA
ATOM     22  C   UNL A   1      28.318  28.332  23.087  1.00  0.00     0.115 A 
ATOM     23  C   UNL A   1      29.655  28.032  23.213  1.00  0.00     0.046 A 
ENDBRANCH  16  17
ENDBRANCH  13  16
ENDBRANCH   7  12
ENDBRANCH   3   6
ENDBRANCH   1   2
BRANCH   1  24
ATOM     24  C   UNL A   1      32.326  27.915  27.566  1.00  0.00     0.042 C 
BRANCH  24  25
ATOM     25  C   UNL A   1      33.501  28.606  26.882  1.00  0.00     0.118 C 
BRANCH  25  26
ATOM     26  N   UNL A   1      33.500  30.047  27.063  1.00  0.00    -0.352 N 
ATOM     27  C   UNL A   1      34.407  30.868  27.693  1.00  0.00     0.251 C 
ATOM     28  H   UNL A   1      32.726  30.513  26.670  1.00  0.00     0.163 HD
ATOM     29  O   UNL A   1      34.122  32.049  27.872  1.00  0.00    -0.269 OA
BRANCH  27  30
ATOM     30  C   UNL A   1      35.709  30.353  28.185  1.00  0.00     0.039 A 
ATOM     31  C   UNL A   1      36.823  30.447  27.344  1.00  0.00     0.014 A 
ATOM     32  C   UNL A   1      35.838  29.725  29.426  1.00  0.00     0.014 A 
ATOM     33  C   UNL A   1      38.068  29.969  27.769  1.00  0.00     0.010 A 
ATOM     34  C   UNL A   1      37.095  29.324  29.883  1.00  0.00     0.010 A 
ATOM     35  C   UNL A   1      38.223  29.430  29.055  1.00  0.00    -0.014 A 
BRANCH  35  36
ATOM     36  C   UNL A   1      39.543  28.943  29.538  1.00  0.00     0.031 A 
ATOM     37  C   UNL A   1      40.336  29.757  30.527  1.00  0.00     0.074 A 
ATOM     38  C   UNL A   1      40.060  27.796  29.054  1.00  0.00     0.049 A 
ATOM     39  N   UNL A   1      41.541  29.549  30.997  1.00  0.00    -0.248 NA
ATOM     40  C   UNL A   1      39.699  30.982  31.036  1.00  0.00     0.031 C 
ATOM     41  C   UNL A   1      39.418  26.930  28.065  1.00  0.00     0.029 A 
ATOM     42  N   UNL A   1      41.252  27.168  29.322  1.00  0.00    -0.354 N 
ATOM     43  C   UNL A   1      41.813  30.625  31.833  1.00  0.00     0.074 A 
ATOM     44  C   UNL A   1      40.666  31.506  31.774  1.00  0.00     0.031 C 
ATOM     45  C   UNL A   1      40.214  25.876  27.822  1.00  0.00     0.029 A 
ATOM     46  C   UNL A   1      41.437  26.009  28.608  1.00  0.00     0.049 A 
ATOM     47  H   UNL A   1      41.911  27.516  29.964  1.00  0.00     0.167 HD
ATOM     48  C   UNL A   1      42.907  30.849  32.600  1.00  0.00     0.037 A 
ATOM     49  C   UNL A   1      42.476  25.154  28.583  1.00  0.00     0.037 A 
ATOM     50  C   UNL A   1      44.030  29.955  32.697  1.00  0.00     0.049 A 
ATOM     51  C   UNL A   1      43.672  25.414  29.459  1.00  0.00     0.074 A 
ATOM     52  C   UNL A   1      45.160  30.071  33.489  1.00  0.00     0.029 A 
ATOM     53  N   UNL A   1      44.160  28.772  31.986  1.00  0.00    -0.354 N 
ATOM     54  N   UNL A   1      43.894  26.412  30.279  1.00  0.00    -0.248 NA
ATOM     55  C   UNL A   1      44.758  24.423  29.412  1.00  0.00     0.031 C 
ATOM     56  C   UNL A   1      45.988  28.972  33.235  1.00  0.00     0.029 A 
ATOM     57  C   UNL A   1      45.356  28.153  32.313  1.00  0.00     0.049 A 
ATOM     58  H   UNL A   1      43.501  28.423  31.343  1.00  0.00     0.167 HD
ATOM     59  C   UNL A   1      45.128  26.159  30.862  1.00  0.00     0.074 A 
ATOM     60  C   UNL A   1      45.602  24.906  30.314  1.00  0.00     0.031 C 
ATOM     61  C   UNL A   1      45.808  26.900  31.769  1.00  0.00     0.037 A 
BRANCH  48  62
ATOM     62  C   UNL A   1      42.938  32.110  33.413  1.00  0.00     0.064 A 
ATOM     63  C   UNL A   1      43.473  33.299  32.898  1.00  0.00     0.173 A 
ATOM     64  C   UNL A   1      42.386  32.140  34.703  1.00  0.00     0.173 A 
ATOM     65  F   UNL A   1      44.022  33.319  31.674  1.00  0.00    -0.203 F 
ATOM     66  C   UNL A   1      43.478  34.469  33.655  1.00  0.00     0.198 A 
ATOM     67  C   UNL A   1      42.369  33.317  35.446  1.00  0.00     0.198 A 
ATOM     68  F   UNL A   1      41.856  31.030  35.238  1.00  0.00    -0.203 F 
ATOM     69  F   UNL A   1      44.033  35.583  33.159  1.00  0.00    -0.200 F 
ATOM     70  C   UNL A   1      42.920  34.478  34.925  1.00  0.00     0.200 A 
ATOM     71  F   UNL A   1      41.820  33.329  36.669  1.00  0.00    -0.200 F 
ATOM     72  F   UNL A   1      42.919  35.606  35.649  1.00  0.00    -0.200 F 
ENDBRANCH  48  62
BRANCH  49  73
ATOM     73  C   UNL A   1      42.427  23.953  27.708  1.00  0.00     0.064 A 
ATOM     74  C   UNL A   1      41.981  22.721  28.203  1.00  0.00     0.173 A 
ATOM     75  C   UNL A   1      42.829  24.012  26.366  1.00  0.00     0.173 A 
ATOM     76  F   UNL A   1      41.606  22.611  29.485  1.00  0.00    -0.203 F 
ATOM     77  C   UNL A   1      41.956  21.587  27.394  1.00  0.00     0.198 A 
ATOM     78  C   UNL A   1      42.781  22.885  25.551  1.00  0.00     0.198 A 
ATOM     79  F   UNL A   1      43.258  25.171  25.844  1.00  0.00    -0.203 F 
ATOM     80  F   UNL A   1      41.567  20.411  27.904  1.00  0.00    -0.200 F 
ATOM     81  C   UNL A   1      42.352  21.671  26.067  1.00  0.00     0.200 A 
ATOM     82  F   UNL A   1      43.149  22.973  24.266  1.00  0.00    -0.200 F 
ATOM     83  F   UNL A   1      42.327  20.580  25.289  1.00  0.00    -0.200 F 
ENDBRANCH  49  73
BRANCH  61  84
ATOM     84  C   UNL A   1      47.120  26.360  32.254  1.00  0.00     0.064 A 
ATOM     85  C   UNL A   1      48.329  26.703  31.631  1.00  0.00     0.173 A 
ATOM     86  C   UNL A   1      47.173  25.526  33.380  1.00  0.00     0.173 A 
ATOM     87  F   UNL A   1      48.328  27.487  30.541  1.00  0.00    -0.203 F 
ATOM     88  C   UNL A   1      49.541  26.212  32.105  1.00  0.00     0.198 A 
ATOM     89  C   UNL A   1      48.389  25.055  33.866  1.00  0.00     0.198 A 
ATOM     90  F   UNL A   1      46.045  25.174  34.014  1.00  0.00    -0.203 F 
ATOM     91  F   UNL A   1      50.682  26.520  31.470  1.00  0.00    -0.200 F 
ATOM     92  C   UNL A   1      49.572  25.394  33.226  1.00  0.00     0.200 A 
ATOM     93  F   UNL A   1      48.418  24.274  34.954  1.00  0.00    -0.200 F 
ATOM     94  F   UNL A   1      50.741  24.927  33.684  1.00  0.00    -0.200 F 
ENDBRANCH  61  84
ENDBRANCH  35  36
ENDBRANCH  27  30
ENDBRANCH  25  26
ENDBRANCH  24  25
ENDBRANCH   1  24
TORSDOF 13
ENDMDL
