MODEL 1
REMARK VINA RESULT:     -12.2      0.000      0.000
REMARK SMILES O=C(NCCCNC(=O)c1ccc(-n2cccc2)c(F)c1)c1ccc(-c2c3nc(c(-c4c(F)c(F)c(F)c(F)c4F)c4ccc([nH]4)c(-c4c(F)c(F)c(F)c(F)c4F)c4nc(c(-c5c(F)c(F)c(F)c(F)c5F)c5ccc2[nH]5)C=C4)C=C3)cc1
REMARK SMILES IDX 4 1 3 2 1 3 2 4 22 6 23 7 84 8 24 9 83 10 25 11 26 12 27 13
REMARK SMILES IDX 77 14 28 15 82 16 76 17 78 18 29 19 81 20 75 21 74 22 30 24
REMARK SMILES IDX 62 25 42 26 61 27 43 28 46 29 60 30 79 31 44 32 45 33 59 35
REMARK SMILES IDX 80 36 47 37 31 38 32 39 40 40 33 41 34 42 38 43 41 44 35 45
REMARK SMILES IDX 36 46 39 47 37 48 63 49 64 50 72 51 65 52 66 53 70 54 73 55
REMARK SMILES IDX 67 56 68 57 71 58 69 59 48 60 49 61 57 62 50 63 51 64 55 65
REMARK SMILES IDX 58 66 52 67 53 68 56 69 54 70 5 71 6 72 7 73 8 74 9 76 10 77
REMARK SMILES IDX 11 78 21 79 12 80 19 81 13 82 20 83 14 84 15 85 18 86 16 87
REMARK SMILES IDX 17 88
REMARK H PARENT 3 5 78 23 46 34 7 75
REMARK Flexibility Score: inf
ROOT
ATOM      1  C   UNL A   1      34.727  28.765  26.573  1.00  0.00     0.118 C 
ENDROOT
BRANCH   1   2
ATOM      2  N   UNL A   1      34.960  29.974  27.345  1.00  0.00    -0.352 N 
ATOM      3  O   UNL A   1      35.993  31.619  28.452  1.00  0.00    -0.269 OA
ATOM      4  C   UNL A   1      36.064  30.488  27.972  1.00  0.00     0.251 C 
ATOM      5  H   UNL A   1      34.159  30.540  27.437  1.00  0.00     0.163 HD
BRANCH   4   6
ATOM      6  C   UNL A   1      37.308  29.708  28.169  1.00  0.00     0.039 A 
ATOM      7  C   UNL A   1      38.369  29.711  27.263  1.00  0.00     0.014 A 
ATOM      8  C   UNL A   1      37.408  28.954  29.352  1.00  0.00     0.014 A 
ATOM      9  C   UNL A   1      39.472  28.894  27.478  1.00  0.00     0.010 A 
ATOM     10  C   UNL A   1      38.529  28.164  29.595  1.00  0.00     0.010 A 
ATOM     11  C   UNL A   1      39.559  28.135  28.651  1.00  0.00    -0.014 A 
BRANCH  11  12
ATOM     12  C   UNL A   1      40.872  27.524  28.953  1.00  0.00     0.031 A 
ATOM     13  C   UNL A   1      40.986  26.111  28.338  1.00  0.00     0.074 A 
ATOM     14  C   UNL A   1      41.712  28.236  29.765  1.00  0.00     0.049 A 
ATOM     15  N   UNL A   1      41.716  25.099  28.696  1.00  0.00    -0.248 NA
ATOM     16  C   UNL A   1      40.110  25.750  27.185  1.00  0.00     0.031 C 
ATOM     17  C   UNL A   1      41.454  29.612  30.241  1.00  0.00     0.029 A 
ATOM     18  N   UNL A   1      42.927  27.966  30.366  1.00  0.00    -0.354 N 
ATOM     19  C   UNL A   1      41.534  24.076  27.738  1.00  0.00     0.074 A 
ATOM     20  C   UNL A   1      40.463  24.497  26.889  1.00  0.00     0.031 C 
ATOM     21  C   UNL A   1      42.410  30.012  31.105  1.00  0.00     0.029 A 
ATOM     22  C   UNL A   1      43.393  28.959  31.273  1.00  0.00     0.049 A 
ATOM     23  H   UNL A   1      43.435  27.143  30.180  1.00  0.00     0.167 HD
ATOM     24  C   UNL A   1      42.352  22.988  27.636  1.00  0.00     0.037 A 
ATOM     25  C   UNL A   1      44.465  28.914  32.129  1.00  0.00     0.037 A 
ATOM     26  C   UNL A   1      43.333  23.018  28.663  1.00  0.00     0.049 A 
ATOM     27  C   UNL A   1      45.179  27.677  31.780  1.00  0.00     0.074 A 
ATOM     28  C   UNL A   1      43.260  22.748  30.002  1.00  0.00     0.029 A 
ATOM     29  N   UNL A   1      44.495  23.700  28.400  1.00  0.00    -0.354 N 
ATOM     30  N   UNL A   1      45.884  27.510  30.700  1.00  0.00    -0.248 NA
ATOM     31  C   UNL A   1      45.043  26.512  32.663  1.00  0.00     0.031 C 
ATOM     32  C   UNL A   1      44.153  23.674  30.574  1.00  0.00     0.029 A 
ATOM     33  C   UNL A   1      44.872  24.323  29.562  1.00  0.00     0.049 A 
ATOM     34  H   UNL A   1      44.969  23.735  27.537  1.00  0.00     0.167 HD
ATOM     35  C   UNL A   1      45.980  26.142  30.629  1.00  0.00     0.074 A 
ATOM     36  C   UNL A   1      45.760  25.636  31.965  1.00  0.00     0.031 C 
ATOM     37  C   UNL A   1      45.676  25.517  29.465  1.00  0.00     0.037 A 
BRANCH  24  38
ATOM     38  C   UNL A   1      42.517  21.935  26.579  1.00  0.00     0.064 A 
ATOM     39  C   UNL A   1      43.495  22.002  25.580  1.00  0.00     0.173 A 
ATOM     40  C   UNL A   1      41.930  20.663  26.799  1.00  0.00     0.173 A 
ATOM     41  F   UNL A   1      44.124  23.153  25.311  1.00  0.00    -0.203 F 
ATOM     42  C   UNL A   1      43.922  20.853  24.906  1.00  0.00     0.198 A 
ATOM     43  C   UNL A   1      42.390  19.515  26.159  1.00  0.00     0.198 A 
ATOM     44  F   UNL A   1      40.952  20.506  27.705  1.00  0.00    -0.203 F 
ATOM     45  F   UNL A   1      44.901  20.945  23.995  1.00  0.00    -0.200 F 
ATOM     46  C   UNL A   1      43.401  19.608  25.224  1.00  0.00     0.200 A 
ATOM     47  F   UNL A   1      41.897  18.315  26.500  1.00  0.00    -0.200 F 
ATOM     48  F   UNL A   1      43.896  18.500  24.655  1.00  0.00    -0.200 F 
ENDBRANCH  24  38
BRANCH  25  49
ATOM     49  C   UNL A   1      45.023  29.691  33.310  1.00  0.00     0.064 A 
ATOM     50  C   UNL A   1      44.193  29.955  34.443  1.00  0.00     0.173 A 
ATOM     51  C   UNL A   1      46.282  30.297  33.384  1.00  0.00     0.173 A 
ATOM     52  F   UNL A   1      43.028  29.321  34.628  1.00  0.00    -0.203 F 
ATOM     53  C   UNL A   1      44.507  30.884  35.437  1.00  0.00     0.198 A 
ATOM     54  C   UNL A   1      46.625  31.190  34.420  1.00  0.00     0.198 A 
ATOM     55  F   UNL A   1      47.227  30.043  32.474  1.00  0.00    -0.203 F 
ATOM     56  F   UNL A   1      43.607  31.166  36.391  1.00  0.00    -0.200 F 
ATOM     57  C   UNL A   1      45.721  31.521  35.415  1.00  0.00     0.200 A 
ATOM     58  F   UNL A   1      47.842  31.752  34.437  1.00  0.00    -0.200 F 
ATOM     59  F   UNL A   1      46.021  32.432  36.350  1.00  0.00    -0.200 F 
ENDBRANCH  25  49
BRANCH  37  60
ATOM     60  C   UNL A   1      45.872  26.375  28.233  1.00  0.00     0.064 A 
ATOM     61  C   UNL A   1      44.821  26.940  27.491  1.00  0.00     0.173 A 
ATOM     62  C   UNL A   1      47.167  26.742  27.840  1.00  0.00     0.173 A 
ATOM     63  F   UNL A   1      43.556  26.659  27.788  1.00  0.00    -0.203 F 
ATOM     64  C   UNL A   1      45.040  27.811  26.423  1.00  0.00     0.198 A 
ATOM     65  C   UNL A   1      47.392  27.618  26.775  1.00  0.00     0.198 A 
ATOM     66  F   UNL A   1      48.228  26.243  28.492  1.00  0.00    -0.203 F 
ATOM     67  F   UNL A   1      43.998  28.309  25.738  1.00  0.00    -0.200 F 
ATOM     68  C   UNL A   1      46.328  28.152  26.065  1.00  0.00     0.200 A 
ATOM     69  F   UNL A   1      48.646  27.941  26.429  1.00  0.00    -0.200 F 
ATOM     70  F   UNL A   1      46.546  28.980  25.033  1.00  0.00    -0.200 F 
ENDBRANCH  37  60
ENDBRANCH  11  12
ENDBRANCH   4   6
ENDBRANCH   1   2
BRANCH   1  71
ATOM     71  C   UNL A   1      33.271  28.466  26.213  1.00  0.00     0.042 C 
BRANCH  71  72
ATOM     72  C   UNL A   1      32.522  27.635  27.250  1.00  0.00     0.118 C 
BRANCH  72  73
ATOM     73  N   UNL A   1      31.401  26.916  26.669  1.00  0.00    -0.352 N 
ATOM     74  C   UNL A   1      31.373  25.779  25.901  1.00  0.00     0.251 C 
ATOM     75  H   UNL A   1      30.517  27.308  26.857  1.00  0.00     0.163 HD
ATOM     76  O   UNL A   1      30.351  25.460  25.316  1.00  0.00    -0.269 OA
BRANCH  74  77
ATOM     77  C   UNL A   1      32.578  24.936  25.773  1.00  0.00     0.042 A 
ATOM     78  C   UNL A   1      33.521  25.175  24.767  1.00  0.00     0.016 A 
ATOM     79  C   UNL A   1      32.805  23.947  26.730  1.00  0.00     0.055 A 
ATOM     80  C   UNL A   1      34.670  24.385  24.686  1.00  0.00     0.030 A 
ATOM     81  C   UNL A   1      33.941  23.147  26.632  1.00  0.00     0.147 A 
ATOM     82  C   UNL A   1      34.876  23.349  25.611  1.00  0.00     0.081 A 
ATOM     83  F   UNL A   1      34.133  22.226  27.587  1.00  0.00    -0.205 F 
BRANCH  82  84
ATOM     84  N   UNL A   1      36.019  22.515  25.490  1.00  0.00    -0.321 N 
ATOM     85  C   UNL A   1      36.041  21.207  25.050  1.00  0.00     0.091 A 
ATOM     86  C   UNL A   1      37.326  22.886  25.744  1.00  0.00     0.091 A 
ATOM     87  C   UNL A   1      37.347  20.770  25.001  1.00  0.00     0.020 A 
ATOM     88  C   UNL A   1      38.159  21.825  25.462  1.00  0.00     0.020 A 
ENDBRANCH  82  84
ENDBRANCH  74  77
ENDBRANCH  72  73
ENDBRANCH  71  72
ENDBRANCH   1  71
TORSDOF 11
ENDMDL
MODEL 2
REMARK VINA RESULT:     -12.1      3.987      8.746
REMARK SMILES O=C(NCCCNC(=O)c1ccc(-n2cccc2)c(F)c1)c1ccc(-c2c3nc(c(-c4c(F)c(F)c(F)c(F)c4F)c4ccc([nH]4)c(-c4c(F)c(F)c(F)c(F)c4F)c4nc(c(-c5c(F)c(F)c(F)c(F)c5F)c5ccc2[nH]5)C=C4)C=C3)cc1
REMARK SMILES IDX 4 1 3 2 1 3 2 4 22 6 23 7 84 8 24 9 83 10 25 11 26 12 27 13
REMARK SMILES IDX 77 14 28 15 82 16 76 17 78 18 29 19 81 20 75 21 74 22 30 24
REMARK SMILES IDX 62 25 42 26 61 27 43 28 46 29 60 30 79 31 44 32 45 33 59 35
REMARK SMILES IDX 80 36 47 37 31 38 32 39 40 40 33 41 34 42 38 43 41 44 35 45
REMARK SMILES IDX 36 46 39 47 37 48 63 49 64 50 72 51 65 52 66 53 70 54 73 55
REMARK SMILES IDX 67 56 68 57 71 58 69 59 48 60 49 61 57 62 50 63 51 64 55 65
REMARK SMILES IDX 58 66 52 67 53 68 56 69 54 70 5 71 6 72 7 73 8 74 9 76 10 77
REMARK SMILES IDX 11 78 21 79 12 80 19 81 13 82 20 83 14 84 15 85 18 86 16 87
REMARK SMILES IDX 17 88
REMARK H PARENT 3 5 78 23 46 34 7 75
REMARK Flexibility Score: inf
ROOT
ATOM      1  C   UNL A   1      40.309  21.311  25.956  1.00  0.00     0.118 C 
ENDROOT
BRANCH   1   2
ATOM      2  N   UNL A   1      39.014  21.884  25.628  1.00  0.00    -0.352 N 
ATOM      3  O   UNL A   1      37.378  23.365  25.269  1.00  0.00    -0.269 OA
ATOM      4  C   UNL A   1      38.482  23.140  25.762  1.00  0.00     0.251 C 
ATOM      5  H   UNL A   1      38.390  21.236  25.227  1.00  0.00     0.163 HD
BRANCH   4   6
ATOM      6  C   UNL A   1      39.143  24.208  26.547  1.00  0.00     0.039 A 
ATOM      7  C   UNL A   1      40.086  25.085  26.011  1.00  0.00     0.014 A 
ATOM      8  C   UNL A   1      38.763  24.338  27.895  1.00  0.00     0.014 A 
ATOM      9  C   UNL A   1      40.720  26.013  26.828  1.00  0.00     0.010 A 
ATOM     10  C   UNL A   1      39.363  25.294  28.711  1.00  0.00     0.010 A 
ATOM     11  C   UNL A   1      40.346  26.128  28.172  1.00  0.00    -0.014 A 
BRANCH  11  12
ATOM     12  C   UNL A   1      40.842  27.316  28.902  1.00  0.00     0.031 A 
ATOM     13  C   UNL A   1      42.185  27.019  29.606  1.00  0.00     0.074 A 
ATOM     14  C   UNL A   1      40.031  28.418  28.911  1.00  0.00     0.049 A 
ATOM     15  N   UNL A   1      42.723  27.572  30.650  1.00  0.00    -0.248 NA
ATOM     16  C   UNL A   1      43.032  25.896  29.107  1.00  0.00     0.031 C 
ATOM     17  C   UNL A   1      38.776  28.543  28.140  1.00  0.00     0.029 A 
ATOM     18  N   UNL A   1      40.071  29.636  29.563  1.00  0.00    -0.354 N 
ATOM     19  C   UNL A   1      44.009  27.011  30.821  1.00  0.00     0.074 A 
ATOM     20  C   UNL A   1      44.104  25.919  29.902  1.00  0.00     0.031 C 
ATOM     21  C   UNL A   1      38.145  29.701  28.430  1.00  0.00     0.029 A 
ATOM     22  C   UNL A   1      38.918  30.454  29.398  1.00  0.00     0.049 A 
ATOM     23  H   UNL A   1      40.843  29.918  30.104  1.00  0.00     0.167 HD
ATOM     24  C   UNL A   1      44.961  27.551  31.637  1.00  0.00     0.037 A 
ATOM     25  C   UNL A   1      38.592  31.627  30.030  1.00  0.00     0.037 A 
ATOM     26  C   UNL A   1      44.437  28.682  32.315  1.00  0.00     0.049 A 
ATOM     27  C   UNL A   1      39.792  31.992  30.798  1.00  0.00     0.074 A 
ATOM     28  C   UNL A   1      43.573  28.794  33.370  1.00  0.00     0.029 A 
ATOM     29  N   UNL A   1      44.539  29.896  31.682  1.00  0.00    -0.354 N 
ATOM     30  N   UNL A   1      40.894  32.442  30.277  1.00  0.00    -0.248 NA
ATOM     31  C   UNL A   1      39.792  31.773  32.250  1.00  0.00     0.031 C 
ATOM     32  C   UNL A   1      42.828  29.949  33.065  1.00  0.00     0.029 A 
ATOM     33  C   UNL A   1      43.393  30.596  31.959  1.00  0.00     0.049 A 
ATOM     34  H   UNL A   1      45.295  30.205  31.132  1.00  0.00     0.167 HD
ATOM     35  C   UNL A   1      41.797  32.234  31.291  1.00  0.00     0.074 A 
ATOM     36  C   UNL A   1      41.037  32.154  32.518  1.00  0.00     0.031 C 
ATOM     37  C   UNL A   1      42.966  31.603  31.018  1.00  0.00     0.037 A 
BRANCH  24  38
ATOM     38  C   UNL A   1      46.433  27.300  31.785  1.00  0.00     0.064 A 
ATOM     39  C   UNL A   1      46.959  26.296  32.606  1.00  0.00     0.173 A 
ATOM     40  C   UNL A   1      47.309  27.828  30.802  1.00  0.00     0.173 A 
ATOM     41  F   UNL A   1      46.206  25.716  33.550  1.00  0.00    -0.203 F 
ATOM     42  C   UNL A   1      48.247  25.789  32.398  1.00  0.00     0.198 A 
ATOM     43  C   UNL A   1      48.572  27.292  30.569  1.00  0.00     0.198 A 
ATOM     44  F   UNL A   1      46.912  28.826  29.995  1.00  0.00    -0.203 F 
ATOM     45  F   UNL A   1      48.697  24.788  33.167  1.00  0.00    -0.200 F 
ATOM     46  C   UNL A   1      49.034  26.257  31.358  1.00  0.00     0.200 A 
ATOM     47  F   UNL A   1      49.308  27.734  29.539  1.00  0.00    -0.200 F 
ATOM     48  F   UNL A   1      50.219  25.689  31.095  1.00  0.00    -0.200 F 
ENDBRANCH  24  38
BRANCH  25  49
ATOM     49  C   UNL A   1      37.388  32.537  30.210  1.00  0.00     0.064 A 
ATOM     50  C   UNL A   1      36.451  32.278  31.257  1.00  0.00     0.173 A 
ATOM     51  C   UNL A   1      37.012  33.591  29.370  1.00  0.00     0.173 A 
ATOM     52  F   UNL A   1      36.724  31.427  32.255  1.00  0.00    -0.203 F 
ATOM     53  C   UNL A   1      35.187  32.866  31.333  1.00  0.00     0.198 A 
ATOM     54  C   UNL A   1      35.760  34.229  29.482  1.00  0.00     0.198 A 
ATOM     55  F   UNL A   1      37.837  34.052  28.426  1.00  0.00    -0.203 F 
ATOM     56  F   UNL A   1      34.321  32.462  32.274  1.00  0.00    -0.200 F 
ATOM     57  C   UNL A   1      34.831  33.833  30.429  1.00  0.00     0.200 A 
ATOM     58  F   UNL A   1      35.446  35.228  28.644  1.00  0.00    -0.200 F 
ATOM     59  F   UNL A   1      33.612  34.386  30.477  1.00  0.00    -0.200 F 
ENDBRANCH  25  49
BRANCH  37  60
ATOM     60  C   UNL A   1      43.428  31.752  29.585  1.00  0.00     0.064 A 
ATOM     61  C   UNL A   1      43.357  30.731  28.623  1.00  0.00     0.173 A 
ATOM     62  C   UNL A   1      43.858  33.004  29.120  1.00  0.00     0.173 A 
ATOM     63  F   UNL A   1      42.955  29.509  28.962  1.00  0.00    -0.203 F 
ATOM     64  C   UNL A   1      43.695  30.934  27.284  1.00  0.00     0.198 A 
ATOM     65  C   UNL A   1      44.193  33.214  27.779  1.00  0.00     0.198 A 
ATOM     66  F   UNL A   1      43.961  34.033  29.974  1.00  0.00    -0.203 F 
ATOM     67  F   UNL A   1      43.624  29.917  26.411  1.00  0.00    -0.200 F 
ATOM     68  C   UNL A   1      44.113  32.180  26.861  1.00  0.00     0.200 A 
ATOM     69  F   UNL A   1      44.604  34.425  27.377  1.00  0.00    -0.200 F 
ATOM     70  F   UNL A   1      44.450  32.379  25.580  1.00  0.00    -0.200 F 
ENDBRANCH  37  60
ENDBRANCH  11  12
ENDBRANCH   4   6
ENDBRANCH   1   2
BRANCH   1  71
ATOM     71  C   UNL A   1      40.719  21.373  27.428  1.00  0.00     0.042 C 
BRANCH  71  72
ATOM     72  C   UNL A   1      42.225  21.404  27.663  1.00  0.00     0.118 C 
BRANCH  72  73
ATOM     73  N   UNL A   1      42.957  20.719  26.611  1.00  0.00    -0.352 N 
ATOM     74  C   UNL A   1      43.788  21.214  25.637  1.00  0.00     0.251 C 
ATOM     75  H   UNL A   1      42.837  19.742  26.593  1.00  0.00     0.163 HD
ATOM     76  O   UNL A   1      44.127  20.505  24.703  1.00  0.00    -0.269 OA
BRANCH  74  77
ATOM     77  C   UNL A   1      44.277  22.605  25.709  1.00  0.00     0.042 A 
ATOM     78  C   UNL A   1      43.521  23.662  25.191  1.00  0.00     0.016 A 
ATOM     79  C   UNL A   1      45.472  22.858  26.383  1.00  0.00     0.055 A 
ATOM     80  C   UNL A   1      43.989  24.973  25.301  1.00  0.00     0.030 A 
ATOM     81  C   UNL A   1      45.945  24.165  26.471  1.00  0.00     0.147 A 
ATOM     82  C   UNL A   1      45.219  25.230  25.926  1.00  0.00     0.081 A 
ATOM     83  F   UNL A   1      47.085  24.366  27.149  1.00  0.00    -0.205 F 
BRANCH  82  84
ATOM     84  N   UNL A   1      45.715  26.559  25.986  1.00  0.00    -0.321 N 
ATOM     85  C   UNL A   1      45.932  27.307  27.125  1.00  0.00     0.091 A 
ATOM     86  C   UNL A   1      46.119  27.324  24.907  1.00  0.00     0.091 A 
ATOM     87  C   UNL A   1      46.492  28.516  26.771  1.00  0.00     0.020 A 
ATOM     88  C   UNL A   1      46.589  28.536  25.365  1.00  0.00     0.020 A 
ENDBRANCH  82  84
ENDBRANCH  74  77
ENDBRANCH  72  73
ENDBRANCH  71  72
ENDBRANCH   1  71
TORSDOF 11
ENDMDL
MODEL 3
REMARK VINA RESULT:     -12.1      3.503     10.136
REMARK SMILES O=C(NCCCNC(=O)c1ccc(-n2cccc2)c(F)c1)c1ccc(-c2c3nc(c(-c4c(F)c(F)c(F)c(F)c4F)c4ccc([nH]4)c(-c4c(F)c(F)c(F)c(F)c4F)c4nc(c(-c5c(F)c(F)c(F)c(F)c5F)c5ccc2[nH]5)C=C4)C=C3)cc1
REMARK SMILES IDX 4 1 3 2 1 3 2 4 22 6 23 7 84 8 24 9 83 10 25 11 26 12 27 13
REMARK SMILES IDX 77 14 28 15 82 16 76 17 78 18 29 19 81 20 75 21 74 22 30 24
REMARK SMILES IDX 62 25 42 26 61 27 43 28 46 29 60 30 79 31 44 32 45 33 59 35
REMARK SMILES IDX 80 36 47 37 31 38 32 39 40 40 33 41 34 42 38 43 41 44 35 45
REMARK SMILES IDX 36 46 39 47 37 48 63 49 64 50 72 51 65 52 66 53 70 54 73 55
REMARK SMILES IDX 67 56 68 57 71 58 69 59 48 60 49 61 57 62 50 63 51 64 55 65
REMARK SMILES IDX 58 66 52 67 53 68 56 69 54 70 5 71 6 72 7 73 8 74 9 76 10 77
REMARK SMILES IDX 11 78 21 79 12 80 19 81 13 82 20 83 14 84 15 85 18 86 16 87
REMARK SMILES IDX 17 88
REMARK H PARENT 3 5 78 23 46 34 7 75
REMARK Flexibility Score: inf
ROOT
ATOM      1  C   UNL A   1      33.794  32.485  28.466  1.00  0.00     0.118 C 
ENDROOT
BRANCH   1   2
ATOM      2  N   UNL A   1      33.505  31.202  27.845  1.00  0.00    -0.352 N 
ATOM      3  O   UNL A   1      33.628  29.042  27.281  1.00  0.00    -0.269 OA
ATOM      4  C   UNL A   1      34.190  30.018  27.778  1.00  0.00     0.251 C 
ATOM      5  H   UNL A   1      32.639  31.180  27.377  1.00  0.00     0.163 HD
BRANCH   4   6
ATOM      6  C   UNL A   1      35.604  29.886  28.201  1.00  0.00     0.039 A 
ATOM      7  C   UNL A   1      35.992  29.583  29.506  1.00  0.00     0.014 A 
ATOM      8  C   UNL A   1      36.586  30.057  27.209  1.00  0.00     0.014 A 
ATOM      9  C   UNL A   1      37.338  29.552  29.845  1.00  0.00     0.010 A 
ATOM     10  C   UNL A   1      37.939  29.986  27.531  1.00  0.00     0.010 A 
ATOM     11  C   UNL A   1      38.310  29.736  28.855  1.00  0.00    -0.014 A 
BRANCH  11  12
ATOM     12  C   UNL A   1      39.705  29.403  29.220  1.00  0.00     0.031 A 
ATOM     13  C   UNL A   1      40.463  30.649  29.730  1.00  0.00     0.074 A 
ATOM     14  C   UNL A   1      40.116  28.120  28.981  1.00  0.00     0.049 A 
ATOM     15  N   UNL A   1      41.734  30.914  29.731  1.00  0.00    -0.248 NA
ATOM     16  C   UNL A   1      39.682  31.803  30.264  1.00  0.00     0.031 C 
ATOM     17  C   UNL A   1      39.233  27.028  28.517  1.00  0.00     0.029 A 
ATOM     18  N   UNL A   1      41.333  27.469  29.058  1.00  0.00    -0.354 N 
ATOM     19  C   UNL A   1      41.918  32.140  30.410  1.00  0.00     0.074 A 
ATOM     20  C   UNL A   1      40.615  32.686  30.627  1.00  0.00     0.031 C 
ATOM     21  C   UNL A   1      39.942  25.905  28.274  1.00  0.00     0.029 A 
ATOM     22  C   UNL A   1      41.343  26.135  28.564  1.00  0.00     0.049 A 
ATOM     23  H   UNL A   1      42.137  27.900  29.428  1.00  0.00     0.167 HD
ATOM     24  C   UNL A   1      43.134  32.580  30.848  1.00  0.00     0.037 A 
ATOM     25  C   UNL A   1      42.410  25.295  28.362  1.00  0.00     0.037 A 
ATOM     26  C   UNL A   1      44.152  31.670  30.456  1.00  0.00     0.049 A 
ATOM     27  C   UNL A   1      43.561  25.993  28.954  1.00  0.00     0.074 A 
ATOM     28  C   UNL A   1      44.751  31.437  29.249  1.00  0.00     0.029 A 
ATOM     29  N   UNL A   1      44.418  30.625  31.305  1.00  0.00    -0.354 N 
ATOM     30  N   UNL A   1      43.764  26.135  30.230  1.00  0.00    -0.248 NA
ATOM     31  C   UNL A   1      44.525  26.646  28.059  1.00  0.00     0.031 C 
ATOM     32  C   UNL A   1      44.977  30.047  29.256  1.00  0.00     0.029 A 
ATOM     33  C   UNL A   1      44.694  29.530  30.526  1.00  0.00     0.049 A 
ATOM     34  H   UNL A   1      44.412  30.656  32.289  1.00  0.00     0.167 HD
ATOM     35  C   UNL A   1      44.675  27.162  30.263  1.00  0.00     0.074 A 
ATOM     36  C   UNL A   1      45.323  27.190  28.972  1.00  0.00     0.031 C 
ATOM     37  C   UNL A   1      44.449  28.220  31.080  1.00  0.00     0.037 A 
BRANCH  24  38
ATOM     38  C   UNL A   1      43.539  33.680  31.784  1.00  0.00     0.064 A 
ATOM     39  C   UNL A   1      43.746  35.000  31.368  1.00  0.00     0.173 A 
ATOM     40  C   UNL A   1      43.351  33.483  33.176  1.00  0.00     0.173 A 
ATOM     41  F   UNL A   1      43.912  35.295  30.073  1.00  0.00    -0.203 F 
ATOM     42  C   UNL A   1      43.678  36.065  32.275  1.00  0.00     0.198 A 
ATOM     43  C   UNL A   1      43.240  34.547  34.067  1.00  0.00     0.198 A 
ATOM     44  F   UNL A   1      43.190  32.248  33.678  1.00  0.00    -0.203 F 
ATOM     45  F   UNL A   1      43.824  37.321  31.832  1.00  0.00    -0.200 F 
ATOM     46  C   UNL A   1      43.385  35.842  33.611  1.00  0.00     0.200 A 
ATOM     47  F   UNL A   1      42.924  34.317  35.350  1.00  0.00    -0.200 F 
ATOM     48  F   UNL A   1      43.210  36.874  34.448  1.00  0.00    -0.200 F 
ENDBRANCH  24  38
BRANCH  25  49
ATOM     49  C   UNL A   1      42.719  23.980  27.667  1.00  0.00     0.064 A 
ATOM     50  C   UNL A   1      43.094  23.975  26.288  1.00  0.00     0.173 A 
ATOM     51  C   UNL A   1      42.575  22.699  28.212  1.00  0.00     0.173 A 
ATOM     52  F   UNL A   1      43.446  25.098  25.648  1.00  0.00    -0.203 F 
ATOM     53  C   UNL A   1      43.121  22.828  25.493  1.00  0.00     0.198 A 
ATOM     54  C   UNL A   1      42.660  21.534  27.423  1.00  0.00     0.198 A 
ATOM     55  F   UNL A   1      42.360  22.524  29.519  1.00  0.00    -0.203 F 
ATOM     56  F   UNL A   1      43.353  22.938  24.176  1.00  0.00    -0.200 F 
ATOM     57  C   UNL A   1      42.883  21.602  26.058  1.00  0.00     0.200 A 
ATOM     58  F   UNL A   1      42.503  20.331  27.995  1.00  0.00    -0.200 F 
ATOM     59  F   UNL A   1      42.881  20.498  25.299  1.00  0.00    -0.200 F 
ENDBRANCH  25  49
BRANCH  37  60
ATOM     60  C   UNL A   1      43.598  27.898  32.289  1.00  0.00     0.064 A 
ATOM     61  C   UNL A   1      42.256  28.290  32.436  1.00  0.00     0.173 A 
ATOM     62  C   UNL A   1      44.106  27.064  33.296  1.00  0.00     0.173 A 
ATOM     63  F   UNL A   1      41.679  29.076  31.532  1.00  0.00    -0.203 F 
ATOM     64  C   UNL A   1      41.469  27.887  33.516  1.00  0.00     0.198 A 
ATOM     65  C   UNL A   1      43.321  26.653  34.377  1.00  0.00     0.198 A 
ATOM     66  F   UNL A   1      45.380  26.648  33.236  1.00  0.00    -0.203 F 
ATOM     67  F   UNL A   1      40.197  28.306  33.614  1.00  0.00    -0.200 F 
ATOM     68  C   UNL A   1      42.003  27.065  34.487  1.00  0.00     0.200 A 
ATOM     69  F   UNL A   1      43.848  25.859  35.319  1.00  0.00    -0.200 F 
ATOM     70  F   UNL A   1      41.256  26.682  35.532  1.00  0.00    -0.200 F 
ENDBRANCH  37  60
ENDBRANCH  11  12
ENDBRANCH   4   6
ENDBRANCH   1   2
BRANCH   1  71
ATOM     71  C   UNL A   1      35.036  33.216  27.954  1.00  0.00     0.042 C 
BRANCH  71  72
ATOM     72  C   UNL A   1      35.586  34.270  28.909  1.00  0.00     0.118 C 
BRANCH  72  73
ATOM     73  N   UNL A   1      34.570  34.761  29.825  1.00  0.00    -0.352 N 
ATOM     74  C   UNL A   1      34.368  34.496  31.156  1.00  0.00     0.251 C 
ATOM     75  H   UNL A   1      33.922  35.386  29.426  1.00  0.00     0.163 HD
ATOM     76  O   UNL A   1      33.323  34.827  31.694  1.00  0.00    -0.269 OA
BRANCH  74  77
ATOM     77  C   UNL A   1      35.408  33.809  31.947  1.00  0.00     0.042 A 
ATOM     78  C   UNL A   1      35.471  32.411  31.993  1.00  0.00     0.016 A 
ATOM     79  C   UNL A   1      36.384  34.579  32.579  1.00  0.00     0.055 A 
ATOM     80  C   UNL A   1      36.484  31.783  32.720  1.00  0.00     0.030 A 
ATOM     81  C   UNL A   1      37.379  33.948  33.321  1.00  0.00     0.147 A 
ATOM     82  C   UNL A   1      37.435  32.552  33.408  1.00  0.00     0.081 A 
ATOM     83  F   UNL A   1      38.312  34.725  33.892  1.00  0.00    -0.205 F 
BRANCH  82  84
ATOM     84  N   UNL A   1      38.430  31.908  34.190  1.00  0.00    -0.321 N 
ATOM     85  C   UNL A   1      39.791  31.912  33.960  1.00  0.00     0.091 A 
ATOM     86  C   UNL A   1      38.213  31.201  35.359  1.00  0.00     0.091 A 
ATOM     87  C   UNL A   1      40.424  31.242  34.984  1.00  0.00     0.020 A 
ATOM     88  C   UNL A   1      39.423  30.771  35.858  1.00  0.00     0.020 A 
ENDBRANCH  82  84
ENDBRANCH  74  77
ENDBRANCH  72  73
ENDBRANCH  71  72
ENDBRANCH   1  71
TORSDOF 11
ENDMDL
