MODEL 1
REMARK VINA RESULT:     -12.6      0.000      0.000
REMARK SMILES CC(C)(C)OC(=O)N1C[C@@H](c2cccc(Cl)c2)CC[C@H]1C(=O)NCCCNC(=O)c1ccc(-c2c3nc(c(-c4c(F)c(F)c(F)c(F)c4F)c4ccc([nH]4)c(-c4c(F)c(F)c(F)c(F)c4F)c4nc(c(-c5c(F)c(F)c(F)c(F)c5F)c5ccc2[nH]5)C=C4)C=C3)cc1
REMARK SMILES IDX 24 1 23 2 21 3 22 4 20 6 8 7 9 8 10 9 19 10 18 11 6 12 7 13
REMARK SMILES IDX 5 14 2 15 1 16 3 17 4 18 11 19 12 20 17 21 13 22 15 23 14 24
REMARK SMILES IDX 16 25 25 26 26 27 27 28 28 29 29 31 30 32 31 33 92 34 32 35
REMARK SMILES IDX 91 36 33 37 34 38 35 39 85 40 36 41 90 42 84 43 86 44 37 45
REMARK SMILES IDX 89 46 83 47 82 48 38 50 70 51 50 52 69 53 51 54 54 55 68 56
REMARK SMILES IDX 87 57 52 58 53 59 67 61 88 62 55 63 39 64 40 65 48 66 41 67
REMARK SMILES IDX 42 68 46 69 49 70 43 71 44 72 47 73 45 74 71 75 72 76 80 77
REMARK SMILES IDX 73 78 74 79 78 80 81 81 75 82 76 83 79 84 77 85 56 86 57 87
REMARK SMILES IDX 65 88 58 89 59 90 63 91 66 92 60 93 61 94 64 95 62 96
REMARK H PARENT 23 5 27 30 86 49 54 60
REMARK Flexibility Score: inf
ROOT
ATOM      1  C   UNL A   1      31.608  30.667  26.469  1.00  0.00     0.117 C 
ENDROOT
BRANCH   1   2
ATOM      2  N   UNL A   1      32.798  30.189  27.141  1.00  0.00    -0.354 N 
ATOM      3  C   UNL A   1      33.625  29.128  26.938  1.00  0.00     0.242 C 
ATOM      4  O   UNL A   1      34.545  29.026  27.763  1.00  0.00    -0.273 OA
ATOM      5  H   UNL A   1      33.064  30.749  27.905  1.00  0.00     0.163 HD
BRANCH   3   6
ATOM      6  C   UNL A   1      33.499  28.071  25.795  1.00  0.00     0.177 C 
ATOM      7  N   UNL A   1      32.384  27.133  25.834  1.00  0.00    -0.296 N 
ATOM      8  C   UNL A   1      31.122  27.587  25.322  1.00  0.00     0.132 C 
ATOM      9  C   UNL A   1      31.134  28.104  23.873  1.00  0.00     0.039 C 
ATOM     10  C   UNL A   1      33.699  28.571  24.357  1.00  0.00     0.036 C 
ATOM     11  C   UNL A   1      32.441  28.874  23.524  1.00  0.00     0.013 C 
BRANCH   7  12
ATOM     12  C   UNL A   1      32.455  25.822  26.260  1.00  0.00     0.410 C 
ATOM     13  O   UNL A   1      31.489  25.250  26.754  1.00  0.00    -0.224 OA
BRANCH  12  14
ATOM     14  O   UNL A   1      33.690  25.269  26.146  1.00  0.00    -0.444 OA
BRANCH  14  15
ATOM     15  C   UNL A   1      33.915  24.287  25.094  1.00  0.00     0.106 C 
ATOM     16  C   UNL A   1      35.438  24.206  24.912  1.00  0.00     0.056 C 
ATOM     17  C   UNL A   1      33.285  24.771  23.783  1.00  0.00     0.056 C 
ATOM     18  C   UNL A   1      33.428  22.875  25.476  1.00  0.00     0.056 C 
ENDBRANCH  14  15
ENDBRANCH  12  14
ENDBRANCH   7  12
BRANCH   9  19
ATOM     19  C   UNL A   1      29.845  28.908  23.594  1.00  0.00    -0.042 A 
ATOM     20  C   UNL A   1      28.638  28.281  23.251  1.00  0.00     0.004 A 
ATOM     21  C   UNL A   1      29.840  30.319  23.640  1.00  0.00     0.024 A 
ATOM     22  C   UNL A   1      27.517  29.027  22.860  1.00  0.00     0.002 A 
ATOM     23  C   UNL A   1      28.730  31.059  23.229  1.00  0.00     0.041 A 
ATOM     24  C   UNL A   1      27.571  30.418  22.823  1.00  0.00     0.020 A 
ATOM     25  Cl  UNL A   1      28.834  32.773  23.186  1.00  0.00    -0.084 Cl
ENDBRANCH   9  19
ENDBRANCH   3   6
ENDBRANCH   1   2
BRANCH   1  26
ATOM     26  C   UNL A   1      31.397  32.163  26.647  1.00  0.00     0.042 C 
BRANCH  26  27
ATOM     27  C   UNL A   1      32.682  32.936  26.885  1.00  0.00     0.118 C 
BRANCH  27  28
ATOM     28  N   UNL A   1      32.444  34.219  27.541  1.00  0.00    -0.352 N 
ATOM     29  C   UNL A   1      32.986  34.803  28.661  1.00  0.00     0.251 C 
ATOM     30  H   UNL A   1      31.764  34.773  27.094  1.00  0.00     0.163 HD
ATOM     31  O   UNL A   1      32.445  35.810  29.115  1.00  0.00    -0.269 OA
BRANCH  29  32
ATOM     32  C   UNL A   1      34.185  34.257  29.344  1.00  0.00     0.039 A 
ATOM     33  C   UNL A   1      34.013  33.481  30.498  1.00  0.00     0.014 A 
ATOM     34  C   UNL A   1      35.479  34.542  28.916  1.00  0.00     0.014 A 
ATOM     35  C   UNL A   1      35.122  32.949  31.168  1.00  0.00     0.010 A 
ATOM     36  C   UNL A   1      36.571  33.904  29.495  1.00  0.00     0.010 A 
ATOM     37  C   UNL A   1      36.412  33.123  30.647  1.00  0.00    -0.014 A 
BRANCH  37  38
ATOM     38  C   UNL A   1      37.619  32.544  31.297  1.00  0.00     0.031 A 
ATOM     39  C   UNL A   1      38.327  31.374  30.666  1.00  0.00     0.074 A 
ATOM     40  C   UNL A   1      38.019  32.995  32.502  1.00  0.00     0.049 A 
ATOM     41  N   UNL A   1      39.310  30.645  31.133  1.00  0.00    -0.248 NA
ATOM     42  C   UNL A   1      37.834  30.935  29.350  1.00  0.00     0.031 C 
ATOM     43  C   UNL A   1      37.387  34.080  33.247  1.00  0.00     0.029 A 
ATOM     44  N   UNL A   1      39.034  32.577  33.328  1.00  0.00    -0.354 N 
ATOM     45  C   UNL A   1      39.525  29.651  30.188  1.00  0.00     0.074 A 
ATOM     46  C   UNL A   1      38.528  29.826  29.155  1.00  0.00     0.031 C 
ATOM     47  C   UNL A   1      38.021  34.247  34.417  1.00  0.00     0.029 A 
ATOM     48  C   UNL A   1      39.087  33.257  34.520  1.00  0.00     0.049 A 
ATOM     49  H   UNL A   1      39.664  31.858  33.088  1.00  0.00     0.167 HD
ATOM     50  C   UNL A   1      40.486  28.697  30.166  1.00  0.00     0.037 A 
ATOM     51  C   UNL A   1      39.896  33.098  35.584  1.00  0.00     0.037 A 
ATOM     52  C   UNL A   1      41.501  28.556  31.176  1.00  0.00     0.049 A 
ATOM     53  C   UNL A   1      40.972  32.050  35.532  1.00  0.00     0.074 A 
ATOM     54  C   UNL A   1      42.581  27.692  31.201  1.00  0.00     0.029 A 
ATOM     55  N   UNL A   1      41.556  29.300  32.347  1.00  0.00    -0.354 N 
ATOM     56  N   UNL A   1      41.228  31.176  34.588  1.00  0.00    -0.248 NA
ATOM     57  C   UNL A   1      41.882  31.976  36.681  1.00  0.00     0.031 C 
ATOM     58  C   UNL A   1      43.254  27.871  32.414  1.00  0.00     0.029 A 
ATOM     59  C   UNL A   1      42.632  28.891  33.118  1.00  0.00     0.049 A 
ATOM     60  H   UNL A   1      40.923  30.013  32.593  1.00  0.00     0.167 HD
ATOM     61  C   UNL A   1      42.342  30.467  35.014  1.00  0.00     0.074 A 
ATOM     62  C   UNL A   1      42.721  31.023  36.298  1.00  0.00     0.031 C 
ATOM     63  C   UNL A   1      42.993  29.451  34.396  1.00  0.00     0.037 A 
BRANCH  50  64
ATOM     64  C   UNL A   1      40.478  27.730  29.014  1.00  0.00     0.064 A 
ATOM     65  C   UNL A   1      41.264  27.930  27.868  1.00  0.00     0.173 A 
ATOM     66  C   UNL A   1      39.673  26.581  29.057  1.00  0.00     0.173 A 
ATOM     67  F   UNL A   1      42.047  29.015  27.767  1.00  0.00    -0.203 F 
ATOM     68  C   UNL A   1      41.208  27.046  26.793  1.00  0.00     0.198 A 
ATOM     69  C   UNL A   1      39.648  25.678  27.997  1.00  0.00     0.198 A 
ATOM     70  F   UNL A   1      38.907  26.331  30.130  1.00  0.00    -0.203 F 
ATOM     71  F   UNL A   1      41.913  27.300  25.682  1.00  0.00    -0.200 F 
ATOM     72  C   UNL A   1      40.405  25.919  26.860  1.00  0.00     0.200 A 
ATOM     73  F   UNL A   1      38.883  24.581  28.070  1.00  0.00    -0.200 F 
ATOM     74  F   UNL A   1      40.350  25.070  25.824  1.00  0.00    -0.200 F 
ENDBRANCH  50  64
BRANCH  51  75
ATOM     75  C   UNL A   1      39.732  33.981  36.768  1.00  0.00     0.064 A 
ATOM     76  C   UNL A   1      38.937  33.591  37.854  1.00  0.00     0.173 A 
ATOM     77  C   UNL A   1      40.395  35.215  36.854  1.00  0.00     0.173 A 
ATOM     78  F   UNL A   1      38.269  32.429  37.811  1.00  0.00    -0.203 F 
ATOM     79  C   UNL A   1      38.801  34.406  38.976  1.00  0.00     0.198 A 
ATOM     80  C   UNL A   1      40.281  36.016  37.988  1.00  0.00     0.198 A 
ATOM     81  F   UNL A   1      41.174  35.630  35.845  1.00  0.00    -0.203 F 
ATOM     82  F   UNL A   1      38.008  34.025  39.986  1.00  0.00    -0.200 F 
ATOM     83  C   UNL A   1      39.480  35.613  39.046  1.00  0.00     0.200 A 
ATOM     84  F   UNL A   1      40.951  37.174  38.059  1.00  0.00    -0.200 F 
ATOM     85  F   UNL A   1      39.359  36.390  40.131  1.00  0.00    -0.200 F 
ENDBRANCH  51  75
BRANCH  63  86
ATOM     86  C   UNL A   1      44.204  28.890  35.086  1.00  0.00     0.064 A 
ATOM     87  C   UNL A   1      44.112  27.806  35.971  1.00  0.00     0.173 A 
ATOM     88  C   UNL A   1      45.477  29.417  34.821  1.00  0.00     0.173 A 
ATOM     89  F   UNL A   1      42.917  27.276  36.268  1.00  0.00    -0.203 F 
ATOM     90  C   UNL A   1      45.249  27.286  36.584  1.00  0.00     0.198 A 
ATOM     91  C   UNL A   1      46.614  28.873  35.410  1.00  0.00     0.198 A 
ATOM     92  F   UNL A   1      45.620  30.450  33.976  1.00  0.00    -0.203 F 
ATOM     93  F   UNL A   1      45.133  26.282  37.464  1.00  0.00    -0.200 F 
ATOM     94  C   UNL A   1      46.499  27.813  36.296  1.00  0.00     0.200 A 
ATOM     95  F   UNL A   1      47.823  29.373  35.118  1.00  0.00    -0.200 F 
ATOM     96  F   UNL A   1      47.593  27.304  36.880  1.00  0.00    -0.200 F 
ENDBRANCH  63  86
ENDBRANCH  37  38
ENDBRANCH  29  32
ENDBRANCH  27  28
ENDBRANCH  26  27
ENDBRANCH   1  26
TORSDOF 14
ENDMDL
MODEL 2
REMARK VINA RESULT:     -12.6      5.937     11.227
REMARK SMILES CC(C)(C)OC(=O)N1C[C@@H](c2cccc(Cl)c2)CC[C@H]1C(=O)NCCCNC(=O)c1ccc(-c2c3nc(c(-c4c(F)c(F)c(F)c(F)c4F)c4ccc([nH]4)c(-c4c(F)c(F)c(F)c(F)c4F)c4nc(c(-c5c(F)c(F)c(F)c(F)c5F)c5ccc2[nH]5)C=C4)C=C3)cc1
REMARK SMILES IDX 24 1 23 2 21 3 22 4 20 6 8 7 9 8 10 9 19 10 18 11 6 12 7 13
REMARK SMILES IDX 5 14 2 15 1 16 3 17 4 18 11 19 12 20 17 21 13 22 15 23 14 24
REMARK SMILES IDX 16 25 25 26 26 27 27 28 28 29 29 31 30 32 31 33 92 34 32 35
REMARK SMILES IDX 91 36 33 37 34 38 35 39 85 40 36 41 90 42 84 43 86 44 37 45
REMARK SMILES IDX 89 46 83 47 82 48 38 50 70 51 50 52 69 53 51 54 54 55 68 56
REMARK SMILES IDX 87 57 52 58 53 59 67 61 88 62 55 63 39 64 40 65 48 66 41 67
REMARK SMILES IDX 42 68 46 69 49 70 43 71 44 72 47 73 45 74 71 75 72 76 80 77
REMARK SMILES IDX 73 78 74 79 78 80 81 81 75 82 76 83 79 84 77 85 56 86 57 87
REMARK SMILES IDX 65 88 58 89 59 90 63 91 66 92 60 93 61 94 64 95 62 96
REMARK H PARENT 23 5 27 30 86 49 54 60
REMARK Flexibility Score: inf
ROOT
ATOM      1  C   UNL A   1      36.929  20.817  24.638  1.00  0.00     0.117 C 
ENDROOT
BRANCH   1   2
ATOM      2  N   UNL A   1      37.344  22.094  25.180  1.00  0.00    -0.354 N 
ATOM      3  C   UNL A   1      36.666  23.162  25.681  1.00  0.00     0.242 C 
ATOM      4  O   UNL A   1      37.384  24.112  26.026  1.00  0.00    -0.273 OA
ATOM      5  H   UNL A   1      38.320  22.215  25.187  1.00  0.00     0.163 HD
BRANCH   3   6
ATOM      6  C   UNL A   1      35.116  23.275  25.838  1.00  0.00     0.177 C 
ATOM      7  N   UNL A   1      34.296  23.319  24.634  1.00  0.00    -0.296 N 
ATOM      8  C   UNL A   1      33.972  22.069  24.010  1.00  0.00     0.132 C 
ATOM      9  C   UNL A   1      33.272  21.034  24.909  1.00  0.00     0.039 C 
ATOM     10  C   UNL A   1      34.452  22.361  26.878  1.00  0.00     0.036 C 
ATOM     11  C   UNL A   1      33.796  21.063  26.374  1.00  0.00     0.013 C 
BRANCH   7  12
ATOM     12  C   UNL A   1      33.749  24.460  24.080  1.00  0.00     0.410 C 
ATOM     13  O   UNL A   1      34.028  24.823  22.941  1.00  0.00    -0.224 OA
BRANCH  12  14
ATOM     14  O   UNL A   1      32.949  25.158  24.926  1.00  0.00    -0.444 OA
BRANCH  14  15
ATOM     15  C   UNL A   1      31.532  24.822  24.975  1.00  0.00     0.106 C 
ATOM     16  C   UNL A   1      30.786  26.161  25.078  1.00  0.00     0.056 C 
ATOM     17  C   UNL A   1      31.234  23.993  26.229  1.00  0.00     0.056 C 
ATOM     18  C   UNL A   1      31.035  24.123  23.695  1.00  0.00     0.056 C 
ENDBRANCH  14  15
ENDBRANCH  12  14
ENDBRANCH   7  12
BRANCH   9  19
ATOM     19  C   UNL A   1      33.341  19.638  24.251  1.00  0.00    -0.042 A 
ATOM     20  C   UNL A   1      32.528  19.288  23.163  1.00  0.00     0.004 A 
ATOM     21  C   UNL A   1      34.209  18.640  24.745  1.00  0.00     0.024 A 
ATOM     22  C   UNL A   1      32.498  17.975  22.671  1.00  0.00     0.002 A 
ATOM     23  C   UNL A   1      34.162  17.330  24.268  1.00  0.00     0.041 A 
ATOM     24  C   UNL A   1      33.297  16.987  23.241  1.00  0.00     0.020 A 
ATOM     25  Cl  UNL A   1      35.153  16.133  25.001  1.00  0.00    -0.084 Cl
ENDBRANCH   9  19
ENDBRANCH   3   6
ENDBRANCH   1   2
BRANCH   1  26
ATOM     26  C   UNL A   1      37.886  19.690  25.001  1.00  0.00     0.042 C 
BRANCH  26  27
ATOM     27  C   UNL A   1      38.898  20.069  26.065  1.00  0.00     0.118 C 
BRANCH  27  28
ATOM     28  N   UNL A   1      40.074  19.203  26.046  1.00  0.00    -0.352 N 
ATOM     29  C   UNL A   1      41.422  19.468  26.092  1.00  0.00     0.251 C 
ATOM     30  H   UNL A   1      39.860  18.245  25.989  1.00  0.00     0.163 HD
ATOM     31  O   UNL A   1      42.206  18.554  25.842  1.00  0.00    -0.269 OA
BRANCH  29  32
ATOM     32  C   UNL A   1      41.960  20.812  26.418  1.00  0.00     0.039 A 
ATOM     33  C   UNL A   1      42.197  21.719  25.376  1.00  0.00     0.014 A 
ATOM     34  C   UNL A   1      42.300  21.182  27.717  1.00  0.00     0.014 A 
ATOM     35  C   UNL A   1      42.704  22.996  25.648  1.00  0.00     0.010 A 
ATOM     36  C   UNL A   1      42.670  22.491  28.005  1.00  0.00     0.010 A 
ATOM     37  C   UNL A   1      42.907  23.409  26.972  1.00  0.00    -0.014 A 
BRANCH  37  38
ATOM     38  C   UNL A   1      43.404  24.769  27.317  1.00  0.00     0.031 A 
ATOM     39  C   UNL A   1      42.447  25.815  27.824  1.00  0.00     0.074 A 
ATOM     40  C   UNL A   1      44.688  25.099  27.076  1.00  0.00     0.049 A 
ATOM     41  N   UNL A   1      42.650  27.088  28.055  1.00  0.00    -0.248 NA
ATOM     42  C   UNL A   1      41.060  25.382  28.063  1.00  0.00     0.031 C 
ATOM     43  C   UNL A   1      45.701  24.199  26.532  1.00  0.00     0.029 A 
ATOM     44  N   UNL A   1      45.353  26.291  27.228  1.00  0.00    -0.354 N 
ATOM     45  C   UNL A   1      41.418  27.605  28.431  1.00  0.00     0.074 A 
ATOM     46  C   UNL A   1      40.458  26.529  28.330  1.00  0.00     0.031 C 
ATOM     47  C   UNL A   1      46.858  24.862  26.394  1.00  0.00     0.029 A 
ATOM     48  C   UNL A   1      46.661  26.246  26.810  1.00  0.00     0.049 A 
ATOM     49  H   UNL A   1      44.934  27.100  27.602  1.00  0.00     0.167 HD
ATOM     50  C   UNL A   1      41.118  28.858  28.851  1.00  0.00     0.037 A 
ATOM     51  C   UNL A   1      47.597  27.213  26.756  1.00  0.00     0.037 A 
ATOM     52  C   UNL A   1      42.087  29.912  28.989  1.00  0.00     0.049 A 
ATOM     53  C   UNL A   1      47.252  28.589  27.249  1.00  0.00     0.074 A 
ATOM     54  C   UNL A   1      41.912  31.185  29.502  1.00  0.00     0.029 A 
ATOM     55  N   UNL A   1      43.417  29.815  28.605  1.00  0.00    -0.354 N 
ATOM     56  N   UNL A   1      46.106  29.044  27.694  1.00  0.00    -0.248 NA
ATOM     57  C   UNL A   1      48.334  29.583  27.251  1.00  0.00     0.031 C 
ATOM     58  C   UNL A   1      43.120  31.877  29.372  1.00  0.00     0.029 A 
ATOM     59  C   UNL A   1      44.067  31.016  28.838  1.00  0.00     0.049 A 
ATOM     60  H   UNL A   1      43.838  29.010  28.223  1.00  0.00     0.167 HD
ATOM     61  C   UNL A   1      46.331  30.365  28.053  1.00  0.00     0.074 A 
ATOM     62  C   UNL A   1      47.729  30.634  27.786  1.00  0.00     0.031 C 
ATOM     63  C   UNL A   1      45.459  31.270  28.562  1.00  0.00     0.037 A 
BRANCH  50  64
ATOM     64  C   UNL A   1      39.681  29.152  29.186  1.00  0.00     0.064 A 
ATOM     65  C   UNL A   1      39.182  29.033  30.493  1.00  0.00     0.173 A 
ATOM     66  C   UNL A   1      38.789  29.563  28.184  1.00  0.00     0.173 A 
ATOM     67  F   UNL A   1      39.987  28.635  31.490  1.00  0.00    -0.203 F 
ATOM     68  C   UNL A   1      37.838  29.266  30.773  1.00  0.00     0.198 A 
ATOM     69  C   UNL A   1      37.454  29.833  28.474  1.00  0.00     0.198 A 
ATOM     70  F   UNL A   1      39.210  29.703  26.918  1.00  0.00    -0.203 F 
ATOM     71  F   UNL A   1      37.372  29.074  32.015  1.00  0.00    -0.200 F 
ATOM     72  C   UNL A   1      36.976  29.671  29.767  1.00  0.00     0.200 A 
ATOM     73  F   UNL A   1      36.626  30.239  27.502  1.00  0.00    -0.200 F 
ATOM     74  F   UNL A   1      35.682  29.893  30.037  1.00  0.00    -0.200 F 
ENDBRANCH  50  64
BRANCH  51  75
ATOM     75  C   UNL A   1      48.955  26.889  26.246  1.00  0.00     0.064 A 
ATOM     76  C   UNL A   1      49.940  26.370  27.097  1.00  0.00     0.173 A 
ATOM     77  C   UNL A   1      49.283  27.057  24.892  1.00  0.00     0.173 A 
ATOM     78  F   UNL A   1      49.679  26.208  28.402  1.00  0.00    -0.203 F 
ATOM     79  C   UNL A   1      51.206  26.041  26.616  1.00  0.00     0.198 A 
ATOM     80  C   UNL A   1      50.540  26.701  24.407  1.00  0.00     0.198 A 
ATOM     81  F   UNL A   1      48.374  27.542  24.036  1.00  0.00    -0.203 F 
ATOM     82  F   UNL A   1      52.140  25.578  27.457  1.00  0.00    -0.200 F 
ATOM     83  C   UNL A   1      51.502  26.198  25.271  1.00  0.00     0.200 A 
ATOM     84  F   UNL A   1      50.818  26.841  23.104  1.00  0.00    -0.200 F 
ATOM     85  F   UNL A   1      52.716  25.870  24.806  1.00  0.00    -0.200 F 
ENDBRANCH  51  75
BRANCH  63  86
ATOM     86  C   UNL A   1      45.997  32.633  28.892  1.00  0.00     0.064 A 
ATOM     87  C   UNL A   1      46.571  32.918  30.139  1.00  0.00     0.173 A 
ATOM     88  C   UNL A   1      45.980  33.653  27.928  1.00  0.00     0.173 A 
ATOM     89  F   UNL A   1      46.600  31.982  31.099  1.00  0.00    -0.203 F 
ATOM     90  C   UNL A   1      47.084  34.183  30.418  1.00  0.00     0.198 A 
ATOM     91  C   UNL A   1      46.524  34.905  28.199  1.00  0.00     0.198 A 
ATOM     92  F   UNL A   1      45.448  33.430  26.716  1.00  0.00    -0.203 F 
ATOM     93  F   UNL A   1      47.583  34.447  31.633  1.00  0.00    -0.200 F 
ATOM     94  C   UNL A   1      47.068  35.171  29.445  1.00  0.00     0.200 A 
ATOM     95  F   UNL A   1      46.522  35.853  27.252  1.00  0.00    -0.200 F 
ATOM     96  F   UNL A   1      47.572  36.384  29.713  1.00  0.00    -0.200 F 
ENDBRANCH  63  86
ENDBRANCH  37  38
ENDBRANCH  29  32
ENDBRANCH  27  28
ENDBRANCH  26  27
ENDBRANCH   1  26
TORSDOF 14
ENDMDL
MODEL 3
REMARK VINA RESULT:     -12.6      0.603      2.064
REMARK SMILES CC(C)(C)OC(=O)N1C[C@@H](c2cccc(Cl)c2)CC[C@H]1C(=O)NCCCNC(=O)c1ccc(-c2c3nc(c(-c4c(F)c(F)c(F)c(F)c4F)c4ccc([nH]4)c(-c4c(F)c(F)c(F)c(F)c4F)c4nc(c(-c5c(F)c(F)c(F)c(F)c5F)c5ccc2[nH]5)C=C4)C=C3)cc1
REMARK SMILES IDX 24 1 23 2 21 3 22 4 20 6 8 7 9 8 10 9 19 10 18 11 6 12 7 13
REMARK SMILES IDX 5 14 2 15 1 16 3 17 4 18 11 19 12 20 17 21 13 22 15 23 14 24
REMARK SMILES IDX 16 25 25 26 26 27 27 28 28 29 29 31 30 32 31 33 92 34 32 35
REMARK SMILES IDX 91 36 33 37 34 38 35 39 85 40 36 41 90 42 84 43 86 44 37 45
REMARK SMILES IDX 89 46 83 47 82 48 38 50 70 51 50 52 69 53 51 54 54 55 68 56
REMARK SMILES IDX 87 57 52 58 53 59 67 61 88 62 55 63 39 64 40 65 48 66 41 67
REMARK SMILES IDX 42 68 46 69 49 70 43 71 44 72 47 73 45 74 71 75 72 76 80 77
REMARK SMILES IDX 73 78 74 79 78 80 81 81 75 82 76 83 79 84 77 85 56 86 57 87
REMARK SMILES IDX 65 88 58 89 59 90 63 91 66 92 60 93 61 94 64 95 62 96
REMARK H PARENT 23 5 27 30 86 49 54 60
REMARK Flexibility Score: inf
ROOT
ATOM      1  C   UNL A   1      31.694  30.626  26.440  1.00  0.00     0.117 C 
ENDROOT
BRANCH   1   2
ATOM      2  N   UNL A   1      32.884  30.134  27.102  1.00  0.00    -0.354 N 
ATOM      3  C   UNL A   1      33.696  29.062  26.893  1.00  0.00     0.242 C 
ATOM      4  O   UNL A   1      34.622  28.951  27.710  1.00  0.00    -0.273 OA
ATOM      5  H   UNL A   1      33.164  30.692  27.862  1.00  0.00     0.163 HD
BRANCH   3   6
ATOM      6  C   UNL A   1      33.546  28.005  25.754  1.00  0.00     0.177 C 
ATOM      7  N   UNL A   1      32.424  27.076  25.810  1.00  0.00    -0.296 N 
ATOM      8  C   UNL A   1      31.159  27.538  25.316  1.00  0.00     0.132 C 
ATOM      9  C   UNL A   1      31.154  28.053  23.866  1.00  0.00     0.039 C 
ATOM     10  C   UNL A   1      33.729  28.501  24.313  1.00  0.00     0.036 C 
ATOM     11  C   UNL A   1      32.462  28.812  23.497  1.00  0.00     0.013 C 
BRANCH   7  12
ATOM     12  C   UNL A   1      32.492  25.764  26.238  1.00  0.00     0.410 C 
ATOM     13  O   UNL A   1      31.552  25.223  26.812  1.00  0.00    -0.224 OA
BRANCH  12  14
ATOM     14  O   UNL A   1      33.697  25.175  26.028  1.00  0.00    -0.444 OA
BRANCH  14  15
ATOM     15  C   UNL A   1      33.807  24.181  24.967  1.00  0.00     0.106 C 
ATOM     16  C   UNL A   1      35.301  24.100  24.619  1.00  0.00     0.056 C 
ATOM     17  C   UNL A   1      33.035  24.651  23.729  1.00  0.00     0.056 C 
ATOM     18  C   UNL A   1      33.368  22.773  25.415  1.00  0.00     0.056 C 
ENDBRANCH  14  15
ENDBRANCH  12  14
ENDBRANCH   7  12
BRANCH   9  19
ATOM     19  C   UNL A   1      29.867  28.866  23.604  1.00  0.00    -0.042 A 
ATOM     20  C   UNL A   1      28.656  28.249  23.256  1.00  0.00     0.004 A 
ATOM     21  C   UNL A   1      29.868  30.275  23.672  1.00  0.00     0.024 A 
ATOM     22  C   UNL A   1      27.537  29.005  22.880  1.00  0.00     0.002 A 
ATOM     23  C   UNL A   1      28.759  31.026  23.277  1.00  0.00     0.041 A 
ATOM     24  C   UNL A   1      27.596  30.396  22.865  1.00  0.00     0.020 A 
ATOM     25  Cl  UNL A   1      28.869  32.741  23.260  1.00  0.00    -0.084 Cl
ENDBRANCH   9  19
ENDBRANCH   3   6
ENDBRANCH   1   2
BRANCH   1  26
ATOM     26  C   UNL A   1      31.430  32.096  26.729  1.00  0.00     0.042 C 
BRANCH  26  27
ATOM     27  C   UNL A   1      32.688  32.943  26.783  1.00  0.00     0.118 C 
BRANCH  27  28
ATOM     28  N   UNL A   1      32.501  34.166  27.559  1.00  0.00    -0.352 N 
ATOM     29  C   UNL A   1      33.085  34.630  28.713  1.00  0.00     0.251 C 
ATOM     30  H   UNL A   1      31.826  34.775  27.183  1.00  0.00     0.163 HD
ATOM     31  O   UNL A   1      32.583  35.604  29.271  1.00  0.00    -0.269 OA
BRANCH  29  32
ATOM     32  C   UNL A   1      34.286  33.994  29.312  1.00  0.00     0.039 A 
ATOM     33  C   UNL A   1      35.552  34.502  28.991  1.00  0.00     0.014 A 
ATOM     34  C   UNL A   1      34.202  32.870  30.128  1.00  0.00     0.014 A 
ATOM     35  C   UNL A   1      36.706  33.927  29.538  1.00  0.00     0.010 A 
ATOM     36  C   UNL A   1      35.331  32.385  30.781  1.00  0.00     0.010 A 
ATOM     37  C   UNL A   1      36.603  32.886  30.473  1.00  0.00    -0.014 A 
BRANCH  37  38
ATOM     38  C   UNL A   1      37.795  32.268  31.114  1.00  0.00     0.031 A 
ATOM     39  C   UNL A   1      38.565  31.192  30.395  1.00  0.00     0.074 A 
ATOM     40  C   UNL A   1      38.127  32.594  32.379  1.00  0.00     0.049 A 
ATOM     41  N   UNL A   1      39.546  30.440  30.827  1.00  0.00    -0.248 NA
ATOM     42  C   UNL A   1      38.146  30.888  29.017  1.00  0.00     0.031 C 
ATOM     43  C   UNL A   1      37.430  33.576  33.205  1.00  0.00     0.029 A 
ATOM     44  N   UNL A   1      39.114  32.112  33.202  1.00  0.00    -0.354 N 
ATOM     45  C   UNL A   1      39.833  29.561  29.791  1.00  0.00     0.074 A 
ATOM     46  C   UNL A   1      38.879  29.824  28.736  1.00  0.00     0.031 C 
ATOM     47  C   UNL A   1      38.004  33.628  34.415  1.00  0.00     0.029 A 
ATOM     48  C   UNL A   1      39.093  32.659  34.463  1.00  0.00     0.049 A 
ATOM     49  H   UNL A   1      39.775  31.439  32.917  1.00  0.00     0.167 HD
ATOM     50  C   UNL A   1      40.821  28.638  29.713  1.00  0.00     0.037 A 
ATOM     51  C   UNL A   1      39.857  32.403  35.541  1.00  0.00     0.037 A 
ATOM     52  C   UNL A   1      41.793  28.412  30.749  1.00  0.00     0.049 A 
ATOM     53  C   UNL A   1      40.964  31.393  35.428  1.00  0.00     0.074 A 
ATOM     54  C   UNL A   1      42.895  27.576  30.733  1.00  0.00     0.029 A 
ATOM     55  N   UNL A   1      41.772  29.023  31.995  1.00  0.00    -0.354 N 
ATOM     56  N   UNL A   1      41.288  30.634  34.408  1.00  0.00    -0.248 NA
ATOM     57  C   UNL A   1      41.822  31.215  36.605  1.00  0.00     0.031 C 
ATOM     58  C   UNL A   1      43.506  27.637  31.990  1.00  0.00     0.029 A 
ATOM     59  C   UNL A   1      42.823  28.558  32.769  1.00  0.00     0.049 A 
ATOM     60  H   UNL A   1      41.108  29.690  32.287  1.00  0.00     0.167 HD
ATOM     61  C   UNL A   1      42.401  29.909  34.809  1.00  0.00     0.074 A 
ATOM     62  C   UNL A   1      42.705  30.330  36.162  1.00  0.00     0.031 C 
ATOM     63  C   UNL A   1      43.109  28.984  34.116  1.00  0.00     0.037 A 
BRANCH  50  64
ATOM     64  C   UNL A   1      40.894  27.803  28.464  1.00  0.00     0.064 A 
ATOM     65  C   UNL A   1      40.205  26.585  28.341  1.00  0.00     0.173 A 
ATOM     66  C   UNL A   1      41.661  28.229  27.368  1.00  0.00     0.173 A 
ATOM     67  F   UNL A   1      39.463  26.123  29.359  1.00  0.00    -0.203 F 
ATOM     68  C   UNL A   1      40.322  25.805  27.193  1.00  0.00     0.198 A 
ATOM     69  C   UNL A   1      41.744  27.466  26.207  1.00  0.00     0.198 A 
ATOM     70  F   UNL A   1      42.334  29.388  27.423  1.00  0.00    -0.203 F 
ATOM     71  F   UNL A   1      39.713  24.613  27.131  1.00  0.00    -0.200 F 
ATOM     72  C   UNL A   1      41.086  26.247  26.125  1.00  0.00     0.200 A 
ATOM     73  F   UNL A   1      42.472  27.902  25.170  1.00  0.00    -0.200 F 
ATOM     74  F   UNL A   1      41.199  25.495  25.022  1.00  0.00    -0.200 F 
ENDBRANCH  50  64
BRANCH  51  75
ATOM     75  C   UNL A   1      39.613  33.147  36.804  1.00  0.00     0.064 A 
ATOM     76  C   UNL A   1      40.300  34.336  37.085  1.00  0.00     0.173 A 
ATOM     77  C   UNL A   1      38.663  32.705  37.737  1.00  0.00     0.173 A 
ATOM     78  F   UNL A   1      41.230  34.788  36.232  1.00  0.00    -0.203 F 
ATOM     79  C   UNL A   1      40.054  35.050  38.256  1.00  0.00     0.198 A 
ATOM     80  C   UNL A   1      38.398  33.434  38.895  1.00  0.00     0.198 A 
ATOM     81  F   UNL A   1      37.973  31.578  37.512  1.00  0.00    -0.203 F 
ATOM     82  F   UNL A   1      40.749  36.165  38.516  1.00  0.00    -0.200 F 
ATOM     83  C   UNL A   1      39.098  34.604  39.156  1.00  0.00     0.200 A 
ATOM     84  F   UNL A   1      37.463  33.009  39.754  1.00  0.00    -0.200 F 
ATOM     85  F   UNL A   1      38.853  35.297  40.276  1.00  0.00    -0.200 F 
ENDBRANCH  51  75
BRANCH  63  86
ATOM     86  C   UNL A   1      44.303  28.379  34.800  1.00  0.00     0.064 A 
ATOM     87  C   UNL A   1      45.568  28.981  34.745  1.00  0.00     0.173 A 
ATOM     88  C   UNL A   1      44.165  27.206  35.557  1.00  0.00     0.173 A 
ATOM     89  F   UNL A   1      45.754  30.096  34.023  1.00  0.00    -0.203 F 
ATOM     90  C   UNL A   1      46.657  28.416  35.403  1.00  0.00     0.198 A 
ATOM     91  C   UNL A   1      45.249  26.663  36.241  1.00  0.00     0.198 A 
ATOM     92  F   UNL A   1      42.974  26.593  35.648  1.00  0.00    -0.203 F 
ATOM     93  F   UNL A   1      47.867  28.981  35.297  1.00  0.00    -0.200 F 
ATOM     94  C   UNL A   1      46.495  27.264  36.157  1.00  0.00     0.200 A 
ATOM     95  F   UNL A   1      45.086  25.558  36.982  1.00  0.00    -0.200 F 
ATOM     96  F   UNL A   1      47.543  26.728  36.798  1.00  0.00    -0.200 F 
ENDBRANCH  63  86
ENDBRANCH  37  38
ENDBRANCH  29  32
ENDBRANCH  27  28
ENDBRANCH  26  27
ENDBRANCH   1  26
TORSDOF 14
ENDMDL
