MODEL 1
REMARK VINA RESULT:     -13.1      0.000      0.000
REMARK SMILES CCCc1cc2c(cc1Cl)C=C(C(=O)NCCCNC(=O)c1ccc(-c3c4nc(c(-c5c(F)c(F)c(F)c(F)c5F)c5ccc([nH]5)c(-c5c(F)c(F)c(F)c(F)c5F)c5nc(c(-c6c(F)c(F)c(F)c(F)c6F)c6ccc3[nH]6)C=C5)C=C4)cc1)[C@@H](C(F)(F)F)O2
REMARK SMILES IDX 17 1 16 2 15 3 13 4 14 5 12 7 4 8 5 9 9 10 6 11 8 12 10 13
REMARK SMILES IDX 7 14 90 15 11 16 85 17 3 18 2 19 1 20 86 21 87 22 88 23
REMARK SMILES IDX 89 24 18 25 19 26 20 27 21 29 22 30 23 31 84 32 24 33 83 34
REMARK SMILES IDX 25 35 26 36 27 37 77 38 28 39 82 40 76 41 78 42 29 43 81 44
REMARK SMILES IDX 75 45 74 46 30 48 62 49 42 50 61 51 43 52 46 53 60 54 79 55
REMARK SMILES IDX 44 56 45 57 59 59 80 60 47 61 31 62 32 63 40 64 33 65 34 66
REMARK SMILES IDX 38 67 41 68 35 69 36 70 39 71 37 72 63 73 64 74 72 75 65 76
REMARK SMILES IDX 66 77 70 78 73 79 67 80 68 81 71 82 69 83 48 84 49 85 57 86
REMARK SMILES IDX 50 87 51 88 55 89 58 90 52 91 53 92 56 93 54 94
REMARK H PARENT 15 6 19 28 78 47 46 58
REMARK Flexibility Score: inf
ROOT
ATOM      1  C   UNL A   1      31.429  32.068  26.664  1.00  0.00     0.042 C 
ENDROOT
BRANCH   1   2
ATOM      2  C   UNL A   1      31.639  30.585  26.399  1.00  0.00     0.118 C 
BRANCH   2   3
ATOM      3  N   UNL A   1      31.402  30.238  25.006  1.00  0.00    -0.352 N 
ATOM      4  C   UNL A   1      31.388  29.113  24.252  1.00  0.00     0.251 C 
ATOM      5  O   UNL A   1      31.134  29.288  23.055  1.00  0.00    -0.270 OA
ATOM      6  H   UNL A   1      31.200  31.035  24.467  1.00  0.00     0.163 HD
BRANCH   4   7
ATOM      7  C   UNL A   1      31.655  27.736  24.758  1.00  0.00     0.067 C 
ATOM      8  C   UNL A   1      33.833  23.476  26.386  1.00  0.00    -0.026 A 
ATOM      9  C   UNL A   1      32.526  23.982  26.357  1.00  0.00     0.052 A 
ATOM     10  C   UNL A   1      34.862  24.284  25.874  1.00  0.00     0.045 A 
ATOM     11  C   UNL A   1      32.262  25.258  25.876  1.00  0.00     0.128 A 
ATOM     12  C   UNL A   1      34.586  25.560  25.355  1.00  0.00     0.032 A 
ATOM     13  Cl  UNL A   1      36.511  23.768  25.864  1.00  0.00    -0.084 Cl
ATOM     14  C   UNL A   1      33.280  26.054  25.361  1.00  0.00     0.019 A 
ATOM     15  O   UNL A   1      30.976  25.687  26.004  1.00  0.00    -0.475 OA
ATOM     16  C   UNL A   1      32.952  27.391  24.879  1.00  0.00     0.025 C 
ATOM     17  C   UNL A   1      30.575  26.751  25.106  1.00  0.00     0.314 C 
BRANCH   8  18
ATOM     18  C   UNL A   1      34.044  22.105  26.985  1.00  0.00     0.037 C 
BRANCH  18  19
ATOM     19  C   UNL A   1      33.690  20.948  26.040  1.00  0.00     0.001 C 
ATOM     20  C   UNL A   1      34.741  20.658  24.974  1.00  0.00     0.004 C 
ENDBRANCH  18  19
ENDBRANCH   8  18
BRANCH  17  21
ATOM     21  C   UNL A   1      29.905  26.122  23.871  1.00  0.00     0.429 C 
ATOM     22  F   UNL A   1      30.687  26.298  22.775  1.00  0.00    -0.167 F 
ATOM     23  F   UNL A   1      29.720  24.787  23.998  1.00  0.00    -0.167 F 
ATOM     24  F   UNL A   1      28.697  26.661  23.599  1.00  0.00    -0.167 F 
ENDBRANCH  17  21
ENDBRANCH   4   7
ENDBRANCH   2   3
ENDBRANCH   1   2
BRANCH   1  25
ATOM     25  C   UNL A   1      32.671  32.736  27.233  1.00  0.00     0.118 C 
BRANCH  25  26
ATOM     26  N   UNL A   1      32.425  34.125  27.618  1.00  0.00    -0.352 N 
ATOM     27  C   UNL A   1      32.996  34.894  28.602  1.00  0.00     0.251 C 
ATOM     28  H   UNL A   1      31.737  34.584  27.084  1.00  0.00     0.163 HD
ATOM     29  O   UNL A   1      32.501  35.978  28.897  1.00  0.00    -0.269 OA
BRANCH  27  30
ATOM     30  C   UNL A   1      34.191  34.410  29.322  1.00  0.00     0.039 A 
ATOM     31  C   UNL A   1      35.468  34.692  28.837  1.00  0.00     0.014 A 
ATOM     32  C   UNL A   1      34.036  33.664  30.494  1.00  0.00     0.014 A 
ATOM     33  C   UNL A   1      36.570  34.066  29.402  1.00  0.00     0.010 A 
ATOM     34  C   UNL A   1      35.160  33.125  31.127  1.00  0.00     0.010 A 
ATOM     35  C   UNL A   1      36.432  33.278  30.555  1.00  0.00    -0.014 A 
BRANCH  35  36
ATOM     36  C   UNL A   1      37.638  32.622  31.123  1.00  0.00     0.031 A 
ATOM     37  C   UNL A   1      38.115  32.960  32.510  1.00  0.00     0.074 A 
ATOM     38  C   UNL A   1      38.238  31.641  30.419  1.00  0.00     0.049 A 
ATOM     39  N   UNL A   1      39.120  32.455  33.181  1.00  0.00    -0.248 NA
ATOM     40  C   UNL A   1      37.372  33.999  33.244  1.00  0.00     0.031 C 
ATOM     41  C   UNL A   1      37.844  31.209  29.076  1.00  0.00     0.029 A 
ATOM     42  N   UNL A   1      39.265  30.794  30.749  1.00  0.00    -0.354 N 
ATOM     43  C   UNL A   1      39.138  33.118  34.401  1.00  0.00     0.074 A 
ATOM     44  C   UNL A   1      38.063  34.086  34.373  1.00  0.00     0.031 C 
ATOM     45  C   UNL A   1      38.555  30.125  28.735  1.00  0.00     0.029 A 
ATOM     46  C   UNL A   1      39.511  29.834  29.797  1.00  0.00     0.049 A 
ATOM     47  H   UNL A   1      39.778  30.868  31.587  1.00  0.00     0.167 HD
ATOM     48  C   UNL A   1      39.965  32.924  35.454  1.00  0.00     0.037 A 
ATOM     49  C   UNL A   1      40.411  28.834  29.779  1.00  0.00     0.037 A 
ATOM     50  C   UNL A   1      41.014  31.938  35.491  1.00  0.00     0.049 A 
ATOM     51  C   UNL A   1      41.352  28.685  30.941  1.00  0.00     0.074 A 
ATOM     52  C   UNL A   1      41.918  31.678  36.506  1.00  0.00     0.029 A 
ATOM     53  N   UNL A   1      41.286  31.040  34.470  1.00  0.00    -0.354 N 
ATOM     54  N   UNL A   1      41.378  29.343  32.073  1.00  0.00    -0.248 NA
ATOM     55  C   UNL A   1      42.403  27.667  30.812  1.00  0.00     0.031 C 
ATOM     56  C   UNL A   1      42.755  30.640  36.091  1.00  0.00     0.029 A 
ATOM     57  C   UNL A   1      42.351  30.229  34.830  1.00  0.00     0.049 A 
ATOM     58  H   UNL A   1      40.797  30.986  33.618  1.00  0.00     0.167 HD
ATOM     59  C   UNL A   1      42.438  28.816  32.794  1.00  0.00     0.074 A 
ATOM     60  C   UNL A   1      43.016  27.764  31.984  1.00  0.00     0.031 C 
ATOM     61  C   UNL A   1      42.901  29.180  34.014  1.00  0.00     0.037 A 
BRANCH  48  62
ATOM     62  C   UNL A   1      39.777  33.782  36.670  1.00  0.00     0.064 A 
ATOM     63  C   UNL A   1      40.357  35.055  36.760  1.00  0.00     0.173 A 
ATOM     64  C   UNL A   1      38.931  33.369  37.710  1.00  0.00     0.173 A 
ATOM     65  F   UNL A   1      41.183  35.490  35.797  1.00  0.00    -0.203 F 
ATOM     66  C   UNL A   1      40.096  35.883  37.849  1.00  0.00     0.198 A 
ATOM     67  C   UNL A   1      38.655  34.208  38.786  1.00  0.00     0.198 A 
ATOM     68  F   UNL A   1      38.348  32.160  37.668  1.00  0.00    -0.203 F 
ATOM     69  F   UNL A   1      40.675  37.090  37.923  1.00  0.00    -0.200 F 
ATOM     70  C   UNL A   1      39.238  35.465  38.854  1.00  0.00     0.200 A 
ATOM     71  F   UNL A   1      37.816  33.806  39.751  1.00  0.00    -0.200 F 
ATOM     72  F   UNL A   1      38.971  36.273  39.890  1.00  0.00    -0.200 F 
ENDBRANCH  48  62
BRANCH  49  73
ATOM     73  C   UNL A   1      40.470  27.902  28.624  1.00  0.00     0.064 A 
ATOM     74  C   UNL A   1      39.779  26.682  28.651  1.00  0.00     0.173 A 
ATOM     75  C   UNL A   1      41.215  28.203  27.475  1.00  0.00     0.173 A 
ATOM     76  F   UNL A   1      39.070  26.338  29.737  1.00  0.00    -0.203 F 
ATOM     77  C   UNL A   1      39.842  25.795  27.578  1.00  0.00     0.198 A 
ATOM     78  C   UNL A   1      41.253  27.330  26.391  1.00  0.00     0.198 A 
ATOM     79  F   UNL A   1      41.894  29.357  27.399  1.00  0.00    -0.203 F 
ATOM     80  F   UNL A   1      39.206  24.618  27.646  1.00  0.00    -0.200 F 
ATOM     81  C   UNL A   1      40.572  26.124  26.446  1.00  0.00     0.200 A 
ATOM     82  F   UNL A   1      41.948  27.659  25.293  1.00  0.00    -0.200 F 
ATOM     83  F   UNL A   1      40.628  25.274  25.411  1.00  0.00    -0.200 F 
ENDBRANCH  49  73
BRANCH  61  84
ATOM     84  C   UNL A   1      44.077  28.428  34.556  1.00  0.00     0.064 A 
ATOM     85  C   UNL A   1      45.386  28.892  34.365  1.00  0.00     0.173 A 
ATOM     86  C   UNL A   1      43.889  27.272  35.328  1.00  0.00     0.173 A 
ATOM     87  F   UNL A   1      45.613  29.985  33.621  1.00  0.00    -0.203 F 
ATOM     88  C   UNL A   1      46.469  28.216  34.918  1.00  0.00     0.198 A 
ATOM     89  C   UNL A   1      44.973  26.614  35.900  1.00  0.00     0.198 A 
ATOM     90  F   UNL A   1      42.655  26.796  35.543  1.00  0.00    -0.203 F 
ATOM     91  F   UNL A   1      47.715  28.658  34.698  1.00  0.00    -0.200 F 
ATOM     92  C   UNL A   1      46.261  27.083  35.692  1.00  0.00     0.200 A 
ATOM     93  F   UNL A   1      44.771  25.527  36.658  1.00  0.00    -0.200 F 
ATOM     94  F   UNL A   1      47.305  26.442  36.236  1.00  0.00    -0.200 F 
ENDBRANCH  61  84
ENDBRANCH  35  36
ENDBRANCH  27  30
ENDBRANCH  25  26
ENDBRANCH   1  25
TORSDOF 13
ENDMDL
MODEL 2
REMARK VINA RESULT:     -13.1      0.169      1.199
REMARK SMILES CCCc1cc2c(cc1Cl)C=C(C(=O)NCCCNC(=O)c1ccc(-c3c4nc(c(-c5c(F)c(F)c(F)c(F)c5F)c5ccc([nH]5)c(-c5c(F)c(F)c(F)c(F)c5F)c5nc(c(-c6c(F)c(F)c(F)c(F)c6F)c6ccc3[nH]6)C=C5)C=C4)cc1)[C@@H](C(F)(F)F)O2
REMARK SMILES IDX 17 1 16 2 15 3 13 4 14 5 12 7 4 8 5 9 9 10 6 11 8 12 10 13
REMARK SMILES IDX 7 14 90 15 11 16 85 17 3 18 2 19 1 20 86 21 87 22 88 23
REMARK SMILES IDX 89 24 18 25 19 26 20 27 21 29 22 30 23 31 84 32 24 33 83 34
REMARK SMILES IDX 25 35 26 36 27 37 77 38 28 39 82 40 76 41 78 42 29 43 81 44
REMARK SMILES IDX 75 45 74 46 30 48 62 49 42 50 61 51 43 52 46 53 60 54 79 55
REMARK SMILES IDX 44 56 45 57 59 59 80 60 47 61 31 62 32 63 40 64 33 65 34 66
REMARK SMILES IDX 38 67 41 68 35 69 36 70 39 71 37 72 63 73 64 74 72 75 65 76
REMARK SMILES IDX 66 77 70 78 73 79 67 80 68 81 71 82 69 83 48 84 49 85 57 86
REMARK SMILES IDX 50 87 51 88 55 89 58 90 52 91 53 92 56 93 54 94
REMARK H PARENT 15 6 19 28 78 47 46 58
REMARK Flexibility Score: inf
ROOT
ATOM      1  C   UNL A   1      31.431  32.086  26.677  1.00  0.00     0.042 C 
ENDROOT
BRANCH   1   2
ATOM      2  C   UNL A   1      31.635  30.604  26.404  1.00  0.00     0.118 C 
BRANCH   2   3
ATOM      3  N   UNL A   1      31.403  30.266  25.008  1.00  0.00    -0.352 N 
ATOM      4  C   UNL A   1      31.392  29.147  24.246  1.00  0.00     0.251 C 
ATOM      5  O   UNL A   1      31.142  29.329  23.049  1.00  0.00    -0.270 OA
ATOM      6  H   UNL A   1      31.202  31.067  24.473  1.00  0.00     0.163 HD
BRANCH   4   7
ATOM      7  C   UNL A   1      31.657  27.766  24.744  1.00  0.00     0.067 C 
ATOM      8  C   UNL A   1      33.830  23.486  26.323  1.00  0.00    -0.026 A 
ATOM      9  C   UNL A   1      32.527  24.001  26.317  1.00  0.00     0.052 A 
ATOM     10  C   UNL A   1      34.856  24.288  25.796  1.00  0.00     0.045 A 
ATOM     11  C   UNL A   1      32.264  25.280  25.845  1.00  0.00     0.128 A 
ATOM     12  C   UNL A   1      34.581  25.567  25.285  1.00  0.00     0.032 A 
ATOM     13  Cl  UNL A   1      36.502  23.759  25.757  1.00  0.00    -0.084 Cl
ATOM     14  C   UNL A   1      33.279  26.070  25.314  1.00  0.00     0.019 A 
ATOM     15  O   UNL A   1      30.983  25.719  25.995  1.00  0.00    -0.475 OA
ATOM     16  C   UNL A   1      32.953  27.412  24.842  1.00  0.00     0.025 C 
ATOM     17  C   UNL A   1      30.575  26.788  25.106  1.00  0.00     0.314 C 
BRANCH   8  18
ATOM     18  C   UNL A   1      34.041  22.111  26.915  1.00  0.00     0.037 C 
BRANCH  18  19
ATOM     19  C   UNL A   1      33.594  20.961  26.001  1.00  0.00     0.001 C 
ATOM     20  C   UNL A   1      34.649  20.501  25.001  1.00  0.00     0.004 C 
ENDBRANCH  18  19
ENDBRANCH   8  18
BRANCH  17  21
ATOM     21  C   UNL A   1      29.880  26.167  23.881  1.00  0.00     0.429 C 
ATOM     22  F   UNL A   1      28.680  26.768  23.671  1.00  0.00    -0.167 F 
ATOM     23  F   UNL A   1      30.592  26.324  22.740  1.00  0.00    -0.167 F 
ATOM     24  F   UNL A   1      29.652  24.844  24.023  1.00  0.00    -0.167 F 
ENDBRANCH  17  21
ENDBRANCH   4   7
ENDBRANCH   2   3
ENDBRANCH   1   2
BRANCH   1  25
ATOM     25  C   UNL A   1      32.677  32.747  27.247  1.00  0.00     0.118 C 
BRANCH  25  26
ATOM     26  N   UNL A   1      32.440  34.139  27.628  1.00  0.00    -0.352 N 
ATOM     27  C   UNL A   1      33.013  34.906  28.612  1.00  0.00     0.251 C 
ATOM     28  H   UNL A   1      31.758  34.602  27.089  1.00  0.00     0.163 HD
ATOM     29  O   UNL A   1      32.525  35.994  28.902  1.00  0.00    -0.269 OA
BRANCH  27  30
ATOM     30  C   UNL A   1      34.201  34.414  29.338  1.00  0.00     0.039 A 
ATOM     31  C   UNL A   1      35.477  34.592  28.804  1.00  0.00     0.014 A 
ATOM     32  C   UNL A   1      34.040  33.766  30.566  1.00  0.00     0.014 A 
ATOM     33  C   UNL A   1      36.560  33.953  29.389  1.00  0.00     0.010 A 
ATOM     34  C   UNL A   1      35.152  33.217  31.212  1.00  0.00     0.010 A 
ATOM     35  C   UNL A   1      36.414  33.260  30.601  1.00  0.00    -0.014 A 
BRANCH  35  36
ATOM     36  C   UNL A   1      37.601  32.586  31.188  1.00  0.00     0.031 A 
ATOM     37  C   UNL A   1      38.068  32.927  32.577  1.00  0.00     0.074 A 
ATOM     38  C   UNL A   1      38.188  31.586  30.500  1.00  0.00     0.049 A 
ATOM     39  N   UNL A   1      39.056  32.407  33.264  1.00  0.00    -0.248 NA
ATOM     40  C   UNL A   1      37.339  33.986  33.294  1.00  0.00     0.031 C 
ATOM     41  C   UNL A   1      37.801  31.150  29.156  1.00  0.00     0.029 A 
ATOM     42  N   UNL A   1      39.195  30.723  30.849  1.00  0.00    -0.354 N 
ATOM     43  C   UNL A   1      39.073  33.082  34.478  1.00  0.00     0.074 A 
ATOM     44  C   UNL A   1      38.019  34.070  34.430  1.00  0.00     0.031 C 
ATOM     45  C   UNL A   1      38.494  30.049  28.833  1.00  0.00     0.029 A 
ATOM     46  C   UNL A   1      39.432  29.749  29.908  1.00  0.00     0.049 A 
ATOM     47  H   UNL A   1      39.699  30.794  31.692  1.00  0.00     0.167 HD
ATOM     48  C   UNL A   1      39.885  32.881  35.543  1.00  0.00     0.037 A 
ATOM     49  C   UNL A   1      40.313  28.731  29.910  1.00  0.00     0.037 A 
ATOM     50  C   UNL A   1      40.913  31.874  35.599  1.00  0.00     0.049 A 
ATOM     51  C   UNL A   1      41.237  28.574  31.083  1.00  0.00     0.074 A 
ATOM     52  C   UNL A   1      41.800  31.606  36.628  1.00  0.00     0.029 A 
ATOM     53  N   UNL A   1      41.179  30.962  34.591  1.00  0.00    -0.354 N 
ATOM     54  N   UNL A   1      41.263  29.242  32.210  1.00  0.00    -0.248 NA
ATOM     55  C   UNL A   1      42.269  27.534  30.975  1.00  0.00     0.031 C 
ATOM     56  C   UNL A   1      42.621  30.547  36.231  1.00  0.00     0.029 A 
ATOM     57  C   UNL A   1      42.223  30.134  34.970  1.00  0.00     0.049 A 
ATOM     58  H   UNL A   1      40.698  30.910  33.733  1.00  0.00     0.167 HD
ATOM     59  C   UNL A   1      42.305  28.700  32.947  1.00  0.00     0.074 A 
ATOM     60  C   UNL A   1      42.871  27.630  32.153  1.00  0.00     0.031 C 
ATOM     61  C   UNL A   1      42.761  29.066  34.169  1.00  0.00     0.037 A 
BRANCH  48  62
ATOM     62  C   UNL A   1      39.700  33.753  36.749  1.00  0.00     0.064 A 
ATOM     63  C   UNL A   1      40.278  35.028  36.821  1.00  0.00     0.173 A 
ATOM     64  C   UNL A   1      38.859  33.351  37.796  1.00  0.00     0.173 A 
ATOM     65  F   UNL A   1      41.101  35.452  35.849  1.00  0.00    -0.203 F 
ATOM     66  C   UNL A   1      40.021  35.869  37.900  1.00  0.00     0.198 A 
ATOM     67  C   UNL A   1      38.586  34.204  38.864  1.00  0.00     0.198 A 
ATOM     68  F   UNL A   1      38.277  32.142  37.772  1.00  0.00    -0.203 F 
ATOM     69  F   UNL A   1      40.598  37.078  37.957  1.00  0.00    -0.200 F 
ATOM     70  C   UNL A   1      39.167  35.462  38.914  1.00  0.00     0.200 A 
ATOM     71  F   UNL A   1      37.751  33.813  39.836  1.00  0.00    -0.200 F 
ATOM     72  F   UNL A   1      38.903  36.283  39.941  1.00  0.00    -0.200 F 
ENDBRANCH  48  62
BRANCH  49  73
ATOM     73  C   UNL A   1      40.365  27.787  28.764  1.00  0.00     0.064 A 
ATOM     74  C   UNL A   1      41.131  28.080  27.627  1.00  0.00     0.173 A 
ATOM     75  C   UNL A   1      39.652  26.580  28.776  1.00  0.00     0.173 A 
ATOM     76  F   UNL A   1      41.813  29.233  27.558  1.00  0.00    -0.203 F 
ATOM     77  C   UNL A   1      41.172  27.207  26.541  1.00  0.00     0.198 A 
ATOM     78  C   UNL A   1      39.718  25.693  27.704  1.00  0.00     0.198 A 
ATOM     79  F   UNL A   1      38.904  26.252  29.839  1.00  0.00    -0.203 F 
ATOM     80  F   UNL A   1      41.879  27.530  25.450  1.00  0.00    -0.200 F 
ATOM     81  C   UNL A   1      40.472  26.010  26.584  1.00  0.00     0.200 A 
ATOM     82  F   UNL A   1      39.051  24.532  27.756  1.00  0.00    -0.200 F 
ATOM     83  F   UNL A   1      40.516  25.168  25.543  1.00  0.00    -0.200 F 
ENDBRANCH  49  73
BRANCH  61  84
ATOM     84  C   UNL A   1      43.915  28.295  34.731  1.00  0.00     0.064 A 
ATOM     85  C   UNL A   1      45.235  28.738  34.561  1.00  0.00     0.173 A 
ATOM     86  C   UNL A   1      43.696  27.145  35.501  1.00  0.00     0.173 A 
ATOM     87  F   UNL A   1      45.492  29.826  33.820  1.00  0.00    -0.203 F 
ATOM     88  C   UNL A   1      46.297  28.045  35.133  1.00  0.00     0.198 A 
ATOM     89  C   UNL A   1      44.760  26.469  36.092  1.00  0.00     0.198 A 
ATOM     90  F   UNL A   1      42.451  26.688  35.697  1.00  0.00    -0.203 F 
ATOM     91  F   UNL A   1      47.554  28.467  34.932  1.00  0.00    -0.200 F 
ATOM     92  C   UNL A   1      46.059  26.918  35.904  1.00  0.00     0.200 A 
ATOM     93  F   UNL A   1      44.528  25.387  36.847  1.00  0.00    -0.200 F 
ATOM     94  F   UNL A   1      47.083  26.260  36.466  1.00  0.00    -0.200 F 
ENDBRANCH  61  84
ENDBRANCH  35  36
ENDBRANCH  27  30
ENDBRANCH  25  26
ENDBRANCH   1  25
TORSDOF 13
ENDMDL
MODEL 3
REMARK VINA RESULT:     -13.0      1.916      3.104
REMARK SMILES CCCc1cc2c(cc1Cl)C=C(C(=O)NCCCNC(=O)c1ccc(-c3c4nc(c(-c5c(F)c(F)c(F)c(F)c5F)c5ccc([nH]5)c(-c5c(F)c(F)c(F)c(F)c5F)c5nc(c(-c6c(F)c(F)c(F)c(F)c6F)c6ccc3[nH]6)C=C5)C=C4)cc1)[C@@H](C(F)(F)F)O2
REMARK SMILES IDX 17 1 16 2 15 3 13 4 14 5 12 7 4 8 5 9 9 10 6 11 8 12 10 13
REMARK SMILES IDX 7 14 90 15 11 16 85 17 3 18 2 19 1 20 86 21 87 22 88 23
REMARK SMILES IDX 89 24 18 25 19 26 20 27 21 29 22 30 23 31 84 32 24 33 83 34
REMARK SMILES IDX 25 35 26 36 27 37 77 38 28 39 82 40 76 41 78 42 29 43 81 44
REMARK SMILES IDX 75 45 74 46 30 48 62 49 42 50 61 51 43 52 46 53 60 54 79 55
REMARK SMILES IDX 44 56 45 57 59 59 80 60 47 61 31 62 32 63 40 64 33 65 34 66
REMARK SMILES IDX 38 67 41 68 35 69 36 70 39 71 37 72 63 73 64 74 72 75 65 76
REMARK SMILES IDX 66 77 70 78 73 79 67 80 68 81 71 82 69 83 48 84 49 85 57 86
REMARK SMILES IDX 50 87 51 88 55 89 58 90 52 91 53 92 56 93 54 94
REMARK H PARENT 15 6 19 28 78 47 46 58
REMARK Flexibility Score: inf
ROOT
ATOM      1  C   UNL A   1      33.053  29.221  24.581  1.00  0.00     0.042 C 
ENDROOT
BRANCH   1   2
ATOM      2  C   UNL A   1      31.911  29.004  23.602  1.00  0.00     0.118 C 
BRANCH   2   3
ATOM      3  N   UNL A   1      30.929  28.055  24.106  1.00  0.00    -0.352 N 
ATOM      4  C   UNL A   1      30.859  26.720  24.323  1.00  0.00     0.251 C 
ATOM      5  O   UNL A   1      29.783  26.318  24.777  1.00  0.00    -0.270 OA
ATOM      6  H   UNL A   1      30.089  28.504  24.354  1.00  0.00     0.163 HD
BRANCH   4   7
ATOM      7  C   UNL A   1      31.957  25.747  24.053  1.00  0.00     0.067 C 
ATOM      8  C   UNL A   1      36.117  22.891  24.324  1.00  0.00    -0.026 A 
ATOM      9  C   UNL A   1      34.977  22.921  23.509  1.00  0.00     0.052 A 
ATOM     10  C   UNL A   1      36.210  23.837  25.358  1.00  0.00     0.045 A 
ATOM     11  C   UNL A   1      33.954  23.830  23.742  1.00  0.00     0.128 A 
ATOM     12  C   UNL A   1      35.189  24.779  25.567  1.00  0.00     0.032 A 
ATOM     13  Cl  UNL A   1      37.566  23.891  26.429  1.00  0.00    -0.084 Cl
ATOM     14  C   UNL A   1      34.051  24.773  24.759  1.00  0.00     0.019 A 
ATOM     15  O   UNL A   1      32.846  23.691  22.961  1.00  0.00    -0.475 OA
ATOM     16  C   UNL A   1      32.942  25.698  24.970  1.00  0.00     0.025 C 
ATOM     17  C   UNL A   1      32.013  24.870  22.834  1.00  0.00     0.314 C 
BRANCH   8  18
ATOM     18  C   UNL A   1      37.155  21.829  24.045  1.00  0.00     0.037 C 
BRANCH  18  19
ATOM     19  C   UNL A   1      37.000  20.563  24.900  1.00  0.00     0.001 C 
ATOM     20  C   UNL A   1      38.216  19.642  24.892  1.00  0.00     0.004 C 
ENDBRANCH  18  19
ENDBRANCH   8  18
BRANCH  17  21
ATOM     21  C   UNL A   1      32.425  25.625  21.558  1.00  0.00     0.429 C 
ATOM     22  F   UNL A   1      32.889  24.751  20.628  1.00  0.00    -0.167 F 
ATOM     23  F   UNL A   1      31.392  26.284  20.982  1.00  0.00    -0.167 F 
ATOM     24  F   UNL A   1      33.397  26.536  21.780  1.00  0.00    -0.167 F 
ENDBRANCH  17  21
ENDBRANCH   4   7
ENDBRANCH   2   3
ENDBRANCH   1   2
BRANCH   1  25
ATOM     25  C   UNL A   1      32.563  29.408  26.010  1.00  0.00     0.118 C 
BRANCH  25  26
ATOM     26  N   UNL A   1      32.307  30.813  26.327  1.00  0.00    -0.352 N 
ATOM     27  C   UNL A   1      33.000  31.688  27.127  1.00  0.00     0.251 C 
ATOM     28  H   UNL A   1      31.508  31.193  25.896  1.00  0.00     0.163 HD
ATOM     29  O   UNL A   1      32.502  32.769  27.425  1.00  0.00    -0.269 OA
BRANCH  27  30
ATOM     30  C   UNL A   1      34.332  31.321  27.649  1.00  0.00     0.039 A 
ATOM     31  C   UNL A   1      34.607  30.005  28.015  1.00  0.00     0.014 A 
ATOM     32  C   UNL A   1      35.317  32.305  27.776  1.00  0.00     0.014 A 
ATOM     33  C   UNL A   1      35.784  29.713  28.690  1.00  0.00     0.010 A 
ATOM     34  C   UNL A   1      36.548  31.983  28.355  1.00  0.00     0.010 A 
ATOM     35  C   UNL A   1      36.771  30.695  28.866  1.00  0.00    -0.014 A 
BRANCH  35  36
ATOM     36  C   UNL A   1      38.013  30.339  29.599  1.00  0.00     0.031 A 
ATOM     37  C   UNL A   1      38.236  30.814  31.009  1.00  0.00     0.074 A 
ATOM     38  C   UNL A   1      38.890  29.492  29.021  1.00  0.00     0.049 A 
ATOM     39  N   UNL A   1      39.239  30.562  31.814  1.00  0.00    -0.248 NA
ATOM     40  C   UNL A   1      37.205  31.685  31.598  1.00  0.00     0.031 C 
ATOM     41  C   UNL A   1      38.762  28.944  27.668  1.00  0.00     0.029 A 
ATOM     42  N   UNL A   1      40.028  28.903  29.509  1.00  0.00    -0.354 N 
ATOM     43  C   UNL A   1      38.967  31.250  32.990  1.00  0.00     0.074 A 
ATOM     44  C   UNL A   1      37.721  31.956  32.790  1.00  0.00     0.031 C 
ATOM     45  C   UNL A   1      39.726  28.034  27.469  1.00  0.00     0.029 A 
ATOM     46  C   UNL A   1      40.587  27.992  28.644  1.00  0.00     0.049 A 
ATOM     47  H   UNL A   1      40.408  29.113  30.393  1.00  0.00     0.167 HD
ATOM     48  C   UNL A   1      39.684  31.273  34.138  1.00  0.00     0.037 A 
ATOM     49  C   UNL A   1      41.677  27.215  28.781  1.00  0.00     0.037 A 
ATOM     50  C   UNL A   1      40.908  30.544  34.344  1.00  0.00     0.049 A 
ATOM     51  C   UNL A   1      42.482  27.311  30.046  1.00  0.00     0.074 A 
ATOM     52  C   UNL A   1      41.718  30.519  35.466  1.00  0.00     0.029 A 
ATOM     53  N   UNL A   1      41.488  29.698  33.411  1.00  0.00    -0.354 N 
ATOM     54  N   UNL A   1      42.229  27.992  31.136  1.00  0.00    -0.248 NA
ATOM     55  C   UNL A   1      43.735  26.546  30.090  1.00  0.00     0.031 C 
ATOM     56  C   UNL A   1      42.803  29.679  35.204  1.00  0.00     0.029 A 
ATOM     57  C   UNL A   1      42.650  29.152  33.931  1.00  0.00     0.049 A 
ATOM     58  H   UNL A   1      41.128  29.512  32.515  1.00  0.00     0.167 HD
ATOM     59  C   UNL A   1      43.284  27.733  31.998  1.00  0.00     0.074 A 
ATOM     60  C   UNL A   1      44.167  26.811  31.316  1.00  0.00     0.031 C 
ATOM     61  C   UNL A   1      43.507  28.226  33.239  1.00  0.00     0.037 A 
BRANCH  48  62
ATOM     62  C   UNL A   1      39.171  32.104  35.276  1.00  0.00     0.064 A 
ATOM     63  C   UNL A   1      38.433  31.531  36.321  1.00  0.00     0.173 A 
ATOM     64  C   UNL A   1      39.503  33.463  35.372  1.00  0.00     0.173 A 
ATOM     65  F   UNL A   1      38.080  30.238  36.268  1.00  0.00    -0.203 F 
ATOM     66  C   UNL A   1      38.045  32.291  37.422  1.00  0.00     0.198 A 
ATOM     67  C   UNL A   1      39.132  34.215  36.485  1.00  0.00     0.198 A 
ATOM     68  F   UNL A   1      40.213  34.057  34.400  1.00  0.00    -0.203 F 
ATOM     69  F   UNL A   1      37.326  31.727  38.402  1.00  0.00    -0.200 F 
ATOM     70  C   UNL A   1      38.404  33.627  37.509  1.00  0.00     0.200 A 
ATOM     71  F   UNL A   1      39.491  35.503  36.572  1.00  0.00    -0.200 F 
ATOM     72  F   UNL A   1      38.049  34.350  38.580  1.00  0.00    -0.200 F 
ENDBRANCH  48  62
BRANCH  49  73
ATOM     73  C   UNL A   1      42.072  26.284  27.693  1.00  0.00     0.064 A 
ATOM     74  C   UNL A   1      41.438  25.043  27.544  1.00  0.00     0.173 A 
ATOM     75  C   UNL A   1      43.090  26.609  26.784  1.00  0.00     0.173 A 
ATOM     76  F   UNL A   1      40.474  24.677  28.402  1.00  0.00    -0.203 F 
ATOM     77  C   UNL A   1      41.815  24.158  26.536  1.00  0.00     0.198 A 
ATOM     78  C   UNL A   1      43.445  25.737  25.758  1.00  0.00     0.198 A 
ATOM     79  F   UNL A   1      43.728  27.784  26.883  1.00  0.00    -0.203 F 
ATOM     80  F   UNL A   1      41.220  22.961  26.441  1.00  0.00    -0.200 F 
ATOM     81  C   UNL A   1      42.812  24.510  25.638  1.00  0.00     0.200 A 
ATOM     82  F   UNL A   1      44.399  26.087  24.884  1.00  0.00    -0.200 F 
ATOM     83  F   UNL A   1      43.170  23.661  24.665  1.00  0.00    -0.200 F 
ENDBRANCH  49  73
BRANCH  61  84
ATOM     84  C   UNL A   1      44.744  27.767  33.949  1.00  0.00     0.064 A 
ATOM     85  C   UNL A   1      44.745  26.597  34.722  1.00  0.00     0.173 A 
ATOM     86  C   UNL A   1      45.951  28.465  33.800  1.00  0.00     0.173 A 
ATOM     87  F   UNL A   1      43.610  25.907  34.903  1.00  0.00    -0.203 F 
ATOM     88  C   UNL A   1      45.912  26.150  35.333  1.00  0.00     0.198 A 
ATOM     89  C   UNL A   1      47.121  28.000  34.392  1.00  0.00     0.198 A 
ATOM     90  F   UNL A   1      45.999  29.584  33.063  1.00  0.00    -0.203 F 
ATOM     91  F   UNL A   1      45.886  25.046  36.094  1.00  0.00    -0.200 F 
ATOM     92  C   UNL A   1      47.100  26.845  35.161  1.00  0.00     0.200 A 
ATOM     93  F   UNL A   1      48.270  28.665  34.215  1.00  0.00    -0.200 F 
ATOM     94  F   UNL A   1      48.226  26.404  35.739  1.00  0.00    -0.200 F 
ENDBRANCH  61  84
ENDBRANCH  35  36
ENDBRANCH  27  30
ENDBRANCH  25  26
ENDBRANCH   1  25
TORSDOF 13
ENDMDL
