MODEL 1
REMARK VINA RESULT:     -12.9      0.000      0.000
REMARK SMILES O=C(NCCCNC(=O)c1cn(C2CC2)c2cc(N3CC[NH2+]CC3)ccc2c1=O)c1ccc(-c2c3nc(c(-c4c(F)c(F)c(F)c(F)c4F)c4ccc([nH]4)c(-c4c(F)c(F)c(F)c(F)c4F)c4nc(c(-c5c(F)c(F)c(F)c(F)c5F)c5ccc2[nH]5)C=C4)C=C3)cc1
REMARK SMILES IDX 4 1 3 2 1 3 2 4 30 6 31 7 92 8 32 9 91 10 33 11 34 12 35 13
REMARK SMILES IDX 85 14 36 15 90 16 84 17 86 18 37 19 89 20 83 21 82 22 38 24
REMARK SMILES IDX 70 25 50 26 69 27 51 28 54 29 68 30 87 31 52 32 53 33 67 35
REMARK SMILES IDX 88 36 55 37 39 38 40 39 48 40 41 41 42 42 46 43 49 44 43 45
REMARK SMILES IDX 44 46 47 47 45 48 71 49 72 50 80 51 73 52 74 53 78 54 81 55
REMARK SMILES IDX 75 56 76 57 79 58 77 59 56 60 57 61 65 62 58 63 59 64 63 65
REMARK SMILES IDX 66 66 60 67 61 68 64 69 62 70 5 71 6 72 7 73 8 74 9 76 10 77
REMARK SMILES IDX 11 78 28 79 12 80 27 81 29 82 16 83 26 84 17 85 25 86 18 87
REMARK SMILES IDX 13 88 14 89 15 90 19 91 20 92 24 93 21 94 23 95 22 96
REMARK H PARENT 3 5 86 23 54 34 7 75 22 97 22 98
REMARK Flexibility Score: inf
ROOT
ATOM      1  C   UNL A   1      33.469  28.299  27.257  1.00  0.00     0.118 C 
ENDROOT
BRANCH   1   2
ATOM      2  N   UNL A   1      33.493  29.738  27.483  1.00  0.00    -0.352 N 
ATOM      3  O   UNL A   1      34.177  31.723  28.265  1.00  0.00    -0.269 OA
ATOM      4  C   UNL A   1      34.460  30.551  28.007  1.00  0.00     0.251 C 
ATOM      5  H   UNL A   1      32.670  30.206  27.210  1.00  0.00     0.163 HD
BRANCH   4   6
ATOM      6  C   UNL A   1      35.831  30.062  28.274  1.00  0.00     0.039 A 
ATOM      7  C   UNL A   1      36.111  29.518  29.533  1.00  0.00     0.014 A 
ATOM      8  C   UNL A   1      36.861  30.207  27.341  1.00  0.00     0.014 A 
ATOM      9  C   UNL A   1      37.408  29.099  29.844  1.00  0.00     0.010 A 
ATOM     10  C   UNL A   1      38.134  29.714  27.620  1.00  0.00     0.010 A 
ATOM     11  C   UNL A   1      38.427  29.185  28.885  1.00  0.00    -0.014 A 
BRANCH  11  12
ATOM     12  C   UNL A   1      39.826  28.813  29.210  1.00  0.00     0.031 A 
ATOM     13  C   UNL A   1      40.657  29.735  30.060  1.00  0.00     0.074 A 
ATOM     14  C   UNL A   1      40.361  27.678  28.722  1.00  0.00     0.049 A 
ATOM     15  N   UNL A   1      41.925  29.655  30.376  1.00  0.00    -0.248 NA
ATOM     16  C   UNL A   1      39.977  30.920  30.610  1.00  0.00     0.031 C 
ATOM     17  C   UNL A   1      39.665  26.709  27.878  1.00  0.00     0.029 A 
ATOM     18  N   UNL A   1      41.620  27.153  28.868  1.00  0.00    -0.354 N 
ATOM     19  C   UNL A   1      42.197  30.788  31.131  1.00  0.00     0.074 A 
ATOM     20  C   UNL A   1      40.977  31.562  31.194  1.00  0.00     0.031 C 
ATOM     21  C   UNL A   1      40.496  25.690  27.603  1.00  0.00     0.029 A 
ATOM     22  C   UNL A   1      41.793  25.953  28.222  1.00  0.00     0.049 A 
ATOM     23  H   UNL A   1      42.331  27.592  29.388  1.00  0.00     0.167 HD
ATOM     24  C   UNL A   1      43.353  31.141  31.741  1.00  0.00     0.037 A 
ATOM     25  C   UNL A   1      42.878  25.161  28.137  1.00  0.00     0.037 A 
ATOM     26  C   UNL A   1      44.551  30.348  31.724  1.00  0.00     0.049 A 
ATOM     27  C   UNL A   1      44.152  25.574  28.823  1.00  0.00     0.074 A 
ATOM     28  C   UNL A   1      45.760  30.597  32.349  1.00  0.00     0.029 A 
ATOM     29  N   UNL A   1      44.686  29.140  31.057  1.00  0.00    -0.354 N 
ATOM     30  N   UNL A   1      44.393  26.641  29.544  1.00  0.00    -0.248 NA
ATOM     31  C   UNL A   1      45.304  24.672  28.679  1.00  0.00     0.031 C 
ATOM     32  C   UNL A   1      46.635  29.550  32.042  1.00  0.00     0.029 A 
ATOM     33  C   UNL A   1      45.960  28.635  31.251  1.00  0.00     0.049 A 
ATOM     34  H   UNL A   1      43.980  28.706  30.526  1.00  0.00     0.167 HD
ATOM     35  C   UNL A   1      45.715  26.534  29.952  1.00  0.00     0.074 A 
ATOM     36  C   UNL A   1      46.222  25.291  29.410  1.00  0.00     0.031 C 
ATOM     37  C   UNL A   1      46.444  27.392  30.707  1.00  0.00     0.037 A 
BRANCH  24  38
ATOM     38  C   UNL A   1      43.373  32.438  32.492  1.00  0.00     0.064 A 
ATOM     39  C   UNL A   1      43.709  33.644  31.860  1.00  0.00     0.173 A 
ATOM     40  C   UNL A   1      43.017  32.481  33.848  1.00  0.00     0.173 A 
ATOM     41  F   UNL A   1      44.070  33.651  30.569  1.00  0.00    -0.203 F 
ATOM     42  C   UNL A   1      43.708  34.844  32.565  1.00  0.00     0.198 A 
ATOM     43  C   UNL A   1      42.993  33.687  34.543  1.00  0.00     0.198 A 
ATOM     44  F   UNL A   1      42.686  31.355  34.497  1.00  0.00    -0.203 F 
ATOM     45  F   UNL A   1      44.070  35.980  31.952  1.00  0.00    -0.200 F 
ATOM     46  C   UNL A   1      43.343  34.867  33.903  1.00  0.00     0.200 A 
ATOM     47  F   UNL A   1      42.631  33.709  35.833  1.00  0.00    -0.200 F 
ATOM     48  F   UNL A   1      43.335  36.024  34.577  1.00  0.00    -0.200 F 
ENDBRANCH  24  38
BRANCH  25  49
ATOM     49  C   UNL A   1      42.794  23.876  27.400  1.00  0.00     0.064 A 
ATOM     50  C   UNL A   1      43.176  23.800  26.053  1.00  0.00     0.173 A 
ATOM     51  C   UNL A   1      42.350  22.700  28.022  1.00  0.00     0.173 A 
ATOM     52  F   UNL A   1      43.586  24.904  25.412  1.00  0.00    -0.203 F 
ATOM     53  C   UNL A   1      43.111  22.597  25.355  1.00  0.00     0.198 A 
ATOM     54  C   UNL A   1      42.306  21.493  27.328  1.00  0.00     0.198 A 
ATOM     55  F   UNL A   1      41.975  22.723  29.310  1.00  0.00    -0.203 F 
ATOM     56  F   UNL A   1      43.456  22.557  24.060  1.00  0.00    -0.200 F 
ATOM     57  C   UNL A   1      42.683  21.443  25.994  1.00  0.00     0.200 A 
ATOM     58  F   UNL A   1      41.901  20.379  27.951  1.00  0.00    -0.200 F 
ATOM     59  F   UNL A   1      42.629  20.284  25.324  1.00  0.00    -0.200 F 
ENDBRANCH  25  49
BRANCH  37  60
ATOM     60  C   UNL A   1      47.862  27.015  31.007  1.00  0.00     0.064 A 
ATOM     61  C   UNL A   1      48.175  26.137  32.054  1.00  0.00     0.173 A 
ATOM     62  C   UNL A   1      48.908  27.476  30.195  1.00  0.00     0.173 A 
ATOM     63  F   UNL A   1      47.208  25.681  32.865  1.00  0.00    -0.203 F 
ATOM     64  C   UNL A   1      49.489  25.739  32.281  1.00  0.00     0.198 A 
ATOM     65  C   UNL A   1      50.218  27.058  30.412  1.00  0.00     0.198 A 
ATOM     66  F   UNL A   1      48.656  28.313  29.177  1.00  0.00    -0.203 F 
ATOM     67  F   UNL A   1      49.771  24.917  33.302  1.00  0.00    -0.200 F 
ATOM     68  C   UNL A   1      50.507  26.192  31.455  1.00  0.00     0.200 A 
ATOM     69  F   UNL A   1      51.199  27.489  29.608  1.00  0.00    -0.200 F 
ATOM     70  F   UNL A   1      51.769  25.796  31.667  1.00  0.00    -0.200 F 
ENDBRANCH  37  60
ENDBRANCH  11  12
ENDBRANCH   4   6
ENDBRANCH   1   2
BRANCH   1  71
ATOM     71  C   UNL A   1      32.060  27.756  27.066  1.00  0.00     0.042 C 
BRANCH  71  72
ATOM     72  C   UNL A   1      31.911  26.780  25.907  1.00  0.00     0.118 C 
BRANCH  72  73
ATOM     73  N   UNL A   1      32.641  27.193  24.717  1.00  0.00    -0.352 N 
ATOM     74  C   UNL A   1      33.462  26.469  23.896  1.00  0.00     0.256 C 
ATOM     75  H   UNL A   1      32.527  28.138  24.463  1.00  0.00     0.163 HD
ATOM     76  O   UNL A   1      34.014  27.026  22.945  1.00  0.00    -0.269 OA
BRANCH  74  77
ATOM     77  C   UNL A   1      33.629  25.029  24.149  1.00  0.00     0.104 A 
ATOM     78  C   UNL A   1      34.531  24.634  25.060  1.00  0.00     0.104 A 
ATOM     79  C   UNL A   1      32.856  23.987  23.443  1.00  0.00     0.202 A 
ATOM     80  N   UNL A   1      34.886  23.330  25.337  1.00  0.00    -0.343 N 
ATOM     81  C   UNL A   1      33.070  22.581  23.869  1.00  0.00     0.047 A 
ATOM     82  O   UNL A   1      32.093  24.254  22.516  1.00  0.00    -0.288 OA
ATOM     83  C   UNL A   1      34.076  22.282  24.807  1.00  0.00     0.054 A 
ATOM     84  C   UNL A   1      32.292  21.568  23.300  1.00  0.00     0.016 A 
ATOM     85  C   UNL A   1      34.242  20.938  25.177  1.00  0.00     0.053 A 
ATOM     86  C   UNL A   1      32.517  20.237  23.655  1.00  0.00     0.027 A 
ATOM     87  C   UNL A   1      33.494  19.901  24.597  1.00  0.00     0.039 A 
BRANCH  80  88
ATOM     88  C   UNL A   1      36.195  23.039  25.977  1.00  0.00     0.087 C 
ATOM     89  C   UNL A   1      37.485  22.767  25.242  1.00  0.00     0.027 C 
ATOM     90  C   UNL A   1      37.307  24.052  25.999  1.00  0.00     0.027 C 
ENDBRANCH  80  88
BRANCH  87  91
ATOM     91  N   UNL A   1      33.747  18.595  24.962  1.00  0.00    -0.360 N 
ATOM     92  C   UNL A   1      32.774  17.892  25.808  1.00  0.00     0.178 C 
ATOM     93  C   UNL A   1      34.686  17.757  24.210  1.00  0.00     0.178 C 
ATOM     94  C   UNL A   1      32.099  16.751  25.011  1.00  0.00     0.282 C 
ATOM     95  C   UNL A   1      33.955  16.602  23.490  1.00  0.00     0.282 C 
ATOM     96  N   UNL A   1      33.061  15.823  24.375  1.00  0.00    -0.343 N 
ATOM     97  H   UNL A   1      32.557  15.127  23.827  1.00  0.00     0.346 HD
ATOM     98  H   UNL A   1      33.610  15.346  25.091  1.00  0.00     0.346 HD
ENDBRANCH  87  91
ENDBRANCH  74  77
ENDBRANCH  72  73
ENDBRANCH  71  72
ENDBRANCH   1  71
TORSDOF 12
ENDMDL
MODEL 2
REMARK VINA RESULT:     -12.8      3.339      9.238
REMARK SMILES O=C(NCCCNC(=O)c1cn(C2CC2)c2cc(N3CC[NH2+]CC3)ccc2c1=O)c1ccc(-c2c3nc(c(-c4c(F)c(F)c(F)c(F)c4F)c4ccc([nH]4)c(-c4c(F)c(F)c(F)c(F)c4F)c4nc(c(-c5c(F)c(F)c(F)c(F)c5F)c5ccc2[nH]5)C=C4)C=C3)cc1
REMARK SMILES IDX 4 1 3 2 1 3 2 4 30 6 31 7 92 8 32 9 91 10 33 11 34 12 35 13
REMARK SMILES IDX 85 14 36 15 90 16 84 17 86 18 37 19 89 20 83 21 82 22 38 24
REMARK SMILES IDX 70 25 50 26 69 27 51 28 54 29 68 30 87 31 52 32 53 33 67 35
REMARK SMILES IDX 88 36 55 37 39 38 40 39 48 40 41 41 42 42 46 43 49 44 43 45
REMARK SMILES IDX 44 46 47 47 45 48 71 49 72 50 80 51 73 52 74 53 78 54 81 55
REMARK SMILES IDX 75 56 76 57 79 58 77 59 56 60 57 61 65 62 58 63 59 64 63 65
REMARK SMILES IDX 66 66 60 67 61 68 64 69 62 70 5 71 6 72 7 73 8 74 9 76 10 77
REMARK SMILES IDX 11 78 28 79 12 80 27 81 29 82 16 83 26 84 17 85 25 86 18 87
REMARK SMILES IDX 13 88 14 89 15 90 19 91 20 92 24 93 21 94 23 95 22 96
REMARK H PARENT 3 5 86 23 54 34 7 75 22 97 22 98
REMARK Flexibility Score: inf
ROOT
ATOM      1  C   UNL A   1      36.916  23.662  24.961  1.00  0.00     0.118 C 
ENDROOT
BRANCH   1   2
ATOM      2  N   UNL A   1      37.921  22.708  25.411  1.00  0.00    -0.352 N 
ATOM      3  O   UNL A   1      39.855  21.942  26.241  1.00  0.00    -0.269 OA
ATOM      4  C   UNL A   1      39.067  22.883  26.138  1.00  0.00     0.251 C 
ATOM      5  H   UNL A   1      37.745  21.776  25.146  1.00  0.00     0.163 HD
BRANCH   4   6
ATOM      6  C   UNL A   1      39.383  24.169  26.798  1.00  0.00     0.039 A 
ATOM      7  C   UNL A   1      40.097  25.132  26.076  1.00  0.00     0.014 A 
ATOM      8  C   UNL A   1      39.065  24.409  28.138  1.00  0.00     0.014 A 
ATOM      9  C   UNL A   1      40.467  26.335  26.683  1.00  0.00     0.010 A 
ATOM     10  C   UNL A   1      39.361  25.640  28.719  1.00  0.00     0.010 A 
ATOM     11  C   UNL A   1      40.091  26.602  28.007  1.00  0.00    -0.014 A 
BRANCH  11  12
ATOM     12  C   UNL A   1      40.530  27.839  28.699  1.00  0.00     0.031 A 
ATOM     13  C   UNL A   1      41.970  27.988  29.108  1.00  0.00     0.074 A 
ATOM     14  C   UNL A   1      39.642  28.809  28.990  1.00  0.00     0.049 A 
ATOM     15  N   UNL A   1      42.540  28.934  29.810  1.00  0.00    -0.248 NA
ATOM     16  C   UNL A   1      42.888  26.915  28.691  1.00  0.00     0.031 C 
ATOM     17  C   UNL A   1      38.218  28.779  28.660  1.00  0.00     0.029 A 
ATOM     18  N   UNL A   1      39.811  30.008  29.635  1.00  0.00    -0.354 N 
ATOM     19  C   UNL A   1      43.869  28.555  29.942  1.00  0.00     0.074 A 
ATOM     20  C   UNL A   1      44.015  27.275  29.285  1.00  0.00     0.031 C 
ATOM     21  C   UNL A   1      37.647  29.921  29.078  1.00  0.00     0.029 A 
ATOM     22  C   UNL A   1      38.658  30.746  29.737  1.00  0.00     0.049 A 
ATOM     23  H   UNL A   1      40.678  30.312  29.990  1.00  0.00     0.167 HD
ATOM     24  C   UNL A   1      44.885  29.225  30.536  1.00  0.00     0.037 A 
ATOM     25  C   UNL A   1      38.442  31.948  30.303  1.00  0.00     0.037 A 
ATOM     26  C   UNL A   1      44.753  30.521  31.143  1.00  0.00     0.049 A 
ATOM     27  C   UNL A   1      39.586  32.674  30.956  1.00  0.00     0.074 A 
ATOM     28  C   UNL A   1      45.732  31.303  31.729  1.00  0.00     0.029 A 
ATOM     29  N   UNL A   1      43.566  31.234  31.226  1.00  0.00    -0.354 N 
ATOM     30  N   UNL A   1      40.840  32.311  31.064  1.00  0.00    -0.248 NA
ATOM     31  C   UNL A   1      39.282  33.975  31.569  1.00  0.00     0.031 C 
ATOM     32  C   UNL A   1      45.134  32.481  32.188  1.00  0.00     0.029 A 
ATOM     33  C   UNL A   1      43.789  32.445  31.860  1.00  0.00     0.049 A 
ATOM     34  H   UNL A   1      42.697  30.926  30.883  1.00  0.00     0.167 HD
ATOM     35  C   UNL A   1      41.478  33.341  31.741  1.00  0.00     0.074 A 
ATOM     36  C   UNL A   1      40.475  34.352  32.008  1.00  0.00     0.031 C 
ATOM     37  C   UNL A   1      42.778  33.439  32.111  1.00  0.00     0.037 A 
BRANCH  24  38
ATOM     38  C   UNL A   1      46.234  28.574  30.544  1.00  0.00     0.064 A 
ATOM     39  C   UNL A   1      46.630  27.723  31.587  1.00  0.00     0.173 A 
ATOM     40  C   UNL A   1      47.127  28.771  29.480  1.00  0.00     0.173 A 
ATOM     41  F   UNL A   1      45.816  27.515  32.632  1.00  0.00    -0.203 F 
ATOM     42  C   UNL A   1      47.879  27.111  31.575  1.00  0.00     0.198 A 
ATOM     43  C   UNL A   1      48.367  28.136  29.460  1.00  0.00     0.198 A 
ATOM     44  F   UNL A   1      46.795  29.573  28.458  1.00  0.00    -0.203 F 
ATOM     45  F   UNL A   1      48.253  26.334  32.601  1.00  0.00    -0.200 F 
ATOM     46  C   UNL A   1      48.744  27.312  30.510  1.00  0.00     0.200 A 
ATOM     47  F   UNL A   1      49.197  28.324  28.425  1.00  0.00    -0.200 F 
ATOM     48  F   UNL A   1      49.943  26.715  30.496  1.00  0.00    -0.200 F 
ENDBRANCH  24  38
BRANCH  25  49
ATOM     49  C   UNL A   1      37.090  32.556  30.244  1.00  0.00     0.064 A 
ATOM     50  C   UNL A   1      36.174  32.361  31.287  1.00  0.00     0.173 A 
ATOM     51  C   UNL A   1      36.691  33.354  29.161  1.00  0.00     0.173 A 
ATOM     52  F   UNL A   1      36.505  31.589  32.331  1.00  0.00    -0.203 F 
ATOM     53  C   UNL A   1      34.907  32.937  31.247  1.00  0.00     0.198 A 
ATOM     54  C   UNL A   1      35.430  33.945  29.133  1.00  0.00     0.198 A 
ATOM     55  F   UNL A   1      37.533  33.570  28.140  1.00  0.00    -0.203 F 
ATOM     56  F   UNL A   1      34.040  32.713  32.244  1.00  0.00    -0.200 F 
ATOM     57  C   UNL A   1      34.538  33.734  30.173  1.00  0.00     0.200 A 
ATOM     58  F   UNL A   1      35.081  34.723  28.099  1.00  0.00    -0.200 F 
ATOM     59  F   UNL A   1      33.321  34.294  30.139  1.00  0.00    -0.200 F 
ENDBRANCH  25  49
BRANCH  37  60
ATOM     60  C   UNL A   1      43.201  34.683  32.829  1.00  0.00     0.064 A 
ATOM     61  C   UNL A   1      43.591  35.832  32.127  1.00  0.00     0.173 A 
ATOM     62  C   UNL A   1      43.142  34.752  34.229  1.00  0.00     0.173 A 
ATOM     63  F   UNL A   1      43.674  35.809  30.788  1.00  0.00    -0.203 F 
ATOM     64  C   UNL A   1      43.915  37.005  32.802  1.00  0.00     0.198 A 
ATOM     65  C   UNL A   1      43.446  35.933  34.900  1.00  0.00     0.198 A 
ATOM     66  F   UNL A   1      42.767  33.680  34.943  1.00  0.00    -0.203 F 
ATOM     67  F   UNL A   1      44.309  38.085  32.114  1.00  0.00    -0.200 F 
ATOM     68  C   UNL A   1      43.834  37.057  34.186  1.00  0.00     0.200 A 
ATOM     69  F   UNL A   1      43.357  35.985  36.236  1.00  0.00    -0.200 F 
ATOM     70  F   UNL A   1      44.133  38.191  34.833  1.00  0.00    -0.200 F 
ENDBRANCH  37  60
ENDBRANCH  11  12
ENDBRANCH   4   6
ENDBRANCH   1   2
BRANCH   1  71
ATOM     71  C   UNL A   1      36.081  23.136  23.803  1.00  0.00     0.042 C 
BRANCH  71  72
ATOM     72  C   UNL A   1      34.577  23.271  23.995  1.00  0.00     0.118 C 
BRANCH  72  73
ATOM     73  N   UNL A   1      34.157  23.047  25.371  1.00  0.00    -0.352 N 
ATOM     74  C   UNL A   1      33.392  23.830  26.193  1.00  0.00     0.256 C 
ATOM     75  H   UNL A   1      34.470  22.203  25.772  1.00  0.00     0.163 HD
ATOM     76  O   UNL A   1      33.176  23.465  27.350  1.00  0.00    -0.269 OA
BRANCH  74  77
ATOM     77  C   UNL A   1      32.812  25.071  25.655  1.00  0.00     0.104 A 
ATOM     78  C   UNL A   1      33.555  26.188  25.666  1.00  0.00     0.104 A 
ATOM     79  C   UNL A   1      31.444  25.154  25.106  1.00  0.00     0.202 A 
ATOM     80  N   UNL A   1      33.128  27.448  25.303  1.00  0.00    -0.343 N 
ATOM     81  C   UNL A   1      31.029  26.452  24.517  1.00  0.00     0.047 A 
ATOM     82  O   UNL A   1      30.658  24.209  25.161  1.00  0.00    -0.288 OA
ATOM     83  C   UNL A   1      31.879  27.569  24.625  1.00  0.00     0.054 A 
ATOM     84  C   UNL A   1      29.779  26.555  23.897  1.00  0.00     0.016 A 
ATOM     85  C   UNL A   1      31.443  28.776  24.054  1.00  0.00     0.053 A 
ATOM     86  C   UNL A   1      29.357  27.782  23.384  1.00  0.00     0.027 A 
ATOM     87  C   UNL A   1      30.181  28.910  23.455  1.00  0.00     0.039 A 
BRANCH  80  88
ATOM     88  C   UNL A   1      33.847  28.646  25.806  1.00  0.00     0.087 C 
ATOM     89  C   UNL A   1      33.368  29.552  26.915  1.00  0.00     0.027 C 
ATOM     90  C   UNL A   1      34.547  28.648  27.138  1.00  0.00     0.027 C 
ENDBRANCH  80  88
BRANCH  87  91
ATOM     91  N   UNL A   1      29.789  30.140  22.965  1.00  0.00    -0.360 N 
ATOM     92  C   UNL A   1      29.562  30.291  21.522  1.00  0.00     0.178 C 
ATOM     93  C   UNL A   1      29.176  31.151  23.833  1.00  0.00     0.178 C 
ATOM     94  C   UNL A   1      28.062  30.536  21.239  1.00  0.00     0.282 C 
ATOM     95  C   UNL A   1      27.698  31.392  23.456  1.00  0.00     0.282 C 
ATOM     96  N   UNL A   1      27.489  31.659  22.016  1.00  0.00    -0.343 N 
ATOM     97  H   UNL A   1      26.490  31.737  21.822  1.00  0.00     0.346 HD
ATOM     98  H   UNL A   1      27.946  32.532  21.754  1.00  0.00     0.346 HD
ENDBRANCH  87  91
ENDBRANCH  74  77
ENDBRANCH  72  73
ENDBRANCH  71  72
ENDBRANCH   1  71
TORSDOF 12
ENDMDL
MODEL 3
REMARK VINA RESULT:     -12.7      3.478      9.184
REMARK SMILES O=C(NCCCNC(=O)c1cn(C2CC2)c2cc(N3CC[NH2+]CC3)ccc2c1=O)c1ccc(-c2c3nc(c(-c4c(F)c(F)c(F)c(F)c4F)c4ccc([nH]4)c(-c4c(F)c(F)c(F)c(F)c4F)c4nc(c(-c5c(F)c(F)c(F)c(F)c5F)c5ccc2[nH]5)C=C4)C=C3)cc1
REMARK SMILES IDX 4 1 3 2 1 3 2 4 30 6 31 7 92 8 32 9 91 10 33 11 34 12 35 13
REMARK SMILES IDX 85 14 36 15 90 16 84 17 86 18 37 19 89 20 83 21 82 22 38 24
REMARK SMILES IDX 70 25 50 26 69 27 51 28 54 29 68 30 87 31 52 32 53 33 67 35
REMARK SMILES IDX 88 36 55 37 39 38 40 39 48 40 41 41 42 42 46 43 49 44 43 45
REMARK SMILES IDX 44 46 47 47 45 48 71 49 72 50 80 51 73 52 74 53 78 54 81 55
REMARK SMILES IDX 75 56 76 57 79 58 77 59 56 60 57 61 65 62 58 63 59 64 63 65
REMARK SMILES IDX 66 66 60 67 61 68 64 69 62 70 5 71 6 72 7 73 8 74 9 76 10 77
REMARK SMILES IDX 11 78 28 79 12 80 27 81 29 82 16 83 26 84 17 85 25 86 18 87
REMARK SMILES IDX 13 88 14 89 15 90 19 91 20 92 24 93 21 94 23 95 22 96
REMARK H PARENT 3 5 86 23 54 34 7 75 22 97 22 98
REMARK Flexibility Score: inf
ROOT
ATOM      1  C   UNL A   1      36.628  23.154  26.056  1.00  0.00     0.118 C 
ENDROOT
BRANCH   1   2
ATOM      2  N   UNL A   1      37.866  22.389  26.128  1.00  0.00    -0.352 N 
ATOM      3  O   UNL A   1      40.064  21.973  26.251  1.00  0.00    -0.269 OA
ATOM      4  C   UNL A   1      39.144  22.773  26.433  1.00  0.00     0.251 C 
ATOM      5  H   UNL A   1      37.766  21.432  25.923  1.00  0.00     0.163 HD
BRANCH   4   6
ATOM      6  C   UNL A   1      39.449  24.117  26.970  1.00  0.00     0.039 A 
ATOM      7  C   UNL A   1      40.043  25.056  26.119  1.00  0.00     0.014 A 
ATOM      8  C   UNL A   1      39.240  24.440  28.313  1.00  0.00     0.014 A 
ATOM      9  C   UNL A   1      40.401  26.317  26.604  1.00  0.00     0.010 A 
ATOM     10  C   UNL A   1      39.519  25.724  28.777  1.00  0.00     0.010 A 
ATOM     11  C   UNL A   1      40.131  26.664  27.936  1.00  0.00    -0.014 A 
BRANCH  11  12
ATOM     12  C   UNL A   1      40.562  27.968  28.496  1.00  0.00     0.031 A 
ATOM     13  C   UNL A   1      42.018  28.200  28.795  1.00  0.00     0.074 A 
ATOM     14  C   UNL A   1      39.656  28.926  28.768  1.00  0.00     0.049 A 
ATOM     15  N   UNL A   1      42.594  29.220  29.380  1.00  0.00    -0.248 NA
ATOM     16  C   UNL A   1      42.951  27.129  28.404  1.00  0.00     0.031 C 
ATOM     17  C   UNL A   1      38.217  28.820  28.537  1.00  0.00     0.029 A 
ATOM     18  N   UNL A   1      39.819  30.179  29.303  1.00  0.00    -0.354 N 
ATOM     19  C   UNL A   1      43.943  28.899  29.452  1.00  0.00     0.074 A 
ATOM     20  C   UNL A   1      44.098  27.576  28.891  1.00  0.00     0.031 C 
ATOM     21  C   UNL A   1      37.628  29.972  28.900  1.00  0.00     0.029 A 
ATOM     22  C   UNL A   1      38.645  30.882  29.423  1.00  0.00     0.049 A 
ATOM     23  H   UNL A   1      40.693  30.542  29.573  1.00  0.00     0.167 HD
ATOM     24  C   UNL A   1      44.967  29.651  29.922  1.00  0.00     0.037 A 
ATOM     25  C   UNL A   1      38.418  32.118  29.904  1.00  0.00     0.037 A 
ATOM     26  C   UNL A   1      44.822  30.987  30.431  1.00  0.00     0.049 A 
ATOM     27  C   UNL A   1      39.571  32.936  30.420  1.00  0.00     0.074 A 
ATOM     28  C   UNL A   1      45.804  31.848  30.887  1.00  0.00     0.029 A 
ATOM     29  N   UNL A   1      43.615  31.663  30.536  1.00  0.00    -0.354 N 
ATOM     30  N   UNL A   1      40.843  32.627  30.472  1.00  0.00    -0.248 NA
ATOM     31  C   UNL A   1      39.254  34.271  30.946  1.00  0.00     0.031 C 
ATOM     32  C   UNL A   1      45.190  33.038  31.290  1.00  0.00     0.029 A 
ATOM     33  C   UNL A   1      43.828  32.928  31.056  1.00  0.00     0.049 A 
ATOM     34  H   UNL A   1      42.739  31.297  30.279  1.00  0.00     0.167 HD
ATOM     35  C   UNL A   1      41.480  33.731  31.021  1.00  0.00     0.074 A 
ATOM     36  C   UNL A   1      40.457  34.724  31.273  1.00  0.00     0.031 C 
ATOM     37  C   UNL A   1      42.797  33.904  31.294  1.00  0.00     0.037 A 
BRANCH  24  38
ATOM     38  C   UNL A   1      46.339  29.050  29.891  1.00  0.00     0.064 A 
ATOM     39  C   UNL A   1      47.174  29.191  28.773  1.00  0.00     0.173 A 
ATOM     40  C   UNL A   1      46.838  28.358  31.004  1.00  0.00     0.173 A 
ATOM     41  F   UNL A   1      46.735  29.831  27.681  1.00  0.00    -0.203 F 
ATOM     42  C   UNL A   1      48.453  28.641  28.764  1.00  0.00     0.198 A 
ATOM     43  C   UNL A   1      48.128  27.832  31.000  1.00  0.00     0.198 A 
ATOM     44  F   UNL A   1      46.079  28.198  32.098  1.00  0.00    -0.203 F 
ATOM     45  F   UNL A   1      49.220  28.754  27.670  1.00  0.00    -0.200 F 
ATOM     46  C   UNL A   1      48.932  27.969  29.878  1.00  0.00     0.200 A 
ATOM     47  F   UNL A   1      48.592  27.191  32.081  1.00  0.00    -0.200 F 
ATOM     48  F   UNL A   1      50.166  27.448  29.869  1.00  0.00    -0.200 F 
ENDBRANCH  24  38
BRANCH  25  49
ATOM     49  C   UNL A   1      37.041  32.672  29.887  1.00  0.00     0.064 A 
ATOM     50  C   UNL A   1      36.550  33.326  28.749  1.00  0.00     0.173 A 
ATOM     51  C   UNL A   1      36.186  32.546  30.991  1.00  0.00     0.173 A 
ATOM     52  F   UNL A   1      37.340  33.488  27.678  1.00  0.00    -0.203 F 
ATOM     53  C   UNL A   1      35.255  33.839  28.718  1.00  0.00     0.198 A 
ATOM     54  C   UNL A   1      34.884  33.043  30.951  1.00  0.00     0.198 A 
ATOM     55  F   UNL A   1      36.611  31.927  32.103  1.00  0.00    -0.203 F 
ATOM     56  F   UNL A   1      34.819  34.485  27.627  1.00  0.00    -0.200 F 
ATOM     57  C   UNL A   1      34.422  33.691  29.817  1.00  0.00     0.200 A 
ATOM     58  F   UNL A   1      34.078  32.889  32.010  1.00  0.00    -0.200 F 
ATOM     59  F   UNL A   1      33.174  34.178  29.783  1.00  0.00    -0.200 F 
ENDBRANCH  25  49
BRANCH  37  60
ATOM     60  C   UNL A   1      43.214  35.217  31.882  1.00  0.00     0.064 A 
ATOM     61  C   UNL A   1      43.702  36.253  31.074  1.00  0.00     0.173 A 
ATOM     62  C   UNL A   1      43.053  35.466  33.252  1.00  0.00     0.173 A 
ATOM     63  F   UNL A   1      43.885  36.055  29.759  1.00  0.00    -0.203 F 
ATOM     64  C   UNL A   1      44.022  37.492  31.619  1.00  0.00     0.198 A 
ATOM     65  C   UNL A   1      43.352  36.715  33.791  1.00  0.00     0.198 A 
ATOM     66  F   UNL A   1      42.582  34.507  34.064  1.00  0.00    -0.203 F 
ATOM     67  F   UNL A   1      44.510  38.462  30.834  1.00  0.00    -0.200 F 
ATOM     68  C   UNL A   1      43.839  37.725  32.975  1.00  0.00     0.200 A 
ATOM     69  F   UNL A   1      43.166  36.941  35.098  1.00  0.00    -0.200 F 
ATOM     70  F   UNL A   1      44.133  38.923  33.496  1.00  0.00    -0.200 F 
ENDBRANCH  37  60
ENDBRANCH  11  12
ENDBRANCH   4   6
ENDBRANCH   1   2
BRANCH   1  71
ATOM     71  C   UNL A   1      36.088  23.269  24.639  1.00  0.00     0.042 C 
BRANCH  71  72
ATOM     72  C   UNL A   1      34.579  23.440  24.549  1.00  0.00     0.118 C 
BRANCH  72  73
ATOM     73  N   UNL A   1      33.895  23.129  25.796  1.00  0.00    -0.352 N 
ATOM     74  C   UNL A   1      32.943  23.839  26.476  1.00  0.00     0.256 C 
ATOM     75  H   UNL A   1      34.157  22.276  26.215  1.00  0.00     0.163 HD
ATOM     76  O   UNL A   1      32.511  23.406  27.545  1.00  0.00    -0.269 OA
BRANCH  74  77
ATOM     77  C   UNL A   1      32.430  25.086  25.885  1.00  0.00     0.104 A 
ATOM     78  C   UNL A   1      33.196  26.186  25.934  1.00  0.00     0.104 A 
ATOM     79  C   UNL A   1      31.104  25.193  25.244  1.00  0.00     0.202 A 
ATOM     80  N   UNL A   1      32.825  27.451  25.528  1.00  0.00    -0.343 N 
ATOM     81  C   UNL A   1      30.761  26.493  24.613  1.00  0.00     0.047 A 
ATOM     82  O   UNL A   1      30.294  24.268  25.256  1.00  0.00    -0.288 OA
ATOM     83  C   UNL A   1      31.628  27.591  24.765  1.00  0.00     0.054 A 
ATOM     84  C   UNL A   1      29.559  26.615  23.909  1.00  0.00     0.016 A 
ATOM     85  C   UNL A   1      31.260  28.800  24.152  1.00  0.00     0.053 A 
ATOM     86  C   UNL A   1      29.202  27.846  23.354  1.00  0.00     0.027 A 
ATOM     87  C   UNL A   1      30.045  28.955  23.467  1.00  0.00     0.039 A 
BRANCH  80  88
ATOM     88  C   UNL A   1      33.537  28.639  26.064  1.00  0.00     0.087 C 
ATOM     89  C   UNL A   1      33.482  29.118  27.495  1.00  0.00     0.027 C 
ATOM     90  C   UNL A   1      34.742  28.504  26.955  1.00  0.00     0.027 C 
ENDBRANCH  80  88
BRANCH  87  91
ATOM     91  N   UNL A   1      29.716  30.187  22.938  1.00  0.00    -0.360 N 
ATOM     92  C   UNL A   1      29.523  30.308  21.487  1.00  0.00     0.178 C 
ATOM     93  C   UNL A   1      29.132  31.246  23.766  1.00  0.00     0.178 C 
ATOM     94  C   UNL A   1      28.040  30.611  21.168  1.00  0.00     0.282 C 
ATOM     95  C   UNL A   1      27.673  31.540  23.355  1.00  0.00     0.282 C 
ATOM     96  N   UNL A   1      27.503  31.778  21.904  1.00  0.00    -0.343 N 
ATOM     97  H   UNL A   1      26.512  31.893  21.689  1.00  0.00     0.346 HD
ATOM     98  H   UNL A   1      28.002  32.623  21.628  1.00  0.00     0.346 HD
ENDBRANCH  87  91
ENDBRANCH  74  77
ENDBRANCH  72  73
ENDBRANCH  71  72
ENDBRANCH   1  71
TORSDOF 12
ENDMDL
