MODEL 1
REMARK VINA RESULT:     -13.6      0.000      0.000
REMARK SMILES O=C(NCCCNC(=O)c1ccc2c(c1)[C@@H]1C=CC[C@@H]1[C@H](c1ccncc1)N2)c1ccc(-c2c3nc(c(-c4c(F)c(F)c(F)c(F)c4F)c4ccc([nH]4)c(-c4c(F)c(F)c(F)c(F)c4F)c4nc(c(-c5c(F)c(F)c(F)c(F)c5F)c5ccc2[nH]5)C=C4)C=C3)cc1
REMARK SMILES IDX 4 1 3 2 1 3 2 4 29 6 30 7 91 8 31 9 90 10 32 11 33 12 34 13
REMARK SMILES IDX 84 14 35 15 89 16 83 17 85 18 36 19 88 20 82 21 81 22 37 24
REMARK SMILES IDX 69 25 49 26 68 27 50 28 53 29 67 30 86 31 51 32 52 33 66 35
REMARK SMILES IDX 87 36 54 37 38 38 39 39 47 40 40 41 41 42 45 43 48 44 42 45
REMARK SMILES IDX 43 46 46 47 44 48 70 49 71 50 79 51 72 52 73 53 77 54 80 55
REMARK SMILES IDX 74 56 75 57 78 58 76 59 55 60 56 61 64 62 57 63 58 64 62 65
REMARK SMILES IDX 65 66 59 67 60 68 63 69 61 70 5 71 6 72 7 73 8 74 9 76 10 77
REMARK SMILES IDX 11 78 15 79 12 80 14 81 13 82 16 83 28 84 17 85 20 86 21 87
REMARK SMILES IDX 18 89 19 90 22 91 23 92 27 93 24 94 26 95 25 96
REMARK H PARENT 3 5 85 23 53 34 7 75 28 88
REMARK Flexibility Score: inf
ROOT
ATOM      1  C   UNL A   1      32.467  32.449  27.007  1.00  0.00     0.118 C 
ENDROOT
BRANCH   1   2
ATOM      2  N   UNL A   1      32.308  33.829  27.447  1.00  0.00    -0.352 N 
ATOM      3  O   UNL A   1      32.556  35.634  28.766  1.00  0.00    -0.269 OA
ATOM      4  C   UNL A   1      32.976  34.534  28.415  1.00  0.00     0.251 C 
ATOM      5  H   UNL A   1      31.609  34.335  26.974  1.00  0.00     0.163 HD
BRANCH   4   6
ATOM      6  C   UNL A   1      34.183  33.972  29.057  1.00  0.00     0.039 A 
ATOM      7  C   UNL A   1      35.459  34.446  28.741  1.00  0.00     0.014 A 
ATOM      8  C   UNL A   1      34.028  32.977  30.026  1.00  0.00     0.014 A 
ATOM      9  C   UNL A   1      36.583  33.827  29.277  1.00  0.00     0.010 A 
ATOM     10  C   UNL A   1      35.154  32.420  30.634  1.00  0.00     0.010 A 
ATOM     11  C   UNL A   1      36.442  32.821  30.242  1.00  0.00    -0.014 A 
BRANCH  11  12
ATOM     12  C   UNL A   1      37.639  32.226  30.884  1.00  0.00     0.031 A 
ATOM     13  C   UNL A   1      38.406  31.131  30.203  1.00  0.00     0.074 A 
ATOM     14  C   UNL A   1      38.005  32.650  32.107  1.00  0.00     0.049 A 
ATOM     15  N   UNL A   1      39.404  30.414  30.655  1.00  0.00    -0.248 NA
ATOM     16  C   UNL A   1      37.988  30.787  28.836  1.00  0.00     0.031 C 
ATOM     17  C   UNL A   1      37.336  33.709  32.865  1.00  0.00     0.029 A 
ATOM     18  N   UNL A   1      39.013  32.231  32.937  1.00  0.00    -0.354 N 
ATOM     19  C   UNL A   1      39.716  29.518  29.642  1.00  0.00     0.074 A 
ATOM     20  C   UNL A   1      38.784  29.762  28.562  1.00  0.00     0.031 C 
ATOM     21  C   UNL A   1      37.951  33.858  34.046  1.00  0.00     0.029 A 
ATOM     22  C   UNL A   1      39.012  32.862  34.156  1.00  0.00     0.049 A 
ATOM     23  H   UNL A   1      39.673  31.546  32.684  1.00  0.00     0.167 HD
ATOM     24  C   UNL A   1      40.693  28.578  29.620  1.00  0.00     0.037 A 
ATOM     25  C   UNL A   1      39.749  32.635  35.259  1.00  0.00     0.037 A 
ATOM     26  C   UNL A   1      41.613  28.347  30.705  1.00  0.00     0.049 A 
ATOM     27  C   UNL A   1      40.792  31.557  35.233  1.00  0.00     0.074 A 
ATOM     28  C   UNL A   1      42.665  27.450  30.767  1.00  0.00     0.029 A 
ATOM     29  N   UNL A   1      41.579  29.007  31.926  1.00  0.00    -0.354 N 
ATOM     30  N   UNL A   1      41.105  30.737  34.259  1.00  0.00    -0.248 NA
ATOM     31  C   UNL A   1      41.585  31.370  36.455  1.00  0.00     0.031 C 
ATOM     32  C   UNL A   1      43.223  27.519  32.048  1.00  0.00     0.029 A 
ATOM     33  C   UNL A   1      42.570  28.513  32.760  1.00  0.00     0.049 A 
ATOM     34  H   UNL A   1      40.944  29.722  32.164  1.00  0.00     0.167 HD
ATOM     35  C   UNL A   1      42.151  29.959  34.736  1.00  0.00     0.074 A 
ATOM     36  C   UNL A   1      42.417  30.404  36.089  1.00  0.00     0.031 C 
ATOM     37  C   UNL A   1      42.832  28.973  34.103  1.00  0.00     0.037 A 
BRANCH  24  38
ATOM     38  C   UNL A   1      40.785  27.702  28.402  1.00  0.00     0.064 A 
ATOM     39  C   UNL A   1      41.587  28.037  27.300  1.00  0.00     0.173 A 
ATOM     40  C   UNL A   1      40.061  26.500  28.339  1.00  0.00     0.173 A 
ATOM     41  F   UNL A   1      42.295  29.176  27.302  1.00  0.00    -0.203 F 
ATOM     42  C   UNL A   1      41.621  27.230  26.164  1.00  0.00     0.198 A 
ATOM     43  C   UNL A   1      40.127  25.677  27.218  1.00  0.00     0.198 A 
ATOM     44  F   UNL A   1      39.287  26.122  29.367  1.00  0.00    -0.203 F 
ATOM     45  F   UNL A   1      42.338  27.609  25.097  1.00  0.00    -0.200 F 
ATOM     46  C   UNL A   1      40.894  26.050  26.125  1.00  0.00     0.200 A 
ATOM     47  F   UNL A   1      39.438  24.529  27.190  1.00  0.00    -0.200 F 
ATOM     48  F   UNL A   1      40.926  25.278  25.031  1.00  0.00    -0.200 F 
ENDBRANCH  24  38
BRANCH  25  49
ATOM     49  C   UNL A   1      39.497  33.451  36.474  1.00  0.00     0.064 A 
ATOM     50  C   UNL A   1      40.079  34.715  36.629  1.00  0.00     0.173 A 
ATOM     51  C   UNL A   1      38.618  33.007  37.475  1.00  0.00     0.173 A 
ATOM     52  F   UNL A   1      40.936  35.175  35.706  1.00  0.00    -0.203 F 
ATOM     53  C   UNL A   1      39.794  35.504  37.741  1.00  0.00     0.198 A 
ATOM     54  C   UNL A   1      38.311  33.808  38.571  1.00  0.00     0.198 A 
ATOM     55  F   UNL A   1      38.028  31.808  37.366  1.00  0.00    -0.203 F 
ATOM     56  F   UNL A   1      40.382  36.700  37.879  1.00  0.00    -0.200 F 
ATOM     57  C   UNL A   1      38.903  35.055  38.705  1.00  0.00     0.200 A 
ATOM     58  F   UNL A   1      37.434  33.380  39.487  1.00  0.00    -0.200 F 
ATOM     59  F   UNL A   1      38.613  35.824  39.763  1.00  0.00    -0.200 F 
ENDBRANCH  25  49
BRANCH  37  60
ATOM     60  C   UNL A   1      43.976  28.334  34.836  1.00  0.00     0.064 A 
ATOM     61  C   UNL A   1      45.252  28.913  34.871  1.00  0.00     0.173 A 
ATOM     62  C   UNL A   1      43.762  27.167  35.586  1.00  0.00     0.173 A 
ATOM     63  F   UNL A   1      45.512  30.019  34.159  1.00  0.00    -0.203 F 
ATOM     64  C   UNL A   1      46.275  28.341  35.625  1.00  0.00     0.198 A 
ATOM     65  C   UNL A   1      44.777  26.615  36.361  1.00  0.00     0.198 A 
ATOM     66  F   UNL A   1      42.557  26.576  35.589  1.00  0.00    -0.203 F 
ATOM     67  F   UNL A   1      47.496  28.893  35.620  1.00  0.00    -0.200 F 
ATOM     68  C   UNL A   1      46.034  27.201  36.379  1.00  0.00     0.200 A 
ATOM     69  F   UNL A   1      44.537  25.524  37.101  1.00  0.00    -0.200 F 
ATOM     70  F   UNL A   1      47.013  26.667  37.121  1.00  0.00    -0.200 F 
ENDBRANCH  37  60
ENDBRANCH  11  12
ENDBRANCH   4   6
ENDBRANCH   1   2
BRANCH   1  71
ATOM     71  C   UNL A   1      31.213  31.893  26.352  1.00  0.00     0.042 C 
BRANCH  71  72
ATOM     72  C   UNL A   1      31.403  30.530  25.707  1.00  0.00     0.118 C 
BRANCH  72  73
ATOM     73  N   UNL A   1      30.557  30.340  24.536  1.00  0.00    -0.352 N 
ATOM     74  C   UNL A   1      30.662  29.427  23.516  1.00  0.00     0.251 C 
ATOM     75  H   UNL A   1      29.797  30.961  24.464  1.00  0.00     0.163 HD
ATOM     76  O   UNL A   1      29.962  29.547  22.513  1.00  0.00    -0.269 OA
BRANCH  74  77
ATOM     77  C   UNL A   1      31.623  28.310  23.616  1.00  0.00     0.040 A 
ATOM     78  C   UNL A   1      32.987  28.571  23.518  1.00  0.00     0.016 A 
ATOM     79  C   UNL A   1      31.178  27.004  23.823  1.00  0.00     0.020 A 
ATOM     80  C   UNL A   1      33.901  27.523  23.666  1.00  0.00     0.027 A 
ATOM     81  C   UNL A   1      32.093  25.972  24.074  1.00  0.00    -0.017 A 
ATOM     82  C   UNL A   1      33.465  26.214  23.924  1.00  0.00     0.038 A 
ATOM     83  C   UNL A   1      31.577  24.629  24.533  1.00  0.00     0.049 C 
ATOM     84  N   UNL A   1      34.403  25.206  24.109  1.00  0.00    -0.378 N 
ATOM     85  C   UNL A   1      30.793  24.723  25.824  1.00  0.00    -0.023 C 
ATOM     86  C   UNL A   1      32.685  23.645  24.945  1.00  0.00     0.031 C 
ATOM     87  C   UNL A   1      33.958  23.818  24.114  1.00  0.00     0.114 C 
ATOM     88  H   UNL A   1      35.354  25.426  24.237  1.00  0.00     0.161 HD
ATOM     89  C   UNL A   1      31.494  24.283  26.876  1.00  0.00    -0.030 C 
ATOM     90  C   UNL A   1      32.852  23.817  26.466  1.00  0.00     0.034 C 
BRANCH  87  91
ATOM     91  C   UNL A   1      35.053  22.866  24.571  1.00  0.00    -0.022 A 
ATOM     92  C   UNL A   1      36.303  23.385  24.936  1.00  0.00     0.026 A 
ATOM     93  C   UNL A   1      34.894  21.476  24.603  1.00  0.00     0.026 A 
ATOM     94  C   UNL A   1      37.315  22.513  25.304  1.00  0.00     0.111 A 
ATOM     95  C   UNL A   1      35.962  20.686  25.003  1.00  0.00     0.111 A 
ATOM     96  N   UNL A   1      37.169  21.175  25.352  1.00  0.00    -0.265 NA
ENDBRANCH  87  91
ENDBRANCH  74  77
ENDBRANCH  72  73
ENDBRANCH  71  72
ENDBRANCH   1  71
TORSDOF 11
ENDMDL
MODEL 2
REMARK VINA RESULT:     -13.6      1.896      3.035
REMARK SMILES O=C(NCCCNC(=O)c1ccc2c(c1)[C@@H]1C=CC[C@@H]1[C@H](c1ccncc1)N2)c1ccc(-c2c3nc(c(-c4c(F)c(F)c(F)c(F)c4F)c4ccc([nH]4)c(-c4c(F)c(F)c(F)c(F)c4F)c4nc(c(-c5c(F)c(F)c(F)c(F)c5F)c5ccc2[nH]5)C=C4)C=C3)cc1
REMARK SMILES IDX 4 1 3 2 1 3 2 4 29 6 30 7 91 8 31 9 90 10 32 11 33 12 34 13
REMARK SMILES IDX 84 14 35 15 89 16 83 17 85 18 36 19 88 20 82 21 81 22 37 24
REMARK SMILES IDX 69 25 49 26 68 27 50 28 53 29 67 30 86 31 51 32 52 33 66 35
REMARK SMILES IDX 87 36 54 37 38 38 39 39 47 40 40 41 41 42 45 43 48 44 42 45
REMARK SMILES IDX 43 46 46 47 44 48 70 49 71 50 79 51 72 52 73 53 77 54 80 55
REMARK SMILES IDX 74 56 75 57 78 58 76 59 55 60 56 61 64 62 57 63 58 64 62 65
REMARK SMILES IDX 65 66 59 67 60 68 63 69 61 70 5 71 6 72 7 73 8 74 9 76 10 77
REMARK SMILES IDX 11 78 15 79 12 80 14 81 13 82 16 83 28 84 17 85 20 86 21 87
REMARK SMILES IDX 18 89 19 90 22 91 23 92 27 93 24 94 26 95 25 96
REMARK H PARENT 3 5 85 23 53 34 7 75 28 88
REMARK Flexibility Score: inf
ROOT
ATOM      1  C   UNL A   1      33.037  29.631  26.083  1.00  0.00     0.118 C 
ENDROOT
BRANCH   1   2
ATOM      2  N   UNL A   1      32.800  31.040  26.367  1.00  0.00    -0.352 N 
ATOM      3  O   UNL A   1      32.939  32.991  27.478  1.00  0.00    -0.269 OA
ATOM      4  C   UNL A   1      33.420  31.883  27.253  1.00  0.00     0.251 C 
ATOM      5  H   UNL A   1      32.079  31.453  25.838  1.00  0.00     0.163 HD
BRANCH   4   6
ATOM      6  C   UNL A   1      34.649  31.461  27.957  1.00  0.00     0.039 A 
ATOM      7  C   UNL A   1      34.778  30.173  28.482  1.00  0.00     0.014 A 
ATOM      8  C   UNL A   1      35.711  32.365  28.056  1.00  0.00     0.014 A 
ATOM      9  C   UNL A   1      35.899  29.837  29.233  1.00  0.00     0.010 A 
ATOM     10  C   UNL A   1      36.875  31.995  28.730  1.00  0.00     0.010 A 
ATOM     11  C   UNL A   1      36.966  30.738  29.349  1.00  0.00    -0.014 A 
BRANCH  11  12
ATOM     12  C   UNL A   1      38.202  30.346  30.070  1.00  0.00     0.031 A 
ATOM     13  C   UNL A   1      39.161  29.363  29.465  1.00  0.00     0.074 A 
ATOM     14  C   UNL A   1      38.432  30.850  31.296  1.00  0.00     0.049 A 
ATOM     15  N   UNL A   1      40.228  28.817  29.991  1.00  0.00    -0.248 NA
ATOM     16  C   UNL A   1      38.875  28.926  28.091  1.00  0.00     0.031 C 
ATOM     17  C   UNL A   1      37.572  31.814  31.984  1.00  0.00     0.029 A 
ATOM     18  N   UNL A   1      39.444  30.610  32.189  1.00  0.00    -0.354 N 
ATOM     19  C   UNL A   1      40.726  27.953  29.026  1.00  0.00     0.074 A 
ATOM     20  C   UNL A   1      39.828  28.027  27.891  1.00  0.00     0.031 C 
ATOM     21  C   UNL A   1      38.091  32.084  33.189  1.00  0.00     0.029 A 
ATOM     22  C   UNL A   1      39.281  31.263  33.385  1.00  0.00     0.049 A 
ATOM     23  H   UNL A   1      40.212  30.026  31.993  1.00  0.00     0.167 HD
ATOM     24  C   UNL A   1      41.832  27.171  29.084  1.00  0.00     0.037 A 
ATOM     25  C   UNL A   1      39.981  31.178  34.531  1.00  0.00     0.037 A 
ATOM     26  C   UNL A   1      42.715  27.109  30.221  1.00  0.00     0.049 A 
ATOM     27  C   UNL A   1      41.175  30.269  34.594  1.00  0.00     0.074 A 
ATOM     28  C   UNL A   1      43.885  26.383  30.366  1.00  0.00     0.029 A 
ATOM     29  N   UNL A   1      42.516  27.787  31.417  1.00  0.00    -0.354 N 
ATOM     30  N   UNL A   1      41.660  29.482  33.665  1.00  0.00    -0.248 NA
ATOM     31  C   UNL A   1      41.917  30.235  35.860  1.00  0.00     0.031 C 
ATOM     32  C   UNL A   1      44.354  26.567  31.671  1.00  0.00     0.029 A 
ATOM     33  C   UNL A   1      43.521  27.469  32.316  1.00  0.00     0.049 A 
ATOM     34  H   UNL A   1      41.768  28.403  31.599  1.00  0.00     0.167 HD
ATOM     35  C   UNL A   1      42.782  28.883  34.220  1.00  0.00     0.074 A 
ATOM     36  C   UNL A   1      42.904  29.397  35.569  1.00  0.00     0.031 C 
ATOM     37  C   UNL A   1      43.637  27.996  33.654  1.00  0.00     0.037 A 
BRANCH  24  38
ATOM     38  C   UNL A   1      42.121  26.290  27.901  1.00  0.00     0.064 A 
ATOM     39  C   UNL A   1      41.467  25.062  27.708  1.00  0.00     0.173 A 
ATOM     40  C   UNL A   1      43.065  26.683  26.939  1.00  0.00     0.173 A 
ATOM     41  F   UNL A   1      40.561  24.633  28.598  1.00  0.00    -0.203 F 
ATOM     42  C   UNL A   1      41.784  24.242  26.627  1.00  0.00     0.198 A 
ATOM     43  C   UNL A   1      43.351  25.879  25.839  1.00  0.00     0.198 A 
ATOM     44  F   UNL A   1      43.712  27.851  27.064  1.00  0.00    -0.203 F 
ATOM     45  F   UNL A   1      41.198  23.043  26.504  1.00  0.00    -0.200 F 
ATOM     46  C   UNL A   1      42.722  24.652  25.692  1.00  0.00     0.200 A 
ATOM     47  F   UNL A   1      44.246  26.285  24.928  1.00  0.00    -0.200 F 
ATOM     48  F   UNL A   1      43.028  23.860  24.655  1.00  0.00    -0.200 F 
ENDBRANCH  24  38
BRANCH  25  49
ATOM     49  C   UNL A   1      39.544  31.976  35.704  1.00  0.00     0.064 A 
ATOM     50  C   UNL A   1      40.058  33.256  35.940  1.00  0.00     0.173 A 
ATOM     51  C   UNL A   1      38.554  31.496  36.579  1.00  0.00     0.173 A 
ATOM     52  F   UNL A   1      41.015  33.751  35.141  1.00  0.00    -0.203 F 
ATOM     53  C   UNL A   1      39.603  34.027  37.007  1.00  0.00     0.198 A 
ATOM     54  C   UNL A   1      38.079  32.279  37.626  1.00  0.00     0.198 A 
ATOM     55  F   UNL A   1      38.023  30.279  36.387  1.00  0.00    -0.203 F 
ATOM     56  F   UNL A   1      40.128  35.241  37.226  1.00  0.00    -0.200 F 
ATOM     57  C   UNL A   1      38.606  33.543  37.842  1.00  0.00     0.200 A 
ATOM     58  F   UNL A   1      37.101  31.816  38.416  1.00  0.00    -0.200 F 
ATOM     59  F   UNL A   1      38.153  34.295  38.855  1.00  0.00    -0.200 F 
ENDBRANCH  25  49
BRANCH  37  60
ATOM     60  C   UNL A   1      44.821  27.556  34.466  1.00  0.00     0.064 A 
ATOM     61  C   UNL A   1      44.793  26.395  35.250  1.00  0.00     0.173 A 
ATOM     62  C   UNL A   1      46.029  28.267  34.386  1.00  0.00     0.173 A 
ATOM     63  F   UNL A   1      43.659  25.689  35.373  1.00  0.00    -0.203 F 
ATOM     64  C   UNL A   1      45.930  25.965  35.932  1.00  0.00     0.198 A 
ATOM     65  C   UNL A   1      47.171  27.818  35.043  1.00  0.00     0.198 A 
ATOM     66  F   UNL A   1      46.110  29.383  33.645  1.00  0.00    -0.203 F 
ATOM     67  F   UNL A   1      45.874  24.870  36.701  1.00  0.00    -0.200 F 
ATOM     68  C   UNL A   1      47.121  26.670  35.817  1.00  0.00     0.200 A 
ATOM     69  F   UNL A   1      48.322  28.492  34.917  1.00  0.00    -0.200 F 
ATOM     70  F   UNL A   1      48.218  26.242  36.454  1.00  0.00    -0.200 F 
ENDBRANCH  37  60
ENDBRANCH  11  12
ENDBRANCH   4   6
ENDBRANCH   1   2
BRANCH   1  71
ATOM     71  C   UNL A   1      31.763  28.881  25.728  1.00  0.00     0.042 C 
BRANCH  71  72
ATOM     72  C   UNL A   1      31.362  28.999  24.267  1.00  0.00     0.118 C 
BRANCH  72  73
ATOM     73  N   UNL A   1      32.509  29.160  23.381  1.00  0.00    -0.352 N 
ATOM     74  C   UNL A   1      33.383  28.220  22.896  1.00  0.00     0.251 C 
ATOM     75  H   UNL A   1      32.683  30.084  23.088  1.00  0.00     0.163 HD
ATOM     76  O   UNL A   1      34.404  28.578  22.313  1.00  0.00    -0.269 OA
BRANCH  74  77
ATOM     77  C   UNL A   1      33.105  26.782  23.083  1.00  0.00     0.040 A 
ATOM     78  C   UNL A   1      32.320  26.110  22.149  1.00  0.00     0.016 A 
ATOM     79  C   UNL A   1      33.632  26.090  24.174  1.00  0.00     0.020 A 
ATOM     80  C   UNL A   1      32.100  24.738  22.295  1.00  0.00     0.027 A 
ATOM     81  C   UNL A   1      33.498  24.698  24.265  1.00  0.00    -0.017 A 
ATOM     82  C   UNL A   1      32.666  24.023  23.361  1.00  0.00     0.038 A 
ATOM     83  C   UNL A   1      34.282  23.953  25.320  1.00  0.00     0.049 C 
ATOM     84  N   UNL A   1      32.462  22.652  23.450  1.00  0.00    -0.378 N 
ATOM     85  C   UNL A   1      35.775  24.152  25.177  1.00  0.00    -0.023 C 
ATOM     86  C   UNL A   1      34.187  22.423  25.199  1.00  0.00     0.031 C 
ATOM     87  C   UNL A   1      32.823  21.961  24.681  1.00  0.00     0.114 C 
ATOM     88  H   UNL A   1      32.081  22.153  22.691  1.00  0.00     0.161 HD
ATOM     89  C   UNL A   1      36.380  23.083  24.646  1.00  0.00    -0.030 C 
ATOM     90  C   UNL A   1      35.401  21.993  24.355  1.00  0.00     0.034 C 
BRANCH  87  91
ATOM     91  C   UNL A   1      32.770  20.449  24.528  1.00  0.00    -0.022 A 
ATOM     92  C   UNL A   1      32.527  19.897  23.262  1.00  0.00     0.026 A 
ATOM     93  C   UNL A   1      32.907  19.565  25.605  1.00  0.00     0.026 A 
ATOM     94  C   UNL A   1      32.429  18.521  23.132  1.00  0.00     0.111 A 
ATOM     95  C   UNL A   1      32.811  18.201  25.371  1.00  0.00     0.111 A 
ATOM     96  N   UNL A   1      32.573  17.660  24.158  1.00  0.00    -0.265 NA
ENDBRANCH  87  91
ENDBRANCH  74  77
ENDBRANCH  72  73
ENDBRANCH  71  72
ENDBRANCH   1  71
TORSDOF 11
ENDMDL
MODEL 3
REMARK VINA RESULT:     -13.6      5.226     10.497
REMARK SMILES O=C(NCCCNC(=O)c1ccc2c(c1)[C@@H]1C=CC[C@@H]1[C@H](c1ccncc1)N2)c1ccc(-c2c3nc(c(-c4c(F)c(F)c(F)c(F)c4F)c4ccc([nH]4)c(-c4c(F)c(F)c(F)c(F)c4F)c4nc(c(-c5c(F)c(F)c(F)c(F)c5F)c5ccc2[nH]5)C=C4)C=C3)cc1
REMARK SMILES IDX 4 1 3 2 1 3 2 4 29 6 30 7 91 8 31 9 90 10 32 11 33 12 34 13
REMARK SMILES IDX 84 14 35 15 89 16 83 17 85 18 36 19 88 20 82 21 81 22 37 24
REMARK SMILES IDX 69 25 49 26 68 27 50 28 53 29 67 30 86 31 51 32 52 33 66 35
REMARK SMILES IDX 87 36 54 37 38 38 39 39 47 40 40 41 41 42 45 43 48 44 42 45
REMARK SMILES IDX 43 46 46 47 44 48 70 49 71 50 79 51 72 52 73 53 77 54 80 55
REMARK SMILES IDX 74 56 75 57 78 58 76 59 55 60 56 61 64 62 57 63 58 64 62 65
REMARK SMILES IDX 65 66 59 67 60 68 63 69 61 70 5 71 6 72 7 73 8 74 9 76 10 77
REMARK SMILES IDX 11 78 15 79 12 80 14 81 13 82 16 83 28 84 17 85 20 86 21 87
REMARK SMILES IDX 18 89 19 90 22 91 23 92 27 93 24 94 26 95 25 96
REMARK H PARENT 3 5 85 23 53 34 7 75 28 88
REMARK Flexibility Score: inf
ROOT
ATOM      1  C   UNL A   1      38.941  20.120  25.741  1.00  0.00     0.118 C 
ENDROOT
BRANCH   1   2
ATOM      2  N   UNL A   1      40.050  19.177  25.802  1.00  0.00    -0.352 N 
ATOM      3  O   UNL A   1      42.189  18.481  25.869  1.00  0.00    -0.269 OA
ATOM      4  C   UNL A   1      41.381  19.389  26.056  1.00  0.00     0.251 C 
ATOM      5  H   UNL A   1      39.805  18.239  25.634  1.00  0.00     0.163 HD
BRANCH   4   6
ATOM      6  C   UNL A   1      41.856  20.706  26.530  1.00  0.00     0.039 A 
ATOM      7  C   UNL A   1      41.942  20.997  27.894  1.00  0.00     0.014 A 
ATOM      8  C   UNL A   1      42.263  21.653  25.587  1.00  0.00     0.014 A 
ATOM      9  C   UNL A   1      42.288  22.277  28.311  1.00  0.00     0.010 A 
ATOM     10  C   UNL A   1      42.700  22.909  26.010  1.00  0.00     0.010 A 
ATOM     11  C   UNL A   1      42.688  23.240  27.375  1.00  0.00    -0.014 A 
BRANCH  11  12
ATOM     12  C   UNL A   1      43.147  24.577  27.825  1.00  0.00     0.031 A 
ATOM     13  C   UNL A   1      42.156  25.648  28.174  1.00  0.00     0.074 A 
ATOM     14  C   UNL A   1      44.467  24.833  27.875  1.00  0.00     0.049 A 
ATOM     15  N   UNL A   1      42.366  26.905  28.476  1.00  0.00    -0.248 NA
ATOM     16  C   UNL A   1      40.738  25.258  28.172  1.00  0.00     0.031 C 
ATOM     17  C   UNL A   1      45.523  23.870  27.560  1.00  0.00     0.029 A 
ATOM     18  N   UNL A   1      45.146  25.982  28.187  1.00  0.00    -0.354 N 
ATOM     19  C   UNL A   1      41.111  27.462  28.673  1.00  0.00     0.074 A 
ATOM     20  C   UNL A   1      40.142  26.414  28.430  1.00  0.00     0.031 C 
ATOM     21  C   UNL A   1      46.715  24.466  27.696  1.00  0.00     0.029 A 
ATOM     22  C   UNL A   1      46.506  25.868  28.040  1.00  0.00     0.049 A 
ATOM     23  H   UNL A   1      44.703  26.809  28.488  1.00  0.00     0.167 HD
ATOM     24  C   UNL A   1      40.799  28.734  29.024  1.00  0.00     0.037 A 
ATOM     25  C   UNL A   1      47.477  26.796  28.126  1.00  0.00     0.037 A 
ATOM     26  C   UNL A   1      41.776  29.766  29.262  1.00  0.00     0.049 A 
ATOM     27  C   UNL A   1      47.108  28.211  28.468  1.00  0.00     0.074 A 
ATOM     28  C   UNL A   1      41.568  31.074  29.664  1.00  0.00     0.029 A 
ATOM     29  N   UNL A   1      43.147  29.611  29.102  1.00  0.00    -0.354 N 
ATOM     30  N   UNL A   1      45.921  28.723  28.688  1.00  0.00    -0.248 NA
ATOM     31  C   UNL A   1      48.209  29.177  28.574  1.00  0.00     0.031 C 
ATOM     32  C   UNL A   1      42.805  31.728  29.680  1.00  0.00     0.029 A 
ATOM     33  C   UNL A   1      43.794  30.809  29.364  1.00  0.00     0.049 A 
ATOM     34  H   UNL A   1      43.594  28.772  28.841  1.00  0.00     0.167 HD
ATOM     35  C   UNL A   1      46.133  30.060  28.990  1.00  0.00     0.074 A 
ATOM     36  C   UNL A   1      47.563  30.281  28.922  1.00  0.00     0.031 C 
ATOM     37  C   UNL A   1      45.221  31.013  29.304  1.00  0.00     0.037 A 
BRANCH  24  38
ATOM     38  C   UNL A   1      39.342  29.087  29.128  1.00  0.00     0.064 A 
ATOM     39  C   UNL A   1      38.653  29.064  30.352  1.00  0.00     0.173 A 
ATOM     40  C   UNL A   1      38.621  29.461  27.982  1.00  0.00     0.173 A 
ATOM     41  F   UNL A   1      39.289  28.709  31.478  1.00  0.00    -0.203 F 
ATOM     42  C   UNL A   1      37.292  29.354  30.415  1.00  0.00     0.198 A 
ATOM     43  C   UNL A   1      37.270  29.786  28.055  1.00  0.00     0.198 A 
ATOM     44  F   UNL A   1      39.229  29.512  26.788  1.00  0.00    -0.203 F 
ATOM     45  F   UNL A   1      36.642  29.255  31.583  1.00  0.00    -0.200 F 
ATOM     46  C   UNL A   1      36.602  29.717  29.268  1.00  0.00     0.200 A 
ATOM     47  F   UNL A   1      36.609  30.155  26.949  1.00  0.00    -0.200 F 
ATOM     48  F   UNL A   1      35.292  29.992  29.331  1.00  0.00    -0.200 F 
ENDBRANCH  24  38
BRANCH  25  49
ATOM     49  C   UNL A   1      48.882  26.395  27.866  1.00  0.00     0.064 A 
ATOM     50  C   UNL A   1      49.375  26.293  26.560  1.00  0.00     0.173 A 
ATOM     51  C   UNL A   1      49.778  26.166  28.924  1.00  0.00     0.173 A 
ATOM     52  F   UNL A   1      48.554  26.488  25.517  1.00  0.00    -0.203 F 
ATOM     53  C   UNL A   1      50.710  25.975  26.319  1.00  0.00     0.198 A 
ATOM     54  C   UNL A   1      51.118  25.878  28.683  1.00  0.00     0.198 A 
ATOM     55  F   UNL A   1      49.355  26.263  30.193  1.00  0.00    -0.203 F 
ATOM     56  F   UNL A   1      51.152  25.860  25.059  1.00  0.00    -0.200 F 
ATOM     57  C   UNL A   1      51.582  25.779  27.380  1.00  0.00     0.200 A 
ATOM     58  F   UNL A   1      51.961  25.711  29.710  1.00  0.00    -0.200 F 
ATOM     59  F   UNL A   1      52.871  25.494  27.147  1.00  0.00    -0.200 F 
ENDBRANCH  25  49
BRANCH  37  60
ATOM     60  C   UNL A   1      45.734  32.379  29.657  1.00  0.00     0.064 A 
ATOM     61  C   UNL A   1      45.815  33.410  28.710  1.00  0.00     0.173 A 
ATOM     62  C   UNL A   1      46.071  32.679  30.986  1.00  0.00     0.173 A 
ATOM     63  F   UNL A   1      45.521  33.170  27.423  1.00  0.00    -0.203 F 
ATOM     64  C   UNL A   1      46.220  34.690  29.081  1.00  0.00     0.198 A 
ATOM     65  C   UNL A   1      46.446  33.966  31.359  1.00  0.00     0.198 A 
ATOM     66  F   UNL A   1      46.007  31.729  31.931  1.00  0.00    -0.203 F 
ATOM     67  F   UNL A   1      46.319  35.654  28.155  1.00  0.00    -0.200 F 
ATOM     68  C   UNL A   1      46.523  34.970  30.406  1.00  0.00     0.200 A 
ATOM     69  F   UNL A   1      46.722  34.238  32.641  1.00  0.00    -0.200 F 
ATOM     70  F   UNL A   1      46.890  36.208  30.764  1.00  0.00    -0.200 F 
ENDBRANCH  37  60
ENDBRANCH  11  12
ENDBRANCH   4   6
ENDBRANCH   1   2
BRANCH   1  71
ATOM     71  C   UNL A   1      37.780  19.606  24.905  1.00  0.00     0.042 C 
BRANCH  71  72
ATOM     72  C   UNL A   1      36.530  20.465  24.987  1.00  0.00     0.118 C 
BRANCH  72  73
ATOM     73  N   UNL A   1      35.303  19.683  24.904  1.00  0.00    -0.352 N 
ATOM     74  C   UNL A   1      34.015  20.032  25.226  1.00  0.00     0.251 C 
ATOM     75  H   UNL A   1      35.416  18.764  24.569  1.00  0.00     0.163 HD
ATOM     76  O   UNL A   1      33.140  19.170  25.269  1.00  0.00    -0.269 OA
BRANCH  74  77
ATOM     77  C   UNL A   1      33.682  21.437  25.531  1.00  0.00     0.040 A 
ATOM     78  C   UNL A   1      34.129  22.003  26.722  1.00  0.00     0.016 A 
ATOM     79  C   UNL A   1      32.939  22.205  24.632  1.00  0.00     0.020 A 
ATOM     80  C   UNL A   1      33.861  23.349  26.988  1.00  0.00     0.027 A 
ATOM     81  C   UNL A   1      32.759  23.578  24.850  1.00  0.00    -0.017 A 
ATOM     82  C   UNL A   1      33.157  24.143  26.069  1.00  0.00     0.038 A 
ATOM     83  C   UNL A   1      32.165  24.424  23.748  1.00  0.00     0.049 C 
ATOM     84  N   UNL A   1      32.947  25.488  26.347  1.00  0.00    -0.378 N 
ATOM     85  C   UNL A   1      32.986  24.376  22.478  1.00  0.00    -0.023 C 
ATOM     86  C   UNL A   1      32.187  25.933  24.043  1.00  0.00     0.031 C 
ATOM     87  C   UNL A   1      32.004  26.240  25.531  1.00  0.00     0.114 C 
ATOM     88  H   UNL A   1      33.431  25.926  27.084  1.00  0.00     0.161 HD
ATOM     89  C   UNL A   1      33.708  25.489  22.299  1.00  0.00    -0.030 C 
ATOM     90  C   UNL A   1      33.484  26.465  23.407  1.00  0.00     0.034 C 
BRANCH  87  91
ATOM     91  C   UNL A   1      32.074  27.735  25.802  1.00  0.00    -0.022 A 
ATOM     92  C   UNL A   1      32.832  28.199  26.887  1.00  0.00     0.026 A 
ATOM     93  C   UNL A   1      31.377  28.684  25.046  1.00  0.00     0.026 A 
ATOM     94  C   UNL A   1      32.855  29.556  27.164  1.00  0.00     0.111 A 
ATOM     95  C   UNL A   1      31.477  30.024  25.390  1.00  0.00     0.111 A 
ATOM     96  N   UNL A   1      32.199  30.480  26.434  1.00  0.00    -0.265 NA
ENDBRANCH  87  91
ENDBRANCH  74  77
ENDBRANCH  72  73
ENDBRANCH  71  72
ENDBRANCH   1  71
TORSDOF 11
ENDMDL
