MODEL 1
REMARK VINA RESULT:     -13.1      0.000      0.000
REMARK SMILES CSc1ccc(-c2cc(C[C@H]3CCCC3=O)ccc2[C@@H](C)C(=O)NCCCNC(=O)c2ccc(-c3c4nc(c(-c5c(F)c(F)c(F)c(F)c5F)c5ccc([nH]5)c(-c5c(F)c(F)c(F)c(F)c5F)c5nc(c(-c6c(F)c(F)c(F)c(F)c6F)c6ccc3[nH]6)C=C5)C=C4)cc2)cc1
REMARK SMILES IDX 25 1 24 2 22 3 23 4 20 6 21 7 19 8 7 9 8 10 9 11 18 12 17 13
REMARK SMILES IDX 6 14 3 15 4 16 95 17 5 18 94 19 2 20 1 21 10 22 11 23 12 24
REMARK SMILES IDX 15 25 13 26 14 27 16 28 26 29 27 30 28 31 29 32 30 34 31 35
REMARK SMILES IDX 32 36 93 37 33 38 92 39 34 40 35 41 36 42 86 43 37 44 91 45
REMARK SMILES IDX 85 46 87 47 38 48 90 49 84 50 83 51 39 53 71 54 51 55 70 56
REMARK SMILES IDX 52 57 55 58 69 59 88 60 53 61 54 62 68 64 89 65 56 66 40 67
REMARK SMILES IDX 41 68 49 69 42 70 43 71 47 72 50 73 44 74 45 75 48 76 46 77
REMARK SMILES IDX 72 78 73 79 81 80 74 81 75 82 79 83 82 84 76 85 77 86 80 87
REMARK SMILES IDX 78 88 57 89 58 90 66 91 59 92 60 93 64 94 67 95 61 96 62 97
REMARK SMILES IDX 65 98 63 99
REMARK H PARENT 24 5 28 33 87 52 55 63
REMARK Flexibility Score: inf
ROOT
ATOM      1  C   UNL A   1      31.019  31.089  25.374  1.00  0.00     0.117 C 
ENDROOT
BRANCH   1   2
ATOM      2  N   UNL A   1      32.197  30.250  25.282  1.00  0.00    -0.356 N 
ATOM      3  C   UNL A   1      32.450  28.966  25.656  1.00  0.00     0.227 C 
ATOM      4  O   UNL A   1      33.624  28.595  25.519  1.00  0.00    -0.274 OA
ATOM      5  H   UNL A   1      32.968  30.699  24.866  1.00  0.00     0.163 HD
BRANCH   3   6
ATOM      6  C   UNL A   1      31.401  27.997  26.233  1.00  0.00     0.106 C 
ATOM      7  C   UNL A   1      31.403  27.844  27.754  1.00  0.00     0.023 C 
BRANCH   6   8
ATOM      8  C   UNL A   1      31.316  26.687  25.453  1.00  0.00    -0.028 A 
ATOM      9  C   UNL A   1      30.913  26.635  24.095  1.00  0.00    -0.014 A 
ATOM     10  C   UNL A   1      30.995  25.408  23.399  1.00  0.00     0.012 A 
ATOM     11  C   UNL A   1      31.366  24.221  24.043  1.00  0.00    -0.047 A 
ATOM     12  C   UNL A   1      31.646  25.477  26.084  1.00  0.00     0.005 A 
ATOM     13  C   UNL A   1      31.696  24.270  25.395  1.00  0.00     0.004 A 
BRANCH   9  14
ATOM     14  C   UNL A   1      30.174  27.734  23.454  1.00  0.00    -0.018 A 
ATOM     15  C   UNL A   1      28.885  29.837  22.070  1.00  0.00     0.007 A 
ATOM     16  C   UNL A   1      30.265  29.669  21.964  1.00  0.00     0.015 A 
ATOM     17  C   UNL A   1      28.152  28.942  22.860  1.00  0.00     0.015 A 
ATOM     18  C   UNL A   1      30.897  28.633  22.650  1.00  0.00     0.010 A 
ATOM     19  C   UNL A   1      28.791  27.906  23.558  1.00  0.00     0.010 A 
BRANCH  15  20
ATOM     20  S   UNL A   1      28.029  31.107  21.155  1.00  0.00    -0.130 SA
ATOM     21  C   UNL A   1      28.406  32.567  22.167  1.00  0.00     0.091 C 
ENDBRANCH  15  20
ENDBRANCH   9  14
BRANCH  11  22
ATOM     22  C   UNL A   1      31.255  22.886  23.350  1.00  0.00     0.047 C 
BRANCH  22  23
ATOM     23  C   UNL A   1      32.583  22.322  22.823  1.00  0.00     0.060 C 
ATOM     24  C   UNL A   1      33.653  23.328  22.373  1.00  0.00     0.012 C 
ATOM     25  C   UNL A   1      33.321  21.547  23.891  1.00  0.00     0.136 C 
ATOM     26  C   UNL A   1      34.590  23.513  23.562  1.00  0.00     0.009 C 
ATOM     27  C   UNL A   1      34.664  22.144  24.220  1.00  0.00     0.076 C 
ATOM     28  O   UNL A   1      32.886  20.530  24.418  1.00  0.00    -0.299 OA
ENDBRANCH  22  23
ENDBRANCH  11  22
ENDBRANCH   6   8
ENDBRANCH   3   6
ENDBRANCH   1   2
BRANCH   1  29
ATOM     29  C   UNL A   1      31.069  32.019  26.586  1.00  0.00     0.042 C 
BRANCH  29  30
ATOM     30  C   UNL A   1      32.451  32.574  26.890  1.00  0.00     0.118 C 
BRANCH  30  31
ATOM     31  N   UNL A   1      32.395  33.948  27.366  1.00  0.00    -0.352 N 
ATOM     32  C   UNL A   1      33.075  34.577  28.379  1.00  0.00     0.251 C 
ATOM     33  H   UNL A   1      31.762  34.524  26.879  1.00  0.00     0.163 HD
ATOM     34  O   UNL A   1      32.696  35.683  28.752  1.00  0.00    -0.269 OA
BRANCH  32  35
ATOM     35  C   UNL A   1      34.248  33.951  29.034  1.00  0.00     0.039 A 
ATOM     36  C   UNL A   1      34.028  32.920  29.955  1.00  0.00     0.014 A 
ATOM     37  C   UNL A   1      35.549  34.412  28.817  1.00  0.00     0.014 A 
ATOM     38  C   UNL A   1      35.107  32.327  30.618  1.00  0.00     0.010 A 
ATOM     39  C   UNL A   1      36.630  33.763  29.411  1.00  0.00     0.010 A 
ATOM     40  C   UNL A   1      36.420  32.728  30.332  1.00  0.00    -0.014 A 
BRANCH  40  41
ATOM     41  C   UNL A   1      37.584  32.098  31.006  1.00  0.00     0.031 A 
ATOM     42  C   UNL A   1      38.374  31.026  30.307  1.00  0.00     0.074 A 
ATOM     43  C   UNL A   1      37.885  32.437  32.273  1.00  0.00     0.049 A 
ATOM     44  N   UNL A   1      39.369  30.302  30.755  1.00  0.00    -0.248 NA
ATOM     45  C   UNL A   1      37.968  30.701  28.931  1.00  0.00     0.031 C 
ATOM     46  C   UNL A   1      37.159  33.418  33.079  1.00  0.00     0.029 A 
ATOM     47  N   UNL A   1      38.868  31.978  33.113  1.00  0.00    -0.354 N 
ATOM     48  C   UNL A   1      39.687  29.421  29.729  1.00  0.00     0.074 A 
ATOM     49  C   UNL A   1      38.748  29.666  28.656  1.00  0.00     0.031 C 
ATOM     50  C   UNL A   1      37.729  33.500  34.291  1.00  0.00     0.029 A 
ATOM     51  C   UNL A   1      38.839  32.553  34.359  1.00  0.00     0.049 A 
ATOM     52  H   UNL A   1      39.533  31.302  32.847  1.00  0.00     0.167 HD
ATOM     53  C   UNL A   1      40.684  28.505  29.679  1.00  0.00     0.037 A 
ATOM     54  C   UNL A   1      39.614  32.336  35.439  1.00  0.00     0.037 A 
ATOM     55  C   UNL A   1      41.638  28.290  30.735  1.00  0.00     0.049 A 
ATOM     56  C   UNL A   1      40.734  31.337  35.352  1.00  0.00     0.074 A 
ATOM     57  C   UNL A   1      42.738  27.452  30.750  1.00  0.00     0.029 A 
ATOM     58  N   UNL A   1      41.600  28.921  31.971  1.00  0.00    -0.354 N 
ATOM     59  N   UNL A   1      41.077  30.566  34.348  1.00  0.00    -0.248 NA
ATOM     60  C   UNL A   1      41.580  31.186  36.543  1.00  0.00     0.031 C 
ATOM     61  C   UNL A   1      43.340  27.541  32.010  1.00  0.00     0.029 A 
ATOM     62  C   UNL A   1      42.643  28.472  32.766  1.00  0.00     0.049 A 
ATOM     63  H   UNL A   1      40.930  29.590  32.244  1.00  0.00     0.167 HD
ATOM     64  C   UNL A   1      42.187  29.853  34.777  1.00  0.00     0.074 A 
ATOM     65  C   UNL A   1      42.470  30.295  36.127  1.00  0.00     0.031 C 
ATOM     66  C   UNL A   1      42.907  28.917  34.110  1.00  0.00     0.037 A 
BRANCH  53  67
ATOM     67  C   UNL A   1      40.786  27.664  28.438  1.00  0.00     0.064 A 
ATOM     68  C   UNL A   1      41.558  28.062  27.336  1.00  0.00     0.173 A 
ATOM     69  C   UNL A   1      40.107  26.439  28.353  1.00  0.00     0.173 A 
ATOM     70  F   UNL A   1      42.219  29.229  27.360  1.00  0.00    -0.203 F 
ATOM     71  C   UNL A   1      41.610  27.289  26.179  1.00  0.00     0.198 A 
ATOM     72  C   UNL A   1      40.188  25.653  27.206  1.00  0.00     0.198 A 
ATOM     73  F   UNL A   1      39.361  26.005  29.380  1.00  0.00    -0.203 F 
ATOM     74  F   UNL A   1      42.300  27.723  25.115  1.00  0.00    -0.200 F 
ATOM     75  C   UNL A   1      40.928  26.084  26.116  1.00  0.00     0.200 A 
ATOM     76  F   UNL A   1      39.539  24.481  27.152  1.00  0.00    -0.200 F 
ATOM     77  F   UNL A   1      40.976  25.341  25.001  1.00  0.00    -0.200 F 
ENDBRANCH  53  67
BRANCH  54  78
ATOM     78  C   UNL A   1      39.365  33.110  36.681  1.00  0.00     0.064 A 
ATOM     79  C   UNL A   1      40.016  34.330  36.910  1.00  0.00     0.173 A 
ATOM     80  C   UNL A   1      38.439  32.673  37.639  1.00  0.00     0.173 A 
ATOM     81  F   UNL A   1      40.920  34.780  36.029  1.00  0.00    -0.203 F 
ATOM     82  C   UNL A   1      39.754  35.080  38.054  1.00  0.00     0.198 A 
ATOM     83  C   UNL A   1      38.161  33.436  38.771  1.00  0.00     0.198 A 
ATOM     84  F   UNL A   1      37.782  31.517  37.460  1.00  0.00    -0.203 F 
ATOM     85  F   UNL A   1      40.408  36.232  38.260  1.00  0.00    -0.200 F 
ATOM     86  C   UNL A   1      38.821  34.638  38.979  1.00  0.00     0.200 A 
ATOM     87  F   UNL A   1      37.243  33.015  39.653  1.00  0.00    -0.200 F 
ATOM     88  F   UNL A   1      38.556  35.369  40.069  1.00  0.00    -0.200 F 
ENDBRANCH  54  78
BRANCH  66  89
ATOM     89  C   UNL A   1      44.084  28.319  34.825  1.00  0.00     0.064 A 
ATOM     90  C   UNL A   1      45.349  28.924  34.788  1.00  0.00     0.173 A 
ATOM     91  C   UNL A   1      43.933  27.152  35.589  1.00  0.00     0.173 A 
ATOM     92  F   UNL A   1      45.547  30.032  34.059  1.00  0.00    -0.203 F 
ATOM     93  C   UNL A   1      46.426  28.368  35.475  1.00  0.00     0.198 A 
ATOM     94  C   UNL A   1      45.005  26.616  36.296  1.00  0.00     0.198 A 
ATOM     95  F   UNL A   1      42.742  26.539  35.660  1.00  0.00    -0.203 F 
ATOM     96  F   UNL A   1      47.636  28.938  35.392  1.00  0.00    -0.200 F 
ATOM     97  C   UNL A   1      46.251  27.221  36.234  1.00  0.00     0.200 A 
ATOM     98  F   UNL A   1      44.832  25.513  37.039  1.00  0.00    -0.200 F 
ATOM     99  F   UNL A   1      47.288  26.693  36.900  1.00  0.00    -0.200 F 
ENDBRANCH  66  89
ENDBRANCH  40  41
ENDBRANCH  32  35
ENDBRANCH  30  31
ENDBRANCH  29  30
ENDBRANCH   1  29
TORSDOF 15
ENDMDL
MODEL 2
REMARK VINA RESULT:     -13.0      0.464      7.166
REMARK SMILES CSc1ccc(-c2cc(C[C@H]3CCCC3=O)ccc2[C@@H](C)C(=O)NCCCNC(=O)c2ccc(-c3c4nc(c(-c5c(F)c(F)c(F)c(F)c5F)c5ccc([nH]5)c(-c5c(F)c(F)c(F)c(F)c5F)c5nc(c(-c6c(F)c(F)c(F)c(F)c6F)c6ccc3[nH]6)C=C5)C=C4)cc2)cc1
REMARK SMILES IDX 25 1 24 2 22 3 23 4 20 6 21 7 19 8 7 9 8 10 9 11 18 12 17 13
REMARK SMILES IDX 6 14 3 15 4 16 95 17 5 18 94 19 2 20 1 21 10 22 11 23 12 24
REMARK SMILES IDX 15 25 13 26 14 27 16 28 26 29 27 30 28 31 29 32 30 34 31 35
REMARK SMILES IDX 32 36 93 37 33 38 92 39 34 40 35 41 36 42 86 43 37 44 91 45
REMARK SMILES IDX 85 46 87 47 38 48 90 49 84 50 83 51 39 53 71 54 51 55 70 56
REMARK SMILES IDX 52 57 55 58 69 59 88 60 53 61 54 62 68 64 89 65 56 66 40 67
REMARK SMILES IDX 41 68 49 69 42 70 43 71 47 72 50 73 44 74 45 75 48 76 46 77
REMARK SMILES IDX 72 78 73 79 81 80 74 81 75 82 79 83 82 84 76 85 77 86 80 87
REMARK SMILES IDX 78 88 57 89 58 90 66 91 59 92 60 93 64 94 67 95 61 96 62 97
REMARK SMILES IDX 65 98 63 99
REMARK H PARENT 24 5 28 33 87 52 55 63
REMARK Flexibility Score: inf
ROOT
ATOM      1  C   UNL A   1      30.989  31.130  25.375  1.00  0.00     0.117 C 
ENDROOT
BRANCH   1   2
ATOM      2  N   UNL A   1      32.174  30.303  25.277  1.00  0.00    -0.356 N 
ATOM      3  C   UNL A   1      32.441  29.021  25.649  1.00  0.00     0.227 C 
ATOM      4  O   UNL A   1      33.617  28.661  25.506  1.00  0.00    -0.274 OA
ATOM      5  H   UNL A   1      32.940  30.759  24.858  1.00  0.00     0.163 HD
BRANCH   3   6
ATOM      6  C   UNL A   1      31.403  28.041  26.229  1.00  0.00     0.106 C 
ATOM      7  C   UNL A   1      31.403  27.896  27.750  1.00  0.00     0.023 C 
BRANCH   6   8
ATOM      8  C   UNL A   1      31.336  26.726  25.454  1.00  0.00    -0.028 A 
ATOM      9  C   UNL A   1      30.940  26.663  24.096  1.00  0.00    -0.014 A 
ATOM     10  C   UNL A   1      31.039  25.434  23.406  1.00  0.00     0.012 A 
ATOM     11  C   UNL A   1      31.419  24.254  24.058  1.00  0.00    -0.047 A 
ATOM     12  C   UNL A   1      31.675  25.524  26.094  1.00  0.00     0.005 A 
ATOM     13  C   UNL A   1      31.743  24.314  25.411  1.00  0.00     0.004 A 
BRANCH   9  14
ATOM     14  C   UNL A   1      30.192  27.751  23.445  1.00  0.00    -0.018 A 
ATOM     15  C   UNL A   1      28.890  29.836  22.046  1.00  0.00     0.007 A 
ATOM     16  C   UNL A   1      30.276  29.703  21.977  1.00  0.00     0.015 A 
ATOM     17  C   UNL A   1      28.158  28.915  22.807  1.00  0.00     0.015 A 
ATOM     18  C   UNL A   1      30.914  28.675  22.670  1.00  0.00     0.010 A 
ATOM     19  C   UNL A   1      28.802  27.887  23.512  1.00  0.00     0.010 A 
BRANCH  15  20
ATOM     20  S   UNL A   1      28.028  31.095  21.122  1.00  0.00    -0.130 SA
ATOM     21  C   UNL A   1      28.407  32.566  22.115  1.00  0.00     0.091 C 
ENDBRANCH  15  20
ENDBRANCH   9  14
BRANCH  11  22
ATOM     22  C   UNL A   1      31.326  22.914  23.371  1.00  0.00     0.047 C 
BRANCH  22  23
ATOM     23  C   UNL A   1      32.660  22.372  22.835  1.00  0.00     0.060 C 
ATOM     24  C   UNL A   1      33.709  23.395  22.375  1.00  0.00     0.012 C 
ATOM     25  C   UNL A   1      33.419  21.611  23.898  1.00  0.00     0.136 C 
ATOM     26  C   UNL A   1      34.652  23.598  23.557  1.00  0.00     0.009 C 
ATOM     27  C   UNL A   1      34.754  22.231  24.215  1.00  0.00     0.076 C 
ATOM     28  O   UNL A   1      33.005  20.587  24.429  1.00  0.00    -0.299 OA
ENDBRANCH  22  23
ENDBRANCH  11  22
ENDBRANCH   6   8
ENDBRANCH   3   6
ENDBRANCH   1   2
BRANCH   1  29
ATOM     29  C   UNL A   1      31.067  32.111  26.545  1.00  0.00     0.042 C 
BRANCH  29  30
ATOM     30  C   UNL A   1      32.480  32.540  26.906  1.00  0.00     0.118 C 
BRANCH  30  31
ATOM     31  N   UNL A   1      32.530  33.914  27.382  1.00  0.00    -0.352 N 
ATOM     32  C   UNL A   1      33.275  34.494  28.377  1.00  0.00     0.251 C 
ATOM     33  H   UNL A   1      31.926  34.532  26.909  1.00  0.00     0.163 HD
ATOM     34  O   UNL A   1      32.981  35.624  28.758  1.00  0.00    -0.269 OA
BRANCH  32  35
ATOM     35  C   UNL A   1      34.418  33.789  29.005  1.00  0.00     0.039 A 
ATOM     36  C   UNL A   1      34.151  32.734  29.885  1.00  0.00     0.014 A 
ATOM     37  C   UNL A   1      35.739  34.198  28.803  1.00  0.00     0.014 A 
ATOM     38  C   UNL A   1      35.201  32.067  30.522  1.00  0.00     0.010 A 
ATOM     39  C   UNL A   1      36.789  33.478  29.369  1.00  0.00     0.010 A 
ATOM     40  C   UNL A   1      36.532  32.417  30.249  1.00  0.00    -0.014 A 
BRANCH  40  41
ATOM     41  C   UNL A   1      37.666  31.708  30.895  1.00  0.00     0.031 A 
ATOM     42  C   UNL A   1      38.097  32.081  32.287  1.00  0.00     0.074 A 
ATOM     43  C   UNL A   1      38.355  30.783  30.203  1.00  0.00     0.049 A 
ATOM     44  N   UNL A   1      39.109  31.638  32.989  1.00  0.00    -0.248 NA
ATOM     45  C   UNL A   1      37.303  33.116  32.967  1.00  0.00     0.031 C 
ATOM     46  C   UNL A   1      38.073  30.376  28.826  1.00  0.00     0.029 A 
ATOM     47  N   UNL A   1      39.447  30.030  30.556  1.00  0.00    -0.354 N 
ATOM     48  C   UNL A   1      39.089  32.358  34.177  1.00  0.00     0.074 A 
ATOM     49  C   UNL A   1      37.996  33.301  34.080  1.00  0.00     0.031 C 
ATOM     50  C   UNL A   1      38.959  29.438  28.456  1.00  0.00     0.029 A 
ATOM     51  C   UNL A   1      39.890  29.202  29.555  1.00  0.00     0.049 A 
ATOM     52  H   UNL A   1      39.871  30.079  31.443  1.00  0.00     0.167 HD
ATOM     53  C   UNL A   1      39.895  32.230  35.258  1.00  0.00     0.037 A 
ATOM     54  C   UNL A   1      40.936  28.354  29.523  1.00  0.00     0.037 A 
ATOM     55  C   UNL A   1      40.958  31.265  35.364  1.00  0.00     0.049 A 
ATOM     56  C   UNL A   1      41.799  28.205  30.744  1.00  0.00     0.074 A 
ATOM     57  C   UNL A   1      41.775  30.993  36.446  1.00  0.00     0.029 A 
ATOM     58  N   UNL A   1      41.353  30.414  34.341  1.00  0.00    -0.354 N 
ATOM     59  N   UNL A   1      41.722  28.832  31.893  1.00  0.00    -0.248 NA
ATOM     60  C   UNL A   1      42.888  27.222  30.669  1.00  0.00     0.031 C 
ATOM     61  C   UNL A   1      42.694  30.010  36.065  1.00  0.00     0.029 A 
ATOM     62  C   UNL A   1      42.420  29.634  34.759  1.00  0.00     0.049 A 
ATOM     63  H   UNL A   1      40.938  30.371  33.449  1.00  0.00     0.167 HD
ATOM     64  C   UNL A   1      42.736  28.311  32.683  1.00  0.00     0.074 A 
ATOM     65  C   UNL A   1      43.406  27.302  31.887  1.00  0.00     0.031 C 
ATOM     66  C   UNL A   1      43.080  28.638  33.953  1.00  0.00     0.037 A 
BRANCH  53  67
ATOM     67  C   UNL A   1      39.657  33.164  36.411  1.00  0.00     0.064 A 
ATOM     68  C   UNL A   1      38.762  32.849  37.445  1.00  0.00     0.173 A 
ATOM     69  C   UNL A   1      40.337  34.388  36.486  1.00  0.00     0.173 A 
ATOM     70  F   UNL A   1      38.077  31.696  37.418  1.00  0.00    -0.203 F 
ATOM     71  C   UNL A   1      38.524  33.743  38.485  1.00  0.00     0.198 A 
ATOM     72  C   UNL A   1      40.121  35.266  37.545  1.00  0.00     0.198 A 
ATOM     73  F   UNL A   1      41.211  34.737  35.529  1.00  0.00    -0.203 F 
ATOM     74  F   UNL A   1      37.615  33.449  39.426  1.00  0.00    -0.200 F 
ATOM     75  C   UNL A   1      39.206  34.949  38.537  1.00  0.00     0.200 A 
ATOM     76  F   UNL A   1      40.792  36.426  37.600  1.00  0.00    -0.200 F 
ATOM     77  F   UNL A   1      38.974  35.810  39.537  1.00  0.00    -0.200 F 
ENDBRANCH  53  67
BRANCH  54  78
ATOM     78  C   UNL A   1      41.192  27.561  28.295  1.00  0.00     0.064 A 
ATOM     79  C   UNL A   1      42.076  28.025  27.311  1.00  0.00     0.173 A 
ATOM     80  C   UNL A   1      40.597  26.306  28.100  1.00  0.00     0.173 A 
ATOM     81  F   UNL A   1      42.655  29.227  27.447  1.00  0.00    -0.203 F 
ATOM     82  C   UNL A   1      42.351  27.266  26.176  1.00  0.00     0.198 A 
ATOM     83  C   UNL A   1      40.893  25.537  26.976  1.00  0.00     0.198 A 
ATOM     84  F   UNL A   1      39.753  25.813  29.018  1.00  0.00    -0.203 F 
ATOM     85  F   UNL A   1      43.183  27.744  25.240  1.00  0.00    -0.200 F 
ATOM     86  C   UNL A   1      41.767  26.019  26.014  1.00  0.00     0.200 A 
ATOM     87  F   UNL A   1      40.342  24.324  26.832  1.00  0.00    -0.200 F 
ATOM     88  F   UNL A   1      42.048  25.281  24.932  1.00  0.00    -0.200 F 
ENDBRANCH  54  78
BRANCH  66  89
ATOM     89  C   UNL A   1      44.222  27.885  34.570  1.00  0.00     0.064 A 
ATOM     90  C   UNL A   1      44.023  26.667  35.236  1.00  0.00     0.173 A 
ATOM     91  C   UNL A   1      45.535  28.368  34.457  1.00  0.00     0.173 A 
ATOM     92  F   UNL A   1      42.785  26.172  35.384  1.00  0.00    -0.203 F 
ATOM     93  C   UNL A   1      45.097  25.969  35.784  1.00  0.00     0.198 A 
ATOM     94  C   UNL A   1      46.608  27.654  34.982  1.00  0.00     0.198 A 
ATOM     95  F   UNL A   1      45.778  29.526  33.825  1.00  0.00    -0.203 F 
ATOM     96  F   UNL A   1      44.880  24.829  36.453  1.00  0.00    -0.200 F 
ATOM     97  C   UNL A   1      46.387  26.459  35.650  1.00  0.00     0.200 A 
ATOM     98  F   UNL A   1      47.856  28.122  34.841  1.00  0.00    -0.200 F 
ATOM     99  F   UNL A   1      47.420  25.781  36.172  1.00  0.00    -0.200 F 
ENDBRANCH  66  89
ENDBRANCH  40  41
ENDBRANCH  32  35
ENDBRANCH  30  31
ENDBRANCH  29  30
ENDBRANCH   1  29
TORSDOF 15
ENDMDL
MODEL 3
REMARK VINA RESULT:     -13.0      5.479     11.015
REMARK SMILES CSc1ccc(-c2cc(C[C@H]3CCCC3=O)ccc2[C@@H](C)C(=O)NCCCNC(=O)c2ccc(-c3c4nc(c(-c5c(F)c(F)c(F)c(F)c5F)c5ccc([nH]5)c(-c5c(F)c(F)c(F)c(F)c5F)c5nc(c(-c6c(F)c(F)c(F)c(F)c6F)c6ccc3[nH]6)C=C5)C=C4)cc2)cc1
REMARK SMILES IDX 25 1 24 2 22 3 23 4 20 6 21 7 19 8 7 9 8 10 9 11 18 12 17 13
REMARK SMILES IDX 6 14 3 15 4 16 95 17 5 18 94 19 2 20 1 21 10 22 11 23 12 24
REMARK SMILES IDX 15 25 13 26 14 27 16 28 26 29 27 30 28 31 29 32 30 34 31 35
REMARK SMILES IDX 32 36 93 37 33 38 92 39 34 40 35 41 36 42 86 43 37 44 91 45
REMARK SMILES IDX 85 46 87 47 38 48 90 49 84 50 83 51 39 53 71 54 51 55 70 56
REMARK SMILES IDX 52 57 55 58 69 59 88 60 53 61 54 62 68 64 89 65 56 66 40 67
REMARK SMILES IDX 41 68 49 69 42 70 43 71 47 72 50 73 44 74 45 75 48 76 46 77
REMARK SMILES IDX 72 78 73 79 81 80 74 81 75 82 79 83 82 84 76 85 77 86 80 87
REMARK SMILES IDX 78 88 57 89 58 90 66 91 59 92 60 93 64 94 67 95 61 96 62 97
REMARK SMILES IDX 65 98 63 99
REMARK H PARENT 24 5 28 33 87 52 55 63
REMARK Flexibility Score: inf
ROOT
ATOM      1  C   UNL A   1      36.554  19.611  25.060  1.00  0.00     0.117 C 
ENDROOT
BRANCH   1   2
ATOM      2  N   UNL A   1      36.235  20.862  25.717  1.00  0.00    -0.356 N 
ATOM      3  C   UNL A   1      35.778  22.059  25.256  1.00  0.00     0.227 C 
ATOM      4  O   UNL A   1      35.713  22.962  26.100  1.00  0.00    -0.274 OA
ATOM      5  H   UNL A   1      36.376  20.842  26.691  1.00  0.00     0.163 HD
BRANCH   3   6
ATOM      6  C   UNL A   1      35.371  22.340  23.797  1.00  0.00     0.106 C 
ATOM      7  C   UNL A   1      36.451  22.964  22.914  1.00  0.00     0.023 C 
BRANCH   6   8
ATOM      8  C   UNL A   1      33.991  22.985  23.684  1.00  0.00    -0.028 A 
ATOM      9  C   UNL A   1      32.812  22.345  24.137  1.00  0.00    -0.014 A 
ATOM     10  C   UNL A   1      31.593  23.060  24.130  1.00  0.00     0.012 A 
ATOM     11  C   UNL A   1      31.501  24.349  23.590  1.00  0.00    -0.047 A 
ATOM     12  C   UNL A   1      33.865  24.262  23.112  1.00  0.00     0.005 A 
ATOM     13  C   UNL A   1      32.653  24.945  23.086  1.00  0.00     0.004 A 
BRANCH   9  14
ATOM     14  C   UNL A   1      32.749  20.893  24.372  1.00  0.00    -0.018 A 
ATOM     15  C   UNL A   1      32.713  18.078  24.643  1.00  0.00     0.007 A 
ATOM     16  C   UNL A   1      32.575  18.664  23.386  1.00  0.00     0.015 A 
ATOM     17  C   UNL A   1      32.881  18.905  25.762  1.00  0.00     0.015 A 
ATOM     18  C   UNL A   1      32.591  20.052  23.256  1.00  0.00     0.010 A 
ATOM     19  C   UNL A   1      32.887  20.303  25.631  1.00  0.00     0.010 A 
BRANCH  15  20
ATOM     20  S   UNL A   1      32.767  16.306  24.845  1.00  0.00    -0.130 SA
ATOM     21  C   UNL A   1      34.531  16.057  25.194  1.00  0.00     0.091 C 
ENDBRANCH  15  20
ENDBRANCH   9  14
BRANCH  11  22
ATOM     22  C   UNL A   1      30.166  25.024  23.399  1.00  0.00     0.047 C 
BRANCH  22  23
ATOM     23  C   UNL A   1      29.797  26.042  24.489  1.00  0.00     0.060 C 
ATOM     24  C   UNL A   1      30.368  25.813  25.897  1.00  0.00     0.012 C 
ATOM     25  C   UNL A   1      30.326  27.421  24.165  1.00  0.00     0.136 C 
ATOM     26  C   UNL A   1      31.625  26.671  25.991  1.00  0.00     0.009 C 
ATOM     27  C   UNL A   1      31.304  27.925  25.193  1.00  0.00     0.076 C 
ATOM     28  O   UNL A   1      29.981  28.069  23.185  1.00  0.00    -0.299 OA
ENDBRANCH  22  23
ENDBRANCH  11  22
ENDBRANCH   6   8
ENDBRANCH   3   6
ENDBRANCH   1   2
BRANCH   1  29
ATOM     29  C   UNL A   1      38.034  19.516  24.691  1.00  0.00     0.042 C 
BRANCH  29  30
ATOM     30  C   UNL A   1      38.981  19.961  25.794  1.00  0.00     0.118 C 
BRANCH  30  31
ATOM     31  N   UNL A   1      40.118  19.063  25.934  1.00  0.00    -0.352 N 
ATOM     32  C   UNL A   1      41.456  19.324  26.084  1.00  0.00     0.251 C 
ATOM     33  H   UNL A   1      39.887  18.106  25.919  1.00  0.00     0.163 HD
ATOM     34  O   UNL A   1      42.260  18.406  25.949  1.00  0.00    -0.269 OA
BRANCH  32  35
ATOM     35  C   UNL A   1      41.954  20.685  26.396  1.00  0.00     0.039 A 
ATOM     36  C   UNL A   1      42.262  20.996  27.726  1.00  0.00     0.014 A 
ATOM     37  C   UNL A   1      42.048  21.679  25.419  1.00  0.00     0.014 A 
ATOM     38  C   UNL A   1      42.702  22.278  28.064  1.00  0.00     0.010 A 
ATOM     39  C   UNL A   1      42.570  22.930  25.741  1.00  0.00     0.010 A 
ATOM     40  C   UNL A   1      42.884  23.250  27.070  1.00  0.00    -0.014 A 
BRANCH  40  41
ATOM     41  C   UNL A   1      43.372  24.613  27.400  1.00  0.00     0.031 A 
ATOM     42  C   UNL A   1      42.430  25.638  27.969  1.00  0.00     0.074 A 
ATOM     43  C   UNL A   1      44.644  24.952  27.119  1.00  0.00     0.049 A 
ATOM     44  N   UNL A   1      42.644  26.899  28.247  1.00  0.00    -0.248 NA
ATOM     45  C   UNL A   1      41.052  25.192  28.228  1.00  0.00     0.031 C 
ATOM     46  C   UNL A   1      45.639  24.067  26.513  1.00  0.00     0.029 A 
ATOM     47  N   UNL A   1      45.313  26.138  27.289  1.00  0.00    -0.354 N 
ATOM     48  C   UNL A   1      41.425  27.401  28.685  1.00  0.00     0.074 A 
ATOM     49  C   UNL A   1      40.465  26.323  28.589  1.00  0.00     0.031 C 
ATOM     50  C   UNL A   1      46.794  24.736  26.374  1.00  0.00     0.029 A 
ATOM     51  C   UNL A   1      46.613  26.104  26.850  1.00  0.00     0.049 A 
ATOM     52  H   UNL A   1      44.900  26.938  27.689  1.00  0.00     0.167 HD
ATOM     53  C   UNL A   1      41.138  28.643  29.146  1.00  0.00     0.037 A 
ATOM     54  C   UNL A   1      47.551  27.070  26.826  1.00  0.00     0.037 A 
ATOM     55  C   UNL A   1      42.104  29.701  29.274  1.00  0.00     0.049 A 
ATOM     56  C   UNL A   1      47.221  28.431  27.369  1.00  0.00     0.074 A 
ATOM     57  C   UNL A   1      41.937  30.965  29.810  1.00  0.00     0.029 A 
ATOM     58  N   UNL A   1      43.425  29.616  28.853  1.00  0.00    -0.354 N 
ATOM     59  N   UNL A   1      46.086  28.873  27.857  1.00  0.00    -0.248 NA
ATOM     60  C   UNL A   1      48.303  29.425  27.369  1.00  0.00     0.031 C 
ATOM     61  C   UNL A   1      43.143  31.661  29.674  1.00  0.00     0.029 A 
ATOM     62  C   UNL A   1      44.077  30.815  29.096  1.00  0.00     0.049 A 
ATOM     63  H   UNL A   1      43.837  28.822  28.443  1.00  0.00     0.167 HD
ATOM     64  C   UNL A   1      46.320  30.186  28.239  1.00  0.00     0.074 A 
ATOM     65  C   UNL A   1      47.710  30.465  27.940  1.00  0.00     0.031 C 
ATOM     66  C   UNL A   1      45.460  31.079  28.787  1.00  0.00     0.037 A 
BRANCH  53  67
ATOM     67  C   UNL A   1      39.714  28.920  29.539  1.00  0.00     0.064 A 
ATOM     68  C   UNL A   1      38.779  29.426  28.623  1.00  0.00     0.173 A 
ATOM     69  C   UNL A   1      39.277  28.669  30.848  1.00  0.00     0.173 A 
ATOM     70  F   UNL A   1      39.146  29.693  27.361  1.00  0.00    -0.203 F 
ATOM     71  C   UNL A   1      37.474  29.714  29.014  1.00  0.00     0.198 A 
ATOM     72  C   UNL A   1      37.962  28.928  31.227  1.00  0.00     0.198 A 
ATOM     73  F   UNL A   1      40.126  28.177  31.763  1.00  0.00    -0.203 F 
ATOM     74  F   UNL A   1      36.618  30.259  28.138  1.00  0.00    -0.200 F 
ATOM     75  C   UNL A   1      37.065  29.461  30.314  1.00  0.00     0.200 A 
ATOM     76  F   UNL A   1      37.564  28.670  32.481  1.00  0.00    -0.200 F 
ATOM     77  F   UNL A   1      35.810  29.741  30.690  1.00  0.00    -0.200 F 
ENDBRANCH  53  67
BRANCH  54  78
ATOM     78  C   UNL A   1      48.902  26.758  26.292  1.00  0.00     0.064 A 
ATOM     79  C   UNL A   1      49.230  27.040  24.960  1.00  0.00     0.173 A 
ATOM     80  C   UNL A   1      49.902  26.217  27.113  1.00  0.00     0.173 A 
ATOM     81  F   UNL A   1      48.301  27.543  24.134  1.00  0.00    -0.203 F 
ATOM     82  C   UNL A   1      50.509  26.788  24.466  1.00  0.00     0.198 A 
ATOM     83  C   UNL A   1      51.187  25.988  26.624  1.00  0.00     0.198 A 
ATOM     84  F   UNL A   1      49.640  25.940  28.399  1.00  0.00    -0.203 F 
ATOM     85  F   UNL A   1      50.790  27.045  23.181  1.00  0.00    -0.200 F 
ATOM     86  C   UNL A   1      51.488  26.271  25.301  1.00  0.00     0.200 A 
ATOM     87  F   UNL A   1      52.136  25.508  27.439  1.00  0.00    -0.200 F 
ATOM     88  F   UNL A   1      52.722  26.047  24.830  1.00  0.00    -0.200 F 
ENDBRANCH  54  78
BRANCH  66  89
ATOM     89  C   UNL A   1      46.001  32.439  29.119  1.00  0.00     0.064 A 
ATOM     90  C   UNL A   1      46.614  32.704  30.353  1.00  0.00     0.173 A 
ATOM     91  C   UNL A   1      45.945  33.476  28.175  1.00  0.00     0.173 A 
ATOM     92  F   UNL A   1      46.678  31.750  31.294  1.00  0.00    -0.203 F 
ATOM     93  C   UNL A   1      47.131  33.965  30.637  1.00  0.00     0.198 A 
ATOM     94  C   UNL A   1      46.488  34.726  28.452  1.00  0.00     0.198 A 
ATOM     95  F   UNL A   1      45.374  33.271  26.978  1.00  0.00    -0.203 F 
ATOM     96  F   UNL A   1      47.674  34.209  31.837  1.00  0.00    -0.200 F 
ATOM     97  C   UNL A   1      47.076  34.972  29.685  1.00  0.00     0.200 A 
ATOM     98  F   UNL A   1      46.444  35.696  27.527  1.00  0.00    -0.200 F 
ATOM     99  F   UNL A   1      47.582  36.183  29.958  1.00  0.00    -0.200 F 
ENDBRANCH  66  89
ENDBRANCH  40  41
ENDBRANCH  32  35
ENDBRANCH  30  31
ENDBRANCH  29  30
ENDBRANCH   1  29
TORSDOF 15
ENDMDL
