MODEL 1
REMARK VINA RESULT:     -11.9      0.000      0.000
REMARK SMILES C[C@H](NC(=O)OCc1ccccc1)C(=O)NCC(=O)N1CCC[C@H]1C(=O)NCCCNC(=O)c1ccc(-c2c3nc(c(-c4c(F)c(F)c(F)c(F)c4F)c4ccc([nH]4)c(-c4c(F)c(F)c(F)c(F)c4F)c4nc(c(-c5c(F)c(F)c(F)c(F)c5F)c5ccc2[nH]5)C=C4)C=C3)cc1
REMARK SMILES IDX 20 1 21 2 22 3 23 4 24 5 18 6 19 7 17 8 16 9 14 10 15 11
REMARK SMILES IDX 2 13 1 14 3 15 4 16 5 18 6 19 7 20 8 21 9 22 13 23 10 24
REMARK SMILES IDX 12 25 11 26 25 27 26 28 27 29 28 31 29 32 30 33 31 34 32 35
REMARK SMILES IDX 33 37 34 38 35 39 96 40 36 41 95 42 37 43 38 44 39 45 89 46
REMARK SMILES IDX 40 47 94 48 88 49 90 50 41 51 93 52 87 53 86 54 42 56 74 57
REMARK SMILES IDX 54 58 73 59 55 60 58 61 72 62 91 63 56 64 57 65 71 67 92 68
REMARK SMILES IDX 59 69 43 70 44 71 52 72 45 73 46 74 50 75 53 76 47 77 48 78
REMARK SMILES IDX 51 79 49 80 75 81 76 82 84 83 77 84 78 85 82 86 85 87 79 88
REMARK SMILES IDX 80 89 83 90 81 91 60 92 61 93 69 94 62 95 63 96 67 97 70 98
REMARK SMILES IDX 64 99 65 100 68 101 66 102
REMARK H PARENT 16 12 3 17 27 30 31 36 90 55 58 66
REMARK Flexibility Score: inf
ROOT
ATOM      1  N   UNL A   1      33.766  23.041  25.722  1.00  0.00    -0.329 N 
ATOM      2  C   UNL A   1      32.502  23.159  26.418  1.00  0.00     0.120 C 
ATOM      3  C   UNL A   1      32.792  22.666  27.830  1.00  0.00     0.024 C 
ATOM      4  C   UNL A   1      34.053  21.798  27.729  1.00  0.00     0.037 C 
ATOM      5  C   UNL A   1      34.557  21.943  26.293  1.00  0.00     0.174 C 
ENDROOT
BRANCH   1   6
ATOM      6  C   UNL A   1      34.308  23.773  24.687  1.00  0.00     0.242 C 
ATOM      7  O   UNL A   1      35.511  24.061  24.693  1.00  0.00    -0.273 OA
BRANCH   6   8
ATOM      8  C   UNL A   1      33.424  24.492  23.651  1.00  0.00     0.216 C 
BRANCH   8   9
ATOM      9  N   UNL A   1      32.098  24.010  23.316  1.00  0.00    -0.345 N 
ATOM     10  C   UNL A   1      30.872  24.579  23.522  1.00  0.00     0.242 C 
ATOM     11  O   UNL A   1      29.902  24.038  22.984  1.00  0.00    -0.273 OA
ATOM     12  H   UNL A   1      32.078  23.133  22.870  1.00  0.00     0.164 HD
BRANCH  10  13
ATOM     13  C   UNL A   1      30.713  25.904  24.307  1.00  0.00     0.171 C 
ATOM     14  C   UNL A   1      29.969  25.652  25.614  1.00  0.00     0.042 C 
BRANCH  13  15
ATOM     15  N   UNL A   1      30.083  26.909  23.461  1.00  0.00    -0.310 N 
ATOM     16  C   UNL A   1      30.631  27.803  22.607  1.00  0.00     0.408 C 
ATOM     17  H   UNL A   1      29.102  26.942  23.521  1.00  0.00     0.167 HD
ATOM     18  O   UNL A   1      29.908  28.586  22.002  1.00  0.00    -0.225 OA
BRANCH  16  19
ATOM     19  O   UNL A   1      31.977  27.759  22.562  1.00  0.00    -0.445 OA
BRANCH  19  20
ATOM     20  C   UNL A   1      32.610  28.953  23.039  1.00  0.00     0.270 C 
BRANCH  20  21
ATOM     21  C   UNL A   1      32.816  28.931  24.532  1.00  0.00    -0.011 A 
ATOM     22  C   UNL A   1      33.820  28.139  25.104  1.00  0.00     0.007 A 
ATOM     23  C   UNL A   1      31.995  29.699  25.369  1.00  0.00     0.007 A 
ATOM     24  C   UNL A   1      33.993  28.111  26.488  1.00  0.00     0.000 A 
ATOM     25  C   UNL A   1      32.168  29.670  26.752  1.00  0.00     0.000 A 
ATOM     26  C   UNL A   1      33.166  28.873  27.311  1.00  0.00     0.000 A 
ENDBRANCH  20  21
ENDBRANCH  19  20
ENDBRANCH  16  19
ENDBRANCH  13  15
ENDBRANCH  10  13
ENDBRANCH   8   9
ENDBRANCH   6   8
ENDBRANCH   1   6
BRANCH   5  27
ATOM     27  C   UNL A   1      34.586  20.632  25.468  1.00  0.00     0.242 C 
ATOM     28  O   UNL A   1      33.556  19.970  25.294  1.00  0.00    -0.273 OA
ATOM     29  N   UNL A   1      35.709  20.119  24.895  1.00  0.00    -0.354 N 
ATOM     30  H   UNL A   1      35.582  19.222  24.509  1.00  0.00     0.163 HD
BRANCH  29  31
ATOM     31  C   UNL A   1      37.050  20.635  24.742  1.00  0.00     0.117 C 
BRANCH  31  32
ATOM     32  C   UNL A   1      38.110  19.579  25.001  1.00  0.00     0.042 C 
BRANCH  32  33
ATOM     33  C   UNL A   1      39.264  20.090  25.847  1.00  0.00     0.118 C 
BRANCH  33  34
ATOM     34  N   UNL A   1      40.337  19.109  25.966  1.00  0.00    -0.352 N 
ATOM     35  C   UNL A   1      41.688  19.279  26.123  1.00  0.00     0.251 C 
ATOM     36  H   UNL A   1      40.042  18.171  25.928  1.00  0.00     0.163 HD
ATOM     37  O   UNL A   1      42.444  18.329  25.948  1.00  0.00    -0.269 OA
BRANCH  35  38
ATOM     38  C   UNL A   1      42.237  20.602  26.487  1.00  0.00     0.039 A 
ATOM     39  C   UNL A   1      42.739  21.427  25.478  1.00  0.00     0.014 A 
ATOM     40  C   UNL A   1      42.280  21.022  27.818  1.00  0.00     0.014 A 
ATOM     41  C   UNL A   1      43.218  22.696  25.800  1.00  0.00     0.010 A 
ATOM     42  C   UNL A   1      42.653  22.325  28.123  1.00  0.00     0.010 A 
ATOM     43  C   UNL A   1      43.136  23.172  27.119  1.00  0.00    -0.014 A 
BRANCH  43  44
ATOM     44  C   UNL A   1      43.553  24.555  27.461  1.00  0.00     0.031 A 
ATOM     45  C   UNL A   1      42.525  25.590  27.827  1.00  0.00     0.074 A 
ATOM     46  C   UNL A   1      44.856  24.887  27.388  1.00  0.00     0.049 A 
ATOM     47  N   UNL A   1      42.693  26.854  28.123  1.00  0.00    -0.248 NA
ATOM     48  C   UNL A   1      41.117  25.158  27.835  1.00  0.00     0.031 C 
ATOM     49  C   UNL A   1      45.937  23.985  26.985  1.00  0.00     0.029 A 
ATOM     50  N   UNL A   1      45.495  26.073  27.647  1.00  0.00    -0.354 N 
ATOM     51  C   UNL A   1      41.421  27.365  28.339  1.00  0.00     0.074 A 
ATOM     52  C   UNL A   1      40.483  26.295  28.079  1.00  0.00     0.031 C 
ATOM     53  C   UNL A   1      47.107  24.638  27.058  1.00  0.00     0.029 A 
ATOM     54  C   UNL A   1      46.856  26.015  27.468  1.00  0.00     0.049 A 
ATOM     55  H   UNL A   1      45.023  26.888  27.933  1.00  0.00     0.167 HD
ATOM     56  C   UNL A   1      41.068  28.607  28.746  1.00  0.00     0.037 A 
ATOM     57  C   UNL A   1      47.794  26.971  27.612  1.00  0.00     0.037 A 
ATOM     58  C   UNL A   1      42.008  29.662  29.022  1.00  0.00     0.049 A 
ATOM     59  C   UNL A   1      47.371  28.344  28.055  1.00  0.00     0.074 A 
ATOM     60  C   UNL A   1      41.759  30.936  29.500  1.00  0.00     0.029 A 
ATOM     61  N   UNL A   1      43.379  29.565  28.838  1.00  0.00    -0.354 N 
ATOM     62  N   UNL A   1      46.172  28.792  28.339  1.00  0.00    -0.248 NA
ATOM     63  C   UNL A   1      48.436  29.345  28.208  1.00  0.00     0.031 C 
ATOM     64  C   UNL A   1      42.971  31.631  29.545  1.00  0.00     0.029 A 
ATOM     65  C   UNL A   1      43.986  30.768  29.162  1.00  0.00     0.049 A 
ATOM     66  H   UNL A   1      43.853  28.761  28.523  1.00  0.00     0.167 HD
ATOM     67  C   UNL A   1      46.339  30.114  28.728  1.00  0.00     0.074 A 
ATOM     68  C   UNL A   1      47.761  30.387  28.670  1.00  0.00     0.031 C 
ATOM     69  C   UNL A   1      45.403  31.023  29.097  1.00  0.00     0.037 A 
BRANCH  56  70
ATOM     70  C   UNL A   1      39.604  28.896  28.921  1.00  0.00     0.064 A 
ATOM     71  C   UNL A   1      38.976  28.801  30.174  1.00  0.00     0.173 A 
ATOM     72  C   UNL A   1      38.827  29.321  27.832  1.00  0.00     0.173 A 
ATOM     73  F   UNL A   1      39.668  28.389  31.247  1.00  0.00    -0.203 F 
ATOM     74  C   UNL A   1      37.623  29.093  30.324  1.00  0.00     0.198 A 
ATOM     75  C   UNL A   1      37.482  29.645  27.993  1.00  0.00     0.198 A 
ATOM     76  F   UNL A   1      39.375  29.434  26.613  1.00  0.00    -0.203 F 
ATOM     77  F   UNL A   1      37.036  28.946  31.520  1.00  0.00    -0.200 F 
ATOM     78  C   UNL A   1      36.880  29.524  29.236  1.00  0.00     0.200 A 
ATOM     79  F   UNL A   1      36.769  30.077  26.944  1.00  0.00    -0.200 F 
ATOM     80  F   UNL A   1      35.580  29.819  29.384  1.00  0.00    -0.200 F 
ENDBRANCH  56  70
BRANCH  57  81
ATOM     81  C   UNL A   1      49.224  26.659  27.347  1.00  0.00     0.064 A 
ATOM     82  C   UNL A   1      50.113  26.397  28.400  1.00  0.00     0.173 A 
ATOM     83  C   UNL A   1      49.737  26.633  26.043  1.00  0.00     0.173 A 
ATOM     84  F   UNL A   1      49.676  26.427  29.668  1.00  0.00    -0.203 F 
ATOM     85  C   UNL A   1      51.463  26.154  28.160  1.00  0.00     0.198 A 
ATOM     86  C   UNL A   1      51.080  26.354  25.801  1.00  0.00     0.198 A 
ATOM     87  F   UNL A   1      48.929  26.867  24.998  1.00  0.00    -0.203 F 
ATOM     88  F   UNL A   1      52.301  25.966  29.189  1.00  0.00    -0.200 F 
ATOM     89  C   UNL A   1      51.946  26.127  26.860  1.00  0.00     0.200 A 
ATOM     90  F   UNL A   1      51.538  26.309  24.542  1.00  0.00    -0.200 F 
ATOM     91  F   UNL A   1      53.244  25.892  26.629  1.00  0.00    -0.200 F 
ENDBRANCH  57  81
BRANCH  69  92
ATOM     92  C   UNL A   1      45.892  32.386  29.496  1.00  0.00     0.064 A 
ATOM     93  C   UNL A   1      45.993  33.436  28.571  1.00  0.00     0.173 A 
ATOM     94  C   UNL A   1      46.246  32.652  30.829  1.00  0.00     0.173 A 
ATOM     95  F   UNL A   1      45.680  33.232  27.282  1.00  0.00    -0.203 F 
ATOM     96  C   UNL A   1      46.466  34.687  28.956  1.00  0.00     0.198 A 
ATOM     97  C   UNL A   1      46.681  33.915  31.218  1.00  0.00     0.198 A 
ATOM     98  F   UNL A   1      46.160  31.687  31.758  1.00  0.00    -0.203 F 
ATOM     99  F   UNL A   1      46.616  35.655  28.041  1.00  0.00    -0.200 F 
ATOM    100  C   UNL A   1      46.803  34.928  30.280  1.00  0.00     0.200 A 
ATOM    101  F   UNL A   1      46.989  34.150  32.501  1.00  0.00    -0.200 F 
ATOM    102  F   UNL A   1      47.254  36.134  30.648  1.00  0.00    -0.200 F 
ENDBRANCH  69  92
ENDBRANCH  43  44
ENDBRANCH  35  38
ENDBRANCH  33  34
ENDBRANCH  32  33
ENDBRANCH  31  32
ENDBRANCH  29  31
ENDBRANCH   5  27
TORSDOF 18
ENDMDL
MODEL 2
REMARK VINA RESULT:     -11.8      0.568      2.020
REMARK SMILES C[C@H](NC(=O)OCc1ccccc1)C(=O)NCC(=O)N1CCC[C@H]1C(=O)NCCCNC(=O)c1ccc(-c2c3nc(c(-c4c(F)c(F)c(F)c(F)c4F)c4ccc([nH]4)c(-c4c(F)c(F)c(F)c(F)c4F)c4nc(c(-c5c(F)c(F)c(F)c(F)c5F)c5ccc2[nH]5)C=C4)C=C3)cc1
REMARK SMILES IDX 20 1 21 2 22 3 23 4 24 5 18 6 19 7 17 8 16 9 14 10 15 11
REMARK SMILES IDX 2 13 1 14 3 15 4 16 5 18 6 19 7 20 8 21 9 22 13 23 10 24
REMARK SMILES IDX 12 25 11 26 25 27 26 28 27 29 28 31 29 32 30 33 31 34 32 35
REMARK SMILES IDX 33 37 34 38 35 39 96 40 36 41 95 42 37 43 38 44 39 45 89 46
REMARK SMILES IDX 40 47 94 48 88 49 90 50 41 51 93 52 87 53 86 54 42 56 74 57
REMARK SMILES IDX 54 58 73 59 55 60 58 61 72 62 91 63 56 64 57 65 71 67 92 68
REMARK SMILES IDX 59 69 43 70 44 71 52 72 45 73 46 74 50 75 53 76 47 77 48 78
REMARK SMILES IDX 51 79 49 80 75 81 76 82 84 83 77 84 78 85 82 86 85 87 79 88
REMARK SMILES IDX 80 89 83 90 81 91 60 92 61 93 69 94 62 95 63 96 67 97 70 98
REMARK SMILES IDX 64 99 65 100 68 101 66 102
REMARK H PARENT 16 12 3 17 27 30 31 36 90 55 58 66
REMARK Flexibility Score: inf
ROOT
ATOM      1  N   UNL A   1      33.835  23.007  25.679  1.00  0.00    -0.329 N 
ATOM      2  C   UNL A   1      32.549  23.076  26.340  1.00  0.00     0.120 C 
ATOM      3  C   UNL A   1      32.818  22.589  27.758  1.00  0.00     0.024 C 
ATOM      4  C   UNL A   1      34.112  21.767  27.689  1.00  0.00     0.037 C 
ATOM      5  C   UNL A   1      34.650  21.936  26.268  1.00  0.00     0.174 C 
ENDROOT
BRANCH   1   6
ATOM      6  C   UNL A   1      34.379  23.762  24.661  1.00  0.00     0.242 C 
ATOM      7  O   UNL A   1      35.586  24.027  24.661  1.00  0.00    -0.273 OA
BRANCH   6   8
ATOM      8  C   UNL A   1      33.496  24.531  23.660  1.00  0.00     0.216 C 
BRANCH   8   9
ATOM      9  N   UNL A   1      32.159  24.083  23.324  1.00  0.00    -0.345 N 
ATOM     10  C   UNL A   1      30.951  24.704  23.485  1.00  0.00     0.242 C 
ATOM     11  O   UNL A   1      29.971  24.175  22.954  1.00  0.00    -0.273 OA
ATOM     12  H   UNL A   1      32.113  23.188  22.916  1.00  0.00     0.164 HD
BRANCH  10  13
ATOM     13  C   UNL A   1      30.829  26.066  24.209  1.00  0.00     0.171 C 
ATOM     14  C   UNL A   1      30.121  25.886  25.548  1.00  0.00     0.042 C 
BRANCH  13  15
ATOM     15  N   UNL A   1      30.184  27.037  23.335  1.00  0.00    -0.310 N 
ATOM     16  C   UNL A   1      30.721  27.956  22.501  1.00  0.00     0.408 C 
ATOM     17  H   UNL A   1      29.201  27.020  23.355  1.00  0.00     0.167 HD
ATOM     18  O   UNL A   1      29.984  28.701  21.865  1.00  0.00    -0.225 OA
BRANCH  16  19
ATOM     19  O   UNL A   1      32.068  27.980  22.512  1.00  0.00    -0.445 OA
BRANCH  19  20
ATOM     20  C   UNL A   1      32.620  29.157  23.114  1.00  0.00     0.270 C 
BRANCH  20  21
ATOM     21  C   UNL A   1      32.816  28.997  24.600  1.00  0.00    -0.011 A 
ATOM     22  C   UNL A   1      31.996  29.681  25.507  1.00  0.00     0.007 A 
ATOM     23  C   UNL A   1      33.830  28.164  25.093  1.00  0.00     0.007 A 
ATOM     24  C   UNL A   1      32.195  29.541  26.882  1.00  0.00     0.000 A 
ATOM     25  C   UNL A   1      34.028  28.026  26.467  1.00  0.00     0.000 A 
ATOM     26  C   UNL A   1      33.212  28.717  27.360  1.00  0.00     0.000 A 
ENDBRANCH  20  21
ENDBRANCH  19  20
ENDBRANCH  16  19
ENDBRANCH  13  15
ENDBRANCH  10  13
ENDBRANCH   8   9
ENDBRANCH   6   8
ENDBRANCH   1   6
BRANCH   5  27
ATOM     27  C   UNL A   1      34.749  20.630  25.440  1.00  0.00     0.242 C 
ATOM     28  O   UNL A   1      33.747  19.938  25.226  1.00  0.00    -0.273 OA
ATOM     29  N   UNL A   1      35.908  20.154  24.908  1.00  0.00    -0.354 N 
ATOM     30  H   UNL A   1      35.823  19.255  24.515  1.00  0.00     0.163 HD
BRANCH  29  31
ATOM     31  C   UNL A   1      37.237  20.711  24.807  1.00  0.00     0.117 C 
BRANCH  31  32
ATOM     32  C   UNL A   1      38.321  19.659  24.972  1.00  0.00     0.042 C 
BRANCH  32  33
ATOM     33  C   UNL A   1      39.374  20.047  25.995  1.00  0.00     0.118 C 
BRANCH  33  34
ATOM     34  N   UNL A   1      40.468  19.084  26.052  1.00  0.00    -0.352 N 
ATOM     35  C   UNL A   1      41.825  19.276  26.091  1.00  0.00     0.251 C 
ATOM     36  H   UNL A   1      40.185  18.141  26.065  1.00  0.00     0.163 HD
ATOM     37  O   UNL A   1      42.578  18.331  25.880  1.00  0.00    -0.269 OA
BRANCH  35  38
ATOM     38  C   UNL A   1      42.381  20.615  26.372  1.00  0.00     0.039 A 
ATOM     39  C   UNL A   1      42.697  21.455  25.300  1.00  0.00     0.014 A 
ATOM     40  C   UNL A   1      42.615  21.038  27.682  1.00  0.00     0.014 A 
ATOM     41  C   UNL A   1      43.180  22.739  25.550  1.00  0.00     0.010 A 
ATOM     42  C   UNL A   1      42.990  22.352  27.931  1.00  0.00     0.010 A 
ATOM     43  C   UNL A   1      43.287  23.213  26.868  1.00  0.00    -0.014 A 
BRANCH  43  44
ATOM     44  C   UNL A   1      43.708  24.609  27.147  1.00  0.00     0.031 A 
ATOM     45  C   UNL A   1      42.701  25.630  27.602  1.00  0.00     0.074 A 
ATOM     46  C   UNL A   1      44.990  24.964  26.937  1.00  0.00     0.049 A 
ATOM     47  N   UNL A   1      42.873  26.902  27.862  1.00  0.00    -0.248 NA
ATOM     48  C   UNL A   1      41.311  25.172  27.759  1.00  0.00     0.031 C 
ATOM     49  C   UNL A   1      46.042  24.077  26.438  1.00  0.00     0.029 A 
ATOM     50  N   UNL A   1      45.627  26.166  27.113  1.00  0.00    -0.354 N 
ATOM     51  C   UNL A   1      41.619  27.391  28.200  1.00  0.00     0.074 A 
ATOM     52  C   UNL A   1      40.682  26.300  28.051  1.00  0.00     0.031 C 
ATOM     53  C   UNL A   1      47.200  24.754  26.383  1.00  0.00     0.029 A 
ATOM     54  C   UNL A   1      46.964  26.132  26.798  1.00  0.00     0.049 A 
ATOM     55  H   UNL A   1      45.170  26.977  27.435  1.00  0.00     0.167 HD
ATOM     56  C   UNL A   1      41.284  28.633  28.625  1.00  0.00     0.037 A 
ATOM     57  C   UNL A   1      47.892  27.107  26.832  1.00  0.00     0.037 A 
ATOM     58  C   UNL A   1      42.226  29.709  28.789  1.00  0.00     0.049 A 
ATOM     59  C   UNL A   1      47.488  28.479  27.298  1.00  0.00     0.074 A 
ATOM     60  C   UNL A   1      42.000  30.986  29.273  1.00  0.00     0.029 A 
ATOM     61  N   UNL A   1      43.573  29.636  28.468  1.00  0.00    -0.354 N 
ATOM     62  N   UNL A   1      46.315  28.909  27.696  1.00  0.00    -0.248 NA
ATOM     63  C   UNL A   1      48.542  29.502  27.328  1.00  0.00     0.031 C 
ATOM     64  C   UNL A   1      43.196  31.704  29.185  1.00  0.00     0.029 A 
ATOM     65  C   UNL A   1      44.184  30.855  28.711  1.00  0.00     0.049 A 
ATOM     66  H   UNL A   1      44.028  28.836  28.117  1.00  0.00     0.167 HD
ATOM     67  C   UNL A   1      46.494  30.239  28.049  1.00  0.00     0.074 A 
ATOM     68  C   UNL A   1      47.897  30.538  27.842  1.00  0.00     0.031 C 
ATOM     69  C   UNL A   1      45.582  31.136  28.499  1.00  0.00     0.037 A 
BRANCH  56  70
ATOM     70  C   UNL A   1      39.840  28.896  28.944  1.00  0.00     0.064 A 
ATOM     71  C   UNL A   1      38.933  29.330  27.964  1.00  0.00     0.173 A 
ATOM     72  C   UNL A   1      39.344  28.666  30.237  1.00  0.00     0.173 A 
ATOM     73  F   UNL A   1      39.354  29.576  26.715  1.00  0.00    -0.203 F 
ATOM     74  C   UNL A   1      37.592  29.548  28.272  1.00  0.00     0.198 A 
ATOM     75  C   UNL A   1      37.996  28.853  30.533  1.00  0.00     0.198 A 
ATOM     76  F   UNL A   1      40.164  28.248  31.212  1.00  0.00    -0.203 F 
ATOM     77  F   UNL A   1      36.757  30.009  27.331  1.00  0.00    -0.200 F 
ATOM     78  C   UNL A   1      37.123  29.300  29.553  1.00  0.00     0.200 A 
ATOM     79  F   UNL A   1      37.541  28.598  31.767  1.00  0.00    -0.200 F 
ATOM     80  F   UNL A   1      35.829  29.497  29.845  1.00  0.00    -0.200 F 
ENDBRANCH  56  70
BRANCH  57  81
ATOM     81  C   UNL A   1      49.293  26.818  26.427  1.00  0.00     0.064 A 
ATOM     82  C   UNL A   1      49.719  27.017  25.106  1.00  0.00     0.173 A 
ATOM     83  C   UNL A   1      50.231  26.322  27.344  1.00  0.00     0.173 A 
ATOM     84  F   UNL A   1      48.856  27.473  24.186  1.00  0.00    -0.203 F 
ATOM     85  C   UNL A   1      51.017  26.699  24.712  1.00  0.00     0.198 A 
ATOM     86  C   UNL A   1      51.539  26.038  26.957  1.00  0.00     0.198 A 
ATOM     87  F   UNL A   1      49.880  26.121  28.623  1.00  0.00    -0.203 F 
ATOM     88  F   UNL A   1      51.380  26.844  23.430  1.00  0.00    -0.200 F 
ATOM     89  C   UNL A   1      51.929  26.216  25.638  1.00  0.00     0.200 A 
ATOM     90  F   UNL A   1      52.421  25.591  27.861  1.00  0.00    -0.200 F 
ATOM     91  F   UNL A   1      53.177  25.913  25.260  1.00  0.00    -0.200 F 
ENDBRANCH  57  81
BRANCH  69  92
ATOM     92  C   UNL A   1      46.081  32.514  28.828  1.00  0.00     0.064 A 
ATOM     93  C   UNL A   1      46.570  32.839  30.101  1.00  0.00     0.173 A 
ATOM     94  C   UNL A   1      46.088  33.520  27.848  1.00  0.00     0.173 A 
ATOM     95  F   UNL A   1      46.572  31.920  31.079  1.00  0.00    -0.203 F 
ATOM     96  C   UNL A   1      47.009  34.128  30.393  1.00  0.00     0.198 A 
ATOM     97  C   UNL A   1      46.565  34.795  28.131  1.00  0.00     0.198 A 
ATOM     98  F   UNL A   1      45.640  33.260  26.609  1.00  0.00    -0.203 F 
ATOM     99  F   UNL A   1      47.410  34.431  31.635  1.00  0.00    -0.200 F 
ATOM    100  C   UNL A   1      47.013  35.102  29.406  1.00  0.00     0.200 A 
ATOM    101  F   UNL A   1      46.585  35.730  27.171  1.00  0.00    -0.200 F 
ATOM    102  F   UNL A   1      47.441  36.340  29.688  1.00  0.00    -0.200 F 
ENDBRANCH  69  92
ENDBRANCH  43  44
ENDBRANCH  35  38
ENDBRANCH  33  34
ENDBRANCH  32  33
ENDBRANCH  31  32
ENDBRANCH  29  31
ENDBRANCH   5  27
TORSDOF 18
ENDMDL
MODEL 3
REMARK VINA RESULT:     -11.6      0.674      7.039
REMARK SMILES C[C@H](NC(=O)OCc1ccccc1)C(=O)NCC(=O)N1CCC[C@H]1C(=O)NCCCNC(=O)c1ccc(-c2c3nc(c(-c4c(F)c(F)c(F)c(F)c4F)c4ccc([nH]4)c(-c4c(F)c(F)c(F)c(F)c4F)c4nc(c(-c5c(F)c(F)c(F)c(F)c5F)c5ccc2[nH]5)C=C4)C=C3)cc1
REMARK SMILES IDX 20 1 21 2 22 3 23 4 24 5 18 6 19 7 17 8 16 9 14 10 15 11
REMARK SMILES IDX 2 13 1 14 3 15 4 16 5 18 6 19 7 20 8 21 9 22 13 23 10 24
REMARK SMILES IDX 12 25 11 26 25 27 26 28 27 29 28 31 29 32 30 33 31 34 32 35
REMARK SMILES IDX 33 37 34 38 35 39 96 40 36 41 95 42 37 43 38 44 39 45 89 46
REMARK SMILES IDX 40 47 94 48 88 49 90 50 41 51 93 52 87 53 86 54 42 56 74 57
REMARK SMILES IDX 54 58 73 59 55 60 58 61 72 62 91 63 56 64 57 65 71 67 92 68
REMARK SMILES IDX 59 69 43 70 44 71 52 72 45 73 46 74 50 75 53 76 47 77 48 78
REMARK SMILES IDX 51 79 49 80 75 81 76 82 84 83 77 84 78 85 82 86 85 87 79 88
REMARK SMILES IDX 80 89 83 90 81 91 60 92 61 93 69 94 62 95 63 96 67 97 70 98
REMARK SMILES IDX 64 99 65 100 68 101 66 102
REMARK H PARENT 16 12 3 17 27 30 31 36 90 55 58 66
REMARK Flexibility Score: inf
ROOT
ATOM      1  N   UNL A   1      33.782  22.946  25.535  1.00  0.00    -0.329 N 
ATOM      2  C   UNL A   1      32.529  23.040  26.253  1.00  0.00     0.120 C 
ATOM      3  C   UNL A   1      32.876  22.655  27.685  1.00  0.00     0.024 C 
ATOM      4  C   UNL A   1      34.181  21.851  27.608  1.00  0.00     0.037 C 
ATOM      5  C   UNL A   1      34.645  21.931  26.153  1.00  0.00     0.174 C 
ENDROOT
BRANCH   1   6
ATOM      6  C   UNL A   1      34.261  23.638  24.443  1.00  0.00     0.242 C 
ATOM      7  O   UNL A   1      35.477  23.813  24.302  1.00  0.00    -0.273 OA
BRANCH   6   8
ATOM      8  C   UNL A   1      33.328  24.450  23.524  1.00  0.00     0.216 C 
BRANCH   8   9
ATOM      9  N   UNL A   1      31.974  24.017  23.239  1.00  0.00    -0.345 N 
ATOM     10  C   UNL A   1      30.779  24.639  23.473  1.00  0.00     0.242 C 
ATOM     11  O   UNL A   1      29.772  24.129  22.975  1.00  0.00    -0.273 OA
ATOM     12  H   UNL A   1      31.904  23.134  22.810  1.00  0.00     0.164 HD
BRANCH  10  13
ATOM     13  C   UNL A   1      30.699  25.982  24.238  1.00  0.00     0.171 C 
ATOM     14  C   UNL A   1      29.998  25.781  25.577  1.00  0.00     0.042 C 
BRANCH  13  15
ATOM     15  N   UNL A   1      30.073  26.995  23.398  1.00  0.00    -0.310 N 
ATOM     16  C   UNL A   1      30.622  27.877  22.533  1.00  0.00     0.408 C 
ATOM     17  H   UNL A   1      29.093  27.044  23.473  1.00  0.00     0.167 HD
ATOM     18  O   UNL A   1      29.902  28.670  21.937  1.00  0.00    -0.225 OA
BRANCH  16  19
ATOM     19  O   UNL A   1      31.966  27.812  22.469  1.00  0.00    -0.445 OA
BRANCH  19  20
ATOM     20  C   UNL A   1      32.627  28.965  23.003  1.00  0.00     0.270 C 
BRANCH  20  21
ATOM     21  C   UNL A   1      32.767  28.898  24.502  1.00  0.00    -0.011 A 
ATOM     22  C   UNL A   1      33.670  28.007  25.096  1.00  0.00     0.007 A 
ATOM     23  C   UNL A   1      31.986  29.724  25.322  1.00  0.00     0.007 A 
ATOM     24  C   UNL A   1      33.782  27.938  26.486  1.00  0.00     0.000 A 
ATOM     25  C   UNL A   1      32.097  29.653  26.711  1.00  0.00     0.000 A 
ATOM     26  C   UNL A   1      32.994  28.758  27.291  1.00  0.00     0.000 A 
ENDBRANCH  20  21
ENDBRANCH  19  20
ENDBRANCH  16  19
ENDBRANCH  13  15
ENDBRANCH  10  13
ENDBRANCH   8   9
ENDBRANCH   6   8
ENDBRANCH   1   6
BRANCH   5  27
ATOM     27  C   UNL A   1      34.729  20.573  25.411  1.00  0.00     0.242 C 
ATOM     28  O   UNL A   1      33.715  19.891  25.223  1.00  0.00    -0.273 OA
ATOM     29  N   UNL A   1      35.884  20.039  24.931  1.00  0.00    -0.354 N 
ATOM     30  H   UNL A   1      35.786  19.119  24.594  1.00  0.00     0.163 HD
BRANCH  29  31
ATOM     31  C   UNL A   1      37.228  20.560  24.820  1.00  0.00     0.117 C 
BRANCH  31  32
ATOM     32  C   UNL A   1      38.284  19.489  25.035  1.00  0.00     0.042 C 
BRANCH  32  33
ATOM     33  C   UNL A   1      39.346  19.897  26.043  1.00  0.00     0.118 C 
BRANCH  33  34
ATOM     34  N   UNL A   1      40.500  19.005  26.017  1.00  0.00    -0.352 N 
ATOM     35  C   UNL A   1      41.842  19.284  26.023  1.00  0.00     0.251 C 
ATOM     36  H   UNL A   1      40.279  18.047  25.993  1.00  0.00     0.163 HD
ATOM     37  O   UNL A   1      42.647  18.401  25.742  1.00  0.00    -0.269 OA
BRANCH  35  38
ATOM     38  C   UNL A   1      42.322  20.642  26.352  1.00  0.00     0.039 A 
ATOM     39  C   UNL A   1      42.600  21.531  25.311  1.00  0.00     0.014 A 
ATOM     40  C   UNL A   1      42.521  21.035  27.677  1.00  0.00     0.014 A 
ATOM     41  C   UNL A   1      43.009  22.831  25.605  1.00  0.00     0.010 A 
ATOM     42  C   UNL A   1      42.820  22.359  27.971  1.00  0.00     0.010 A 
ATOM     43  C   UNL A   1      43.078  23.269  26.939  1.00  0.00    -0.014 A 
BRANCH  43  44
ATOM     44  C   UNL A   1      43.419  24.675  27.266  1.00  0.00     0.031 A 
ATOM     45  C   UNL A   1      44.822  25.183  27.069  1.00  0.00     0.074 A 
ATOM     46  C   UNL A   1      42.474  25.477  27.793  1.00  0.00     0.049 A 
ATOM     47  N   UNL A   1      45.317  26.367  27.328  1.00  0.00    -0.248 NA
ATOM     48  C   UNL A   1      45.808  24.228  26.536  1.00  0.00     0.031 C 
ATOM     49  C   UNL A   1      41.096  25.078  28.088  1.00  0.00     0.029 A 
ATOM     50  N   UNL A   1      42.527  26.793  28.177  1.00  0.00    -0.354 N 
ATOM     51  C   UNL A   1      46.664  26.294  27.002  1.00  0.00     0.074 A 
ATOM     52  C   UNL A   1      46.928  24.934  26.586  1.00  0.00     0.031 C 
ATOM     53  C   UNL A   1      40.426  26.135  28.572  1.00  0.00     0.029 A 
ATOM     54  C   UNL A   1      41.335  27.271  28.665  1.00  0.00     0.049 A 
ATOM     55  H   UNL A   1      43.341  27.342  28.110  1.00  0.00     0.167 HD
ATOM     56  C   UNL A   1      47.592  27.280  27.020  1.00  0.00     0.037 A 
ATOM     57  C   UNL A   1      41.016  28.490  29.141  1.00  0.00     0.037 A 
ATOM     58  C   UNL A   1      47.317  28.636  27.416  1.00  0.00     0.049 A 
ATOM     59  C   UNL A   1      42.069  29.563  29.158  1.00  0.00     0.074 A 
ATOM     60  C   UNL A   1      48.170  29.726  27.410  1.00  0.00     0.029 A 
ATOM     61  N   UNL A   1      46.097  29.088  27.896  1.00  0.00    -0.354 N 
ATOM     62  N   UNL A   1      43.320  29.505  28.767  1.00  0.00    -0.248 NA
ATOM     63  C   UNL A   1      41.664  30.877  29.676  1.00  0.00     0.031 C 
ATOM     64  C   UNL A   1      47.485  30.821  27.945  1.00  0.00     0.029 A 
ATOM     65  C   UNL A   1      46.183  30.432  28.221  1.00  0.00     0.049 A 
ATOM     66  H   UNL A   1      45.288  28.534  27.993  1.00  0.00     0.167 HD
ATOM     67  C   UNL A   1      43.842  30.775  28.965  1.00  0.00     0.074 A 
ATOM     68  C   UNL A   1      42.764  31.591  29.486  1.00  0.00     0.031 C 
ATOM     69  C   UNL A   1      45.100  31.229  28.740  1.00  0.00     0.037 A 
BRANCH  56  70
ATOM     70  C   UNL A   1      48.991  26.932  26.596  1.00  0.00     0.064 A 
ATOM     71  C   UNL A   1      49.945  26.462  27.512  1.00  0.00     0.173 A 
ATOM     72  C   UNL A   1      49.369  27.022  25.248  1.00  0.00     0.173 A 
ATOM     73  F   UNL A   1      49.641  26.366  28.815  1.00  0.00    -0.203 F 
ATOM     74  C   UNL A   1      51.231  26.123  27.100  1.00  0.00     0.198 A 
ATOM     75  C   UNL A   1      50.645  26.649  24.834  1.00  0.00     0.198 A 
ATOM     76  F   UNL A   1      48.497  27.461  24.328  1.00  0.00    -0.203 F 
ATOM     77  F   UNL A   1      52.139  25.724  28.002  1.00  0.00    -0.200 F 
ATOM     78  C   UNL A   1      51.577  26.207  25.760  1.00  0.00     0.200 A 
ATOM     79  F   UNL A   1      50.973  26.717  23.536  1.00  0.00    -0.200 F 
ATOM     80  F   UNL A   1      52.811  25.867  25.361  1.00  0.00    -0.200 F 
ENDBRANCH  56  70
BRANCH  57  81
ATOM     81  C   UNL A   1      39.637  28.764  29.626  1.00  0.00     0.064 A 
ATOM     82  C   UNL A   1      38.656  29.276  28.763  1.00  0.00     0.173 A 
ATOM     83  C   UNL A   1      39.274  28.539  30.961  1.00  0.00     0.173 A 
ATOM     84  F   UNL A   1      38.957  29.526  27.480  1.00  0.00    -0.203 F 
ATOM     85  C   UNL A   1      37.378  29.582  29.226  1.00  0.00     0.198 A 
ATOM     86  C   UNL A   1      37.985  28.811  31.415  1.00  0.00     0.198 A 
ATOM     87  F   UNL A   1      40.170  28.043  31.827  1.00  0.00    -0.203 F 
ATOM     88  F   UNL A   1      36.479  30.125  28.394  1.00  0.00    -0.200 F 
ATOM     89  C   UNL A   1      37.041  29.344  30.550  1.00  0.00     0.200 A 
ATOM     90  F   UNL A   1      37.658  28.561  32.690  1.00  0.00    -0.200 F 
ATOM     91  F   UNL A   1      35.812  29.636  30.994  1.00  0.00    -0.200 F 
ENDBRANCH  57  81
BRANCH  69  92
ATOM     92  C   UNL A   1      45.368  32.678  29.028  1.00  0.00     0.064 A 
ATOM     93  C   UNL A   1      45.131  33.678  28.073  1.00  0.00     0.173 A 
ATOM     94  C   UNL A   1      45.851  33.075  30.285  1.00  0.00     0.173 A 
ATOM     95  F   UNL A   1      44.682  33.352  26.851  1.00  0.00    -0.203 F 
ATOM     96  C   UNL A   1      45.404  35.014  28.352  1.00  0.00     0.198 A 
ATOM     97  C   UNL A   1      46.085  34.416  30.574  1.00  0.00     0.198 A 
ATOM     98  F   UNL A   1      46.087  32.161  31.239  1.00  0.00    -0.203 F 
ATOM     99  F   UNL A   1      45.231  35.943  27.401  1.00  0.00    -0.200 F 
ATOM    100  C   UNL A   1      45.874  35.383  29.603  1.00  0.00     0.200 A 
ATOM    101  F   UNL A   1      46.522  34.772  31.789  1.00  0.00    -0.200 F 
ATOM    102  F   UNL A   1      46.132  36.670  29.871  1.00  0.00    -0.200 F 
ENDBRANCH  69  92
ENDBRANCH  43  44
ENDBRANCH  35  38
ENDBRANCH  33  34
ENDBRANCH  32  33
ENDBRANCH  31  32
ENDBRANCH  29  31
ENDBRANCH   5  27
TORSDOF 18
ENDMDL
