MODEL 1
REMARK VINA RESULT:     -13.1      0.000      0.000
REMARK SMILES CC[C@@](C)(Nc1cc([N+](=O)[O-])ccc1C)C(=O)NCCCNC(=O)c1ccc(-c2c3nc(c(-c4c(F)c(F)c(F)c(F)c4F)c4ccc([nH]4)c(-c4c(F)c(F)c(F)c(F)c4F)c4nc(c(-c5c(F)c(F)c(F)c(F)c5F)c5ccc2[nH]5)C=C4)C=C3)cc1
REMARK SMILES IDX 19 1 18 2 16 3 17 4 3 6 4 7 2 8 1 9 5 10 6 12 7 13 14 14
REMARK SMILES IDX 8 15 13 16 15 17 12 18 9 19 10 20 11 21 20 22 21 23 22 24
REMARK SMILES IDX 23 25 24 27 25 28 26 29 87 30 27 31 86 32 28 33 29 34 30 35
REMARK SMILES IDX 80 36 31 37 85 38 79 39 81 40 32 41 84 42 78 43 77 44 33 46
REMARK SMILES IDX 65 47 45 48 64 49 46 50 49 51 63 52 82 53 47 54 48 55 62 57
REMARK SMILES IDX 83 58 50 59 34 60 35 61 43 62 36 63 37 64 41 65 44 66 38 67
REMARK SMILES IDX 39 68 42 69 40 70 66 71 67 72 75 73 68 74 69 75 73 76 76 77
REMARK SMILES IDX 70 78 71 79 74 80 72 81 51 82 52 83 60 84 53 85 54 86 58 87
REMARK SMILES IDX 61 88 55 89 56 90 59 91 57 92
REMARK H PARENT 18 5 5 11 22 26 81 45 49 56
REMARK Flexibility Score: inf
ROOT
ATOM      1  C   UNL A   1      32.073  30.357  26.097  1.00  0.00     0.117 C 
ENDROOT
BRANCH   1   2
ATOM      2  N   UNL A   1      31.970  28.901  26.199  1.00  0.00    -0.354 N 
ATOM      3  C   UNL A   1      32.300  27.809  25.440  1.00  0.00     0.245 C 
ATOM      4  O   UNL A   1      32.226  26.743  26.076  1.00  0.00    -0.272 OA
ATOM      5  H   UNL A   1      31.547  28.633  27.046  1.00  0.00     0.163 HD
BRANCH   3   6
ATOM      6  C   UNL A   1      32.688  27.782  23.912  1.00  0.00     0.113 C 
ATOM      7  C   UNL A   1      33.506  28.988  23.436  1.00  0.00     0.045 C 
BRANCH   6   8
ATOM      8  C   UNL A   1      33.559  26.490  23.678  1.00  0.00     0.035 C 
ATOM      9  C   UNL A   1      32.924  25.403  22.812  1.00  0.00     0.007 C 
ENDBRANCH   6   8
BRANCH   6  10
ATOM     10  N   UNL A   1      31.530  27.661  22.940  1.00  0.00    -0.371 N 
ATOM     11  H   UNL A   1      31.757  27.247  22.077  1.00  0.00     0.161 HD
BRANCH  10  12
ATOM     12  C   UNL A   1      30.204  28.041  23.074  1.00  0.00     0.045 A 
ATOM     13  C   UNL A   1      29.831  29.374  22.841  1.00  0.00     0.111 A 
ATOM     14  C   UNL A   1      29.178  27.206  23.526  1.00  0.00    -0.027 A 
ATOM     15  C   UNL A   1      28.482  29.776  22.947  1.00  0.00     0.271 A 
ATOM     16  C   UNL A   1      27.818  27.546  23.415  1.00  0.00     0.012 A 
ATOM     17  C   UNL A   1      29.458  26.043  24.410  1.00  0.00     0.046 C 
ATOM     18  C   UNL A   1      27.461  28.846  23.128  1.00  0.00     0.086 A 
BRANCH  15  19
ATOM     19  N   UNL A   1      28.141  31.201  23.004  1.00  0.00     0.062 N 
ATOM     20  O   UNL A   1      28.807  31.985  22.313  1.00  0.00    -0.258 OA
ATOM     21  O   UNL A   1      27.237  31.544  23.782  1.00  0.00    -0.258 OA
ENDBRANCH  15  19
ENDBRANCH  10  12
ENDBRANCH   6  10
ENDBRANCH   3   6
ENDBRANCH   1   2
BRANCH   1  22
ATOM     22  C   UNL A   1      32.812  31.121  27.218  1.00  0.00     0.042 C 
BRANCH  22  23
ATOM     23  C   UNL A   1      34.163  30.556  27.669  1.00  0.00     0.118 C 
BRANCH  23  24
ATOM     24  N   UNL A   1      34.785  31.340  28.738  1.00  0.00    -0.352 N 
ATOM     25  C   UNL A   1      35.968  31.128  29.421  1.00  0.00     0.251 C 
ATOM     26  H   UNL A   1      34.284  32.141  29.013  1.00  0.00     0.163 HD
ATOM     27  O   UNL A   1      36.357  31.947  30.252  1.00  0.00    -0.269 OA
BRANCH  25  28
ATOM     28  C   UNL A   1      36.838  29.989  29.055  1.00  0.00     0.039 A 
ATOM     29  C   UNL A   1      37.213  29.103  30.071  1.00  0.00     0.014 A 
ATOM     30  C   UNL A   1      37.405  29.883  27.787  1.00  0.00     0.014 A 
ATOM     31  C   UNL A   1      38.326  28.284  29.892  1.00  0.00     0.010 A 
ATOM     32  C   UNL A   1      38.546  29.113  27.622  1.00  0.00     0.010 A 
ATOM     33  C   UNL A   1      39.048  28.375  28.700  1.00  0.00    -0.014 A 
BRANCH  33  34
ATOM     34  C   UNL A   1      40.397  27.838  28.569  1.00  0.00     0.031 A 
ATOM     35  C   UNL A   1      40.633  26.419  28.240  1.00  0.00     0.074 A 
ATOM     36  C   UNL A   1      41.460  28.644  28.781  1.00  0.00     0.049 A 
ATOM     37  N   UNL A   1      41.660  25.750  28.651  1.00  0.00    -0.248 NA
ATOM     38  C   UNL A   1      39.704  25.632  27.437  1.00  0.00     0.031 C 
ATOM     39  C   UNL A   1      42.867  28.335  28.537  1.00  0.00     0.029 A 
ATOM     40  N   UNL A   1      41.487  29.862  29.484  1.00  0.00    -0.354 N 
ATOM     41  C   UNL A   1      41.669  24.555  27.976  1.00  0.00     0.074 A 
ATOM     42  C   UNL A   1      40.398  24.497  27.285  1.00  0.00     0.031 C 
ATOM     43  C   UNL A   1      43.621  29.119  29.322  1.00  0.00     0.029 A 
ATOM     44  C   UNL A   1      42.721  29.868  30.180  1.00  0.00     0.049 A 
ATOM     45  H   UNL A   1      40.796  30.563  29.490  1.00  0.00     0.167 HD
ATOM     46  C   UNL A   1      42.795  23.788  27.957  1.00  0.00     0.037 A 
ATOM     47  C   UNL A   1      42.769  29.905  31.543  1.00  0.00     0.037 A 
ATOM     48  C   UNL A   1      43.889  24.373  28.720  1.00  0.00     0.049 A 
ATOM     49  C   UNL A   1      43.479  28.739  32.189  1.00  0.00     0.074 A 
ATOM     50  C   UNL A   1      44.989  25.144  28.380  1.00  0.00     0.029 A 
ATOM     51  N   UNL A   1      43.782  24.450  30.097  1.00  0.00    -0.354 N 
ATOM     52  N   UNL A   1      43.899  27.688  31.543  1.00  0.00    -0.248 NA
ATOM     53  C   UNL A   1      43.668  28.616  33.636  1.00  0.00     0.031 C 
ATOM     54  C   UNL A   1      45.541  25.687  29.571  1.00  0.00     0.029 A 
ATOM     55  C   UNL A   1      44.773  25.249  30.633  1.00  0.00     0.049 A 
ATOM     56  H   UNL A   1      43.089  23.994  30.626  1.00  0.00     0.167 HD
ATOM     57  C   UNL A   1      44.347  26.757  32.441  1.00  0.00     0.074 A 
ATOM     58  C   UNL A   1      44.185  27.380  33.739  1.00  0.00     0.031 C 
ATOM     59  C   UNL A   1      44.780  25.525  32.056  1.00  0.00     0.037 A 
BRANCH  46  60
ATOM     60  C   UNL A   1      42.950  22.628  27.016  1.00  0.00     0.064 A 
ATOM     61  C   UNL A   1      42.256  21.419  27.226  1.00  0.00     0.173 A 
ATOM     62  C   UNL A   1      43.817  22.646  25.909  1.00  0.00     0.173 A 
ATOM     63  F   UNL A   1      41.351  21.292  28.203  1.00  0.00    -0.203 F 
ATOM     64  C   UNL A   1      42.491  20.284  26.448  1.00  0.00     0.198 A 
ATOM     65  C   UNL A   1      44.090  21.497  25.163  1.00  0.00     0.198 A 
ATOM     66  F   UNL A   1      44.416  23.784  25.526  1.00  0.00    -0.203 F 
ATOM     67  F   UNL A   1      41.813  19.155  26.699  1.00  0.00    -0.200 F 
ATOM     68  C   UNL A   1      43.434  20.312  25.440  1.00  0.00     0.200 A 
ATOM     69  F   UNL A   1      45.005  21.539  24.184  1.00  0.00    -0.200 F 
ATOM     70  F   UNL A   1      43.703  19.205  24.735  1.00  0.00    -0.200 F 
ENDBRANCH  46  60
BRANCH  47  71
ATOM     71  C   UNL A   1      41.624  30.632  32.143  1.00  0.00     0.064 A 
ATOM     72  C   UNL A   1      41.589  32.036  32.036  1.00  0.00     0.173 A 
ATOM     73  C   UNL A   1      40.433  29.974  32.466  1.00  0.00     0.173 A 
ATOM     74  F   UNL A   1      42.707  32.713  31.726  1.00  0.00    -0.203 F 
ATOM     75  C   UNL A   1      40.389  32.735  32.124  1.00  0.00     0.198 A 
ATOM     76  C   UNL A   1      39.236  30.681  32.575  1.00  0.00     0.198 A 
ATOM     77  F   UNL A   1      40.403  28.637  32.568  1.00  0.00    -0.203 F 
ATOM     78  F   UNL A   1      40.367  34.056  31.897  1.00  0.00    -0.200 F 
ATOM     79  C   UNL A   1      39.209  32.053  32.366  1.00  0.00     0.200 A 
ATOM     80  F   UNL A   1      38.093  30.020  32.803  1.00  0.00    -0.200 F 
ATOM     81  F   UNL A   1      38.043  32.713  32.360  1.00  0.00    -0.200 F 
ENDBRANCH  47  71
BRANCH  59  82
ATOM     82  C   UNL A   1      45.278  24.487  33.012  1.00  0.00     0.064 A 
ATOM     83  C   UNL A   1      44.483  23.407  33.424  1.00  0.00     0.173 A 
ATOM     84  C   UNL A   1      46.531  24.624  33.642  1.00  0.00     0.173 A 
ATOM     85  F   UNL A   1      43.257  23.224  32.910  1.00  0.00    -0.203 F 
ATOM     86  C   UNL A   1      44.928  22.502  34.388  1.00  0.00     0.198 A 
ATOM     87  C   UNL A   1      46.952  23.749  34.639  1.00  0.00     0.198 A 
ATOM     88  F   UNL A   1      47.381  25.601  33.290  1.00  0.00    -0.203 F 
ATOM     89  F   UNL A   1      44.159  21.459  34.728  1.00  0.00    -0.200 F 
ATOM     90  C   UNL A   1      46.155  22.681  35.007  1.00  0.00     0.200 A 
ATOM     91  F   UNL A   1      48.134  23.944  35.241  1.00  0.00    -0.200 F 
ATOM     92  F   UNL A   1      46.568  21.827  35.951  1.00  0.00    -0.200 F 
ENDBRANCH  59  82
ENDBRANCH  33  34
ENDBRANCH  25  28
ENDBRANCH  23  24
ENDBRANCH  22  23
ENDBRANCH   1  22
TORSDOF 14
ENDMDL
MODEL 2
REMARK VINA RESULT:     -13.1      1.610      3.140
REMARK SMILES CC[C@@](C)(Nc1cc([N+](=O)[O-])ccc1C)C(=O)NCCCNC(=O)c1ccc(-c2c3nc(c(-c4c(F)c(F)c(F)c(F)c4F)c4ccc([nH]4)c(-c4c(F)c(F)c(F)c(F)c4F)c4nc(c(-c5c(F)c(F)c(F)c(F)c5F)c5ccc2[nH]5)C=C4)C=C3)cc1
REMARK SMILES IDX 19 1 18 2 16 3 17 4 3 6 4 7 2 8 1 9 5 10 6 12 7 13 14 14
REMARK SMILES IDX 8 15 13 16 15 17 12 18 9 19 10 20 11 21 20 22 21 23 22 24
REMARK SMILES IDX 23 25 24 27 25 28 26 29 87 30 27 31 86 32 28 33 29 34 30 35
REMARK SMILES IDX 80 36 31 37 85 38 79 39 81 40 32 41 84 42 78 43 77 44 33 46
REMARK SMILES IDX 65 47 45 48 64 49 46 50 49 51 63 52 82 53 47 54 48 55 62 57
REMARK SMILES IDX 83 58 50 59 34 60 35 61 43 62 36 63 37 64 41 65 44 66 38 67
REMARK SMILES IDX 39 68 42 69 40 70 66 71 67 72 75 73 68 74 69 75 73 76 76 77
REMARK SMILES IDX 70 78 71 79 74 80 72 81 51 82 52 83 60 84 53 85 54 86 58 87
REMARK SMILES IDX 61 88 55 89 56 90 59 91 57 92
REMARK H PARENT 18 5 5 11 22 26 81 45 49 56
REMARK Flexibility Score: inf
ROOT
ATOM      1  C   UNL A   1      32.212  30.360  25.971  1.00  0.00     0.117 C 
ENDROOT
BRANCH   1   2
ATOM      2  N   UNL A   1      33.097  29.780  24.961  1.00  0.00    -0.354 N 
ATOM      3  C   UNL A   1      33.224  28.591  24.291  1.00  0.00     0.245 C 
ATOM      4  O   UNL A   1      34.012  28.663  23.331  1.00  0.00    -0.272 OA
ATOM      5  H   UNL A   1      33.793  30.419  24.688  1.00  0.00     0.163 HD
BRANCH   3   6
ATOM      6  C   UNL A   1      32.543  27.212  24.641  1.00  0.00     0.113 C 
ATOM      7  C   UNL A   1      32.942  26.626  26.000  1.00  0.00     0.045 C 
BRANCH   6   8
ATOM      8  C   UNL A   1      30.987  27.457  24.663  1.00  0.00     0.035 C 
ATOM      9  C   UNL A   1      30.386  28.058  23.393  1.00  0.00     0.007 C 
ENDBRANCH   6   8
BRANCH   6  10
ATOM     10  N   UNL A   1      32.756  26.098  23.634  1.00  0.00    -0.371 N 
ATOM     11  H   UNL A   1      32.609  26.357  22.695  1.00  0.00     0.161 HD
BRANCH  10  12
ATOM     12  C   UNL A   1      33.123  24.776  23.824  1.00  0.00     0.045 A 
ATOM     13  C   UNL A   1      34.477  24.412  23.781  1.00  0.00     0.111 A 
ATOM     14  C   UNL A   1      32.225  23.714  23.970  1.00  0.00    -0.027 A 
ATOM     15  C   UNL A   1      34.874  23.075  23.998  1.00  0.00     0.271 A 
ATOM     16  C   UNL A   1      32.624  22.437  24.404  1.00  0.00     0.012 A 
ATOM     17  C   UNL A   1      30.851  23.777  23.404  1.00  0.00     0.046 C 
ATOM     18  C   UNL A   1      33.962  22.107  24.415  1.00  0.00     0.086 A 
BRANCH  15  19
ATOM     19  N   UNL A   1      36.233  22.645  23.656  1.00  0.00     0.062 N 
ATOM     20  O   UNL A   1      36.906  22.094  24.539  1.00  0.00    -0.258 OA
ATOM     21  O   UNL A   1      36.648  22.906  22.516  1.00  0.00    -0.258 OA
ENDBRANCH  15  19
ENDBRANCH  10  12
ENDBRANCH   6  10
ENDBRANCH   3   6
ENDBRANCH   1   2
BRANCH   1  22
ATOM     22  C   UNL A   1      32.847  30.953  27.249  1.00  0.00     0.042 C 
BRANCH  22  23
ATOM     23  C   UNL A   1      34.245  30.455  27.625  1.00  0.00     0.118 C 
BRANCH  23  24
ATOM     24  N   UNL A   1      34.870  31.245  28.688  1.00  0.00    -0.352 N 
ATOM     25  C   UNL A   1      36.055  31.038  29.369  1.00  0.00     0.251 C 
ATOM     26  H   UNL A   1      34.370  32.048  28.959  1.00  0.00     0.163 HD
ATOM     27  O   UNL A   1      36.446  31.862  30.194  1.00  0.00    -0.269 OA
BRANCH  25  28
ATOM     28  C   UNL A   1      36.924  29.897  29.009  1.00  0.00     0.039 A 
ATOM     29  C   UNL A   1      37.283  29.004  30.025  1.00  0.00     0.014 A 
ATOM     30  C   UNL A   1      37.505  29.792  27.747  1.00  0.00     0.014 A 
ATOM     31  C   UNL A   1      38.394  28.182  29.855  1.00  0.00     0.010 A 
ATOM     32  C   UNL A   1      38.643  29.018  27.592  1.00  0.00     0.010 A 
ATOM     33  C   UNL A   1      39.130  28.274  28.673  1.00  0.00    -0.014 A 
BRANCH  33  34
ATOM     34  C   UNL A   1      40.478  27.731  28.554  1.00  0.00     0.031 A 
ATOM     35  C   UNL A   1      40.711  26.312  28.221  1.00  0.00     0.074 A 
ATOM     36  C   UNL A   1      41.543  28.531  28.782  1.00  0.00     0.049 A 
ATOM     37  N   UNL A   1      41.731  25.637  28.641  1.00  0.00    -0.248 NA
ATOM     38  C   UNL A   1      39.789  25.534  27.404  1.00  0.00     0.031 C 
ATOM     39  C   UNL A   1      42.951  28.217  28.553  1.00  0.00     0.029 A 
ATOM     40  N   UNL A   1      41.567  29.746  29.491  1.00  0.00    -0.354 N 
ATOM     41  C   UNL A   1      41.742  24.445  27.961  1.00  0.00     0.074 A 
ATOM     42  C   UNL A   1      40.478  24.396  27.254  1.00  0.00     0.031 C 
ATOM     43  C   UNL A   1      43.699  28.993  29.351  1.00  0.00     0.029 A 
ATOM     44  C   UNL A   1      42.792  29.742  30.201  1.00  0.00     0.049 A 
ATOM     45  H   UNL A   1      40.879  30.450  29.493  1.00  0.00     0.167 HD
ATOM     46  C   UNL A   1      42.864  23.673  27.951  1.00  0.00     0.037 A 
ATOM     47  C   UNL A   1      42.825  29.774  31.565  1.00  0.00     0.037 A 
ATOM     48  C   UNL A   1      43.952  24.249  28.729  1.00  0.00     0.049 A 
ATOM     49  C   UNL A   1      43.522  28.600  32.214  1.00  0.00     0.074 A 
ATOM     50  C   UNL A   1      45.059  25.016  28.405  1.00  0.00     0.029 A 
ATOM     51  N   UNL A   1      43.830  24.320  30.105  1.00  0.00    -0.354 N 
ATOM     52  N   UNL A   1      43.945  27.551  31.568  1.00  0.00    -0.248 NA
ATOM     53  C   UNL A   1      43.694  28.470  33.663  1.00  0.00     0.031 C 
ATOM     54  C   UNL A   1      45.600  25.552  29.605  1.00  0.00     0.029 A 
ATOM     55  C   UNL A   1      44.818  25.112  30.657  1.00  0.00     0.049 A 
ATOM     56  H   UNL A   1      43.128  23.865  30.625  1.00  0.00     0.167 HD
ATOM     57  C   UNL A   1      44.378  26.614  32.466  1.00  0.00     0.074 A 
ATOM     58  C   UNL A   1      44.204  27.231  33.766  1.00  0.00     0.031 C 
ATOM     59  C   UNL A   1      44.810  25.381  32.081  1.00  0.00     0.037 A 
BRANCH  46  60
ATOM     60  C   UNL A   1      43.025  22.516  27.007  1.00  0.00     0.064 A 
ATOM     61  C   UNL A   1      42.296  21.323  27.182  1.00  0.00     0.173 A 
ATOM     62  C   UNL A   1      43.931  22.522  25.931  1.00  0.00     0.173 A 
ATOM     63  F   UNL A   1      41.354  21.211  28.125  1.00  0.00    -0.203 F 
ATOM     64  C   UNL A   1      42.531  20.189  26.403  1.00  0.00     0.198 A 
ATOM     65  C   UNL A   1      44.203  21.372  25.186  1.00  0.00     0.198 A 
ATOM     66  F   UNL A   1      44.570  23.648  25.579  1.00  0.00    -0.203 F 
ATOM     67  F   UNL A   1      41.818  19.074  26.621  1.00  0.00    -0.200 F 
ATOM     68  C   UNL A   1      43.510  20.201  25.430  1.00  0.00     0.200 A 
ATOM     69  F   UNL A   1      45.152  21.400  24.240  1.00  0.00    -0.200 F 
ATOM     70  F   UNL A   1      43.777  19.094  24.725  1.00  0.00    -0.200 F 
ENDBRANCH  46  60
BRANCH  47  71
ATOM     71  C   UNL A   1      41.676  30.502  32.155  1.00  0.00     0.064 A 
ATOM     72  C   UNL A   1      41.639  31.905  32.037  1.00  0.00     0.173 A 
ATOM     73  C   UNL A   1      40.485  29.845  32.479  1.00  0.00     0.173 A 
ATOM     74  F   UNL A   1      42.756  32.583  31.726  1.00  0.00    -0.203 F 
ATOM     75  C   UNL A   1      40.437  32.603  32.115  1.00  0.00     0.198 A 
ATOM     76  C   UNL A   1      39.287  30.551  32.579  1.00  0.00     0.198 A 
ATOM     77  F   UNL A   1      40.458  28.508  32.592  1.00  0.00    -0.203 F 
ATOM     78  F   UNL A   1      40.414  33.922  31.878  1.00  0.00    -0.200 F 
ATOM     79  C   UNL A   1      39.258  31.920  32.358  1.00  0.00     0.200 A 
ATOM     80  F   UNL A   1      38.144  29.889  32.808  1.00  0.00    -0.200 F 
ATOM     81  F   UNL A   1      38.090  32.578  32.343  1.00  0.00    -0.200 F 
ENDBRANCH  47  71
BRANCH  59  82
ATOM     82  C   UNL A   1      45.292  24.337  33.038  1.00  0.00     0.064 A 
ATOM     83  C   UNL A   1      44.498  23.244  33.414  1.00  0.00     0.173 A 
ATOM     84  C   UNL A   1      46.525  24.479  33.704  1.00  0.00     0.173 A 
ATOM     85  F   UNL A   1      43.288  23.055  32.864  1.00  0.00    -0.203 F 
ATOM     86  C   UNL A   1      44.924  22.332  34.379  1.00  0.00     0.198 A 
ATOM     87  C   UNL A   1      46.928  23.596  34.702  1.00  0.00     0.198 A 
ATOM     88  F   UNL A   1      47.374  25.469  33.388  1.00  0.00    -0.203 F 
ATOM     89  F   UNL A   1      44.157  21.276  34.684  1.00  0.00    -0.200 F 
ATOM     90  C   UNL A   1      46.131  22.515  35.034  1.00  0.00     0.200 A 
ATOM     91  F   UNL A   1      48.090  23.795  35.339  1.00  0.00    -0.200 F 
ATOM     92  F   UNL A   1      46.528  21.654  35.979  1.00  0.00    -0.200 F 
ENDBRANCH  59  82
ENDBRANCH  33  34
ENDBRANCH  25  28
ENDBRANCH  23  24
ENDBRANCH  22  23
ENDBRANCH   1  22
TORSDOF 14
ENDMDL
MODEL 3
REMARK VINA RESULT:     -13.0      0.856      1.485
REMARK SMILES CC[C@@](C)(Nc1cc([N+](=O)[O-])ccc1C)C(=O)NCCCNC(=O)c1ccc(-c2c3nc(c(-c4c(F)c(F)c(F)c(F)c4F)c4ccc([nH]4)c(-c4c(F)c(F)c(F)c(F)c4F)c4nc(c(-c5c(F)c(F)c(F)c(F)c5F)c5ccc2[nH]5)C=C4)C=C3)cc1
REMARK SMILES IDX 19 1 18 2 16 3 17 4 3 6 4 7 2 8 1 9 5 10 6 12 7 13 14 14
REMARK SMILES IDX 8 15 13 16 15 17 12 18 9 19 10 20 11 21 20 22 21 23 22 24
REMARK SMILES IDX 23 25 24 27 25 28 26 29 87 30 27 31 86 32 28 33 29 34 30 35
REMARK SMILES IDX 80 36 31 37 85 38 79 39 81 40 32 41 84 42 78 43 77 44 33 46
REMARK SMILES IDX 65 47 45 48 64 49 46 50 49 51 63 52 82 53 47 54 48 55 62 57
REMARK SMILES IDX 83 58 50 59 34 60 35 61 43 62 36 63 37 64 41 65 44 66 38 67
REMARK SMILES IDX 39 68 42 69 40 70 66 71 67 72 75 73 68 74 69 75 73 76 76 77
REMARK SMILES IDX 70 78 71 79 74 80 72 81 51 82 52 83 60 84 53 85 54 86 58 87
REMARK SMILES IDX 61 88 55 89 56 90 59 91 57 92
REMARK H PARENT 18 5 5 11 22 26 81 45 49 56
REMARK Flexibility Score: inf
ROOT
ATOM      1  C   UNL A   1      32.412  30.003  25.701  1.00  0.00     0.117 C 
ENDROOT
BRANCH   1   2
ATOM      2  N   UNL A   1      32.284  28.547  25.656  1.00  0.00    -0.354 N 
ATOM      3  C   UNL A   1      32.496  27.541  24.751  1.00  0.00     0.245 C 
ATOM      4  O   UNL A   1      32.467  26.412  25.272  1.00  0.00    -0.272 OA
ATOM      5  H   UNL A   1      31.953  28.192  26.513  1.00  0.00     0.163 HD
BRANCH   3   6
ATOM      6  C   UNL A   1      32.708  27.678  23.194  1.00  0.00     0.113 C 
ATOM      7  C   UNL A   1      33.551  28.884  22.765  1.00  0.00     0.045 C 
BRANCH   6   8
ATOM      8  C   UNL A   1      33.453  26.376  22.711  1.00  0.00     0.035 C 
ATOM      9  C   UNL A   1      32.753  25.573  21.615  1.00  0.00     0.007 C 
ENDBRANCH   6   8
BRANCH   6  10
ATOM     10  N   UNL A   1      31.442  27.743  22.361  1.00  0.00    -0.371 N 
ATOM     11  H   UNL A   1      31.491  27.270  21.499  1.00  0.00     0.161 HD
BRANCH  10  12
ATOM     12  C   UNL A   1      30.230  28.363  22.619  1.00  0.00     0.045 A 
ATOM     13  C   UNL A   1      30.101  29.749  22.439  1.00  0.00     0.111 A 
ATOM     14  C   UNL A   1      29.106  27.724  23.149  1.00  0.00    -0.027 A 
ATOM     15  C   UNL A   1      28.868  30.397  22.672  1.00  0.00     0.271 A 
ATOM     16  C   UNL A   1      27.832  28.319  23.165  1.00  0.00     0.012 A 
ATOM     17  C   UNL A   1      29.233  26.501  23.987  1.00  0.00     0.046 C 
ATOM     18  C   UNL A   1      27.707  29.671  22.930  1.00  0.00     0.086 A 
BRANCH  15  19
ATOM     19  N   UNL A   1      28.813  31.858  22.781  1.00  0.00     0.062 N 
ATOM     20  O   UNL A   1      28.428  32.498  21.793  1.00  0.00    -0.258 OA
ATOM     21  O   UNL A   1      29.204  32.370  23.841  1.00  0.00    -0.258 OA
ENDBRANCH  15  19
ENDBRANCH  10  12
ENDBRANCH   6  10
ENDBRANCH   3   6
ENDBRANCH   1   2
BRANCH   1  22
ATOM     22  C   UNL A   1      32.905  30.656  27.013  1.00  0.00     0.042 C 
BRANCH  22  23
ATOM     23  C   UNL A   1      34.271  30.208  27.541  1.00  0.00     0.118 C 
BRANCH  23  24
ATOM     24  N   UNL A   1      34.737  31.006  28.677  1.00  0.00    -0.352 N 
ATOM     25  C   UNL A   1      35.897  30.898  29.421  1.00  0.00     0.251 C 
ATOM     26  H   UNL A   1      34.132  31.732  28.953  1.00  0.00     0.163 HD
ATOM     27  O   UNL A   1      36.142  31.716  30.307  1.00  0.00    -0.269 OA
BRANCH  25  28
ATOM     28  C   UNL A   1      36.912  29.883  29.064  1.00  0.00     0.039 A 
ATOM     29  C   UNL A   1      37.255  28.935  30.034  1.00  0.00     0.014 A 
ATOM     30  C   UNL A   1      37.627  29.956  27.871  1.00  0.00     0.014 A 
ATOM     31  C   UNL A   1      38.457  28.240  29.920  1.00  0.00     0.010 A 
ATOM     32  C   UNL A   1      38.850  29.310  27.778  1.00  0.00     0.010 A 
ATOM     33  C   UNL A   1      39.297  28.515  28.839  1.00  0.00    -0.014 A 
BRANCH  33  34
ATOM     34  C   UNL A   1      40.700  28.114  28.826  1.00  0.00     0.031 A 
ATOM     35  C   UNL A   1      41.120  26.795  28.315  1.00  0.00     0.074 A 
ATOM     36  C   UNL A   1      41.637  28.953  29.319  1.00  0.00     0.049 A 
ATOM     37  N   UNL A   1      42.145  26.149  28.764  1.00  0.00    -0.248 NA
ATOM     38  C   UNL A   1      40.392  26.088  27.268  1.00  0.00     0.031 C 
ATOM     39  C   UNL A   1      43.088  28.801  29.241  1.00  0.00     0.029 A 
ATOM     40  N   UNL A   1      41.447  30.031  30.202  1.00  0.00    -0.354 N 
ATOM     41  C   UNL A   1      42.366  25.091  27.916  1.00  0.00     0.074 A 
ATOM     42  C   UNL A   1      41.211  25.054  27.043  1.00  0.00     0.031 C 
ATOM     43  C   UNL A   1      43.647  29.494  30.244  1.00  0.00     0.029 A 
ATOM     44  C   UNL A   1      42.569  30.013  31.065  1.00  0.00     0.049 A 
ATOM     45  H   UNL A   1      40.693  30.665  30.217  1.00  0.00     0.167 HD
ATOM     46  C   UNL A   1      43.556  24.429  27.944  1.00  0.00     0.037 A 
ATOM     47  C   UNL A   1      42.431  29.821  32.409  1.00  0.00     0.037 A 
ATOM     48  C   UNL A   1      44.473  24.958  28.944  1.00  0.00     0.049 A 
ATOM     49  C   UNL A   1      43.162  28.619  32.961  1.00  0.00     0.074 A 
ATOM     50  C   UNL A   1      45.525  25.858  28.897  1.00  0.00     0.029 A 
ATOM     51  N   UNL A   1      44.176  24.789  30.284  1.00  0.00    -0.354 N 
ATOM     52  N   UNL A   1      43.769  27.731  32.226  1.00  0.00    -0.248 NA
ATOM     53  C   UNL A   1      43.168  28.266  34.382  1.00  0.00     0.031 C 
ATOM     54  C   UNL A   1      45.854  26.231  30.228  1.00  0.00     0.029 A 
ATOM     55  C   UNL A   1      45.000  25.559  31.082  1.00  0.00     0.049 A 
ATOM     56  H   UNL A   1      43.468  24.197  30.626  1.00  0.00     0.167 HD
ATOM     57  C   UNL A   1      44.185  26.698  33.021  1.00  0.00     0.074 A 
ATOM     58  C   UNL A   1      43.789  27.075  34.364  1.00  0.00     0.031 C 
ATOM     59  C   UNL A   1      44.789  25.587  32.515  1.00  0.00     0.037 A 
BRANCH  46  60
ATOM     60  C   UNL A   1      43.953  23.462  26.865  1.00  0.00     0.064 A 
ATOM     61  C   UNL A   1      44.840  23.838  25.836  1.00  0.00     0.173 A 
ATOM     62  C   UNL A   1      43.442  22.155  26.778  1.00  0.00     0.173 A 
ATOM     63  F   UNL A   1      45.448  25.030  25.838  1.00  0.00    -0.203 F 
ATOM     64  C   UNL A   1      45.112  23.006  24.750  1.00  0.00     0.198 A 
ATOM     65  C   UNL A   1      43.673  21.341  25.666  1.00  0.00     0.198 A 
ATOM     66  F   UNL A   1      42.707  21.638  27.775  1.00  0.00    -0.203 F 
ATOM     67  F   UNL A   1      45.953  23.419  23.791  1.00  0.00    -0.200 F 
ATOM     68  C   UNL A   1      44.501  21.773  24.645  1.00  0.00     0.200 A 
ATOM     69  F   UNL A   1      43.078  20.144  25.580  1.00  0.00    -0.200 F 
ATOM     70  F   UNL A   1      44.715  21.000  23.572  1.00  0.00    -0.200 F 
ENDBRANCH  46  60
BRANCH  47  71
ATOM     71  C   UNL A   1      41.148  30.342  32.939  1.00  0.00     0.064 A 
ATOM     72  C   UNL A   1      40.955  31.737  32.979  1.00  0.00     0.173 A 
ATOM     73  C   UNL A   1      40.017  29.526  33.044  1.00  0.00     0.173 A 
ATOM     74  F   UNL A   1      42.009  32.563  32.881  1.00  0.00    -0.203 F 
ATOM     75  C   UNL A   1      39.677  32.286  32.995  1.00  0.00     0.198 A 
ATOM     76  C   UNL A   1      38.739  30.081  33.082  1.00  0.00     0.198 A 
ATOM     77  F   UNL A   1      40.139  28.190  32.999  1.00  0.00    -0.203 F 
ATOM     78  F   UNL A   1      39.520  33.616  32.909  1.00  0.00    -0.200 F 
ATOM     79  C   UNL A   1      38.569  31.457  33.018  1.00  0.00     0.200 A 
ATOM     80  F   UNL A   1      37.666  29.279  33.098  1.00  0.00    -0.200 F 
ATOM     81  F   UNL A   1      37.339  31.983  32.940  1.00  0.00    -0.200 F 
ENDBRANCH  47  71
BRANCH  59  82
ATOM     82  C   UNL A   1      45.257  24.443  33.358  1.00  0.00     0.064 A 
ATOM     83  C   UNL A   1      44.468  23.305  33.578  1.00  0.00     0.173 A 
ATOM     84  C   UNL A   1      46.468  24.519  34.075  1.00  0.00     0.173 A 
ATOM     85  F   UNL A   1      43.279  23.168  32.971  1.00  0.00    -0.203 F 
ATOM     86  C   UNL A   1      44.879  22.290  34.443  1.00  0.00     0.198 A 
ATOM     87  C   UNL A   1      46.853  23.530  34.975  1.00  0.00     0.198 A 
ATOM     88  F   UNL A   1      47.311  25.549  33.904  1.00  0.00    -0.203 F 
ATOM     89  F   UNL A   1      44.119  21.197  34.598  1.00  0.00    -0.200 F 
ATOM     90  C   UNL A   1      46.063  22.409  35.153  1.00  0.00     0.200 A 
ATOM     91  F   UNL A   1      47.993  23.666  35.667  1.00  0.00    -0.200 F 
ATOM     92  F   UNL A   1      46.444  21.447  36.003  1.00  0.00    -0.200 F 
ENDBRANCH  59  82
ENDBRANCH  33  34
ENDBRANCH  25  28
ENDBRANCH  23  24
ENDBRANCH  22  23
ENDBRANCH   1  22
TORSDOF 14
ENDMDL
