MODEL 1
REMARK VINA RESULT:     -10.1      0.000      0.000
REMARK SMILES Nc1c(CC(=O)NCCCNC(=O)c2ccc(-c3c4nc(c(-c5c(F)c(F)c(F)c(F)c5F)c5ccc([nH]5)c(-c5c(F)c(F)c(F)c(F)c5F)c5nc(c(-c6c(F)c(F)c(F)c(F)c6F)c6ccc3[nH]6)C=C5)C=C4)cc2)cccc1C(=O)c1ccc(Br)cc1
REMARK SMILES IDX 8 1 7 2 5 3 6 4 4 6 3 7 2 8 80 9 77 10 79 11 78 12 1 13
REMARK SMILES IDX 81 16 82 17 83 18 84 19 89 20 85 21 88 22 86 23 87 24 9 25
REMARK SMILES IDX 10 26 11 27 12 28 13 30 14 31 15 32 76 33 16 34 75 35 17 36
REMARK SMILES IDX 18 37 19 38 69 39 20 40 74 41 68 42 70 43 21 44 73 45 67 46
REMARK SMILES IDX 66 47 22 49 54 50 34 51 53 52 35 53 38 54 52 55 71 56 36 57
REMARK SMILES IDX 37 58 51 60 72 61 39 62 23 63 24 64 32 65 25 66 26 67 30 68
REMARK SMILES IDX 33 69 27 70 28 71 31 72 29 73 55 74 56 75 64 76 57 77 58 78
REMARK SMILES IDX 62 79 65 80 59 81 60 82 63 83 61 84 40 85 41 86 49 87 42 88
REMARK SMILES IDX 43 89 47 90 50 91 44 92 45 93 48 94 46 95
REMARK H PARENT 7 5 1 14 1 15 11 29 70 48 38 59
REMARK Flexibility Score: inf
ROOT
ATOM      1  C   UNL A   1      34.271  34.717  29.704  1.00  0.00     0.117 C 
ENDROOT
BRANCH   1   2
ATOM      2  N   UNL A   1      33.908  34.150  30.988  1.00  0.00    -0.356 N 
ATOM      3  C   UNL A   1      34.517  33.149  31.688  1.00  0.00     0.224 C 
ATOM      4  O   UNL A   1      33.995  32.775  32.740  1.00  0.00    -0.275 OA
ATOM      5  H   UNL A   1      33.112  34.543  31.414  1.00  0.00     0.163 HD
BRANCH   3   6
ATOM      6  C   UNL A   1      35.826  32.550  31.200  1.00  0.00     0.137 C 
BRANCH   6   7
ATOM      7  C   UNL A   1      36.974  32.675  32.189  1.00  0.00    -0.015 A 
ATOM      8  C   UNL A   1      37.383  31.609  33.036  1.00  0.00     0.046 A 
ATOM      9  C   UNL A   1      38.413  31.849  33.983  1.00  0.00     0.046 A 
ATOM     10  C   UNL A   1      37.606  33.929  32.278  1.00  0.00     0.006 A 
ATOM     11  C   UNL A   1      39.009  33.124  34.050  1.00  0.00     0.014 A 
ATOM     12  C   UNL A   1      38.615  34.154  33.205  1.00  0.00     0.001 A 
BRANCH   8  13
ATOM     13  N   UNL A   1      36.718  30.392  32.927  1.00  0.00    -0.398 N 
ATOM     14  H   UNL A   1      36.844  29.833  32.127  1.00  0.00     0.156 HD
ATOM     15  H   UNL A   1      36.121  30.091  33.649  1.00  0.00     0.156 HD
ENDBRANCH   8  13
BRANCH   9  16
ATOM     16  C   UNL A   1      38.931  30.868  34.997  1.00  0.00     0.195 C 
ATOM     17  O   UNL A   1      38.350  30.722  36.072  1.00  0.00    -0.289 OA
BRANCH  16  18
ATOM     18  C   UNL A   1      40.090  29.991  34.762  1.00  0.00     0.023 A 
ATOM     19  C   UNL A   1      40.962  29.763  35.834  1.00  0.00     0.013 A 
ATOM     20  C   UNL A   1      40.303  29.367  33.528  1.00  0.00     0.013 A 
ATOM     21  C   UNL A   1      42.011  28.855  35.695  1.00  0.00     0.016 A 
ATOM     22  C   UNL A   1      41.352  28.453  33.395  1.00  0.00     0.016 A 
ATOM     23  C   UNL A   1      42.192  28.193  34.480  1.00  0.00     0.018 A 
ATOM     24  Br  UNL A   1      43.576  26.917  34.310  1.00  0.00    -0.051 Br
ENDBRANCH  16  18
ENDBRANCH   9  16
ENDBRANCH   6   7
ENDBRANCH   3   6
ENDBRANCH   1   2
BRANCH   1  25
ATOM     25  C   UNL A   1      33.621  33.972  28.539  1.00  0.00     0.042 C 
BRANCH  25  26
ATOM     26  C   UNL A   1      34.502  32.876  27.942  1.00  0.00     0.118 C 
BRANCH  26  27
ATOM     27  N   UNL A   1      33.772  31.633  27.725  1.00  0.00    -0.352 N 
ATOM     28  C   UNL A   1      34.211  30.338  27.684  1.00  0.00     0.251 C 
ATOM     29  H   UNL A   1      32.804  31.743  27.583  1.00  0.00     0.163 HD
ATOM     30  O   UNL A   1      33.440  29.456  27.303  1.00  0.00    -0.269 OA
BRANCH  28  31
ATOM     31  C   UNL A   1      35.592  29.979  28.072  1.00  0.00     0.039 A 
ATOM     32  C   UNL A   1      36.601  30.079  27.106  1.00  0.00     0.014 A 
ATOM     33  C   UNL A   1      35.897  29.492  29.348  1.00  0.00     0.014 A 
ATOM     34  C   UNL A   1      37.916  29.744  27.433  1.00  0.00     0.010 A 
ATOM     35  C   UNL A   1      37.221  29.222  29.692  1.00  0.00     0.010 A 
ATOM     36  C   UNL A   1      38.241  29.341  28.737  1.00  0.00    -0.014 A 
BRANCH  36  37
ATOM     37  C   UNL A   1      39.649  29.064  29.116  1.00  0.00     0.031 A 
ATOM     38  C   UNL A   1      40.451  30.074  29.886  1.00  0.00     0.074 A 
ATOM     39  C   UNL A   1      40.228  27.921  28.703  1.00  0.00     0.049 A 
ATOM     40  N   UNL A   1      41.701  30.018  30.274  1.00  0.00    -0.248 NA
ATOM     41  C   UNL A   1      39.766  31.325  30.242  1.00  0.00     0.031 C 
ATOM     42  C   UNL A   1      39.576  26.895  27.888  1.00  0.00     0.029 A 
ATOM     43  N   UNL A   1      41.498  27.438  28.897  1.00  0.00    -0.354 N 
ATOM     44  C   UNL A   1      41.956  31.228  30.903  1.00  0.00     0.074 A 
ATOM     45  C   UNL A   1      40.747  32.018  30.802  1.00  0.00     0.031 C 
ATOM     46  C   UNL A   1      40.446  25.900  27.660  1.00  0.00     0.029 A 
ATOM     47  C   UNL A   1      41.722  26.229  28.290  1.00  0.00     0.049 A 
ATOM     48  H   UNL A   1      42.182  27.915  29.421  1.00  0.00     0.167 HD
ATOM     49  C   UNL A   1      43.090  31.636  31.523  1.00  0.00     0.037 A 
ATOM     50  C   UNL A   1      42.833  25.469  28.241  1.00  0.00     0.037 A 
ATOM     51  C   UNL A   1      44.284  30.838  31.640  1.00  0.00     0.049 A 
ATOM     52  C   UNL A   1      44.067  25.925  28.965  1.00  0.00     0.074 A 
ATOM     53  C   UNL A   1      45.451  31.122  32.326  1.00  0.00     0.029 A 
ATOM     54  N   UNL A   1      44.465  29.598  31.041  1.00  0.00    -0.354 N 
ATOM     55  N   UNL A   1      44.269  27.030  29.640  1.00  0.00    -0.248 NA
ATOM     56  C   UNL A   1      45.224  25.020  28.931  1.00  0.00     0.031 C 
ATOM     57  C   UNL A   1      46.356  30.077  32.105  1.00  0.00     0.029 A 
ATOM     58  C   UNL A   1      45.736  29.119  31.319  1.00  0.00     0.049 A 
ATOM     59  H   UNL A   1      43.790  29.129  30.500  1.00  0.00     0.167 HD
ATOM     60  C   UNL A   1      45.570  26.953  30.118  1.00  0.00     0.074 A 
ATOM     61  C   UNL A   1      46.102  25.680  29.676  1.00  0.00     0.031 C 
ATOM     62  C   UNL A   1      46.260  27.857  30.855  1.00  0.00     0.037 A 
BRANCH  49  63
ATOM     63  C   UNL A   1      43.090  33.014  32.121  1.00  0.00     0.064 A 
ATOM     64  C   UNL A   1      42.707  33.242  33.452  1.00  0.00     0.173 A 
ATOM     65  C   UNL A   1      43.484  34.122  31.354  1.00  0.00     0.173 A 
ATOM     66  F   UNL A   1      42.312  32.219  34.225  1.00  0.00    -0.203 F 
ATOM     67  C   UNL A   1      42.679  34.531  33.980  1.00  0.00     0.198 A 
ATOM     68  C   UNL A   1      43.485  35.405  31.896  1.00  0.00     0.198 A 
ATOM     69  F   UNL A   1      43.868  33.961  30.079  1.00  0.00    -0.203 F 
ATOM     70  F   UNL A   1      42.250  34.729  35.234  1.00  0.00    -0.200 F 
ATOM     71  C   UNL A   1      43.071  35.610  33.203  1.00  0.00     0.200 A 
ATOM     72  F   UNL A   1      43.875  36.446  31.148  1.00  0.00    -0.200 F 
ATOM     73  F   UNL A   1      43.040  36.850  33.712  1.00  0.00    -0.200 F 
ENDBRANCH  49  63
BRANCH  50  74
ATOM     74  C   UNL A   1      42.802  24.187  27.496  1.00  0.00     0.064 A 
ATOM     75  C   UNL A   1      43.118  24.138  26.132  1.00  0.00     0.173 A 
ATOM     76  C   UNL A   1      42.504  22.979  28.144  1.00  0.00     0.173 A 
ATOM     77  F   UNL A   1      43.391  25.271  25.469  1.00  0.00    -0.203 F 
ATOM     78  C   UNL A   1      43.132  22.929  25.442  1.00  0.00     0.198 A 
ATOM     79  C   UNL A   1      42.541  21.768  27.458  1.00  0.00     0.198 A 
ATOM     80  F   UNL A   1      42.203  22.976  29.451  1.00  0.00    -0.203 F 
ATOM     81  F   UNL A   1      43.412  22.912  24.132  1.00  0.00    -0.200 F 
ATOM     82  C   UNL A   1      42.852  21.744  26.106  1.00  0.00     0.200 A 
ATOM     83  F   UNL A   1      42.283  20.624  28.106  1.00  0.00    -0.200 F 
ATOM     84  F   UNL A   1      42.880  20.579  25.444  1.00  0.00    -0.200 F 
ENDBRANCH  50  74
BRANCH  62  85
ATOM     85  C   UNL A   1      47.669  27.500  31.228  1.00  0.00     0.064 A 
ATOM     86  C   UNL A   1      48.756  27.875  30.425  1.00  0.00     0.173 A 
ATOM     87  C   UNL A   1      47.938  26.797  32.412  1.00  0.00     0.173 A 
ATOM     88  F   UNL A   1      48.550  28.535  29.275  1.00  0.00    -0.203 F 
ATOM     89  C   UNL A   1      50.059  27.537  30.780  1.00  0.00     0.198 A 
ATOM     90  C   UNL A   1      49.244  26.485  32.778  1.00  0.00     0.198 A 
ATOM     91  F   UNL A   1      46.934  26.419  33.217  1.00  0.00    -0.203 F 
ATOM     92  F   UNL A   1      51.079  27.864  29.973  1.00  0.00    -0.200 F 
ATOM     93  C   UNL A   1      50.303  26.848  31.959  1.00  0.00     0.200 A 
ATOM     94  F   UNL A   1      49.479  25.828  33.923  1.00  0.00    -0.200 F 
ATOM     95  F   UNL A   1      51.558  26.525  32.300  1.00  0.00    -0.200 F 
ENDBRANCH  62  85
ENDBRANCH  36  37
ENDBRANCH  28  31
ENDBRANCH  26  27
ENDBRANCH  25  26
ENDBRANCH   1  25
TORSDOF 14
ENDMDL
MODEL 2
REMARK VINA RESULT:      -9.9      0.515      1.750
REMARK SMILES Nc1c(CC(=O)NCCCNC(=O)c2ccc(-c3c4nc(c(-c5c(F)c(F)c(F)c(F)c5F)c5ccc([nH]5)c(-c5c(F)c(F)c(F)c(F)c5F)c5nc(c(-c6c(F)c(F)c(F)c(F)c6F)c6ccc3[nH]6)C=C5)C=C4)cc2)cccc1C(=O)c1ccc(Br)cc1
REMARK SMILES IDX 8 1 7 2 5 3 6 4 4 6 3 7 2 8 80 9 77 10 79 11 78 12 1 13
REMARK SMILES IDX 81 16 82 17 83 18 84 19 89 20 85 21 88 22 86 23 87 24 9 25
REMARK SMILES IDX 10 26 11 27 12 28 13 30 14 31 15 32 76 33 16 34 75 35 17 36
REMARK SMILES IDX 18 37 19 38 69 39 20 40 74 41 68 42 70 43 21 44 73 45 67 46
REMARK SMILES IDX 66 47 22 49 54 50 34 51 53 52 35 53 38 54 52 55 71 56 36 57
REMARK SMILES IDX 37 58 51 60 72 61 39 62 23 63 24 64 32 65 25 66 26 67 30 68
REMARK SMILES IDX 33 69 27 70 28 71 31 72 29 73 55 74 56 75 64 76 57 77 58 78
REMARK SMILES IDX 62 79 65 80 59 81 60 82 63 83 61 84 40 85 41 86 49 87 42 88
REMARK SMILES IDX 43 89 47 90 50 91 44 92 45 93 48 94 46 95
REMARK H PARENT 7 5 1 14 1 15 11 29 70 48 38 59
REMARK Flexibility Score: inf
ROOT
ATOM      1  C   UNL A   1      34.339  34.494  29.754  1.00  0.00     0.117 C 
ENDROOT
BRANCH   1   2
ATOM      2  N   UNL A   1      34.123  33.969  31.087  1.00  0.00    -0.356 N 
ATOM      3  C   UNL A   1      34.870  33.065  31.786  1.00  0.00     0.224 C 
ATOM      4  O   UNL A   1      34.461  32.703  32.892  1.00  0.00    -0.275 OA
ATOM      5  H   UNL A   1      33.326  34.312  31.554  1.00  0.00     0.163 HD
BRANCH   3   6
ATOM      6  C   UNL A   1      36.191  32.559  31.230  1.00  0.00     0.137 C 
BRANCH   6   7
ATOM      7  C   UNL A   1      37.339  32.592  32.226  1.00  0.00    -0.015 A 
ATOM      8  C   UNL A   1      37.671  31.487  33.058  1.00  0.00     0.046 A 
ATOM      9  C   UNL A   1      38.709  31.642  34.013  1.00  0.00     0.046 A 
ATOM     10  C   UNL A   1      38.052  33.800  32.340  1.00  0.00     0.006 A 
ATOM     11  C   UNL A   1      39.388  32.874  34.105  1.00  0.00     0.014 A 
ATOM     12  C   UNL A   1      39.068  33.942  33.275  1.00  0.00     0.001 A 
BRANCH   8  13
ATOM     13  N   UNL A   1      36.928  30.319  32.924  1.00  0.00    -0.398 N 
ATOM     14  H   UNL A   1      37.315  29.455  33.193  1.00  0.00     0.156 HD
ATOM     15  H   UNL A   1      36.013  30.357  32.561  1.00  0.00     0.156 HD
ENDBRANCH   8  13
BRANCH   9  16
ATOM     16  C   UNL A   1      39.154  30.613  35.014  1.00  0.00     0.195 C 
ATOM     17  O   UNL A   1      38.529  30.455  36.062  1.00  0.00    -0.289 OA
BRANCH  16  18
ATOM     18  C   UNL A   1      40.291  29.703  34.793  1.00  0.00     0.023 A 
ATOM     19  C   UNL A   1      41.144  29.451  35.875  1.00  0.00     0.013 A 
ATOM     20  C   UNL A   1      40.501  29.072  33.562  1.00  0.00     0.013 A 
ATOM     21  C   UNL A   1      42.168  28.514  35.749  1.00  0.00     0.016 A 
ATOM     22  C   UNL A   1      41.525  28.129  33.441  1.00  0.00     0.016 A 
ATOM     23  C   UNL A   1      42.345  27.846  34.537  1.00  0.00     0.018 A 
ATOM     24  Br  UNL A   1      43.694  26.532  34.384  1.00  0.00    -0.051 Br
ENDBRANCH  16  18
ENDBRANCH   9  16
ENDBRANCH   6   7
ENDBRANCH   3   6
ENDBRANCH   1   2
BRANCH   1  25
ATOM     25  C   UNL A   1      33.643  33.658  28.682  1.00  0.00     0.042 C 
BRANCH  25  26
ATOM     26  C   UNL A   1      34.552  32.624  28.022  1.00  0.00     0.118 C 
BRANCH  26  27
ATOM     27  N   UNL A   1      33.894  31.335  27.848  1.00  0.00    -0.352 N 
ATOM     28  C   UNL A   1      34.411  30.069  27.807  1.00  0.00     0.251 C 
ATOM     29  H   UNL A   1      32.916  31.383  27.741  1.00  0.00     0.163 HD
ATOM     30  O   UNL A   1      33.682  29.136  27.466  1.00  0.00    -0.269 OA
BRANCH  28  31
ATOM     31  C   UNL A   1      35.824  29.801  28.147  1.00  0.00     0.039 A 
ATOM     32  C   UNL A   1      36.121  29.328  29.432  1.00  0.00     0.014 A 
ATOM     33  C   UNL A   1      36.862  30.062  27.246  1.00  0.00     0.014 A 
ATOM     34  C   UNL A   1      37.444  29.068  29.792  1.00  0.00     0.010 A 
ATOM     35  C   UNL A   1      38.176  29.739  27.585  1.00  0.00     0.010 A 
ATOM     36  C   UNL A   1      38.479  29.244  28.862  1.00  0.00    -0.014 A 
BRANCH  36  37
ATOM     37  C   UNL A   1      39.878  28.890  29.208  1.00  0.00     0.031 A 
ATOM     38  C   UNL A   1      40.745  29.846  29.975  1.00  0.00     0.074 A 
ATOM     39  C   UNL A   1      40.389  27.725  28.769  1.00  0.00     0.049 A 
ATOM     40  N   UNL A   1      41.999  29.721  30.337  1.00  0.00    -0.248 NA
ATOM     41  C   UNL A   1      40.134  31.126  30.361  1.00  0.00     0.031 C 
ATOM     42  C   UNL A   1      39.670  26.745  27.954  1.00  0.00     0.029 A 
ATOM     43  N   UNL A   1      41.636  27.175  28.930  1.00  0.00    -0.354 N 
ATOM     44  C   UNL A   1      42.328  30.907  30.976  1.00  0.00     0.074 A 
ATOM     45  C   UNL A   1      41.160  31.760  30.910  1.00  0.00     0.031 C 
ATOM     46  C   UNL A   1      40.483  25.709  27.695  1.00  0.00     0.029 A 
ATOM     47  C   UNL A   1      41.785  25.964  28.303  1.00  0.00     0.049 A 
ATOM     48  H   UNL A   1      42.353  27.608  29.447  1.00  0.00     0.167 HD
ATOM     49  C   UNL A   1      43.493  31.248  31.579  1.00  0.00     0.037 A 
ATOM     50  C   UNL A   1      42.854  25.149  28.222  1.00  0.00     0.037 A 
ATOM     51  C   UNL A   1      44.647  30.388  31.661  1.00  0.00     0.049 A 
ATOM     52  C   UNL A   1      44.125  25.530  28.927  1.00  0.00     0.074 A 
ATOM     53  C   UNL A   1      45.839  30.602  32.328  1.00  0.00     0.029 A 
ATOM     54  N   UNL A   1      44.752  29.149  31.043  1.00  0.00    -0.354 N 
ATOM     55  N   UNL A   1      44.396  26.614  29.612  1.00  0.00    -0.248 NA
ATOM     56  C   UNL A   1      45.232  24.568  28.859  1.00  0.00     0.031 C 
ATOM     57  C   UNL A   1      46.685  29.515  32.075  1.00  0.00     0.029 A 
ATOM     58  C   UNL A   1      46.001  28.601  31.289  1.00  0.00     0.049 A 
ATOM     59  H   UNL A   1      44.043  28.722  30.509  1.00  0.00     0.167 HD
ATOM     60  C   UNL A   1      45.700  26.464  30.064  1.00  0.00     0.074 A 
ATOM     61  C   UNL A   1      46.157  25.171  29.595  1.00  0.00     0.031 C 
ATOM     62  C   UNL A   1      46.450  27.321  30.798  1.00  0.00     0.037 A 
BRANCH  49  63
ATOM     63  C   UNL A   1      43.575  32.616  32.194  1.00  0.00     0.064 A 
ATOM     64  C   UNL A   1      44.065  33.719  31.478  1.00  0.00     0.173 A 
ATOM     65  C   UNL A   1      43.153  32.829  33.515  1.00  0.00     0.173 A 
ATOM     66  F   UNL A   1      44.491  33.568  30.214  1.00  0.00    -0.203 F 
ATOM     67  C   UNL A   1      44.169  34.973  32.074  1.00  0.00     0.198 A 
ATOM     68  C   UNL A   1      43.228  34.092  34.098  1.00  0.00     0.198 A 
ATOM     69  F   UNL A   1      42.668  31.812  34.243  1.00  0.00    -0.203 F 
ATOM     70  F   UNL A   1      44.697  35.997  31.389  1.00  0.00    -0.200 F 
ATOM     71  C   UNL A   1      43.747  35.160  33.381  1.00  0.00     0.200 A 
ATOM     72  F   UNL A   1      42.809  34.273  35.358  1.00  0.00    -0.200 F 
ATOM     73  F   UNL A   1      43.850  36.367  33.955  1.00  0.00    -0.200 F 
ENDBRANCH  49  63
BRANCH  50  74
ATOM     74  C   UNL A   1      42.743  23.881  27.462  1.00  0.00     0.064 A 
ATOM     75  C   UNL A   1      43.121  23.812  26.115  1.00  0.00     0.173 A 
ATOM     76  C   UNL A   1      42.302  22.701  28.080  1.00  0.00     0.173 A 
ATOM     77  F   UNL A   1      43.531  24.920  25.479  1.00  0.00    -0.203 F 
ATOM     78  C   UNL A   1      43.058  22.612  25.412  1.00  0.00     0.198 A 
ATOM     79  C   UNL A   1      42.262  21.497  27.382  1.00  0.00     0.198 A 
ATOM     80  F   UNL A   1      41.936  22.716  29.370  1.00  0.00    -0.203 F 
ATOM     81  F   UNL A   1      43.402  22.579  24.117  1.00  0.00    -0.200 F 
ATOM     82  C   UNL A   1      42.637  21.454  26.047  1.00  0.00     0.200 A 
ATOM     83  F   UNL A   1      41.867  20.377  28.003  1.00  0.00    -0.200 F 
ATOM     84  F   UNL A   1      42.591  20.296  25.373  1.00  0.00    -0.200 F 
ENDBRANCH  50  74
BRANCH  62  85
ATOM     85  C   UNL A   1      47.845  26.886  31.138  1.00  0.00     0.064 A 
ATOM     86  C   UNL A   1      48.108  26.065  32.245  1.00  0.00     0.173 A 
ATOM     87  C   UNL A   1      48.930  27.274  30.336  1.00  0.00     0.173 A 
ATOM     88  F   UNL A   1      47.107  25.680  33.051  1.00  0.00    -0.203 F 
ATOM     89  C   UNL A   1      49.407  25.669  32.551  1.00  0.00     0.198 A 
ATOM     90  C   UNL A   1      50.224  26.853  30.629  1.00  0.00     0.198 A 
ATOM     91  F   UNL A   1      48.732  28.056  29.263  1.00  0.00    -0.203 F 
ATOM     92  F   UNL A   1      49.640  24.923  33.640  1.00  0.00    -0.200 F 
ATOM     93  C   UNL A   1      50.463  26.058  31.740  1.00  0.00     0.200 A 
ATOM     94  F   UNL A   1      51.242  27.221  29.838  1.00  0.00    -0.200 F 
ATOM     95  F   UNL A   1      51.712  25.673  32.035  1.00  0.00    -0.200 F 
ENDBRANCH  62  85
ENDBRANCH  36  37
ENDBRANCH  28  31
ENDBRANCH  26  27
ENDBRANCH  25  26
ENDBRANCH   1  25
TORSDOF 14
ENDMDL
MODEL 3
REMARK VINA RESULT:      -9.9      3.757     10.107
REMARK SMILES Nc1c(CC(=O)NCCCNC(=O)c2ccc(-c3c4nc(c(-c5c(F)c(F)c(F)c(F)c5F)c5ccc([nH]5)c(-c5c(F)c(F)c(F)c(F)c5F)c5nc(c(-c6c(F)c(F)c(F)c(F)c6F)c6ccc3[nH]6)C=C5)C=C4)cc2)cccc1C(=O)c1ccc(Br)cc1
REMARK SMILES IDX 8 1 7 2 5 3 6 4 4 6 3 7 2 8 80 9 77 10 79 11 78 12 1 13
REMARK SMILES IDX 81 16 82 17 83 18 84 19 89 20 85 21 88 22 86 23 87 24 9 25
REMARK SMILES IDX 10 26 11 27 12 28 13 30 14 31 15 32 76 33 16 34 75 35 17 36
REMARK SMILES IDX 18 37 19 38 69 39 20 40 74 41 68 42 70 43 21 44 73 45 67 46
REMARK SMILES IDX 66 47 22 49 54 50 34 51 53 52 35 53 38 54 52 55 71 56 36 57
REMARK SMILES IDX 37 58 51 60 72 61 39 62 23 63 24 64 32 65 25 66 26 67 30 68
REMARK SMILES IDX 33 69 27 70 28 71 31 72 29 73 55 74 56 75 64 76 57 77 58 78
REMARK SMILES IDX 62 79 65 80 59 81 60 82 63 83 61 84 40 85 41 86 49 87 42 88
REMARK SMILES IDX 43 89 47 90 50 91 44 92 45 93 48 94 46 95
REMARK H PARENT 7 5 1 14 1 15 11 29 70 48 38 59
REMARK Flexibility Score: inf
ROOT
ATOM      1  C   UNL A   1      42.337  20.282  26.452  1.00  0.00     0.117 C 
ENDROOT
BRANCH   1   2
ATOM      2  N   UNL A   1      43.057  20.940  25.379  1.00  0.00    -0.356 N 
ATOM      3  C   UNL A   1      43.324  22.268  25.212  1.00  0.00     0.224 C 
ATOM      4  O   UNL A   1      43.900  22.619  24.180  1.00  0.00    -0.275 OA
ATOM      5  H   UNL A   1      43.402  20.345  24.674  1.00  0.00     0.163 HD
BRANCH   3   6
ATOM      6  C   UNL A   1      42.960  23.272  26.293  1.00  0.00     0.137 C 
BRANCH   6   7
ATOM      7  C   UNL A   1      44.060  24.272  26.610  1.00  0.00    -0.015 A 
ATOM      8  C   UNL A   1      44.184  25.521  25.940  1.00  0.00     0.046 A 
ATOM      9  C   UNL A   1      45.292  26.352  26.250  1.00  0.00     0.046 A 
ATOM     10  C   UNL A   1      45.009  23.894  27.578  1.00  0.00     0.006 A 
ATOM     11  C   UNL A   1      46.228  25.928  27.215  1.00  0.00     0.014 A 
ATOM     12  C   UNL A   1      46.088  24.714  27.877  1.00  0.00     0.001 A 
BRANCH   8  13
ATOM     13  N   UNL A   1      43.234  25.846  24.978  1.00  0.00    -0.398 N 
ATOM     14  H   UNL A   1      42.286  25.922  25.228  1.00  0.00     0.156 HD
ATOM     15  H   UNL A   1      43.511  26.000  24.045  1.00  0.00     0.156 HD
ENDBRANCH   8  13
BRANCH   9  16
ATOM     16  C   UNL A   1      45.621  27.668  25.604  1.00  0.00     0.195 C 
ATOM     17  O   UNL A   1      46.033  27.706  24.445  1.00  0.00    -0.289 OA
BRANCH  16  18
ATOM     18  C   UNL A   1      45.418  28.970  26.263  1.00  0.00     0.023 A 
ATOM     19  C   UNL A   1      46.427  29.932  26.129  1.00  0.00     0.013 A 
ATOM     20  C   UNL A   1      44.245  29.264  26.966  1.00  0.00     0.013 A 
ATOM     21  C   UNL A   1      46.235  31.215  26.640  1.00  0.00     0.016 A 
ATOM     22  C   UNL A   1      44.054  30.553  27.471  1.00  0.00     0.016 A 
ATOM     23  C   UNL A   1      45.043  31.524  27.295  1.00  0.00     0.018 A 
ATOM     24  Br  UNL A   1      44.757  33.280  27.933  1.00  0.00    -0.051 Br
ENDBRANCH  16  18
ENDBRANCH   9  16
ENDBRANCH   6   7
ENDBRANCH   3   6
ENDBRANCH   1   2
BRANCH   1  25
ATOM     25  C   UNL A   1      40.830  20.254  26.204  1.00  0.00     0.042 C 
BRANCH  25  26
ATOM     26  C   UNL A   1      40.078  21.414  26.851  1.00  0.00     0.118 C 
BRANCH  26  27
ATOM     27  N   UNL A   1      39.011  21.928  26.001  1.00  0.00    -0.352 N 
ATOM     28  C   UNL A   1      38.415  23.159  25.966  1.00  0.00     0.251 C 
ATOM     29  H   UNL A   1      38.661  21.283  25.344  1.00  0.00     0.163 HD
ATOM     30  O   UNL A   1      37.402  23.315  25.282  1.00  0.00    -0.269 OA
BRANCH  28  31
ATOM     31  C   UNL A   1      38.951  24.299  26.741  1.00  0.00     0.039 A 
ATOM     32  C   UNL A   1      39.792  25.210  26.089  1.00  0.00     0.014 A 
ATOM     33  C   UNL A   1      38.687  24.452  28.106  1.00  0.00     0.014 A 
ATOM     34  C   UNL A   1      40.321  26.295  26.788  1.00  0.00     0.010 A 
ATOM     35  C   UNL A   1      39.162  25.573  28.786  1.00  0.00     0.010 A 
ATOM     36  C   UNL A   1      39.987  26.501  28.135  1.00  0.00    -0.014 A 
BRANCH  36  37
ATOM     37  C   UNL A   1      40.477  27.698  28.862  1.00  0.00     0.031 A 
ATOM     38  C   UNL A   1      41.872  27.744  29.416  1.00  0.00     0.074 A 
ATOM     39  C   UNL A   1      39.633  28.723  29.084  1.00  0.00     0.049 A 
ATOM     40  N   UNL A   1      42.460  28.691  30.106  1.00  0.00    -0.248 NA
ATOM     41  C   UNL A   1      42.710  26.557  29.189  1.00  0.00     0.031 C 
ATOM     42  C   UNL A   1      38.232  28.766  28.661  1.00  0.00     0.029 A 
ATOM     43  N   UNL A   1      39.823  29.917  29.734  1.00  0.00    -0.354 N 
ATOM     44  C   UNL A   1      43.724  28.208  30.409  1.00  0.00     0.074 A 
ATOM     45  C   UNL A   1      43.804  26.867  29.870  1.00  0.00     0.031 C 
ATOM     46  C   UNL A   1      37.693  29.931  29.052  1.00  0.00     0.029 A 
ATOM     47  C   UNL A   1      38.700  30.703  29.774  1.00  0.00     0.049 A 
ATOM     48  H   UNL A   1      40.684  30.183  30.132  1.00  0.00     0.167 HD
ATOM     49  C   UNL A   1      44.734  28.834  31.060  1.00  0.00     0.037 A 
ATOM     50  C   UNL A   1      38.500  31.911  30.334  1.00  0.00     0.037 A 
ATOM     51  C   UNL A   1      44.658  30.178  31.576  1.00  0.00     0.049 A 
ATOM     52  C   UNL A   1      39.643  32.601  31.022  1.00  0.00     0.074 A 
ATOM     53  C   UNL A   1      45.654  30.933  32.169  1.00  0.00     0.029 A 
ATOM     54  N   UNL A   1      43.512  30.961  31.569  1.00  0.00    -0.354 N 
ATOM     55  N   UNL A   1      40.867  32.176  31.219  1.00  0.00    -0.248 NA
ATOM     56  C   UNL A   1      39.380  33.946  31.553  1.00  0.00     0.031 C 
ATOM     57  C   UNL A   1      45.098  32.157  32.563  1.00  0.00     0.029 A 
ATOM     58  C   UNL A   1      43.769  32.182  32.174  1.00  0.00     0.049 A 
ATOM     59  H   UNL A   1      42.645  30.690  31.189  1.00  0.00     0.167 HD
ATOM     60  C   UNL A   1      41.523  33.199  31.889  1.00  0.00     0.074 A 
ATOM     61  C   UNL A   1      40.567  34.278  32.042  1.00  0.00     0.031 C 
ATOM     62  C   UNL A   1      42.802  33.239  32.337  1.00  0.00     0.037 A 
BRANCH  49  63
ATOM     63  C   UNL A   1      46.009  28.064  31.255  1.00  0.00     0.064 A 
ATOM     64  C   UNL A   1      47.030  28.069  30.292  1.00  0.00     0.173 A 
ATOM     65  C   UNL A   1      46.218  27.316  32.425  1.00  0.00     0.173 A 
ATOM     66  F   UNL A   1      46.877  28.759  29.151  1.00  0.00    -0.203 F 
ATOM     67  C   UNL A   1      48.191  27.321  30.472  1.00  0.00     0.198 A 
ATOM     68  C   UNL A   1      47.394  26.596  32.616  1.00  0.00     0.198 A 
ATOM     69  F   UNL A   1      45.279  27.284  33.383  1.00  0.00    -0.203 F 
ATOM     70  F   UNL A   1      49.123  27.293  29.509  1.00  0.00    -0.200 F 
ATOM     71  C   UNL A   1      48.373  26.588  31.635  1.00  0.00     0.200 A 
ATOM     72  F   UNL A   1      47.574  25.897  33.745  1.00  0.00    -0.200 F 
ATOM     73  F   UNL A   1      49.490  25.867  31.805  1.00  0.00    -0.200 F 
ENDBRANCH  49  63
BRANCH  50  74
ATOM     74  C   UNL A   1      37.162  32.544  30.234  1.00  0.00     0.064 A 
ATOM     75  C   UNL A   1      36.793  33.272  29.095  1.00  0.00     0.173 A 
ATOM     76  C   UNL A   1      36.210  32.392  31.252  1.00  0.00     0.173 A 
ATOM     77  F   UNL A   1      37.677  33.457  28.105  1.00  0.00    -0.203 F 
ATOM     78  C   UNL A   1      35.522  33.829  28.981  1.00  0.00     0.198 A 
ATOM     79  C   UNL A   1      34.932  32.931  31.127  1.00  0.00     0.198 A 
ATOM     80  F   UNL A   1      36.515  31.698  32.359  1.00  0.00    -0.203 F 
ATOM     81  F   UNL A   1      35.202  34.542  27.893  1.00  0.00    -0.200 F 
ATOM     82  C   UNL A   1      34.590  33.652  29.992  1.00  0.00     0.200 A 
ATOM     83  F   UNL A   1      34.029  32.746  32.100  1.00  0.00    -0.200 F 
ATOM     84  F   UNL A   1      33.362  34.176  29.874  1.00  0.00    -0.200 F 
ENDBRANCH  50  74
BRANCH  62  85
ATOM     85  C   UNL A   1      43.239  34.492  33.038  1.00  0.00     0.064 A 
ATOM     86  C   UNL A   1      43.196  34.601  34.437  1.00  0.00     0.173 A 
ATOM     87  C   UNL A   1      43.729  35.585  32.308  1.00  0.00     0.173 A 
ATOM     88  F   UNL A   1      42.722  33.589  35.178  1.00  0.00    -0.203 F 
ATOM     89  C   UNL A   1      43.603  35.769  35.076  1.00  0.00     0.198 A 
ATOM     90  C   UNL A   1      44.161  36.741  32.953  1.00  0.00     0.198 A 
ATOM     91  F   UNL A   1      43.795  35.530  30.969  1.00  0.00    -0.203 F 
ATOM     92  F   UNL A   1      43.509  35.869  36.409  1.00  0.00    -0.200 F 
ATOM     93  C   UNL A   1      44.091  36.835  34.335  1.00  0.00     0.200 A 
ATOM     94  F   UNL A   1      44.642  37.766  32.236  1.00  0.00    -0.200 F 
ATOM     95  F   UNL A   1      44.485  37.958  34.953  1.00  0.00    -0.200 F 
ENDBRANCH  62  85
ENDBRANCH  36  37
ENDBRANCH  28  31
ENDBRANCH  26  27
ENDBRANCH  25  26
ENDBRANCH   1  25
TORSDOF 14
ENDMDL
