MODEL 1
REMARK VINA RESULT:     -13.4      0.000      0.000
REMARK SMILES COc1cccc(-c2c(C(=O)NCCCNC(=O)c3ccc(-c4c5nc(c(-c6c(F)c(F)c(F)c(F)c6F)c6ccc([nH]6)c(-c6c(F)c(F)c(F)c(F)c6F)c6nc(c(-c7c(F)c(F)c(F)c(F)c7F)c7ccc4[nH]7)C=C6)C=C5)cc3)nnn2-c2ccc(OC(F)(F)F)cc2)c1
REMARK SMILES IDX 13 1 12 2 10 3 11 4 9 6 8 7 84 8 82 9 83 10 7 11 3 12 4 13
REMARK SMILES IDX 96 14 5 15 6 16 2 17 1 18 85 19 86 20 95 21 87 22 94 23
REMARK SMILES IDX 88 24 89 25 90 26 91 27 92 28 93 29 14 30 15 31 16 32 17 33
REMARK SMILES IDX 18 35 19 36 20 37 81 38 21 39 80 40 22 41 23 42 24 43 74 44
REMARK SMILES IDX 25 45 79 46 73 47 75 48 26 49 78 50 72 51 71 52 27 54 59 55
REMARK SMILES IDX 39 56 58 57 40 58 43 59 57 60 76 61 41 62 42 63 56 65 77 66
REMARK SMILES IDX 44 67 28 68 29 69 37 70 30 71 31 72 35 73 38 74 32 75 33 76
REMARK SMILES IDX 36 77 34 78 60 79 61 80 69 81 62 82 63 83 67 84 70 85 64 86
REMARK SMILES IDX 65 87 68 88 66 89 45 90 46 91 54 92 47 93 48 94 52 95 55 96
REMARK SMILES IDX 49 97 50 98 53 99 51 100
REMARK H PARENT 12 5 16 34 75 53 43 64
REMARK Flexibility Score: inf
ROOT
ATOM      1  C   UNL A   1      35.312  24.015  25.323  1.00  0.00     0.118 C 
ENDROOT
BRANCH   1   2
ATOM      2  N   UNL A   1      34.241  23.191  25.815  1.00  0.00    -0.351 N 
ATOM      3  C   UNL A   1      32.889  23.178  25.600  1.00  0.00     0.274 C 
ATOM      4  O   UNL A   1      32.328  22.197  26.102  1.00  0.00    -0.267 OA
ATOM      5  H   UNL A   1      34.543  22.489  26.435  1.00  0.00     0.163 HD
BRANCH   3   6
ATOM      6  C   UNL A   1      32.103  24.188  24.876  1.00  0.00     0.178 A 
ATOM      7  C   UNL A   1      31.893  25.572  24.922  1.00  0.00     0.108 A 
ATOM      8  N   UNL A   1      30.971  25.792  23.892  1.00  0.00    -0.212 N 
ATOM      9  N   UNL A   1      31.251  23.671  23.907  1.00  0.00    -0.124 NA
ATOM     10  N   UNL A   1      30.502  24.634  23.412  1.00  0.00    -0.061 NA
BRANCH   7  11
ATOM     11  C   UNL A   1      32.224  26.668  25.843  1.00  0.00     0.006 A 
ATOM     12  C   UNL A   1      33.863  28.291  26.646  1.00  0.00     0.119 A 
ATOM     13  C   UNL A   1      32.937  28.740  27.591  1.00  0.00     0.046 A 
ATOM     14  C   UNL A   1      33.508  27.251  25.781  1.00  0.00     0.056 A 
ATOM     15  C   UNL A   1      31.679  28.144  27.692  1.00  0.00     0.005 A 
ATOM     16  C   UNL A   1      31.336  27.088  26.843  1.00  0.00     0.011 A 
BRANCH  12  17
ATOM     17  O   UNL A   1      35.068  28.934  26.667  1.00  0.00    -0.497 OA
ATOM     18  C   UNL A   1      35.337  29.752  27.800  1.00  0.00     0.278 C 
ENDBRANCH  12  17
ENDBRANCH   7  11
BRANCH   8  19
ATOM     19  C   UNL A   1      30.451  27.028  23.449  1.00  0.00     0.067 A 
ATOM     20  C   UNL A   1      31.295  27.953  22.833  1.00  0.00     0.032 A 
ATOM     21  C   UNL A   1      29.081  27.282  23.559  1.00  0.00     0.032 A 
ATOM     22  C   UNL A   1      30.734  29.085  22.237  1.00  0.00     0.049 A 
ATOM     23  C   UNL A   1      28.535  28.424  22.982  1.00  0.00     0.049 A 
ATOM     24  C   UNL A   1      29.353  29.318  22.292  1.00  0.00     0.129 A 
BRANCH  24  25
ATOM     25  O   UNL A   1      28.933  30.440  21.636  1.00  0.00    -0.406 OA
BRANCH  25  26
ATOM     26  C   UNL A   1      28.525  31.542  22.432  1.00  0.00     0.573 C 
ATOM     27  F   UNL A   1      28.708  32.711  21.783  1.00  0.00    -0.132 F 
ATOM     28  F   UNL A   1      27.229  31.424  22.791  1.00  0.00    -0.132 F 
ATOM     29  F   UNL A   1      29.272  31.566  23.557  1.00  0.00    -0.132 F 
ENDBRANCH  25  26
ENDBRANCH  24  25
ENDBRANCH   8  19
ENDBRANCH   3   6
ENDBRANCH   1   2
BRANCH   1  30
ATOM     30  C   UNL A   1      36.486  24.108  26.297  1.00  0.00     0.042 C 
BRANCH  30  31
ATOM     31  C   UNL A   1      37.800  23.739  25.655  1.00  0.00     0.118 C 
BRANCH  31  32
ATOM     32  N   UNL A   1      38.574  22.773  26.464  1.00  0.00    -0.352 N 
ATOM     33  C   UNL A   1      39.846  22.902  27.024  1.00  0.00     0.251 C 
ATOM     34  H   UNL A   1      38.126  21.911  26.633  1.00  0.00     0.163 HD
ATOM     35  O   UNL A   1      40.488  21.945  27.396  1.00  0.00    -0.269 OA
BRANCH  33  36
ATOM     36  C   UNL A   1      40.369  24.271  27.167  1.00  0.00     0.039 A 
ATOM     37  C   UNL A   1      40.103  25.320  26.281  1.00  0.00     0.014 A 
ATOM     38  C   UNL A   1      40.980  24.507  28.377  1.00  0.00     0.014 A 
ATOM     39  C   UNL A   1      40.389  26.618  26.710  1.00  0.00     0.010 A 
ATOM     40  C   UNL A   1      40.757  25.727  28.916  1.00  0.00     0.010 A 
ATOM     41  C   UNL A   1      40.707  26.804  28.061  1.00  0.00    -0.014 A 
BRANCH  41  42
ATOM     42  C   UNL A   1      40.949  28.076  28.717  1.00  0.00     0.031 A 
ATOM     43  C   UNL A   1      42.146  28.794  28.236  1.00  0.00     0.074 A 
ATOM     44  C   UNL A   1      39.986  28.678  29.460  1.00  0.00     0.049 A 
ATOM     45  N   UNL A   1      43.251  28.984  28.872  1.00  0.00    -0.248 NA
ATOM     46  C   UNL A   1      42.183  29.221  26.828  1.00  0.00     0.031 C 
ATOM     47  C   UNL A   1      38.601  28.243  29.726  1.00  0.00     0.029 A 
ATOM     48  N   UNL A   1      40.022  29.891  30.067  1.00  0.00    -0.354 N 
ATOM     49  C   UNL A   1      44.042  29.752  28.028  1.00  0.00     0.074 A 
ATOM     50  C   UNL A   1      43.435  29.672  26.725  1.00  0.00     0.031 C 
ATOM     51  C   UNL A   1      37.882  29.266  30.236  1.00  0.00     0.029 A 
ATOM     52  C   UNL A   1      38.789  30.359  30.515  1.00  0.00     0.049 A 
ATOM     53  H   UNL A   1      40.855  30.401  30.183  1.00  0.00     0.167 HD
ATOM     54  C   UNL A   1      44.965  30.613  28.541  1.00  0.00     0.037 A 
ATOM     55  C   UNL A   1      38.545  31.571  31.070  1.00  0.00     0.037 A 
ATOM     56  C   UNL A   1      45.201  30.340  29.939  1.00  0.00     0.049 A 
ATOM     57  C   UNL A   1      39.853  32.092  31.546  1.00  0.00     0.074 A 
ATOM     58  C   UNL A   1      45.646  29.242  30.650  1.00  0.00     0.029 A 
ATOM     59  N   UNL A   1      44.571  31.142  30.862  1.00  0.00    -0.354 N 
ATOM     60  N   UNL A   1      40.539  31.538  32.510  1.00  0.00    -0.248 NA
ATOM     61  C   UNL A   1      40.625  32.904  30.617  1.00  0.00     0.031 C 
ATOM     62  C   UNL A   1      44.831  29.206  31.822  1.00  0.00     0.029 A 
ATOM     63  C   UNL A   1      43.996  30.324  31.802  1.00  0.00     0.049 A 
ATOM     64  H   UNL A   1      44.539  32.126  30.850  1.00  0.00     0.167 HD
ATOM     65  C   UNL A   1      41.857  31.574  32.078  1.00  0.00     0.074 A 
ATOM     66  C   UNL A   1      41.855  32.488  30.936  1.00  0.00     0.031 C 
ATOM     67  C   UNL A   1      42.760  30.633  32.487  1.00  0.00     0.037 A 
BRANCH  54  68
ATOM     68  C   UNL A   1      45.352  31.927  27.910  1.00  0.00     0.064 A 
ATOM     69  C   UNL A   1      44.340  32.864  27.622  1.00  0.00     0.173 A 
ATOM     70  C   UNL A   1      46.604  32.184  27.310  1.00  0.00     0.173 A 
ATOM     71  F   UNL A   1      43.108  32.714  28.131  1.00  0.00    -0.203 F 
ATOM     72  C   UNL A   1      44.543  33.921  26.732  1.00  0.00     0.198 A 
ATOM     73  C   UNL A   1      46.819  33.272  26.466  1.00  0.00     0.198 A 
ATOM     74  F   UNL A   1      47.638  31.341  27.416  1.00  0.00    -0.203 F 
ATOM     75  F   UNL A   1      43.514  34.706  26.386  1.00  0.00    -0.200 F 
ATOM     76  C   UNL A   1      45.780  34.119  26.148  1.00  0.00     0.200 A 
ATOM     77  F   UNL A   1      48.022  33.435  25.898  1.00  0.00    -0.200 F 
ATOM     78  F   UNL A   1      45.960  35.090  25.243  1.00  0.00    -0.200 F 
ENDBRANCH  54  68
BRANCH  55  79
ATOM     79  C   UNL A   1      37.348  32.428  30.894  1.00  0.00     0.064 A 
ATOM     80  C   UNL A   1      37.086  33.074  29.676  1.00  0.00     0.173 A 
ATOM     81  C   UNL A   1      36.291  32.402  31.828  1.00  0.00     0.173 A 
ATOM     82  F   UNL A   1      38.021  33.105  28.716  1.00  0.00    -0.203 F 
ATOM     83  C   UNL A   1      35.834  33.637  29.397  1.00  0.00     0.198 A 
ATOM     84  C   UNL A   1      35.045  32.966  31.550  1.00  0.00     0.198 A 
ATOM     85  F   UNL A   1      36.419  31.743  32.989  1.00  0.00    -0.203 F 
ATOM     86  F   UNL A   1      35.601  34.191  28.199  1.00  0.00    -0.200 F 
ATOM     87  C   UNL A   1      34.811  33.571  30.330  1.00  0.00     0.200 A 
ATOM     88  F   UNL A   1      34.054  32.859  32.446  1.00  0.00    -0.200 F 
ATOM     89  F   UNL A   1      33.594  34.050  30.038  1.00  0.00    -0.200 F 
ENDBRANCH  55  79
BRANCH  67  90
ATOM     90  C   UNL A   1      42.344  29.701  33.596  1.00  0.00     0.064 A 
ATOM     91  C   UNL A   1      41.766  28.435  33.389  1.00  0.00     0.173 A 
ATOM     92  C   UNL A   1      42.675  30.041  34.913  1.00  0.00     0.173 A 
ATOM     93  F   UNL A   1      41.512  27.987  32.157  1.00  0.00    -0.203 F 
ATOM     94  C   UNL A   1      41.494  27.574  34.452  1.00  0.00     0.198 A 
ATOM     95  C   UNL A   1      42.433  29.166  35.970  1.00  0.00     0.198 A 
ATOM     96  F   UNL A   1      43.282  31.210  35.171  1.00  0.00    -0.203 F 
ATOM     97  F   UNL A   1      40.933  26.376  34.220  1.00  0.00    -0.200 F 
ATOM     98  C   UNL A   1      41.832  27.939  35.741  1.00  0.00     0.200 A 
ATOM     99  F   UNL A   1      42.808  29.504  37.212  1.00  0.00    -0.200 F 
ATOM    100  F   UNL A   1      41.606  27.097  36.760  1.00  0.00    -0.200 F 
ENDBRANCH  67  90
ENDBRANCH  41  42
ENDBRANCH  33  36
ENDBRANCH  31  32
ENDBRANCH  30  31
ENDBRANCH   1  30
TORSDOF 15
ENDMDL
MODEL 2
REMARK VINA RESULT:     -13.2      3.132      5.280
REMARK SMILES COc1cccc(-c2c(C(=O)NCCCNC(=O)c3ccc(-c4c5nc(c(-c6c(F)c(F)c(F)c(F)c6F)c6ccc([nH]6)c(-c6c(F)c(F)c(F)c(F)c6F)c6nc(c(-c7c(F)c(F)c(F)c(F)c7F)c7ccc4[nH]7)C=C6)C=C5)cc3)nnn2-c2ccc(OC(F)(F)F)cc2)c1
REMARK SMILES IDX 13 1 12 2 10 3 11 4 9 6 8 7 84 8 82 9 83 10 7 11 3 12 4 13
REMARK SMILES IDX 96 14 5 15 6 16 2 17 1 18 85 19 86 20 95 21 87 22 94 23
REMARK SMILES IDX 88 24 89 25 90 26 91 27 92 28 93 29 14 30 15 31 16 32 17 33
REMARK SMILES IDX 18 35 19 36 20 37 81 38 21 39 80 40 22 41 23 42 24 43 74 44
REMARK SMILES IDX 25 45 79 46 73 47 75 48 26 49 78 50 72 51 71 52 27 54 59 55
REMARK SMILES IDX 39 56 58 57 40 58 43 59 57 60 76 61 41 62 42 63 56 65 77 66
REMARK SMILES IDX 44 67 28 68 29 69 37 70 30 71 31 72 35 73 38 74 32 75 33 76
REMARK SMILES IDX 36 77 34 78 60 79 61 80 69 81 62 82 63 83 67 84 70 85 64 86
REMARK SMILES IDX 65 87 68 88 66 89 45 90 46 91 54 92 47 93 48 94 52 95 55 96
REMARK SMILES IDX 49 97 50 98 53 99 51 100
REMARK H PARENT 12 5 16 34 75 53 43 64
REMARK Flexibility Score: inf
ROOT
ATOM      1  C   UNL A   1      40.046  20.140  26.117  1.00  0.00     0.118 C 
ENDROOT
BRANCH   1   2
ATOM      2  N   UNL A   1      38.989  19.430  25.448  1.00  0.00    -0.351 N 
ATOM      3  C   UNL A   1      37.731  19.781  25.039  1.00  0.00     0.274 C 
ATOM      4  O   UNL A   1      37.183  18.910  24.354  1.00  0.00    -0.267 OA
ATOM      5  H   UNL A   1      39.219  18.495  25.241  1.00  0.00     0.163 HD
BRANCH   3   6
ATOM      6  C   UNL A   1      37.023  21.032  25.348  1.00  0.00     0.178 A 
ATOM      7  C   UNL A   1      35.721  21.541  25.255  1.00  0.00     0.108 A 
ATOM      8  N   UNL A   1      35.850  22.846  25.745  1.00  0.00    -0.212 N 
ATOM      9  N   UNL A   1      37.842  22.065  25.792  1.00  0.00    -0.124 NA
ATOM     10  N   UNL A   1      37.138  23.171  25.913  1.00  0.00    -0.061 NA
BRANCH   7  11
ATOM     11  C   UNL A   1      34.459  21.125  24.630  1.00  0.00     0.006 A 
ATOM     12  C   UNL A   1      32.674  19.468  24.443  1.00  0.00     0.119 A 
ATOM     13  C   UNL A   1      32.067  20.250  23.457  1.00  0.00     0.046 A 
ATOM     14  C   UNL A   1      33.871  19.902  25.021  1.00  0.00     0.056 A 
ATOM     15  C   UNL A   1      32.659  21.440  23.031  1.00  0.00     0.005 A 
ATOM     16  C   UNL A   1      33.869  21.859  23.592  1.00  0.00     0.011 A 
BRANCH  12  17
ATOM     17  O   UNL A   1      32.013  18.313  24.751  1.00  0.00    -0.497 OA
ATOM     18  C   UNL A   1      32.674  17.412  25.634  1.00  0.00     0.278 C 
ENDBRANCH  12  17
ENDBRANCH   7  11
BRANCH   8  19
ATOM     19  C   UNL A   1      34.827  23.801  25.936  1.00  0.00     0.067 A 
ATOM     20  C   UNL A   1      34.871  25.010  25.240  1.00  0.00     0.032 A 
ATOM     21  C   UNL A   1      33.739  23.495  26.757  1.00  0.00     0.032 A 
ATOM     22  C   UNL A   1      33.765  25.860  25.296  1.00  0.00     0.049 A 
ATOM     23  C   UNL A   1      32.651  24.359  26.824  1.00  0.00     0.049 A 
ATOM     24  C   UNL A   1      32.644  25.533  26.071  1.00  0.00     0.129 A 
BRANCH  24  25
ATOM     25  O   UNL A   1      31.618  26.433  26.005  1.00  0.00    -0.406 OA
BRANCH  25  26
ATOM     26  C   UNL A   1      30.474  26.057  25.255  1.00  0.00     0.573 C 
ATOM     27  F   UNL A   1      30.758  25.056  24.394  1.00  0.00    -0.132 F 
ATOM     28  F   UNL A   1      29.465  25.678  26.069  1.00  0.00    -0.132 F 
ATOM     29  F   UNL A   1      30.056  27.121  24.536  1.00  0.00    -0.132 F 
ENDBRANCH  25  26
ENDBRANCH  24  25
ENDBRANCH   8  19
ENDBRANCH   3   6
ENDBRANCH   1   2
BRANCH   1  30
ATOM     30  C   UNL A   1      41.362  19.365  26.141  1.00  0.00     0.042 C 
BRANCH  30  31
ATOM     31  C   UNL A   1      42.534  20.228  26.537  1.00  0.00     0.118 C 
BRANCH  31  32
ATOM     32  N   UNL A   1      43.773  19.865  25.814  1.00  0.00    -0.352 N 
ATOM     33  C   UNL A   1      44.627  20.670  25.058  1.00  0.00     0.251 C 
ATOM     34  H   UNL A   1      44.033  18.917  25.875  1.00  0.00     0.163 HD
ATOM     35  O   UNL A   1      45.423  20.206  24.272  1.00  0.00    -0.269 OA
BRANCH  33  36
ATOM     36  C   UNL A   1      44.531  22.124  25.277  1.00  0.00     0.039 A 
ATOM     37  C   UNL A   1      43.665  22.977  24.587  1.00  0.00     0.014 A 
ATOM     38  C   UNL A   1      45.219  22.562  26.384  1.00  0.00     0.014 A 
ATOM     39  C   UNL A   1      43.450  24.250  25.117  1.00  0.00     0.010 A 
ATOM     40  C   UNL A   1      44.614  23.537  27.100  1.00  0.00     0.010 A 
ATOM     41  C   UNL A   1      43.932  24.510  26.406  1.00  0.00    -0.014 A 
BRANCH  41  42
ATOM     42  C   UNL A   1      43.738  25.732  27.164  1.00  0.00     0.031 A 
ATOM     43  C   UNL A   1      44.653  26.831  26.796  1.00  0.00     0.074 A 
ATOM     44  C   UNL A   1      42.615  25.933  27.899  1.00  0.00     0.049 A 
ATOM     45  N   UNL A   1      45.623  27.307  27.498  1.00  0.00    -0.248 NA
ATOM     46  C   UNL A   1      44.586  27.365  25.426  1.00  0.00     0.031 C 
ATOM     47  C   UNL A   1      41.436  25.061  28.063  1.00  0.00     0.029 A 
ATOM     48  N   UNL A   1      42.245  27.039  28.593  1.00  0.00    -0.354 N 
ATOM     49  C   UNL A   1      46.147  28.355  26.753  1.00  0.00     0.074 A 
ATOM     50  C   UNL A   1      45.630  28.197  25.419  1.00  0.00     0.031 C 
ATOM     51  C   UNL A   1      40.415  25.757  28.608  1.00  0.00     0.029 A 
ATOM     52  C   UNL A   1      40.917  27.053  29.010  1.00  0.00     0.049 A 
ATOM     53  H   UNL A   1      42.868  27.776  28.787  1.00  0.00     0.167 HD
ATOM     54  C   UNL A   1      46.733  29.418  27.371  1.00  0.00     0.037 A 
ATOM     55  C   UNL A   1      40.284  28.073  29.638  1.00  0.00     0.037 A 
ATOM     56  C   UNL A   1      47.010  29.118  28.757  1.00  0.00     0.049 A 
ATOM     57  C   UNL A   1      41.345  28.940  30.215  1.00  0.00     0.074 A 
ATOM     58  C   UNL A   1      47.766  28.161  29.408  1.00  0.00     0.029 A 
ATOM     59  N   UNL A   1      46.133  29.597  29.702  1.00  0.00    -0.354 N 
ATOM     60  N   UNL A   1      42.147  28.554  31.171  1.00  0.00    -0.248 NA
ATOM     61  C   UNL A   1      41.839  30.030  29.387  1.00  0.00     0.031 C 
ATOM     62  C   UNL A   1      46.976  27.771  30.532  1.00  0.00     0.029 A 
ATOM     63  C   UNL A   1      45.828  28.563  30.551  1.00  0.00     0.049 A 
ATOM     64  H   UNL A   1      45.788  30.518  29.760  1.00  0.00     0.167 HD
ATOM     65  C   UNL A   1      43.395  29.042  30.808  1.00  0.00     0.074 A 
ATOM     66  C   UNL A   1      43.129  30.002  29.736  1.00  0.00     0.031 C 
ATOM     67  C   UNL A   1      44.541  28.406  31.193  1.00  0.00     0.037 A 
BRANCH  54  68
ATOM     68  C   UNL A   1      46.694  30.836  26.857  1.00  0.00     0.064 A 
ATOM     69  C   UNL A   1      47.886  31.587  26.855  1.00  0.00     0.173 A 
ATOM     70  C   UNL A   1      45.510  31.576  26.651  1.00  0.00     0.173 A 
ATOM     71  F   UNL A   1      49.070  30.988  27.051  1.00  0.00    -0.203 F 
ATOM     72  C   UNL A   1      47.880  32.980  26.747  1.00  0.00     0.198 A 
ATOM     73  C   UNL A   1      45.513  32.960  26.487  1.00  0.00     0.198 A 
ATOM     74  F   UNL A   1      44.294  31.019  26.713  1.00  0.00    -0.203 F 
ATOM     75  F   UNL A   1      49.025  33.662  26.886  1.00  0.00    -0.200 F 
ATOM     76  C   UNL A   1      46.693  33.666  26.572  1.00  0.00     0.200 A 
ATOM     77  F   UNL A   1      44.348  33.606  26.335  1.00  0.00    -0.200 F 
ATOM     78  F   UNL A   1      46.677  35.004  26.536  1.00  0.00    -0.200 F 
ENDBRANCH  54  68
BRANCH  55  79
ATOM     79  C   UNL A   1      38.880  28.518  29.465  1.00  0.00     0.064 A 
ATOM     80  C   UNL A   1      38.042  28.733  30.569  1.00  0.00     0.173 A 
ATOM     81  C   UNL A   1      38.422  29.012  28.226  1.00  0.00     0.173 A 
ATOM     82  F   UNL A   1      38.423  28.334  31.791  1.00  0.00    -0.203 F 
ATOM     83  C   UNL A   1      36.830  29.425  30.447  1.00  0.00     0.198 A 
ATOM     84  C   UNL A   1      37.212  29.698  28.105  1.00  0.00     0.198 A 
ATOM     85  F   UNL A   1      39.186  28.922  27.127  1.00  0.00    -0.203 F 
ATOM     86  F   UNL A   1      36.084  29.665  31.535  1.00  0.00    -0.200 F 
ATOM     87  C   UNL A   1      36.422  29.917  29.218  1.00  0.00     0.200 A 
ATOM     88  F   UNL A   1      36.851  30.204  26.918  1.00  0.00    -0.200 F 
ATOM     89  F   UNL A   1      35.296  30.636  29.113  1.00  0.00    -0.200 F 
ENDBRANCH  55  79
BRANCH  67  90
ATOM     90  C   UNL A   1      44.419  27.300  32.210  1.00  0.00     0.064 A 
ATOM     91  C   UNL A   1      44.334  25.933  31.886  1.00  0.00     0.173 A 
ATOM     92  C   UNL A   1      44.538  27.624  33.567  1.00  0.00     0.173 A 
ATOM     93  F   UNL A   1      44.321  25.527  30.613  1.00  0.00    -0.203 F 
ATOM     94  C   UNL A   1      44.323  24.947  32.872  1.00  0.00     0.198 A 
ATOM     95  C   UNL A   1      44.560  26.637  34.549  1.00  0.00     0.198 A 
ATOM     96  F   UNL A   1      44.681  28.906  33.939  1.00  0.00    -0.203 F 
ATOM     97  F   UNL A   1      44.232  23.653  32.528  1.00  0.00    -0.200 F 
ATOM     98  C   UNL A   1      44.441  25.300  34.203  1.00  0.00     0.200 A 
ATOM     99  F   UNL A   1      44.725  26.981  35.834  1.00  0.00    -0.200 F 
ATOM    100  F   UNL A   1      44.469  24.352  35.151  1.00  0.00    -0.200 F 
ENDBRANCH  67  90
ENDBRANCH  41  42
ENDBRANCH  33  36
ENDBRANCH  31  32
ENDBRANCH  30  31
ENDBRANCH   1  30
TORSDOF 15
ENDMDL
MODEL 3
REMARK VINA RESULT:     -12.5      5.552     10.541
REMARK SMILES COc1cccc(-c2c(C(=O)NCCCNC(=O)c3ccc(-c4c5nc(c(-c6c(F)c(F)c(F)c(F)c6F)c6ccc([nH]6)c(-c6c(F)c(F)c(F)c(F)c6F)c6nc(c(-c7c(F)c(F)c(F)c(F)c7F)c7ccc4[nH]7)C=C6)C=C5)cc3)nnn2-c2ccc(OC(F)(F)F)cc2)c1
REMARK SMILES IDX 13 1 12 2 10 3 11 4 9 6 8 7 84 8 82 9 83 10 7 11 3 12 4 13
REMARK SMILES IDX 96 14 5 15 6 16 2 17 1 18 85 19 86 20 95 21 87 22 94 23
REMARK SMILES IDX 88 24 89 25 90 26 91 27 92 28 93 29 14 30 15 31 16 32 17 33
REMARK SMILES IDX 18 35 19 36 20 37 81 38 21 39 80 40 22 41 23 42 24 43 74 44
REMARK SMILES IDX 25 45 79 46 73 47 75 48 26 49 78 50 72 51 71 52 27 54 59 55
REMARK SMILES IDX 39 56 58 57 40 58 43 59 57 60 76 61 41 62 42 63 56 65 77 66
REMARK SMILES IDX 44 67 28 68 29 69 37 70 30 71 31 72 35 73 38 74 32 75 33 76
REMARK SMILES IDX 36 77 34 78 60 79 61 80 69 81 62 82 63 83 67 84 70 85 64 86
REMARK SMILES IDX 65 87 68 88 66 89 45 90 46 91 54 92 47 93 48 94 52 95 55 96
REMARK SMILES IDX 49 97 50 98 53 99 51 100
REMARK H PARENT 12 5 16 34 75 53 43 64
REMARK Flexibility Score: inf
ROOT
ATOM      1  C   UNL A   1      45.034  32.264  25.869  1.00  0.00     0.118 C 
ENDROOT
BRANCH   1   2
ATOM      2  N   UNL A   1      46.254  31.721  26.403  1.00  0.00    -0.351 N 
ATOM      3  C   UNL A   1      46.794  30.464  26.426  1.00  0.00     0.274 C 
ATOM      4  O   UNL A   1      47.952  30.441  26.858  1.00  0.00    -0.267 OA
ATOM      5  H   UNL A   1      46.819  32.395  26.845  1.00  0.00     0.163 HD
BRANCH   3   6
ATOM      6  C   UNL A   1      46.134  29.215  26.014  1.00  0.00     0.178 A 
ATOM      7  C   UNL A   1      45.336  28.220  26.594  1.00  0.00     0.108 A 
ATOM      8  N   UNL A   1      45.116  27.329  25.536  1.00  0.00    -0.212 N 
ATOM      9  N   UNL A   1      46.406  28.821  24.709  1.00  0.00    -0.124 NA
ATOM     10  N   UNL A   1      45.882  27.636  24.482  1.00  0.00    -0.061 NA
BRANCH   7  11
ATOM     11  C   UNL A   1      44.919  27.848  27.952  1.00  0.00     0.006 A 
ATOM     12  C   UNL A   1      45.431  26.704  30.048  1.00  0.00     0.119 A 
ATOM     13  C   UNL A   1      44.176  27.073  30.541  1.00  0.00     0.046 A 
ATOM     14  C   UNL A   1      45.795  27.084  28.753  1.00  0.00     0.056 A 
ATOM     15  C   UNL A   1      43.283  27.791  29.745  1.00  0.00     0.005 A 
ATOM     16  C   UNL A   1      43.640  28.148  28.442  1.00  0.00     0.011 A 
BRANCH  12  17
ATOM     17  O   UNL A   1      46.200  25.978  30.912  1.00  0.00    -0.497 OA
ATOM     18  C   UNL A   1      46.064  26.277  32.297  1.00  0.00     0.278 C 
ENDBRANCH  12  17
ENDBRANCH   7  11
BRANCH   8  19
ATOM     19  C   UNL A   1      44.318  26.164  25.543  1.00  0.00     0.067 A 
ATOM     20  C   UNL A   1      44.896  24.931  25.845  1.00  0.00     0.032 A 
ATOM     21  C   UNL A   1      42.941  26.267  25.327  1.00  0.00     0.032 A 
ATOM     22  C   UNL A   1      44.065  23.824  26.029  1.00  0.00     0.049 A 
ATOM     23  C   UNL A   1      42.124  25.153  25.490  1.00  0.00     0.049 A 
ATOM     24  C   UNL A   1      42.677  23.931  25.871  1.00  0.00     0.129 A 
BRANCH  24  25
ATOM     25  O   UNL A   1      41.980  22.782  26.119  1.00  0.00    -0.406 OA
BRANCH  25  26
ATOM     26  C   UNL A   1      41.598  22.534  27.463  1.00  0.00     0.573 C 
ATOM     27  F   UNL A   1      41.589  23.671  28.190  1.00  0.00    -0.132 F 
ATOM     28  F   UNL A   1      40.380  21.954  27.519  1.00  0.00    -0.132 F 
ATOM     29  F   UNL A   1      42.491  21.687  28.020  1.00  0.00    -0.132 F 
ENDBRANCH  25  26
ENDBRANCH  24  25
ENDBRANCH   8  19
ENDBRANCH   3   6
ENDBRANCH   1   2
BRANCH   1  30
ATOM     30  C   UNL A   1      44.392  33.302  26.788  1.00  0.00     0.042 C 
BRANCH  30  31
ATOM     31  C   UNL A   1      44.564  34.711  26.277  1.00  0.00     0.118 C 
BRANCH  31  32
ATOM     32  N   UNL A   1      45.623  35.449  27.000  1.00  0.00    -0.352 N 
ATOM     33  C   UNL A   1      45.533  36.220  28.160  1.00  0.00     0.251 C 
ATOM     34  H   UNL A   1      46.523  35.387  26.605  1.00  0.00     0.163 HD
ATOM     35  O   UNL A   1      46.391  37.014  28.475  1.00  0.00    -0.269 OA
BRANCH  33  36
ATOM     36  C   UNL A   1      44.346  36.007  29.005  1.00  0.00     0.039 A 
ATOM     37  C   UNL A   1      43.072  36.514  28.730  1.00  0.00     0.014 A 
ATOM     38  C   UNL A   1      44.534  35.073  29.998  1.00  0.00     0.014 A 
ATOM     39  C   UNL A   1      41.993  35.969  29.428  1.00  0.00     0.010 A 
ATOM     40  C   UNL A   1      43.481  34.261  30.244  1.00  0.00     0.010 A 
ATOM     41  C   UNL A   1      42.221  34.811  30.183  1.00  0.00    -0.014 A 
BRANCH  41  42
ATOM     42  C   UNL A   1      41.221  34.047  30.906  1.00  0.00     0.031 A 
ATOM     43  C   UNL A   1      41.548  33.800  32.324  1.00  0.00     0.074 A 
ATOM     44  C   UNL A   1      39.974  33.870  30.402  1.00  0.00     0.049 A 
ATOM     45  N   UNL A   1      41.871  32.677  32.867  1.00  0.00    -0.248 NA
ATOM     46  C   UNL A   1      41.682  34.960  33.221  1.00  0.00     0.031 C 
ATOM     47  C   UNL A   1      39.390  34.380  29.147  1.00  0.00     0.029 A 
ATOM     48  N   UNL A   1      38.909  33.258  30.979  1.00  0.00    -0.354 N 
ATOM     49  C   UNL A   1      42.029  32.945  34.220  1.00  0.00     0.074 A 
ATOM     50  C   UNL A   1      42.124  34.377  34.337  1.00  0.00     0.031 C 
ATOM     51  C   UNL A   1      38.046  34.251  29.172  1.00  0.00     0.029 A 
ATOM     52  C   UNL A   1      37.690  33.479  30.344  1.00  0.00     0.049 A 
ATOM     53  H   UNL A   1      38.991  32.699  31.785  1.00  0.00     0.167 HD
ATOM     54  C   UNL A   1      41.784  31.980  35.149  1.00  0.00     0.037 A 
ATOM     55  C   UNL A   1      36.475  33.056  30.768  1.00  0.00     0.037 A 
ATOM     56  C   UNL A   1      41.701  30.678  34.528  1.00  0.00     0.049 A 
ATOM     57  C   UNL A   1      36.723  31.944  31.724  1.00  0.00     0.074 A 
ATOM     58  C   UNL A   1      42.566  29.908  33.773  1.00  0.00     0.029 A 
ATOM     59  N   UNL A   1      40.448  30.163  34.288  1.00  0.00    -0.354 N 
ATOM     60  N   UNL A   1      37.248  30.801  31.375  1.00  0.00    -0.248 NA
ATOM     61  C   UNL A   1      36.863  32.293  33.130  1.00  0.00     0.031 C 
ATOM     62  C   UNL A   1      41.749  29.327  32.756  1.00  0.00     0.029 A 
ATOM     63  C   UNL A   1      40.427  29.704  32.995  1.00  0.00     0.049 A 
ATOM     64  H   UNL A   1      39.702  30.130  34.929  1.00  0.00     0.167 HD
ATOM     65  C   UNL A   1      38.139  30.491  32.393  1.00  0.00     0.074 A 
ATOM     66  C   UNL A   1      37.807  31.413  33.479  1.00  0.00     0.031 C 
ATOM     67  C   UNL A   1      39.251  29.735  32.152  1.00  0.00     0.037 A 
BRANCH  54  68
ATOM     68  C   UNL A   1      41.230  32.240  36.528  1.00  0.00     0.064 A 
ATOM     69  C   UNL A   1      39.986  32.891  36.646  1.00  0.00     0.173 A 
ATOM     70  C   UNL A   1      41.986  32.155  37.718  1.00  0.00     0.173 A 
ATOM     71  F   UNL A   1      39.190  33.038  35.577  1.00  0.00    -0.203 F 
ATOM     72  C   UNL A   1      39.576  33.488  37.840  1.00  0.00     0.198 A 
ATOM     73  C   UNL A   1      41.547  32.703  38.922  1.00  0.00     0.198 A 
ATOM     74  F   UNL A   1      43.223  31.645  37.749  1.00  0.00    -0.203 F 
ATOM     75  F   UNL A   1      38.448  34.210  37.869  1.00  0.00    -0.200 F 
ATOM     76  C   UNL A   1      40.360  33.400  38.975  1.00  0.00     0.200 A 
ATOM     77  F   UNL A   1      42.331  32.620  40.006  1.00  0.00    -0.200 F 
ATOM     78  F   UNL A   1      40.002  34.028  40.103  1.00  0.00    -0.200 F 
ENDBRANCH  54  68
BRANCH  55  79
ATOM     79  C   UNL A   1      35.178  33.769  30.675  1.00  0.00     0.064 A 
ATOM     80  C   UNL A   1      34.815  34.748  31.612  1.00  0.00     0.173 A 
ATOM     81  C   UNL A   1      34.396  33.704  29.503  1.00  0.00     0.173 A 
ATOM     82  F   UNL A   1      35.533  34.905  32.733  1.00  0.00    -0.203 F 
ATOM     83  C   UNL A   1      33.749  35.627  31.381  1.00  0.00     0.198 A 
ATOM     84  C   UNL A   1      33.332  34.579  29.275  1.00  0.00     0.198 A 
ATOM     85  F   UNL A   1      34.710  32.854  28.515  1.00  0.00    -0.203 F 
ATOM     86  F   UNL A   1      33.470  36.590  32.271  1.00  0.00    -0.200 F 
ATOM     87  C   UNL A   1      33.017  35.550  30.207  1.00  0.00     0.200 A 
ATOM     88  F   UNL A   1      32.660  34.519  28.117  1.00  0.00    -0.200 F 
ATOM     89  F   UNL A   1      32.042  36.433  29.955  1.00  0.00    -0.200 F 
ENDBRANCH  55  79
BRANCH  67  90
ATOM     90  C   UNL A   1      39.358  29.056  30.810  1.00  0.00     0.064 A 
ATOM     91  C   UNL A   1      39.922  29.651  29.666  1.00  0.00     0.173 A 
ATOM     92  C   UNL A   1      39.009  27.704  30.716  1.00  0.00     0.173 A 
ATOM     93  F   UNL A   1      40.377  30.906  29.696  1.00  0.00    -0.203 F 
ATOM     94  C   UNL A   1      40.084  28.940  28.478  1.00  0.00     0.198 A 
ATOM     95  C   UNL A   1      39.203  26.985  29.539  1.00  0.00     0.198 A 
ATOM     96  F   UNL A   1      38.521  27.062  31.789  1.00  0.00    -0.203 F 
ATOM     97  F   UNL A   1      40.618  29.541  27.402  1.00  0.00    -0.200 F 
ATOM     98  C   UNL A   1      39.730  27.606  28.417  1.00  0.00     0.200 A 
ATOM     99  F   UNL A   1      38.903  25.679  29.499  1.00  0.00    -0.200 F 
ATOM    100  F   UNL A   1      39.920  26.909  27.287  1.00  0.00    -0.200 F 
ENDBRANCH  67  90
ENDBRANCH  41  42
ENDBRANCH  33  36
ENDBRANCH  31  32
ENDBRANCH  30  31
ENDBRANCH   1  30
TORSDOF 15
ENDMDL
