MODEL 1
REMARK VINA RESULT:     -11.6      0.000      0.000
REMARK SMILES O=C(NCCCNC(=O)c1oc2cccc3c2c1CCC3)c1ccc(-c2c3nc(c(-c4c(F)c(F)c(F)c(F)c4F)c4ccc([nH]4)c(-c4c(F)c(F)c(F)c(F)c4F)c4nc(c(-c5c(F)c(F)c(F)c(F)c5F)c5ccc2[nH]5)C=C4)C=C3)cc1
REMARK SMILES IDX 4 1 3 2 1 3 2 4 22 6 23 7 84 8 24 9 83 10 25 11 26 12 27 13
REMARK SMILES IDX 77 14 28 15 82 16 76 17 78 18 29 19 81 20 75 21 74 22 30 24
REMARK SMILES IDX 62 25 42 26 61 27 43 28 46 29 60 30 79 31 44 32 45 33 59 35
REMARK SMILES IDX 80 36 47 37 31 38 32 39 40 40 33 41 34 42 38 43 41 44 35 45
REMARK SMILES IDX 36 46 39 47 37 48 63 49 64 50 72 51 65 52 66 53 70 54 73 55
REMARK SMILES IDX 67 56 68 57 71 58 69 59 48 60 49 61 57 62 50 63 51 64 55 65
REMARK SMILES IDX 58 66 52 67 53 68 56 69 54 70 5 71 6 72 7 73 8 74 9 76 10 77
REMARK SMILES IDX 11 78 18 79 12 80 17 81 19 82 13 83 16 84 20 85 14 86 15 87
REMARK SMILES IDX 21 88
REMARK H PARENT 3 5 78 23 46 34 7 75
REMARK Flexibility Score: inf
ROOT
ATOM      1  C   UNL A   1      42.441  21.072  26.855  1.00  0.00     0.118 C 
ENDROOT
BRANCH   1   2
ATOM      2  N   UNL A   1      40.996  21.132  26.732  1.00  0.00    -0.352 N 
ATOM      3  O   UNL A   1      38.946  21.839  26.299  1.00  0.00    -0.269 OA
ATOM      4  C   UNL A   1      40.073  22.144  26.698  1.00  0.00     0.251 C 
ATOM      5  H   UNL A   1      40.585  20.241  26.656  1.00  0.00     0.163 HD
BRANCH   4   6
ATOM      6  C   UNL A   1      40.298  23.532  27.189  1.00  0.00     0.039 A 
ATOM      7  C   UNL A   1      41.279  23.925  28.096  1.00  0.00     0.014 A 
ATOM      8  C   UNL A   1      39.396  24.508  26.715  1.00  0.00     0.014 A 
ATOM      9  C   UNL A   1      41.281  25.223  28.604  1.00  0.00     0.010 A 
ATOM     10  C   UNL A   1      39.406  25.813  27.202  1.00  0.00     0.010 A 
ATOM     11  C   UNL A   1      40.330  26.160  28.178  1.00  0.00    -0.014 A 
BRANCH  11  12
ATOM     12  C   UNL A   1      40.499  27.543  28.624  1.00  0.00     0.031 A 
ATOM     13  C   UNL A   1      41.733  28.180  28.091  1.00  0.00     0.074 A 
ATOM     14  C   UNL A   1      39.641  28.252  29.384  1.00  0.00     0.049 A 
ATOM     15  N   UNL A   1      42.798  28.495  28.750  1.00  0.00    -0.248 NA
ATOM     16  C   UNL A   1      41.851  28.359  26.637  1.00  0.00     0.031 C 
ATOM     17  C   UNL A   1      38.269  27.913  29.763  1.00  0.00     0.029 A 
ATOM     18  N   UNL A   1      39.819  29.491  29.941  1.00  0.00    -0.354 N 
ATOM     19  C   UNL A   1      43.668  29.071  27.827  1.00  0.00     0.074 A 
ATOM     20  C   UNL A   1      43.095  28.831  26.530  1.00  0.00     0.031 C 
ATOM     21  C   UNL A   1      37.677  28.997  30.320  1.00  0.00     0.029 A 
ATOM     22  C   UNL A   1      38.664  30.054  30.472  1.00  0.00     0.049 A 
ATOM     23  H   UNL A   1      40.691  29.943  29.963  1.00  0.00     0.167 HD
ATOM     24  C   UNL A   1      44.670  29.894  28.243  1.00  0.00     0.037 A 
ATOM     25  C   UNL A   1      38.532  31.307  30.977  1.00  0.00     0.037 A 
ATOM     26  C   UNL A   1      44.931  29.704  29.648  1.00  0.00     0.049 A 
ATOM     27  C   UNL A   1      39.881  31.763  31.381  1.00  0.00     0.074 A 
ATOM     28  C   UNL A   1      45.409  28.682  30.442  1.00  0.00     0.029 A 
ATOM     29  N   UNL A   1      44.339  30.605  30.492  1.00  0.00    -0.354 N 
ATOM     30  N   UNL A   1      40.553  31.267  32.380  1.00  0.00    -0.248 NA
ATOM     31  C   UNL A   1      40.649  32.578  30.452  1.00  0.00     0.031 C 
ATOM     32  C   UNL A   1      44.741  28.832  31.696  1.00  0.00     0.029 A 
ATOM     33  C   UNL A   1      43.922  29.960  31.622  1.00  0.00     0.049 A 
ATOM     34  H   UNL A   1      44.231  31.567  30.313  1.00  0.00     0.167 HD
ATOM     35  C   UNL A   1      41.872  31.328  31.971  1.00  0.00     0.074 A 
ATOM     36  C   UNL A   1      41.882  32.281  30.867  1.00  0.00     0.031 C 
ATOM     37  C   UNL A   1      42.764  30.379  32.377  1.00  0.00     0.037 A 
BRANCH  24  38
ATOM     38  C   UNL A   1      45.081  31.175  27.534  1.00  0.00     0.064 A 
ATOM     39  C   UNL A   1      46.408  31.284  27.057  1.00  0.00     0.173 A 
ATOM     40  C   UNL A   1      44.372  32.393  27.608  1.00  0.00     0.173 A 
ATOM     41  F   UNL A   1      47.186  30.197  26.936  1.00  0.00    -0.203 F 
ATOM     42  C   UNL A   1      47.009  32.521  26.802  1.00  0.00     0.198 A 
ATOM     43  C   UNL A   1      44.960  33.621  27.305  1.00  0.00     0.198 A 
ATOM     44  F   UNL A   1      43.122  32.469  28.073  1.00  0.00    -0.203 F 
ATOM     45  F   UNL A   1      48.313  32.578  26.501  1.00  0.00    -0.200 F 
ATOM     46  C   UNL A   1      46.287  33.690  26.941  1.00  0.00     0.200 A 
ATOM     47  F   UNL A   1      44.248  34.746  27.459  1.00  0.00    -0.200 F 
ATOM     48  F   UNL A   1      46.878  34.879  26.773  1.00  0.00    -0.200 F 
ENDBRANCH  24  38
BRANCH  25  49
ATOM     49  C   UNL A   1      37.390  32.255  30.915  1.00  0.00     0.064 A 
ATOM     50  C   UNL A   1      37.112  32.980  29.740  1.00  0.00     0.173 A 
ATOM     51  C   UNL A   1      36.367  32.220  31.880  1.00  0.00     0.173 A 
ATOM     52  F   UNL A   1      38.016  33.038  28.751  1.00  0.00    -0.203 F 
ATOM     53  C   UNL A   1      35.868  33.583  29.521  1.00  0.00     0.198 A 
ATOM     54  C   UNL A   1      35.128  32.828  31.663  1.00  0.00     0.198 A 
ATOM     55  F   UNL A   1      36.511  31.508  33.006  1.00  0.00    -0.203 F 
ATOM     56  F   UNL A   1      35.614  34.191  28.354  1.00  0.00    -0.200 F 
ATOM     57  C   UNL A   1      34.871  33.491  30.476  1.00  0.00     0.200 A 
ATOM     58  F   UNL A   1      34.157  32.703  32.580  1.00  0.00    -0.200 F 
ATOM     59  F   UNL A   1      33.654  33.999  30.238  1.00  0.00    -0.200 F 
ENDBRANCH  25  49
BRANCH  37  60
ATOM     60  C   UNL A   1      42.408  29.558  33.581  1.00  0.00     0.064 A 
ATOM     61  C   UNL A   1      41.721  28.334  33.537  1.00  0.00     0.173 A 
ATOM     62  C   UNL A   1      42.915  29.974  34.821  1.00  0.00     0.173 A 
ATOM     63  F   UNL A   1      41.279  27.828  32.379  1.00  0.00    -0.203 F 
ATOM     64  C   UNL A   1      41.528  27.578  34.693  1.00  0.00     0.198 A 
ATOM     65  C   UNL A   1      42.756  29.198  35.963  1.00  0.00     0.198 A 
ATOM     66  F   UNL A   1      43.615  31.116  34.911  1.00  0.00    -0.203 F 
ATOM     67  F   UNL A   1      40.863  26.414  34.632  1.00  0.00    -0.200 F 
ATOM     68  C   UNL A   1      42.057  28.004  35.901  1.00  0.00     0.200 A 
ATOM     69  F   UNL A   1      43.310  29.593  37.118  1.00  0.00    -0.200 F 
ATOM     70  F   UNL A   1      41.918  27.251  37.001  1.00  0.00    -0.200 F 
ENDBRANCH  37  60
ENDBRANCH  11  12
ENDBRANCH   4   6
ENDBRANCH   1   2
BRANCH   1  71
ATOM     71  C   UNL A   1      43.220  21.166  25.547  1.00  0.00     0.042 C 
BRANCH  71  72
ATOM     72  C   UNL A   1      43.935  22.489  25.304  1.00  0.00     0.118 C 
BRANCH  72  73
ATOM     73  N   UNL A   1      43.043  23.593  25.009  1.00  0.00    -0.349 N 
ATOM     74  C   UNL A   1      43.240  24.943  25.197  1.00  0.00     0.287 C 
ATOM     75  H   UNL A   1      42.174  23.342  24.619  1.00  0.00     0.163 HD
ATOM     76  O   UNL A   1      42.264  25.677  25.001  1.00  0.00    -0.266 OA
BRANCH  74  77
ATOM     77  C   UNL A   1      44.533  25.435  25.618  1.00  0.00     0.195 A 
ATOM     78  O   UNL A   1      45.411  25.849  24.626  1.00  0.00    -0.451 OA
ATOM     79  C   UNL A   1      45.147  25.584  26.853  1.00  0.00     0.012 A 
ATOM     80  C   UNL A   1      46.539  26.316  25.236  1.00  0.00     0.135 A 
ATOM     81  C   UNL A   1      46.396  26.176  26.593  1.00  0.00     0.028 A 
ATOM     82  C   UNL A   1      44.783  25.285  28.270  1.00  0.00     0.041 C 
ATOM     83  C   UNL A   1      47.678  26.861  24.661  1.00  0.00     0.048 A 
ATOM     84  C   UNL A   1      47.381  26.563  27.501  1.00  0.00    -0.037 A 
ATOM     85  C   UNL A   1      46.059  25.201  29.162  1.00  0.00     0.010 C 
ATOM     86  C   UNL A   1      48.673  27.284  25.566  1.00  0.00     0.004 A 
ATOM     87  C   UNL A   1      48.529  27.148  26.961  1.00  0.00     0.004 A 
ATOM     88  C   UNL A   1      47.070  26.373  28.960  1.00  0.00     0.036 C 
ENDBRANCH  74  77
ENDBRANCH  72  73
ENDBRANCH  71  72
ENDBRANCH   1  71
TORSDOF 10
ENDMDL
MODEL 2
REMARK VINA RESULT:     -11.5      0.607      1.390
REMARK SMILES O=C(NCCCNC(=O)c1oc2cccc3c2c1CCC3)c1ccc(-c2c3nc(c(-c4c(F)c(F)c(F)c(F)c4F)c4ccc([nH]4)c(-c4c(F)c(F)c(F)c(F)c4F)c4nc(c(-c5c(F)c(F)c(F)c(F)c5F)c5ccc2[nH]5)C=C4)C=C3)cc1
REMARK SMILES IDX 4 1 3 2 1 3 2 4 22 6 23 7 84 8 24 9 83 10 25 11 26 12 27 13
REMARK SMILES IDX 77 14 28 15 82 16 76 17 78 18 29 19 81 20 75 21 74 22 30 24
REMARK SMILES IDX 62 25 42 26 61 27 43 28 46 29 60 30 79 31 44 32 45 33 59 35
REMARK SMILES IDX 80 36 47 37 31 38 32 39 40 40 33 41 34 42 38 43 41 44 35 45
REMARK SMILES IDX 36 46 39 47 37 48 63 49 64 50 72 51 65 52 66 53 70 54 73 55
REMARK SMILES IDX 67 56 68 57 71 58 69 59 48 60 49 61 57 62 50 63 51 64 55 65
REMARK SMILES IDX 58 66 52 67 53 68 56 69 54 70 5 71 6 72 7 73 8 74 9 76 10 77
REMARK SMILES IDX 11 78 18 79 12 80 17 81 19 82 13 83 16 84 20 85 14 86 15 87
REMARK SMILES IDX 21 88
REMARK H PARENT 3 5 78 23 46 34 7 75
REMARK Flexibility Score: inf
ROOT
ATOM      1  C   UNL A   1      42.601  21.687  26.983  1.00  0.00     0.118 C 
ENDROOT
BRANCH   1   2
ATOM      2  N   UNL A   1      41.160  21.585  26.833  1.00  0.00    -0.352 N 
ATOM      3  O   UNL A   1      39.052  22.061  26.366  1.00  0.00    -0.269 OA
ATOM      4  C   UNL A   1      40.130  22.486  26.789  1.00  0.00     0.251 C 
ATOM      5  H   UNL A   1      40.854  20.653  26.741  1.00  0.00     0.163 HD
BRANCH   4   6
ATOM      6  C   UNL A   1      40.188  23.886  27.296  1.00  0.00     0.039 A 
ATOM      7  C   UNL A   1      39.333  24.920  26.925  1.00  0.00     0.014 A 
ATOM      8  C   UNL A   1      41.237  24.173  28.194  1.00  0.00     0.014 A 
ATOM      9  C   UNL A   1      39.592  26.225  27.344  1.00  0.00     0.010 A 
ATOM     10  C   UNL A   1      41.489  25.472  28.633  1.00  0.00     0.010 A 
ATOM     11  C   UNL A   1      40.684  26.506  28.176  1.00  0.00    -0.014 A 
BRANCH  11  12
ATOM     12  C   UNL A   1      40.794  27.862  28.710  1.00  0.00     0.031 A 
ATOM     13  C   UNL A   1      42.028  28.565  28.269  1.00  0.00     0.074 A 
ATOM     14  C   UNL A   1      39.884  28.499  29.475  1.00  0.00     0.049 A 
ATOM     15  N   UNL A   1      43.055  28.869  28.990  1.00  0.00    -0.248 NA
ATOM     16  C   UNL A   1      42.199  28.836  26.835  1.00  0.00     0.031 C 
ATOM     17  C   UNL A   1      38.510  28.101  29.775  1.00  0.00     0.029 A 
ATOM     18  N   UNL A   1      40.002  29.707  30.112  1.00  0.00    -0.354 N 
ATOM     19  C   UNL A   1      43.944  29.524  28.141  1.00  0.00     0.074 A 
ATOM     20  C   UNL A   1      43.431  29.348  26.808  1.00  0.00     0.031 C 
ATOM     21  C   UNL A   1      37.863  29.132  30.371  1.00  0.00     0.029 A 
ATOM     22  C   UNL A   1      38.810  30.205  30.627  1.00  0.00     0.049 A 
ATOM     23  H   UNL A   1      40.859  30.181  30.198  1.00  0.00     0.167 HD
ATOM     24  C   UNL A   1      44.903  30.348  28.646  1.00  0.00     0.037 A 
ATOM     25  C   UNL A   1      38.620  31.420  31.201  1.00  0.00     0.037 A 
ATOM     26  C   UNL A   1      45.113  30.079  30.047  1.00  0.00     0.049 A 
ATOM     27  C   UNL A   1      39.938  31.888  31.687  1.00  0.00     0.074 A 
ATOM     28  C   UNL A   1      45.589  29.025  30.798  1.00  0.00     0.029 A 
ATOM     29  N   UNL A   1      44.460  30.911  30.918  1.00  0.00    -0.354 N 
ATOM     30  N   UNL A   1      40.584  31.350  32.682  1.00  0.00    -0.248 NA
ATOM     31  C   UNL A   1      40.717  32.779  30.841  1.00  0.00     0.031 C 
ATOM     32  C   UNL A   1      44.867  29.079  32.030  1.00  0.00     0.029 A 
ATOM     33  C   UNL A   1      44.019  30.187  31.989  1.00  0.00     0.049 A 
ATOM     34  H   UNL A   1      44.331  31.878  30.792  1.00  0.00     0.167 HD
ATOM     35  C   UNL A   1      41.916  31.473  32.333  1.00  0.00     0.074 A 
ATOM     36  C   UNL A   1      41.941  32.491  31.289  1.00  0.00     0.031 C 
ATOM     37  C   UNL A   1      42.819  30.526  32.719  1.00  0.00     0.037 A 
BRANCH  24  38
ATOM     38  C   UNL A   1      45.304  31.680  28.033  1.00  0.00     0.064 A 
ATOM     39  C   UNL A   1      44.281  32.582  27.656  1.00  0.00     0.173 A 
ATOM     40  C   UNL A   1      46.577  31.961  27.492  1.00  0.00     0.173 A 
ATOM     41  F   UNL A   1      43.027  32.426  28.107  1.00  0.00    -0.203 F 
ATOM     42  C   UNL A   1      44.492  33.595  26.716  1.00  0.00     0.198 A 
ATOM     43  C   UNL A   1      46.793  33.005  26.592  1.00  0.00     0.198 A 
ATOM     44  F   UNL A   1      47.640  31.186  27.718  1.00  0.00    -0.203 F 
ATOM     45  F   UNL A   1      43.456  34.323  26.278  1.00  0.00    -0.200 F 
ATOM     46  C   UNL A   1      45.746  33.796  26.173  1.00  0.00     0.200 A 
ATOM     47  F   UNL A   1      48.015  33.176  26.067  1.00  0.00    -0.200 F 
ATOM     48  F   UNL A   1      45.937  34.714  25.218  1.00  0.00    -0.200 F 
ENDBRANCH  24  38
BRANCH  25  49
ATOM     49  C   UNL A   1      37.453  32.338  31.148  1.00  0.00     0.064 A 
ATOM     50  C   UNL A   1      37.148  33.056  29.974  1.00  0.00     0.173 A 
ATOM     51  C   UNL A   1      36.439  32.276  32.120  1.00  0.00     0.173 A 
ATOM     52  F   UNL A   1      38.043  33.138  28.979  1.00  0.00    -0.203 F 
ATOM     53  C   UNL A   1      35.887  33.626  29.766  1.00  0.00     0.198 A 
ATOM     54  C   UNL A   1      35.183  32.851  31.912  1.00  0.00     0.198 A 
ATOM     55  F   UNL A   1      36.610  31.568  33.244  1.00  0.00    -0.203 F 
ATOM     56  F   UNL A   1      35.609  34.228  28.600  1.00  0.00    -0.200 F 
ATOM     57  C   UNL A   1      34.900  33.508  30.728  1.00  0.00     0.200 A 
ATOM     58  F   UNL A   1      34.223  32.701  32.836  1.00  0.00    -0.200 F 
ATOM     59  F   UNL A   1      33.668  33.984  30.498  1.00  0.00    -0.200 F 
ENDBRANCH  25  49
BRANCH  37  60
ATOM     60  C   UNL A   1      42.440  29.623  33.855  1.00  0.00     0.064 A 
ATOM     61  C   UNL A   1      41.742  28.413  33.714  1.00  0.00     0.173 A 
ATOM     62  C   UNL A   1      42.934  29.944  35.128  1.00  0.00     0.173 A 
ATOM     63  F   UNL A   1      41.311  27.996  32.517  1.00  0.00    -0.203 F 
ATOM     64  C   UNL A   1      41.528  27.577  34.810  1.00  0.00     0.198 A 
ATOM     65  C   UNL A   1      42.753  29.089  36.209  1.00  0.00     0.198 A 
ATOM     66  F   UNL A   1      43.643  31.069  35.309  1.00  0.00    -0.203 F 
ATOM     67  F   UNL A   1      40.854  26.427  34.656  1.00  0.00    -0.200 F 
ATOM     68  C   UNL A   1      42.045  27.909  36.051  1.00  0.00     0.200 A 
ATOM     69  F   UNL A   1      43.295  29.394  37.396  1.00  0.00    -0.200 F 
ATOM     70  F   UNL A   1      41.884  27.080  37.093  1.00  0.00    -0.200 F 
ENDBRANCH  37  60
ENDBRANCH  11  12
ENDBRANCH   4   6
ENDBRANCH   1   2
BRANCH   1  71
ATOM     71  C   UNL A   1      43.411  21.539  25.699  1.00  0.00     0.042 C 
BRANCH  71  72
ATOM     72  C   UNL A   1      43.991  22.832  25.137  1.00  0.00     0.118 C 
BRANCH  72  73
ATOM     73  N   UNL A   1      42.999  23.855  24.876  1.00  0.00    -0.349 N 
ATOM     74  C   UNL A   1      43.022  25.192  25.205  1.00  0.00     0.287 C 
ATOM     75  H   UNL A   1      42.194  23.552  24.396  1.00  0.00     0.163 HD
ATOM     76  O   UNL A   1      41.983  25.831  25.000  1.00  0.00    -0.266 OA
BRANCH  74  77
ATOM     77  C   UNL A   1      44.216  25.777  25.773  1.00  0.00     0.195 A 
ATOM     78  O   UNL A   1      44.909  26.694  24.995  1.00  0.00    -0.451 OA
ATOM     79  C   UNL A   1      44.882  25.617  26.979  1.00  0.00     0.012 A 
ATOM     80  C   UNL A   1      45.962  27.154  25.731  1.00  0.00     0.135 A 
ATOM     81  C   UNL A   1      45.959  26.521  26.948  1.00  0.00     0.028 A 
ATOM     82  C   UNL A   1      44.701  24.769  28.196  1.00  0.00     0.041 C 
ATOM     83  C   UNL A   1      46.916  28.102  25.389  1.00  0.00     0.048 A 
ATOM     84  C   UNL A   1      46.912  26.773  27.934  1.00  0.00    -0.037 A 
ATOM     85  C   UNL A   1      46.034  24.662  28.998  1.00  0.00     0.010 C 
ATOM     86  C   UNL A   1      47.872  28.390  26.385  1.00  0.00     0.004 A 
ATOM     87  C   UNL A   1      47.870  27.747  27.638  1.00  0.00     0.004 A 
ATOM     88  C   UNL A   1      46.764  26.022  29.228  1.00  0.00     0.036 C 
ENDBRANCH  74  77
ENDBRANCH  72  73
ENDBRANCH  71  72
ENDBRANCH   1  71
TORSDOF 10
ENDMDL
MODEL 3
REMARK VINA RESULT:     -11.5      5.186     11.010
REMARK SMILES O=C(NCCCNC(=O)c1oc2cccc3c2c1CCC3)c1ccc(-c2c3nc(c(-c4c(F)c(F)c(F)c(F)c4F)c4ccc([nH]4)c(-c4c(F)c(F)c(F)c(F)c4F)c4nc(c(-c5c(F)c(F)c(F)c(F)c5F)c5ccc2[nH]5)C=C4)C=C3)cc1
REMARK SMILES IDX 4 1 3 2 1 3 2 4 22 6 23 7 84 8 24 9 83 10 25 11 26 12 27 13
REMARK SMILES IDX 77 14 28 15 82 16 76 17 78 18 29 19 81 20 75 21 74 22 30 24
REMARK SMILES IDX 62 25 42 26 61 27 43 28 46 29 60 30 79 31 44 32 45 33 59 35
REMARK SMILES IDX 80 36 47 37 31 38 32 39 40 40 33 41 34 42 38 43 41 44 35 45
REMARK SMILES IDX 36 46 39 47 37 48 63 49 64 50 72 51 65 52 66 53 70 54 73 55
REMARK SMILES IDX 67 56 68 57 71 58 69 59 48 60 49 61 57 62 50 63 51 64 55 65
REMARK SMILES IDX 58 66 52 67 53 68 56 69 54 70 5 71 6 72 7 73 8 74 9 76 10 77
REMARK SMILES IDX 11 78 18 79 12 80 17 81 19 82 13 83 16 84 20 85 14 86 15 87
REMARK SMILES IDX 21 88
REMARK H PARENT 3 5 78 23 46 34 7 75
REMARK Flexibility Score: inf
ROOT
ATOM      1  C   UNL A   1      33.273  30.224  27.287  1.00  0.00     0.118 C 
ENDROOT
BRANCH   1   2
ATOM      2  N   UNL A   1      33.857  31.497  27.665  1.00  0.00    -0.352 N 
ATOM      3  O   UNL A   1      35.270  33.184  27.885  1.00  0.00    -0.269 OA
ATOM      4  C   UNL A   1      35.137  31.959  27.830  1.00  0.00     0.251 C 
ATOM      5  H   UNL A   1      33.178  32.188  27.843  1.00  0.00     0.163 HD
BRANCH   4   6
ATOM      6  C   UNL A   1      36.339  31.106  28.043  1.00  0.00     0.039 A 
ATOM      7  C   UNL A   1      36.473  29.777  27.651  1.00  0.00     0.014 A 
ATOM      8  C   UNL A   1      37.405  31.708  28.744  1.00  0.00     0.014 A 
ATOM      9  C   UNL A   1      37.585  29.038  28.054  1.00  0.00     0.010 A 
ATOM     10  C   UNL A   1      38.529  30.981  29.132  1.00  0.00     0.010 A 
ATOM     11  C   UNL A   1      38.601  29.632  28.816  1.00  0.00    -0.014 A 
BRANCH  11  12
ATOM     12  C   UNL A   1      39.810  28.846  29.056  1.00  0.00     0.031 A 
ATOM     13  C   UNL A   1      40.130  28.694  30.500  1.00  0.00     0.074 A 
ATOM     14  C   UNL A   1      40.572  28.240  28.122  1.00  0.00     0.049 A 
ATOM     15  N   UNL A   1      41.106  29.237  31.147  1.00  0.00    -0.248 NA
ATOM     16  C   UNL A   1      39.176  27.968  31.350  1.00  0.00     0.031 C 
ATOM     17  C   UNL A   1      40.278  28.031  26.705  1.00  0.00     0.029 A 
ATOM     18  N   UNL A   1      41.782  27.618  28.282  1.00  0.00    -0.354 N 
ATOM     19  C   UNL A   1      40.996  28.790  32.462  1.00  0.00     0.074 A 
ATOM     20  C   UNL A   1      39.719  28.135  32.558  1.00  0.00     0.031 C 
ATOM     21  C   UNL A   1      41.184  27.171  26.181  1.00  0.00     0.029 A 
ATOM     22  C   UNL A   1      42.202  26.884  27.178  1.00  0.00     0.049 A 
ATOM     23  H   UNL A   1      42.309  27.685  29.109  1.00  0.00     0.167 HD
ATOM     24  C   UNL A   1      42.077  28.807  33.290  1.00  0.00     0.037 A 
ATOM     25  C   UNL A   1      43.297  26.084  27.105  1.00  0.00     0.037 A 
ATOM     26  C   UNL A   1      43.091  29.695  32.780  1.00  0.00     0.049 A 
ATOM     27  C   UNL A   1      44.243  26.539  28.149  1.00  0.00     0.074 A 
ATOM     28  C   UNL A   1      43.207  31.052  32.563  1.00  0.00     0.029 A 
ATOM     29  N   UNL A   1      44.103  29.102  32.075  1.00  0.00    -0.354 N 
ATOM     30  N   UNL A   1      44.882  27.674  28.114  1.00  0.00    -0.248 NA
ATOM     31  C   UNL A   1      44.243  25.859  29.434  1.00  0.00     0.031 C 
ATOM     32  C   UNL A   1      44.057  31.182  31.421  1.00  0.00     0.029 A 
ATOM     33  C   UNL A   1      44.453  29.904  31.025  1.00  0.00     0.049 A 
ATOM     34  H   UNL A   1      44.515  28.235  32.290  1.00  0.00     0.167 HD
ATOM     35  C   UNL A   1      44.972  28.058  29.439  1.00  0.00     0.074 A 
ATOM     36  C   UNL A   1      44.716  26.842  30.203  1.00  0.00     0.031 C 
ATOM     37  C   UNL A   1      44.954  29.379  29.775  1.00  0.00     0.037 A 
BRANCH  24  38
ATOM     38  C   UNL A   1      42.424  27.701  34.275  1.00  0.00     0.064 A 
ATOM     39  C   UNL A   1      43.016  26.518  33.775  1.00  0.00     0.173 A 
ATOM     40  C   UNL A   1      41.902  27.601  35.582  1.00  0.00     0.173 A 
ATOM     41  F   UNL A   1      43.552  26.484  32.546  1.00  0.00    -0.203 F 
ATOM     42  C   UNL A   1      42.970  25.309  34.477  1.00  0.00     0.198 A 
ATOM     43  C   UNL A   1      41.902  26.404  36.299  1.00  0.00     0.198 A 
ATOM     44  F   UNL A   1      41.276  28.615  36.185  1.00  0.00    -0.203 F 
ATOM     45  F   UNL A   1      43.409  24.185  33.895  1.00  0.00    -0.200 F 
ATOM     46  C   UNL A   1      42.399  25.251  35.733  1.00  0.00     0.200 A 
ATOM     47  F   UNL A   1      41.332  26.365  37.511  1.00  0.00    -0.200 F 
ATOM     48  F   UNL A   1      42.285  24.083  36.377  1.00  0.00    -0.200 F 
ENDBRANCH  24  38
BRANCH  25  49
ATOM     49  C   UNL A   1      43.504  24.800  26.389  1.00  0.00     0.064 A 
ATOM     50  C   UNL A   1      44.554  24.649  25.461  1.00  0.00     0.173 A 
ATOM     51  C   UNL A   1      42.896  23.615  26.837  1.00  0.00     0.173 A 
ATOM     52  F   UNL A   1      45.215  25.723  25.006  1.00  0.00    -0.203 F 
ATOM     53  C   UNL A   1      45.002  23.387  25.054  1.00  0.00     0.198 A 
ATOM     54  C   UNL A   1      43.340  22.356  26.424  1.00  0.00     0.198 A 
ATOM     55  F   UNL A   1      41.928  23.649  27.763  1.00  0.00    -0.203 F 
ATOM     56  F   UNL A   1      46.058  23.284  24.235  1.00  0.00    -0.200 F 
ATOM     57  C   UNL A   1      44.405  22.241  25.549  1.00  0.00     0.200 A 
ATOM     58  F   UNL A   1      42.777  21.252  26.938  1.00  0.00    -0.200 F 
ATOM     59  F   UNL A   1      44.882  21.032  25.223  1.00  0.00    -0.200 F 
ENDBRANCH  25  49
BRANCH  37  60
ATOM     60  C   UNL A   1      45.270  30.378  28.701  1.00  0.00     0.064 A 
ATOM     61  C   UNL A   1      44.333  30.897  27.794  1.00  0.00     0.173 A 
ATOM     62  C   UNL A   1      46.560  30.929  28.689  1.00  0.00     0.173 A 
ATOM     63  F   UNL A   1      43.059  30.481  27.799  1.00  0.00    -0.203 F 
ATOM     64  C   UNL A   1      44.685  31.906  26.898  1.00  0.00     0.198 A 
ATOM     65  C   UNL A   1      46.895  31.962  27.822  1.00  0.00     0.198 A 
ATOM     66  F   UNL A   1      47.482  30.497  29.563  1.00  0.00    -0.203 F 
ATOM     67  F   UNL A   1      43.776  32.384  26.034  1.00  0.00    -0.200 F 
ATOM     68  C   UNL A   1      45.960  32.445  26.922  1.00  0.00     0.200 A 
ATOM     69  F   UNL A   1      48.116  32.511  27.883  1.00  0.00    -0.200 F 
ATOM     70  F   UNL A   1      46.282  33.452  26.097  1.00  0.00    -0.200 F 
ENDBRANCH  37  60
ENDBRANCH  11  12
ENDBRANCH   4   6
ENDBRANCH   1   2
BRANCH   1  71
ATOM     71  C   UNL A   1      33.225  29.937  25.790  1.00  0.00     0.042 C 
BRANCH  71  72
ATOM     72  C   UNL A   1      33.770  28.578  25.365  1.00  0.00     0.118 C 
BRANCH  72  73
ATOM     73  N   UNL A   1      34.174  28.517  23.975  1.00  0.00    -0.349 N 
ATOM     74  C   UNL A   1      33.393  28.390  22.848  1.00  0.00     0.287 C 
ATOM     75  H   UNL A   1      35.144  28.572  23.813  1.00  0.00     0.163 HD
ATOM     76  O   UNL A   1      33.988  28.212  21.779  1.00  0.00    -0.266 OA
BRANCH  74  77
ATOM     77  C   UNL A   1      31.952  28.454  22.955  1.00  0.00     0.195 A 
ATOM     78  O   UNL A   1      31.332  29.621  22.531  1.00  0.00    -0.451 OA
ATOM     79  C   UNL A   1      30.986  27.576  23.425  1.00  0.00     0.012 A 
ATOM     80  C   UNL A   1      29.985  29.452  22.671  1.00  0.00     0.135 A 
ATOM     81  C   UNL A   1      29.749  28.209  23.203  1.00  0.00     0.028 A 
ATOM     82  C   UNL A   1      30.987  26.220  24.049  1.00  0.00     0.041 C 
ATOM     83  C   UNL A   1      28.959  30.329  22.350  1.00  0.00     0.048 A 
ATOM     84  C   UNL A   1      28.467  27.731  23.468  1.00  0.00    -0.037 A 
ATOM     85  C   UNL A   1      29.655  25.964  24.819  1.00  0.00     0.010 C 
ATOM     86  C   UNL A   1      27.654  29.852  22.587  1.00  0.00     0.004 A 
ATOM     87  C   UNL A   1      27.406  28.575  23.127  1.00  0.00     0.004 A 
ATOM     88  C   UNL A   1      28.365  26.338  24.025  1.00  0.00     0.036 C 
ENDBRANCH  74  77
ENDBRANCH  72  73
ENDBRANCH  71  72
ENDBRANCH   1  71
TORSDOF 10
ENDMDL
