MODEL 1
REMARK VINA RESULT:     -11.3      0.000      0.000
REMARK SMILES CC[NH2+][C@]1(C(=O)NCCCNC(=O)c2ccc(-c3c4nc(c(-c5c(F)c(F)c(F)c(F)c5F)c5ccc([nH]5)c(-c5c(F)c(F)c(F)c(F)c5F)c5nc(c(-c6c(F)c(F)c(F)c(F)c6F)c6ccc3[nH]6)C=C5)C=C4)cc2)CCC[C@H]1CC[N@H+]1CCC[C@@H](CC)C1
REMARK SMILES IDX 8 1 7 2 5 3 6 4 4 6 77 7 80 8 78 9 79 10 3 11 2 14 1 15
REMARK SMILES IDX 81 16 82 17 83 18 84 19 90 20 85 22 87 23 86 24 88 25 89 26
REMARK SMILES IDX 9 27 10 28 11 29 12 30 13 32 14 33 15 34 76 35 16 36 75 37
REMARK SMILES IDX 17 38 18 39 19 40 69 41 20 42 74 43 68 44 70 45 21 46 73 47
REMARK SMILES IDX 67 48 66 49 22 51 54 52 34 53 53 54 35 55 38 56 52 57 71 58
REMARK SMILES IDX 36 59 37 60 51 62 72 63 39 64 23 65 24 66 32 67 25 68 26 69
REMARK SMILES IDX 30 70 33 71 27 72 28 73 31 74 29 75 55 76 56 77 64 78 57 79
REMARK SMILES IDX 58 80 62 81 65 82 59 83 60 84 63 85 61 86 40 87 41 88 49 89
REMARK SMILES IDX 42 90 43 91 47 92 50 93 44 94 45 95 48 96 46 97
REMARK H PARENT 7 5 3 12 3 13 83 21 11 31 70 50 38 61
REMARK Flexibility Score: inf
ROOT
ATOM      1  C   UNL A   1      37.376  20.219  24.998  1.00  0.00     0.118 C 
ENDROOT
BRANCH   1   2
ATOM      2  N   UNL A   1      36.909  21.168  24.003  1.00  0.00    -0.351 N 
ATOM      3  C   UNL A   1      36.414  22.434  24.100  1.00  0.00     0.281 C 
ATOM      4  O   UNL A   1      36.573  23.102  23.064  1.00  0.00    -0.268 OA
ATOM      5  H   UNL A   1      36.961  20.833  23.078  1.00  0.00     0.163 HD
BRANCH   3   6
ATOM      6  C   UNL A   1      35.683  23.072  25.337  1.00  0.00     0.178 C 
ATOM      7  C   UNL A   1      35.200  24.478  24.864  1.00  0.00     0.079 C 
ATOM      8  C   UNL A   1      34.298  22.434  25.730  1.00  0.00     0.066 C 
ATOM      9  C   UNL A   1      34.108  24.901  25.835  1.00  0.00     0.008 C 
ATOM     10  C   UNL A   1      33.534  23.607  26.402  1.00  0.00     0.011 C 
BRANCH   6  11
ATOM     11  N   UNL A   1      36.597  23.311  26.497  1.00  0.00    -0.334 N 
ATOM     12  H   UNL A   1      36.087  23.861  27.188  1.00  0.00     0.347 HD
ATOM     13  H   UNL A   1      36.876  22.385  26.823  1.00  0.00     0.347 HD
BRANCH  11  14
ATOM     14  C   UNL A   1      37.842  24.014  26.198  1.00  0.00     0.257 C 
ATOM     15  C   UNL A   1      39.036  23.134  26.543  1.00  0.00     0.071 C 
ENDBRANCH  11  14
ENDBRANCH   6  11
BRANCH   8  16
ATOM     16  C   UNL A   1      33.397  21.827  24.620  1.00  0.00     0.072 C 
BRANCH  16  17
ATOM     17  C   UNL A   1      32.149  21.056  25.084  1.00  0.00     0.262 C 
BRANCH  17  18
ATOM     18  N   UNL A   1      32.062  19.695  24.523  1.00  0.00    -0.335 N 
ATOM     19  C   UNL A   1      32.501  19.675  23.119  1.00  0.00     0.262 C 
ATOM     20  C   UNL A   1      32.877  18.772  25.327  1.00  0.00     0.265 C 
ATOM     21  H   UNL A   1      31.088  19.394  24.553  1.00  0.00     0.348 HD
ATOM     22  C   UNL A   1      32.374  18.274  22.519  1.00  0.00     0.062 C 
ATOM     23  C   UNL A   1      32.788  17.330  24.806  1.00  0.00     0.044 C 
ATOM     24  C   UNL A   1      33.165  17.250  23.326  1.00  0.00     0.015 C 
BRANCH  23  25
ATOM     25  C   UNL A   1      33.613  16.365  25.668  1.00  0.00     0.006 C 
ATOM     26  C   UNL A   1      34.926  15.870  25.081  1.00  0.00     0.004 C 
ENDBRANCH  23  25
ENDBRANCH  17  18
ENDBRANCH  16  17
ENDBRANCH   8  16
ENDBRANCH   3   6
ENDBRANCH   1   2
BRANCH   1  27
ATOM     27  C   UNL A   1      38.839  19.821  24.827  1.00  0.00     0.042 C 
BRANCH  27  28
ATOM     28  C   UNL A   1      39.603  19.550  26.116  1.00  0.00     0.118 C 
BRANCH  28  29
ATOM     29  N   UNL A   1      40.823  18.785  25.937  1.00  0.00    -0.352 N 
ATOM     30  C   UNL A   1      42.134  19.210  25.969  1.00  0.00     0.251 C 
ATOM     31  H   UNL A   1      40.696  17.823  25.770  1.00  0.00     0.163 HD
ATOM     32  O   UNL A   1      43.026  18.420  25.670  1.00  0.00    -0.269 OA
BRANCH  30  33
ATOM     33  C   UNL A   1      42.495  20.610  26.323  1.00  0.00     0.039 A 
ATOM     34  C   UNL A   1      42.424  20.996  27.665  1.00  0.00     0.014 A 
ATOM     35  C   UNL A   1      42.844  21.563  25.365  1.00  0.00     0.014 A 
ATOM     36  C   UNL A   1      42.742  22.307  28.044  1.00  0.00     0.010 A 
ATOM     37  C   UNL A   1      43.240  22.850  25.755  1.00  0.00     0.010 A 
ATOM     38  C   UNL A   1      43.185  23.248  27.097  1.00  0.00    -0.014 A 
BRANCH  38  39
ATOM     39  C   UNL A   1      43.582  24.625  27.528  1.00  0.00     0.031 A 
ATOM     40  C   UNL A   1      45.002  25.118  27.390  1.00  0.00     0.074 A 
ATOM     41  C   UNL A   1      42.656  25.453  28.055  1.00  0.00     0.049 A 
ATOM     42  N   UNL A   1      45.486  26.319  27.609  1.00  0.00    -0.248 NA
ATOM     43  C   UNL A   1      46.017  24.138  26.979  1.00  0.00     0.031 C 
ATOM     44  C   UNL A   1      41.266  25.094  28.336  1.00  0.00     0.029 A 
ATOM     45  N   UNL A   1      42.738  26.773  28.433  1.00  0.00    -0.354 N 
ATOM     46  C   UNL A   1      46.850  26.234  27.361  1.00  0.00     0.074 A 
ATOM     47  C   UNL A   1      47.131  24.851  27.044  1.00  0.00     0.031 C 
ATOM     48  C   UNL A   1      40.613  26.177  28.787  1.00  0.00     0.029 A 
ATOM     49  C   UNL A   1      41.540  27.302  28.855  1.00  0.00     0.049 A 
ATOM     50  H   UNL A   1      43.574  27.290  28.406  1.00  0.00     0.167 HD
ATOM     51  C   UNL A   1      47.783  27.220  27.361  1.00  0.00     0.037 A 
ATOM     52  C   UNL A   1      41.215  28.554  29.235  1.00  0.00     0.037 A 
ATOM     53  C   UNL A   1      47.510  28.604  27.658  1.00  0.00     0.049 A 
ATOM     54  C   UNL A   1      42.260  29.638  29.204  1.00  0.00     0.074 A 
ATOM     55  C   UNL A   1      48.378  29.683  27.614  1.00  0.00     0.029 A 
ATOM     56  N   UNL A   1      46.282  29.099  28.065  1.00  0.00    -0.354 N 
ATOM     57  N   UNL A   1      43.521  29.564  28.855  1.00  0.00    -0.248 NA
ATOM     58  C   UNL A   1      41.828  30.986  29.602  1.00  0.00     0.031 C 
ATOM     59  C   UNL A   1      47.689  30.821  28.048  1.00  0.00     0.029 A 
ATOM     60  C   UNL A   1      46.375  30.464  28.299  1.00  0.00     0.049 A 
ATOM     61  H   UNL A   1      45.463  28.563  28.173  1.00  0.00     0.167 HD
ATOM     62  C   UNL A   1      44.022  30.856  28.957  1.00  0.00     0.074 A 
ATOM     63  C   UNL A   1      42.925  31.697  29.384  1.00  0.00     0.031 C 
ATOM     64  C   UNL A   1      45.279  31.303  28.715  1.00  0.00     0.037 A 
BRANCH  51  65
ATOM     65  C   UNL A   1      49.197  26.844  27.011  1.00  0.00     0.064 A 
ATOM     66  C   UNL A   1      49.668  26.901  25.689  1.00  0.00     0.173 A 
ATOM     67  C   UNL A   1      50.108  26.476  28.013  1.00  0.00     0.173 A 
ATOM     68  F   UNL A   1      48.838  27.243  24.691  1.00  0.00    -0.203 F 
ATOM     69  C   UNL A   1      50.985  26.573  25.380  1.00  0.00     0.198 A 
ATOM     70  C   UNL A   1      51.435  26.181  27.704  1.00  0.00     0.198 A 
ATOM     71  F   UNL A   1      49.718  26.416  29.294  1.00  0.00    -0.203 F 
ATOM     72  F   UNL A   1      51.396  26.586  24.105  1.00  0.00    -0.200 F 
ATOM     73  C   UNL A   1      51.869  26.221  26.389  1.00  0.00     0.200 A 
ATOM     74  F   UNL A   1      52.293  25.860  28.682  1.00  0.00    -0.200 F 
ATOM     75  F   UNL A   1      53.140  25.916  26.091  1.00  0.00    -0.200 F 
ENDBRANCH  51  65
BRANCH  52  76
ATOM     76  C   UNL A   1      39.816  28.868  29.632  1.00  0.00     0.064 A 
ATOM     77  C   UNL A   1      39.398  28.745  30.965  1.00  0.00     0.173 A 
ATOM     78  C   UNL A   1      38.867  29.284  28.687  1.00  0.00     0.173 A 
ATOM     79  F   UNL A   1      40.262  28.329  31.903  1.00  0.00    -0.203 F 
ATOM     80  C   UNL A   1      38.078  29.001  31.334  1.00  0.00     0.198 A 
ATOM     81  C   UNL A   1      37.556  29.572  29.063  1.00  0.00     0.198 A 
ATOM     82  F   UNL A   1      39.215  29.423  27.400  1.00  0.00    -0.203 F 
ATOM     83  F   UNL A   1      37.693  28.823  32.604  1.00  0.00    -0.200 F 
ATOM     84  C   UNL A   1      37.160  29.421  30.383  1.00  0.00     0.200 A 
ATOM     85  F   UNL A   1      36.676  29.993  28.144  1.00  0.00    -0.200 F 
ATOM     86  F   UNL A   1      35.892  29.671  30.738  1.00  0.00    -0.200 F 
ENDBRANCH  52  76
BRANCH  64  87
ATOM     87  C   UNL A   1      45.532  32.778  28.860  1.00  0.00     0.064 A 
ATOM     88  C   UNL A   1      45.342  33.674  27.796  1.00  0.00     0.173 A 
ATOM     89  C   UNL A   1      45.951  33.307  30.092  1.00  0.00     0.173 A 
ATOM     90  F   UNL A   1      44.954  33.221  26.594  1.00  0.00    -0.203 F 
ATOM     91  C   UNL A   1      45.599  35.034  27.949  1.00  0.00     0.198 A 
ATOM     92  C   UNL A   1      46.173  34.673  30.250  1.00  0.00     0.198 A 
ATOM     93  F   UNL A   1      46.141  32.499  31.145  1.00  0.00    -0.203 F 
ATOM     94  F   UNL A   1      45.468  35.860  26.902  1.00  0.00    -0.200 F 
ATOM     95  C   UNL A   1      46.008  35.533  29.177  1.00  0.00     0.200 A 
ATOM     96  F   UNL A   1      46.552  35.154  31.442  1.00  0.00    -0.200 F 
ATOM     97  F   UNL A   1      46.251  36.842  29.322  1.00  0.00    -0.200 F 
ENDBRANCH  64  87
ENDBRANCH  38  39
ENDBRANCH  30  33
ENDBRANCH  28  29
ENDBRANCH  27  28
ENDBRANCH   1  27
TORSDOF 16
ENDMDL
MODEL 2
REMARK VINA RESULT:     -11.3      5.574     10.880
REMARK SMILES CC[NH2+][C@]1(C(=O)NCCCNC(=O)c2ccc(-c3c4nc(c(-c5c(F)c(F)c(F)c(F)c5F)c5ccc([nH]5)c(-c5c(F)c(F)c(F)c(F)c5F)c5nc(c(-c6c(F)c(F)c(F)c(F)c6F)c6ccc3[nH]6)C=C5)C=C4)cc2)CCC[C@H]1CC[N@H+]1CCC[C@@H](CC)C1
REMARK SMILES IDX 8 1 7 2 5 3 6 4 4 6 77 7 80 8 78 9 79 10 3 11 2 14 1 15
REMARK SMILES IDX 81 16 82 17 83 18 84 19 90 20 85 22 87 23 86 24 88 25 89 26
REMARK SMILES IDX 9 27 10 28 11 29 12 30 13 32 14 33 15 34 76 35 16 36 75 37
REMARK SMILES IDX 17 38 18 39 19 40 69 41 20 42 74 43 68 44 70 45 21 46 73 47
REMARK SMILES IDX 67 48 66 49 22 51 54 52 34 53 53 54 35 55 38 56 52 57 71 58
REMARK SMILES IDX 36 59 37 60 51 62 72 63 39 64 23 65 24 66 32 67 25 68 26 69
REMARK SMILES IDX 30 70 33 71 27 72 28 73 31 74 29 75 55 76 56 77 64 78 57 79
REMARK SMILES IDX 58 80 62 81 65 82 59 83 60 84 63 85 61 86 40 87 41 88 49 89
REMARK SMILES IDX 42 90 43 91 47 92 50 93 44 94 45 95 48 96 46 97
REMARK H PARENT 7 5 3 12 3 13 83 21 11 31 70 50 38 61
REMARK Flexibility Score: inf
ROOT
ATOM      1  C   UNL A   1      32.243  28.023  27.628  1.00  0.00     0.118 C 
ENDROOT
BRANCH   1   2
ATOM      2  N   UNL A   1      31.377  26.938  27.201  1.00  0.00    -0.351 N 
ATOM      3  C   UNL A   1      31.572  25.877  26.369  1.00  0.00     0.281 C 
ATOM      4  O   UNL A   1      30.815  24.922  26.609  1.00  0.00    -0.268 OA
ATOM      5  H   UNL A   1      30.472  26.976  27.589  1.00  0.00     0.163 HD
BRANCH   3   6
ATOM      6  C   UNL A   1      32.605  25.779  25.187  1.00  0.00     0.178 C 
ATOM      7  C   UNL A   1      32.073  24.648  24.254  1.00  0.00     0.079 C 
ATOM      8  C   UNL A   1      32.612  26.981  24.170  1.00  0.00     0.066 C 
ATOM      9  C   UNL A   1      32.750  24.855  22.908  1.00  0.00     0.008 C 
ATOM     10  C   UNL A   1      33.108  26.336  22.848  1.00  0.00     0.011 C 
BRANCH   6  11
ATOM     11  N   UNL A   1      33.966  25.348  25.634  1.00  0.00    -0.334 N 
ATOM     12  H   UNL A   1      34.600  25.445  24.841  1.00  0.00     0.347 HD
ATOM     13  H   UNL A   1      34.197  25.946  26.429  1.00  0.00     0.347 HD
BRANCH  11  14
ATOM     14  C   UNL A   1      34.075  23.978  26.129  1.00  0.00     0.257 C 
ATOM     15  C   UNL A   1      35.371  23.345  25.639  1.00  0.00     0.071 C 
ENDBRANCH  11  14
ENDBRANCH   6  11
BRANCH   8  16
ATOM     16  C   UNL A   1      31.290  27.744  23.884  1.00  0.00     0.072 C 
BRANCH  16  17
ATOM     17  C   UNL A   1      30.869  27.873  22.410  1.00  0.00     0.262 C 
BRANCH  17  18
ATOM     18  N   UNL A   1      29.570  28.548  22.231  1.00  0.00    -0.335 N 
ATOM     19  C   UNL A   1      28.647  28.214  23.328  1.00  0.00     0.262 C 
ATOM     20  C   UNL A   1      29.772  30.003  22.157  1.00  0.00     0.265 C 
ATOM     21  H   UNL A   1      29.153  28.223  21.358  1.00  0.00     0.348 HD
ATOM     22  C   UNL A   1      27.284  28.879  23.126  1.00  0.00     0.062 C 
ATOM     23  C   UNL A   1      28.449  30.752  21.930  1.00  0.00     0.044 C 
ATOM     24  C   UNL A   1      27.418  30.392  23.001  1.00  0.00     0.015 C 
BRANCH  23  25
ATOM     25  C   UNL A   1      28.668  32.266  21.821  1.00  0.00     0.006 C 
ATOM     26  C   UNL A   1      28.776  33.042  23.125  1.00  0.00     0.004 C 
ENDBRANCH  23  25
ENDBRANCH  17  18
ENDBRANCH  16  17
ENDBRANCH   8  16
ENDBRANCH   3   6
ENDBRANCH   1   2
BRANCH   1  27
ATOM     27  C   UNL A   1      31.755  29.403  27.200  1.00  0.00     0.042 C 
BRANCH  27  28
ATOM     28  C   UNL A   1      32.745  30.230  26.391  1.00  0.00     0.118 C 
BRANCH  28  29
ATOM     29  N   UNL A   1      32.675  31.658  26.642  1.00  0.00    -0.352 N 
ATOM     30  C   UNL A   1      33.479  32.446  27.436  1.00  0.00     0.251 C 
ATOM     31  H   UNL A   1      31.949  32.132  26.176  1.00  0.00     0.163 HD
ATOM     32  O   UNL A   1      33.177  33.623  27.612  1.00  0.00    -0.269 OA
BRANCH  30  33
ATOM     33  C   UNL A   1      34.687  31.900  28.114  1.00  0.00     0.039 A 
ATOM     34  C   UNL A   1      35.834  32.697  28.174  1.00  0.00     0.014 A 
ATOM     35  C   UNL A   1      34.737  30.608  28.638  1.00  0.00     0.014 A 
ATOM     36  C   UNL A   1      36.998  32.220  28.791  1.00  0.00     0.010 A 
ATOM     37  C   UNL A   1      35.874  30.162  29.326  1.00  0.00     0.010 A 
ATOM     38  C   UNL A   1      37.028  30.955  29.405  1.00  0.00    -0.014 A 
BRANCH  38  39
ATOM     39  C   UNL A   1      38.258  30.486  30.115  1.00  0.00     0.031 A 
ATOM     40  C   UNL A   1      38.549  30.886  31.541  1.00  0.00     0.074 A 
ATOM     41  C   UNL A   1      39.137  29.688  29.473  1.00  0.00     0.049 A 
ATOM     42  N   UNL A   1      39.510  30.476  32.337  1.00  0.00    -0.248 NA
ATOM     43  C   UNL A   1      37.667  31.892  32.150  1.00  0.00     0.031 C 
ATOM     44  C   UNL A   1      39.044  29.289  28.069  1.00  0.00     0.029 A 
ATOM     45  N   UNL A   1      40.273  29.055  29.920  1.00  0.00    -0.354 N 
ATOM     46  C   UNL A   1      39.344  31.169  33.529  1.00  0.00     0.074 A 
ATOM     47  C   UNL A   1      38.237  32.078  33.332  1.00  0.00     0.031 C 
ATOM     48  C   UNL A   1      40.042  28.437  27.785  1.00  0.00     0.029 A 
ATOM     49  C   UNL A   1      40.865  28.248  28.975  1.00  0.00     0.049 A 
ATOM     50  H   UNL A   1      40.630  29.168  30.830  1.00  0.00     0.167 HD
ATOM     51  C   UNL A   1      40.026  31.042  34.694  1.00  0.00     0.037 A 
ATOM     52  C   UNL A   1      41.935  27.433  29.059  1.00  0.00     0.037 A 
ATOM     53  C   UNL A   1      41.121  30.127  34.906  1.00  0.00     0.049 A 
ATOM     54  C   UNL A   1      42.662  27.288  30.370  1.00  0.00     0.074 A 
ATOM     55  C   UNL A   1      41.824  29.879  36.074  1.00  0.00     0.029 A 
ATOM     56  N   UNL A   1      41.678  29.319  33.928  1.00  0.00    -0.354 N 
ATOM     57  N   UNL A   1      42.420  27.866  31.520  1.00  0.00    -0.248 NA
ATOM     58  C   UNL A   1      43.801  26.359  30.395  1.00  0.00     0.031 C 
ATOM     59  C   UNL A   1      42.843  28.963  35.789  1.00  0.00     0.029 A 
ATOM     60  C   UNL A   1      42.732  28.590  34.460  1.00  0.00     0.049 A 
ATOM     61  H   UNL A   1      41.371  29.269  32.993  1.00  0.00     0.167 HD
ATOM     62  C   UNL A   1      43.350  27.346  32.412  1.00  0.00     0.074 A 
ATOM     63  C   UNL A   1      44.151  26.394  31.673  1.00  0.00     0.031 C 
ATOM     64  C   UNL A   1      43.523  27.634  33.726  1.00  0.00     0.037 A 
BRANCH  51  65
ATOM     65  C   UNL A   1      39.600  31.904  35.852  1.00  0.00     0.064 A 
ATOM     66  C   UNL A   1      38.516  31.551  36.671  1.00  0.00     0.173 A 
ATOM     67  C   UNL A   1      40.315  33.066  36.179  1.00  0.00     0.173 A 
ATOM     68  F   UNL A   1      37.795  30.453  36.401  1.00  0.00    -0.203 F 
ATOM     69  C   UNL A   1      38.145  32.345  37.753  1.00  0.00     0.198 A 
ATOM     70  C   UNL A   1      39.962  33.840  37.283  1.00  0.00     0.198 A 
ATOM     71  F   UNL A   1      41.367  33.445  35.439  1.00  0.00    -0.203 F 
ATOM     72  F   UNL A   1      37.075  32.015  38.489  1.00  0.00    -0.200 F 
ATOM     73  C   UNL A   1      38.873  33.484  38.063  1.00  0.00     0.200 A 
ATOM     74  F   UNL A   1      40.678  34.930  37.592  1.00  0.00    -0.200 F 
ATOM     75  F   UNL A   1      38.521  34.242  39.111  1.00  0.00    -0.200 F 
ENDBRANCH  51  65
BRANCH  52  76
ATOM     76  C   UNL A   1      42.360  26.644  27.871  1.00  0.00     0.064 A 
ATOM     77  C   UNL A   1      43.335  27.132  26.989  1.00  0.00     0.173 A 
ATOM     78  C   UNL A   1      41.790  25.395  27.586  1.00  0.00     0.173 A 
ATOM     79  F   UNL A   1      43.893  28.333  27.205  1.00  0.00    -0.203 F 
ATOM     80  C   UNL A   1      43.706  26.413  25.854  1.00  0.00     0.198 A 
ATOM     81  C   UNL A   1      42.187  24.661  26.469  1.00  0.00     0.198 A 
ATOM     82  F   UNL A   1      40.857  24.880  28.399  1.00  0.00    -0.203 F 
ATOM     83  F   UNL A   1      44.601  26.928  25.000  1.00  0.00    -0.200 F 
ATOM     84  C   UNL A   1      43.136  25.175  25.599  1.00  0.00     0.200 A 
ATOM     85  F   UNL A   1      41.645  23.458  26.234  1.00  0.00    -0.200 F 
ATOM     86  F   UNL A   1      43.496  24.481  24.510  1.00  0.00    -0.200 F 
ENDBRANCH  52  76
BRANCH  64  87
ATOM     87  C   UNL A   1      44.587  26.876  34.469  1.00  0.00     0.064 A 
ATOM     88  C   UNL A   1      45.899  27.361  34.592  1.00  0.00     0.173 A 
ATOM     89  C   UNL A   1      44.283  25.652  35.088  1.00  0.00     0.173 A 
ATOM     90  F   UNL A   1      46.246  28.520  34.010  1.00  0.00    -0.203 F 
ATOM     91  C   UNL A   1      46.872  26.633  35.271  1.00  0.00     0.198 A 
ATOM     92  C   UNL A   1      45.251  24.945  35.797  1.00  0.00     0.198 A 
ATOM     93  F   UNL A   1      43.045  25.145  35.011  1.00  0.00    -0.203 F 
ATOM     94  F   UNL A   1      48.132  27.089  35.323  1.00  0.00    -0.200 F 
ATOM     95  C   UNL A   1      46.547  25.430  35.877  1.00  0.00     0.200 A 
ATOM     96  F   UNL A   1      44.930  23.790  36.395  1.00  0.00    -0.200 F 
ATOM     97  F   UNL A   1      47.485  24.733  36.534  1.00  0.00    -0.200 F 
ENDBRANCH  64  87
ENDBRANCH  38  39
ENDBRANCH  30  33
ENDBRANCH  28  29
ENDBRANCH  27  28
ENDBRANCH   1  27
TORSDOF 16
ENDMDL
MODEL 3
REMARK VINA RESULT:     -11.1      5.728     10.976
REMARK SMILES CC[NH2+][C@]1(C(=O)NCCCNC(=O)c2ccc(-c3c4nc(c(-c5c(F)c(F)c(F)c(F)c5F)c5ccc([nH]5)c(-c5c(F)c(F)c(F)c(F)c5F)c5nc(c(-c6c(F)c(F)c(F)c(F)c6F)c6ccc3[nH]6)C=C5)C=C4)cc2)CCC[C@H]1CC[N@H+]1CCC[C@@H](CC)C1
REMARK SMILES IDX 8 1 7 2 5 3 6 4 4 6 77 7 80 8 78 9 79 10 3 11 2 14 1 15
REMARK SMILES IDX 81 16 82 17 83 18 84 19 90 20 85 22 87 23 86 24 88 25 89 26
REMARK SMILES IDX 9 27 10 28 11 29 12 30 13 32 14 33 15 34 76 35 16 36 75 37
REMARK SMILES IDX 17 38 18 39 19 40 69 41 20 42 74 43 68 44 70 45 21 46 73 47
REMARK SMILES IDX 67 48 66 49 22 51 54 52 34 53 53 54 35 55 38 56 52 57 71 58
REMARK SMILES IDX 36 59 37 60 51 62 72 63 39 64 23 65 24 66 32 67 25 68 26 69
REMARK SMILES IDX 30 70 33 71 27 72 28 73 31 74 29 75 55 76 56 77 64 78 57 79
REMARK SMILES IDX 58 80 62 81 65 82 59 83 60 84 63 85 61 86 40 87 41 88 49 89
REMARK SMILES IDX 42 90 43 91 47 92 50 93 44 94 45 95 48 96 46 97
REMARK H PARENT 7 5 3 12 3 13 83 21 11 31 70 50 38 61
REMARK Flexibility Score: inf
ROOT
ATOM      1  C   UNL A   1      31.234  30.842  25.617  1.00  0.00     0.118 C 
ENDROOT
BRANCH   1   2
ATOM      2  N   UNL A   1      32.396  30.015  25.346  1.00  0.00    -0.351 N 
ATOM      3  C   UNL A   1      32.673  29.109  24.366  1.00  0.00     0.281 C 
ATOM      4  O   UNL A   1      33.890  28.964  24.164  1.00  0.00    -0.268 OA
ATOM      5  H   UNL A   1      33.127  30.130  25.996  1.00  0.00     0.163 HD
BRANCH   3   6
ATOM      6  C   UNL A   1      31.636  28.270  23.533  1.00  0.00     0.178 C 
ATOM      7  C   UNL A   1      32.465  27.145  22.840  1.00  0.00     0.079 C 
ATOM      8  C   UNL A   1      30.631  27.387  24.364  1.00  0.00     0.066 C 
ATOM      9  C   UNL A   1      31.467  26.067  22.442  1.00  0.00     0.008 C 
ATOM     10  C   UNL A   1      30.290  26.219  23.399  1.00  0.00     0.011 C 
BRANCH   6  11
ATOM     11  N   UNL A   1      30.995  29.056  22.434  1.00  0.00    -0.334 N 
ATOM     12  H   UNL A   1      31.546  29.902  22.294  1.00  0.00     0.347 HD
ATOM     13  H   UNL A   1      30.972  28.433  21.627  1.00  0.00     0.347 HD
BRANCH  11  14
ATOM     14  C   UNL A   1      29.608  29.458  22.658  1.00  0.00     0.257 C 
ATOM     15  C   UNL A   1      29.179  30.468  21.602  1.00  0.00     0.071 C 
ENDBRANCH  11  14
ENDBRANCH   6  11
BRANCH   8  16
ATOM     16  C   UNL A   1      31.087  26.789  25.723  1.00  0.00     0.072 C 
BRANCH  16  17
ATOM     17  C   UNL A   1      30.496  25.423  26.113  1.00  0.00     0.262 C 
BRANCH  17  18
ATOM     18  N   UNL A   1      31.507  24.353  26.199  1.00  0.00    -0.335 N 
ATOM     19  C   UNL A   1      31.138  23.211  25.347  1.00  0.00     0.262 C 
ATOM     20  C   UNL A   1      32.823  24.879  25.809  1.00  0.00     0.265 C 
ATOM     21  H   UNL A   1      31.550  24.024  27.164  1.00  0.00     0.348 HD
ATOM     22  C   UNL A   1      32.162  22.080  25.465  1.00  0.00     0.062 C 
ATOM     23  C   UNL A   1      33.921  23.809  25.921  1.00  0.00     0.044 C 
ATOM     24  C   UNL A   1      33.565  22.562  25.111  1.00  0.00     0.015 C 
BRANCH  23  25
ATOM     25  C   UNL A   1      35.299  24.371  25.545  1.00  0.00     0.006 C 
ATOM     26  C   UNL A   1      36.092  23.604  24.499  1.00  0.00     0.004 C 
ENDBRANCH  23  25
ENDBRANCH  17  18
ENDBRANCH  16  17
ENDBRANCH   8  16
ENDBRANCH   3   6
ENDBRANCH   1   2
BRANCH   1  27
ATOM     27  C   UNL A   1      31.377  31.712  26.863  1.00  0.00     0.042 C 
BRANCH  27  28
ATOM     28  C   UNL A   1      32.577  32.649  26.877  1.00  0.00     0.118 C 
BRANCH  28  29
ATOM     29  N   UNL A   1      32.317  33.944  27.479  1.00  0.00    -0.352 N 
ATOM     30  C   UNL A   1      32.983  34.582  28.503  1.00  0.00     0.251 C 
ATOM     31  H   UNL A   1      31.554  34.438  27.101  1.00  0.00     0.163 HD
ATOM     32  O   UNL A   1      32.526  35.629  28.953  1.00  0.00    -0.269 OA
BRANCH  30  33
ATOM     33  C   UNL A   1      34.225  34.017  29.101  1.00  0.00     0.039 A 
ATOM     34  C   UNL A   1      34.100  33.072  30.124  1.00  0.00     0.014 A 
ATOM     35  C   UNL A   1      35.500  34.436  28.722  1.00  0.00     0.014 A 
ATOM     36  C   UNL A   1      35.240  32.522  30.724  1.00  0.00     0.010 A 
ATOM     37  C   UNL A   1      36.640  33.827  29.267  1.00  0.00     0.010 A 
ATOM     38  C   UNL A   1      36.530  32.869  30.284  1.00  0.00    -0.014 A 
BRANCH  38  39
ATOM     39  C   UNL A   1      37.736  32.225  30.893  1.00  0.00     0.031 A 
ATOM     40  C   UNL A   1      38.199  32.575  32.287  1.00  0.00     0.074 A 
ATOM     41  C   UNL A   1      38.433  31.310  30.188  1.00  0.00     0.049 A 
ATOM     42  N   UNL A   1      39.154  32.027  33.003  1.00  0.00    -0.248 NA
ATOM     43  C   UNL A   1      37.527  33.696  32.957  1.00  0.00     0.031 C 
ATOM     44  C   UNL A   1      38.165  30.932  28.800  1.00  0.00     0.029 A 
ATOM     45  N   UNL A   1      39.499  30.517  30.545  1.00  0.00    -0.354 N 
ATOM     46  C   UNL A   1      39.192  32.734  34.198  1.00  0.00     0.074 A 
ATOM     47  C   UNL A   1      38.215  33.795  34.086  1.00  0.00     0.031 C 
ATOM     48  C   UNL A   1      39.002  29.946  28.442  1.00  0.00     0.029 A 
ATOM     49  C   UNL A   1      39.886  29.636  29.562  1.00  0.00     0.049 A 
ATOM     50  H   UNL A   1      39.944  30.575  31.421  1.00  0.00     0.167 HD
ATOM     51  C   UNL A   1      39.943  32.506  35.304  1.00  0.00     0.037 A 
ATOM     52  C   UNL A   1      40.831  28.674  29.563  1.00  0.00     0.037 A 
ATOM     53  C   UNL A   1      40.907  31.442  35.433  1.00  0.00     0.049 A 
ATOM     54  C   UNL A   1      41.636  28.422  30.811  1.00  0.00     0.074 A 
ATOM     55  C   UNL A   1      41.663  31.092  36.540  1.00  0.00     0.029 A 
ATOM     56  N   UNL A   1      41.258  30.564  34.420  1.00  0.00    -0.354 N 
ATOM     57  N   UNL A   1      41.578  29.026  31.972  1.00  0.00    -0.248 NA
ATOM     58  C   UNL A   1      42.627  27.338  30.750  1.00  0.00     0.031 C 
ATOM     59  C   UNL A   1      42.511  30.038  36.180  1.00  0.00     0.029 A 
ATOM     60  C   UNL A   1      42.236  29.688  34.868  1.00  0.00     0.049 A 
ATOM     61  H   UNL A   1      40.870  30.562  33.514  1.00  0.00     0.167 HD
ATOM     62  C   UNL A   1      42.494  28.374  32.788  1.00  0.00     0.074 A 
ATOM     63  C   UNL A   1      43.084  27.318  31.994  1.00  0.00     0.031 C 
ATOM     64  C   UNL A   1      42.816  28.630  34.081  1.00  0.00     0.037 A 
BRANCH  51  65
ATOM     65  C   UNL A   1      39.745  33.418  36.485  1.00  0.00     0.064 A 
ATOM     66  C   UNL A   1      40.426  34.641  36.591  1.00  0.00     0.173 A 
ATOM     67  C   UNL A   1      38.823  33.094  37.492  1.00  0.00     0.173 A 
ATOM     68  F   UNL A   1      41.321  34.999  35.658  1.00  0.00    -0.203 F 
ATOM     69  C   UNL A   1      40.217  35.488  37.676  1.00  0.00     0.198 A 
ATOM     70  C   UNL A   1      38.592  33.960  38.559  1.00  0.00     0.198 A 
ATOM     71  F   UNL A   1      38.135  31.944  37.437  1.00  0.00    -0.203 F 
ATOM     72  F   UNL A   1      40.917  36.626  37.782  1.00  0.00    -0.200 F 
ATOM     73  C   UNL A   1      39.295  35.151  38.655  1.00  0.00     0.200 A 
ATOM     74  F   UNL A   1      37.686  33.641  39.495  1.00  0.00    -0.200 F 
ATOM     75  F   UNL A   1      39.087  35.971  39.695  1.00  0.00    -0.200 F 
ENDBRANCH  51  65
BRANCH  52  76
ATOM     76  C   UNL A   1      41.035  27.835  28.352  1.00  0.00     0.064 A 
ATOM     77  C   UNL A   1      40.355  26.620  28.191  1.00  0.00     0.173 A 
ATOM     78  C   UNL A   1      41.923  28.225  27.338  1.00  0.00     0.173 A 
ATOM     79  F   UNL A   1      39.512  26.192  29.143  1.00  0.00    -0.203 F 
ATOM     80  C   UNL A   1      40.574  25.813  27.076  1.00  0.00     0.198 A 
ATOM     81  C   UNL A   1      42.115  27.433  26.207  1.00  0.00     0.198 A 
ATOM     82  F   UNL A   1      42.595  29.380  27.440  1.00  0.00    -0.203 F 
ATOM     83  F   UNL A   1      39.952  24.631  26.974  1.00  0.00    -0.200 F 
ATOM     84  C   UNL A   1      41.449  26.224  26.082  1.00  0.00     0.200 A 
ATOM     85  F   UNL A   1      42.950  27.841  25.242  1.00  0.00    -0.200 F 
ATOM     86  F   UNL A   1      41.657  25.450  25.007  1.00  0.00    -0.200 F 
ENDBRANCH  52  76
BRANCH  64  87
ATOM     87  C   UNL A   1      43.818  27.724  34.739  1.00  0.00     0.064 A 
ATOM     88  C   UNL A   1      43.446  26.509  35.334  1.00  0.00     0.173 A 
ATOM     89  C   UNL A   1      45.180  28.069  34.756  1.00  0.00     0.173 A 
ATOM     90  F   UNL A   1      42.157  26.136  35.357  1.00  0.00    -0.203 F 
ATOM     91  C   UNL A   1      44.391  25.693  35.953  1.00  0.00     0.198 A 
ATOM     92  C   UNL A   1      46.126  27.234  35.345  1.00  0.00     0.198 A 
ATOM     93  F   UNL A   1      45.594  29.214  34.196  1.00  0.00    -0.203 F 
ATOM     94  F   UNL A   1      44.001  24.568  36.567  1.00  0.00    -0.200 F 
ATOM     95  C   UNL A   1      45.729  26.054  35.953  1.00  0.00     0.200 A 
ATOM     96  F   UNL A   1      47.421  27.577  35.329  1.00  0.00    -0.200 F 
ATOM     97  F   UNL A   1      46.637  25.266  36.546  1.00  0.00    -0.200 F 
ENDBRANCH  64  87
ENDBRANCH  38  39
ENDBRANCH  30  33
ENDBRANCH  28  29
ENDBRANCH  27  28
ENDBRANCH   1  27
TORSDOF 16
ENDMDL
