MODEL 1
REMARK VINA RESULT:     -12.3      0.000      0.000
REMARK SMILES CC1(C)C(=O)N([C@H]2COC[C@@H]2C(=O)NCCCNC(=O)c2ccc(-c3c4nc(c(-c5c(F)c(F)c(F)c(F)c5F)c5ccc([nH]5)c(-c5c(F)c(F)c(F)c(F)c5F)c5nc(c(-c6c(F)c(F)c(F)c(F)c6F)c6ccc3[nH]6)C=C5)C=C4)cc2)S1(=O)=O
REMARK SMILES IDX 16 1 15 2 14 3 12 4 13 5 11 7 7 8 8 9 9 10 10 11 6 12 1 13
REMARK SMILES IDX 2 14 3 15 4 16 84 17 5 18 85 19 86 20 17 21 18 22 19 23
REMARK SMILES IDX 20 25 21 26 22 27 83 28 23 29 82 30 24 31 25 32 26 33 76 34
REMARK SMILES IDX 27 35 81 36 75 37 77 38 28 39 80 40 74 41 73 42 29 44 61 45
REMARK SMILES IDX 41 46 60 47 42 48 45 49 59 50 78 51 43 52 44 53 58 55 79 56
REMARK SMILES IDX 46 57 30 58 31 59 39 60 32 61 33 62 37 63 40 64 34 65 35 66
REMARK SMILES IDX 38 67 36 68 62 69 63 70 71 71 64 72 65 73 69 74 72 75 66 76
REMARK SMILES IDX 67 77 70 78 68 79 47 80 48 81 56 82 49 83 50 84 54 85 57 86
REMARK SMILES IDX 51 87 52 88 55 89 53 90
REMARK H PARENT 14 6 18 24 77 43 45 54
REMARK Flexibility Score: inf
ROOT
ATOM      1  C   UNL A   1      37.887  19.563  24.947  1.00  0.00     0.042 C 
ENDROOT
BRANCH   1   2
ATOM      2  C   UNL A   1      36.779  20.584  24.697  1.00  0.00     0.117 C 
BRANCH   2   3
ATOM      3  N   UNL A   1      35.954  20.779  25.879  1.00  0.00    -0.356 N 
ATOM      4  C   UNL A   1      34.733  21.375  26.003  1.00  0.00     0.227 C 
ATOM      5  O   UNL A   1      34.315  21.596  27.140  1.00  0.00    -0.275 OA
ATOM      6  H   UNL A   1      36.334  20.428  26.716  1.00  0.00     0.163 HD
BRANCH   4   7
ATOM      7  C   UNL A   1      33.927  21.711  24.761  1.00  0.00     0.130 C 
ATOM      8  C   UNL A   1      32.922  22.810  25.051  1.00  0.00     0.143 C 
ATOM      9  C   UNL A   1      31.707  22.015  25.527  1.00  0.00     0.187 C 
ATOM     10  O   UNL A   1      31.740  20.746  24.853  1.00  0.00    -0.378 OA
ATOM     11  C   UNL A   1      33.069  20.525  24.365  1.00  0.00     0.176 C 
BRANCH   8  12
ATOM     12  N   UNL A   1      32.549  23.607  23.850  1.00  0.00    -0.231 N 
ATOM     13  C   UNL A   1      31.817  25.913  21.582  1.00  0.00     0.041 C 
ATOM     14  C   UNL A   1      32.694  25.568  22.780  1.00  0.00     0.165 C 
ATOM     15  C   UNL A   1      33.503  26.784  23.236  1.00  0.00     0.041 C 
ATOM     16  C   UNL A   1      31.951  24.881  23.936  1.00  0.00     0.259 C 
ATOM     17  S   UNL A   1      33.623  24.079  22.676  1.00  0.00     0.252 S 
ATOM     18  O   UNL A   1      31.157  25.244  24.782  1.00  0.00    -0.272 OA
ATOM     19  O   UNL A   1      33.357  23.317  21.480  1.00  0.00    -0.205 OA
ATOM     20  O   UNL A   1      34.942  24.209  23.250  1.00  0.00    -0.205 OA
ENDBRANCH   8  12
ENDBRANCH   4   7
ENDBRANCH   2   3
ENDBRANCH   1   2
BRANCH   1  21
ATOM     21  C   UNL A   1      39.048  20.095  25.791  1.00  0.00     0.118 C 
BRANCH  21  22
ATOM     22  N   UNL A   1      40.147  19.144  25.893  1.00  0.00    -0.352 N 
ATOM     23  C   UNL A   1      41.490  19.344  26.086  1.00  0.00     0.251 C 
ATOM     24  H   UNL A   1      39.881  18.200  25.811  1.00  0.00     0.163 HD
ATOM     25  O   UNL A   1      42.262  18.397  25.958  1.00  0.00    -0.269 OA
BRANCH  23  26
ATOM     26  C   UNL A   1      42.028  20.678  26.432  1.00  0.00     0.039 A 
ATOM     27  C   UNL A   1      42.324  21.567  25.393  1.00  0.00     0.014 A 
ATOM     28  C   UNL A   1      42.303  21.038  27.754  1.00  0.00     0.014 A 
ATOM     29  C   UNL A   1      42.837  22.834  25.681  1.00  0.00     0.010 A 
ATOM     30  C   UNL A   1      42.756  22.325  28.045  1.00  0.00     0.010 A 
ATOM     31  C   UNL A   1      43.028  23.236  27.013  1.00  0.00    -0.014 A 
BRANCH  31  32
ATOM     32  C   UNL A   1      43.496  24.607  27.338  1.00  0.00     0.031 A 
ATOM     33  C   UNL A   1      42.546  25.625  27.901  1.00  0.00     0.074 A 
ATOM     34  C   UNL A   1      44.771  24.952  27.068  1.00  0.00     0.049 A 
ATOM     35  N   UNL A   1      42.758  26.888  28.184  1.00  0.00    -0.248 NA
ATOM     36  C   UNL A   1      41.171  25.174  28.158  1.00  0.00     0.031 C 
ATOM     37  C   UNL A   1      45.778  24.068  26.480  1.00  0.00     0.029 A 
ATOM     38  N   UNL A   1      45.432  26.142  27.240  1.00  0.00    -0.354 N 
ATOM     39  C   UNL A   1      41.542  27.383  28.636  1.00  0.00     0.074 A 
ATOM     40  C   UNL A   1      40.586  26.299  28.549  1.00  0.00     0.031 C 
ATOM     41  C   UNL A   1      46.934  24.739  26.358  1.00  0.00     0.029 A 
ATOM     42  C   UNL A   1      46.740  26.109  26.824  1.00  0.00     0.049 A 
ATOM     43  H   UNL A   1      45.009  26.943  27.625  1.00  0.00     0.167 HD
ATOM     44  C   UNL A   1      41.254  28.622  29.100  1.00  0.00     0.037 A 
ATOM     45  C   UNL A   1      47.676  27.077  26.810  1.00  0.00     0.037 A 
ATOM     46  C   UNL A   1      42.211  29.692  29.212  1.00  0.00     0.049 A 
ATOM     47  C   UNL A   1      47.331  28.444  27.332  1.00  0.00     0.074 A 
ATOM     48  C   UNL A   1      42.031  30.963  29.731  1.00  0.00     0.029 A 
ATOM     49  N   UNL A   1      43.532  29.616  28.795  1.00  0.00    -0.354 N 
ATOM     50  N   UNL A   1      46.195  28.881  27.818  1.00  0.00    -0.248 NA
ATOM     51  C   UNL A   1      48.401  29.452  27.308  1.00  0.00     0.031 C 
ATOM     52  C   UNL A   1      43.231  31.668  29.591  1.00  0.00     0.029 A 
ATOM     53  C   UNL A   1      44.171  30.824  29.025  1.00  0.00     0.049 A 
ATOM     54  H   UNL A   1      43.953  28.822  28.394  1.00  0.00     0.167 HD
ATOM     55  C   UNL A   1      46.417  30.203  28.177  1.00  0.00     0.074 A 
ATOM     56  C   UNL A   1      47.802  30.493  27.869  1.00  0.00     0.031 C 
ATOM     57  C   UNL A   1      45.551  31.097  28.714  1.00  0.00     0.037 A 
BRANCH  44  58
ATOM     58  C   UNL A   1      39.840  28.892  29.528  1.00  0.00     0.064 A 
ATOM     59  C   UNL A   1      38.880  29.380  28.629  1.00  0.00     0.173 A 
ATOM     60  C   UNL A   1      39.431  28.622  30.843  1.00  0.00     0.173 A 
ATOM     61  F   UNL A   1      39.223  29.663  27.363  1.00  0.00    -0.203 F 
ATOM     62  C   UNL A   1      37.569  29.613  29.037  1.00  0.00     0.198 A 
ATOM     63  C   UNL A   1      38.112  28.830  31.240  1.00  0.00     0.198 A 
ATOM     64  F   UNL A   1      40.307  28.148  31.741  1.00  0.00    -0.203 F 
ATOM     65  F   UNL A   1      36.681  30.122  28.173  1.00  0.00    -0.200 F 
ATOM     66  C   UNL A   1      37.185  29.332  30.340  1.00  0.00     0.200 A 
ATOM     67  F   UNL A   1      37.740  28.547  32.496  1.00  0.00    -0.200 F 
ATOM     68  F   UNL A   1      35.921  29.552  30.728  1.00  0.00    -0.200 F 
ENDBRANCH  44  58
BRANCH  45  69
ATOM     69  C   UNL A   1      49.041  26.779  26.305  1.00  0.00     0.064 A 
ATOM     70  C   UNL A   1      49.378  27.014  24.965  1.00  0.00     0.173 A 
ATOM     71  C   UNL A   1      50.033  26.256  27.147  1.00  0.00     0.173 A 
ATOM     72  F   UNL A   1      48.455  27.493  24.117  1.00  0.00    -0.203 F 
ATOM     73  C   UNL A   1      50.650  26.720  24.481  1.00  0.00     0.198 A 
ATOM     74  C   UNL A   1      51.313  25.988  26.668  1.00  0.00     0.198 A 
ATOM     75  F   UNL A   1      49.762  26.019  28.439  1.00  0.00    -0.203 F 
ATOM     76  F   UNL A   1      50.933  26.914  23.186  1.00  0.00    -0.200 F 
ATOM     77  C   UNL A   1      51.619  26.212  25.334  1.00  0.00     0.200 A 
ATOM     78  F   UNL A   1      52.250  25.510  27.499  1.00  0.00    -0.200 F 
ATOM     79  F   UNL A   1      52.843  25.933  24.869  1.00  0.00    -0.200 F 
ENDBRANCH  45  69
BRANCH  57  80
ATOM     80  C   UNL A   1      46.083  32.466  29.024  1.00  0.00     0.064 A 
ATOM     81  C   UNL A   1      46.008  33.511  28.091  1.00  0.00     0.173 A 
ATOM     82  C   UNL A   1      46.647  32.743  30.278  1.00  0.00     0.173 A 
ATOM     83  F   UNL A   1      45.493  33.291  26.872  1.00  0.00    -0.203 F 
ATOM     84  C   UNL A   1      46.499  34.777  28.395  1.00  0.00     0.198 A 
ATOM     85  C   UNL A   1      47.113  34.017  30.588  1.00  0.00     0.198 A 
ATOM     86  F   UNL A   1      46.738  31.779  31.206  1.00  0.00    -0.203 F 
ATOM     87  F   UNL A   1      46.460  35.749  27.472  1.00  0.00    -0.200 F 
ATOM     88  C   UNL A   1      47.046  35.031  29.645  1.00  0.00     0.200 A 
ATOM     89  F   UNL A   1      47.630  34.263  31.799  1.00  0.00    -0.200 F 
ATOM     90  F   UNL A   1      47.514  36.252  29.937  1.00  0.00    -0.200 F 
ENDBRANCH  57  80
ENDBRANCH  31  32
ENDBRANCH  23  26
ENDBRANCH  21  22
ENDBRANCH   1  21
TORSDOF 11
ENDMDL
MODEL 2
REMARK VINA RESULT:     -12.2      0.244      1.637
REMARK SMILES CC1(C)C(=O)N([C@H]2COC[C@@H]2C(=O)NCCCNC(=O)c2ccc(-c3c4nc(c(-c5c(F)c(F)c(F)c(F)c5F)c5ccc([nH]5)c(-c5c(F)c(F)c(F)c(F)c5F)c5nc(c(-c6c(F)c(F)c(F)c(F)c6F)c6ccc3[nH]6)C=C5)C=C4)cc2)S1(=O)=O
REMARK SMILES IDX 16 1 15 2 14 3 12 4 13 5 11 7 7 8 8 9 9 10 10 11 6 12 1 13
REMARK SMILES IDX 2 14 3 15 4 16 84 17 5 18 85 19 86 20 17 21 18 22 19 23
REMARK SMILES IDX 20 25 21 26 22 27 83 28 23 29 82 30 24 31 25 32 26 33 76 34
REMARK SMILES IDX 27 35 81 36 75 37 77 38 28 39 80 40 74 41 73 42 29 44 61 45
REMARK SMILES IDX 41 46 60 47 42 48 45 49 59 50 78 51 43 52 44 53 58 55 79 56
REMARK SMILES IDX 46 57 30 58 31 59 39 60 32 61 33 62 37 63 40 64 34 65 35 66
REMARK SMILES IDX 38 67 36 68 62 69 63 70 71 71 64 72 65 73 69 74 72 75 66 76
REMARK SMILES IDX 67 77 70 78 68 79 47 80 48 81 56 82 49 83 50 84 54 85 57 86
REMARK SMILES IDX 51 87 52 88 55 89 53 90
REMARK H PARENT 14 6 18 24 77 43 45 54
REMARK Flexibility Score: inf
ROOT
ATOM      1  C   UNL A   1      37.866  19.565  24.967  1.00  0.00     0.042 C 
ENDROOT
BRANCH   1   2
ATOM      2  C   UNL A   1      36.734  20.557  24.704  1.00  0.00     0.117 C 
BRANCH   2   3
ATOM      3  N   UNL A   1      35.957  20.814  25.906  1.00  0.00    -0.356 N 
ATOM      4  C   UNL A   1      34.761  21.453  26.053  1.00  0.00     0.227 C 
ATOM      5  O   UNL A   1      34.390  21.720  27.196  1.00  0.00    -0.275 OA
ATOM      6  H   UNL A   1      36.355  20.475  26.740  1.00  0.00     0.163 HD
BRANCH   4   7
ATOM      7  C   UNL A   1      33.924  21.779  24.829  1.00  0.00     0.130 C 
ATOM      8  C   UNL A   1      32.942  22.896  25.129  1.00  0.00     0.143 C 
ATOM      9  C   UNL A   1      31.731  22.125  25.653  1.00  0.00     0.187 C 
ATOM     10  O   UNL A   1      31.728  20.844  25.001  1.00  0.00    -0.378 OA
ATOM     11  C   UNL A   1      33.039  20.597  24.478  1.00  0.00     0.176 C 
BRANCH   8  12
ATOM     12  N   UNL A   1      32.545  23.677  23.925  1.00  0.00    -0.231 N 
ATOM     13  C   UNL A   1      31.778  25.953  21.638  1.00  0.00     0.041 C 
ATOM     14  C   UNL A   1      32.684  25.616  22.816  1.00  0.00     0.165 C 
ATOM     15  C   UNL A   1      33.523  26.829  23.227  1.00  0.00     0.041 C 
ATOM     16  C   UNL A   1      31.967  24.960  24.005  1.00  0.00     0.259 C 
ATOM     17  S   UNL A   1      33.590  24.113  22.712  1.00  0.00     0.252 S 
ATOM     18  O   UNL A   1      31.203  25.349  24.868  1.00  0.00    -0.272 OA
ATOM     19  O   UNL A   1      33.278  23.334  21.537  1.00  0.00    -0.205 OA
ATOM     20  O   UNL A   1      34.927  24.234  23.244  1.00  0.00    -0.205 OA
ENDBRANCH   8  12
ENDBRANCH   4   7
ENDBRANCH   2   3
ENDBRANCH   1   2
BRANCH   1  21
ATOM     21  C   UNL A   1      39.041  20.151  25.751  1.00  0.00     0.118 C 
BRANCH  21  22
ATOM     22  N   UNL A   1      40.135  19.202  25.912  1.00  0.00    -0.352 N 
ATOM     23  C   UNL A   1      41.475  19.406  26.127  1.00  0.00     0.251 C 
ATOM     24  H   UNL A   1      39.869  18.256  25.859  1.00  0.00     0.163 HD
ATOM     25  O   UNL A   1      42.246  18.453  26.050  1.00  0.00    -0.269 OA
BRANCH  23  26
ATOM     26  C   UNL A   1      42.009  20.750  26.436  1.00  0.00     0.039 A 
ATOM     27  C   UNL A   1      42.295  21.615  25.374  1.00  0.00     0.014 A 
ATOM     28  C   UNL A   1      42.289  21.145  27.747  1.00  0.00     0.014 A 
ATOM     29  C   UNL A   1      42.803  22.890  25.627  1.00  0.00     0.010 A 
ATOM     30  C   UNL A   1      42.739  22.441  28.004  1.00  0.00     0.010 A 
ATOM     31  C   UNL A   1      43.000  23.326  26.947  1.00  0.00    -0.014 A 
BRANCH  31  32
ATOM     32  C   UNL A   1      43.465  24.708  27.235  1.00  0.00     0.031 A 
ATOM     33  C   UNL A   1      42.515  25.733  27.786  1.00  0.00     0.074 A 
ATOM     34  C   UNL A   1      44.733  25.054  26.940  1.00  0.00     0.049 A 
ATOM     35  N   UNL A   1      42.723  27.003  28.038  1.00  0.00    -0.248 NA
ATOM     36  C   UNL A   1      41.146  25.280  28.071  1.00  0.00     0.031 C 
ATOM     37  C   UNL A   1      45.739  24.162  26.361  1.00  0.00     0.029 A 
ATOM     38  N   UNL A   1      45.389  26.251  27.077  1.00  0.00    -0.354 N 
ATOM     39  C   UNL A   1      41.510  27.501  28.494  1.00  0.00     0.074 A 
ATOM     40  C   UNL A   1      40.559  26.410  28.444  1.00  0.00     0.031 C 
ATOM     41  C   UNL A   1      46.888  24.837  26.208  1.00  0.00     0.029 A 
ATOM     42  C   UNL A   1      46.693  26.216  26.645  1.00  0.00     0.049 A 
ATOM     43  H   UNL A   1      44.966  27.058  27.450  1.00  0.00     0.167 HD
ATOM     44  C   UNL A   1      41.220  28.749  28.933  1.00  0.00     0.037 A 
ATOM     45  C   UNL A   1      47.622  27.189  26.598  1.00  0.00     0.037 A 
ATOM     46  C   UNL A   1      42.172  29.827  29.008  1.00  0.00     0.049 A 
ATOM     47  C   UNL A   1      47.275  28.566  27.093  1.00  0.00     0.074 A 
ATOM     48  C   UNL A   1      41.991  31.108  29.501  1.00  0.00     0.029 A 
ATOM     49  N   UNL A   1      43.488  29.749  28.577  1.00  0.00    -0.354 N 
ATOM     50  N   UNL A   1      46.143  29.007  27.584  1.00  0.00    -0.248 NA
ATOM     51  C   UNL A   1      48.339  29.578  27.032  1.00  0.00     0.031 C 
ATOM     52  C   UNL A   1      43.185  31.817  29.329  1.00  0.00     0.029 A 
ATOM     53  C   UNL A   1      44.123  30.965  28.771  1.00  0.00     0.049 A 
ATOM     54  H   UNL A   1      43.909  28.948  28.189  1.00  0.00     0.167 HD
ATOM     55  C   UNL A   1      46.362  30.338  27.909  1.00  0.00     0.074 A 
ATOM     56  C   UNL A   1      47.741  30.628  27.578  1.00  0.00     0.031 C 
ATOM     57  C   UNL A   1      45.498  31.239  28.436  1.00  0.00     0.037 A 
BRANCH  44  58
ATOM     58  C   UNL A   1      39.811  29.021  29.372  1.00  0.00     0.064 A 
ATOM     59  C   UNL A   1      38.832  29.464  28.471  1.00  0.00     0.173 A 
ATOM     60  C   UNL A   1      39.424  28.796  30.703  1.00  0.00     0.173 A 
ATOM     61  F   UNL A   1      39.152  29.703  27.190  1.00  0.00    -0.203 F 
ATOM     62  C   UNL A   1      37.525  29.700  28.890  1.00  0.00     0.198 A 
ATOM     63  C   UNL A   1      38.109  29.006  31.112  1.00  0.00     0.198 A 
ATOM     64  F   UNL A   1      40.319  28.365  31.605  1.00  0.00    -0.203 F 
ATOM     65  F   UNL A   1      36.618  30.167  28.021  1.00  0.00    -0.200 F 
ATOM     66  C   UNL A   1      37.163  29.464  30.208  1.00  0.00     0.200 A 
ATOM     67  F   UNL A   1      37.759  28.766  32.383  1.00  0.00    -0.200 F 
ATOM     68  F   UNL A   1      35.903  29.685  30.608  1.00  0.00    -0.200 F 
ENDBRANCH  44  58
BRANCH  45  69
ATOM     69  C   UNL A   1      48.983  26.887  26.083  1.00  0.00     0.064 A 
ATOM     70  C   UNL A   1      49.987  26.415  26.938  1.00  0.00     0.173 A 
ATOM     71  C   UNL A   1      49.306  27.063  24.729  1.00  0.00     0.173 A 
ATOM     72  F   UNL A   1      49.730  26.253  28.245  1.00  0.00    -0.203 F 
ATOM     73  C   UNL A   1      51.269  26.148  26.465  1.00  0.00     0.198 A 
ATOM     74  C   UNL A   1      50.581  26.770  24.251  1.00  0.00     0.198 A 
ATOM     75  F   UNL A   1      48.378  27.507  23.869  1.00  0.00    -0.203 F 
ATOM     76  F   UNL A   1      52.223  25.740  27.313  1.00  0.00    -0.200 F 
ATOM     77  C   UNL A   1      51.564  26.321  25.121  1.00  0.00     0.200 A 
ATOM     78  F   UNL A   1      50.858  26.925  22.949  1.00  0.00    -0.200 F 
ATOM     79  F   UNL A   1      52.796  26.060  24.665  1.00  0.00    -0.200 F 
ENDBRANCH  45  69
BRANCH  57  80
ATOM     80  C   UNL A   1      46.025  32.618  28.708  1.00  0.00     0.064 A 
ATOM     81  C   UNL A   1      46.645  32.940  29.924  1.00  0.00     0.173 A 
ATOM     82  C   UNL A   1      45.933  33.620  27.730  1.00  0.00     0.173 A 
ATOM     83  F   UNL A   1      46.741  32.021  30.897  1.00  0.00    -0.203 F 
ATOM     84  C   UNL A   1      47.135  34.222  30.159  1.00  0.00     0.198 A 
ATOM     85  C   UNL A   1      46.447  34.893  27.958  1.00  0.00     0.198 A 
ATOM     86  F   UNL A   1      45.352  33.360  26.549  1.00  0.00    -0.203 F 
ATOM     87  F   UNL A   1      47.682  34.521  31.345  1.00  0.00    -0.200 F 
ATOM     88  C   UNL A   1      47.041  35.195  29.174  1.00  0.00     0.200 A 
ATOM     89  F   UNL A   1      46.366  35.827  27.003  1.00  0.00    -0.200 F 
ATOM     90  F   UNL A   1      47.517  36.427  29.401  1.00  0.00    -0.200 F 
ENDBRANCH  57  80
ENDBRANCH  31  32
ENDBRANCH  23  26
ENDBRANCH  21  22
ENDBRANCH   1  21
TORSDOF 11
ENDMDL
MODEL 3
REMARK VINA RESULT:     -12.2      5.519     10.998
REMARK SMILES CC1(C)C(=O)N([C@H]2COC[C@@H]2C(=O)NCCCNC(=O)c2ccc(-c3c4nc(c(-c5c(F)c(F)c(F)c(F)c5F)c5ccc([nH]5)c(-c5c(F)c(F)c(F)c(F)c5F)c5nc(c(-c6c(F)c(F)c(F)c(F)c6F)c6ccc3[nH]6)C=C5)C=C4)cc2)S1(=O)=O
REMARK SMILES IDX 16 1 15 2 14 3 12 4 13 5 11 7 7 8 8 9 9 10 10 11 6 12 1 13
REMARK SMILES IDX 2 14 3 15 4 16 84 17 5 18 85 19 86 20 17 21 18 22 19 23
REMARK SMILES IDX 20 25 21 26 22 27 83 28 23 29 82 30 24 31 25 32 26 33 76 34
REMARK SMILES IDX 27 35 81 36 75 37 77 38 28 39 80 40 74 41 73 42 29 44 61 45
REMARK SMILES IDX 41 46 60 47 42 48 45 49 59 50 78 51 43 52 44 53 58 55 79 56
REMARK SMILES IDX 46 57 30 58 31 59 39 60 32 61 33 62 37 63 40 64 34 65 35 66
REMARK SMILES IDX 38 67 36 68 62 69 63 70 71 71 64 72 65 73 69 74 72 75 66 76
REMARK SMILES IDX 67 77 70 78 68 79 47 80 48 81 56 82 49 83 50 84 54 85 57 86
REMARK SMILES IDX 51 87 52 88 55 89 53 90
REMARK H PARENT 14 6 18 24 77 43 45 54
REMARK Flexibility Score: inf
ROOT
ATOM      1  C   UNL A   1      31.397  31.754  26.500  1.00  0.00     0.042 C 
ENDROOT
BRANCH   1   2
ATOM      2  C   UNL A   1      31.573  30.275  26.158  1.00  0.00     0.117 C 
BRANCH   2   3
ATOM      3  N   UNL A   1      32.368  30.094  24.954  1.00  0.00    -0.356 N 
ATOM      4  C   UNL A   1      32.450  29.022  24.115  1.00  0.00     0.227 C 
ATOM      5  O   UNL A   1      33.340  29.027  23.263  1.00  0.00    -0.275 OA
ATOM      6  H   UNL A   1      32.932  30.862  24.707  1.00  0.00     0.163 HD
BRANCH   4   7
ATOM      7  C   UNL A   1      31.441  27.894  24.230  1.00  0.00     0.130 C 
ATOM      8  C   UNL A   1      32.078  26.562  23.882  1.00  0.00     0.143 C 
ATOM      9  C   UNL A   1      31.865  26.491  22.369  1.00  0.00     0.187 C 
ATOM     10  O   UNL A   1      30.653  27.206  22.078  1.00  0.00    -0.378 OA
ATOM     11  C   UNL A   1      30.353  28.064  23.186  1.00  0.00     0.176 C 
BRANCH   8  12
ATOM     12  N   UNL A   1      31.413  25.397  24.528  1.00  0.00    -0.231 N 
ATOM     13  C   UNL A   1      30.563  22.581  26.060  1.00  0.00     0.041 C 
ATOM     14  C   UNL A   1      31.587  23.708  25.986  1.00  0.00     0.165 C 
ATOM     15  C   UNL A   1      32.793  23.412  26.880  1.00  0.00     0.041 C 
ATOM     16  C   UNL A   1      31.989  24.111  24.559  1.00  0.00     0.259 C 
ATOM     17  S   UNL A   1      30.969  25.348  26.126  1.00  0.00     0.252 S 
ATOM     18  O   UNL A   1      32.667  23.608  23.685  1.00  0.00    -0.272 OA
ATOM     19  O   UNL A   1      29.529  25.415  26.203  1.00  0.00    -0.205 OA
ATOM     20  O   UNL A   1      31.840  26.203  26.898  1.00  0.00    -0.205 OA
ENDBRANCH   8  12
ENDBRANCH   4   7
ENDBRANCH   2   3
ENDBRANCH   1   2
BRANCH   1  21
ATOM     21  C   UNL A   1      32.697  32.468  26.875  1.00  0.00     0.118 C 
BRANCH  21  22
ATOM     22  N   UNL A   1      32.471  33.820  27.366  1.00  0.00    -0.352 N 
ATOM     23  C   UNL A   1      33.052  34.507  28.402  1.00  0.00     0.251 C 
ATOM     24  H   UNL A   1      31.788  34.327  26.872  1.00  0.00     0.163 HD
ATOM     25  O   UNL A   1      32.573  35.583  28.751  1.00  0.00    -0.269 OA
BRANCH  23  26
ATOM     26  C   UNL A   1      34.233  33.972  29.114  1.00  0.00     0.039 A 
ATOM     27  C   UNL A   1      34.027  33.067  30.160  1.00  0.00     0.014 A 
ATOM     28  C   UNL A   1      35.528  34.397  28.808  1.00  0.00     0.014 A 
ATOM     29  C   UNL A   1      35.118  32.543  30.857  1.00  0.00     0.010 A 
ATOM     30  C   UNL A   1      36.621  33.827  29.462  1.00  0.00     0.010 A 
ATOM     31  C   UNL A   1      36.428  32.895  30.493  1.00  0.00    -0.014 A 
BRANCH  31  32
ATOM     32  C   UNL A   1      37.600  32.286  31.172  1.00  0.00     0.031 A 
ATOM     33  C   UNL A   1      38.372  31.177  30.515  1.00  0.00     0.074 A 
ATOM     34  C   UNL A   1      37.932  32.694  32.413  1.00  0.00     0.049 A 
ATOM     35  N   UNL A   1      39.380  30.481  30.981  1.00  0.00    -0.248 NA
ATOM     36  C   UNL A   1      37.942  30.782  29.166  1.00  0.00     0.031 C 
ATOM     37  C   UNL A   1      37.234  33.730  33.175  1.00  0.00     0.029 A 
ATOM     38  N   UNL A   1      38.932  32.278  33.254  1.00  0.00    -0.354 N 
ATOM     39  C   UNL A   1      39.693  29.558  29.991  1.00  0.00     0.074 A 
ATOM     40  C   UNL A   1      38.741  29.753  28.918  1.00  0.00     0.031 C 
ATOM     41  C   UNL A   1      37.838  33.882  34.364  1.00  0.00     0.029 A 
ATOM     42  C   UNL A   1      38.942  32.931  34.462  1.00  0.00     0.049 A 
ATOM     43  H   UNL A   1      39.582  31.578  33.015  1.00  0.00     0.167 HD
ATOM     44  C   UNL A   1      40.693  28.646  29.972  1.00  0.00     0.037 A 
ATOM     45  C   UNL A   1      39.743  32.775  35.532  1.00  0.00     0.037 A 
ATOM     46  C   UNL A   1      41.656  28.471  31.028  1.00  0.00     0.049 A 
ATOM     47  C   UNL A   1      40.848  31.756  35.484  1.00  0.00     0.074 A 
ATOM     48  C   UNL A   1      42.747  27.620  31.071  1.00  0.00     0.029 A 
ATOM     49  N   UNL A   1      41.643  29.163  32.230  1.00  0.00    -0.354 N 
ATOM     50  N   UNL A   1      41.174  30.935  34.517  1.00  0.00    -0.248 NA
ATOM     51  C   UNL A   1      41.700  31.647  36.677  1.00  0.00     0.031 C 
ATOM     52  C   UNL A   1      43.369  27.767  32.316  1.00  0.00     0.029 A 
ATOM     53  C   UNL A   1      42.693  28.742  33.031  1.00  0.00     0.049 A 
ATOM     54  H   UNL A   1      40.985  29.852  32.478  1.00  0.00     0.167 HD
ATOM     55  C   UNL A   1      42.278  30.228  34.972  1.00  0.00     0.074 A 
ATOM     56  C   UNL A   1      42.578  30.729  36.296  1.00  0.00     0.031 C 
ATOM     57  C   UNL A   1      42.980  29.251  34.347  1.00  0.00     0.037 A 
BRANCH  44  58
ATOM     58  C   UNL A   1      40.803  27.762  28.763  1.00  0.00     0.064 A 
ATOM     59  C   UNL A   1      40.051  26.584  28.643  1.00  0.00     0.173 A 
ATOM     60  C   UNL A   1      41.641  28.118  27.695  1.00  0.00     0.173 A 
ATOM     61  F   UNL A   1      39.243  26.194  29.640  1.00  0.00    -0.203 F 
ATOM     62  C   UNL A   1      40.153  25.781  27.510  1.00  0.00     0.198 A 
ATOM     63  C   UNL A   1      41.719  27.327  26.551  1.00  0.00     0.198 A 
ATOM     64  F   UNL A   1      42.376  29.238  27.755  1.00  0.00    -0.203 F 
ATOM     65  F   UNL A   1      39.460  24.636  27.438  1.00  0.00    -0.200 F 
ATOM     66  C   UNL A   1      40.982  26.156  26.463  1.00  0.00     0.200 A 
ATOM     67  F   UNL A   1      42.511  27.697  25.535  1.00  0.00    -0.200 F 
ATOM     68  F   UNL A   1      41.074  25.384  25.371  1.00  0.00    -0.200 F 
ENDBRANCH  44  58
BRANCH  45  69
ATOM     69  C   UNL A   1      39.545  33.624  36.736  1.00  0.00     0.064 A 
ATOM     70  C   UNL A   1      40.156  34.881  36.836  1.00  0.00     0.173 A 
ATOM     71  C   UNL A   1      38.744  33.198  37.805  1.00  0.00     0.173 A 
ATOM     72  F   UNL A   1      40.949  35.321  35.848  1.00  0.00    -0.203 F 
ATOM     73  C   UNL A   1      39.989  35.674  37.969  1.00  0.00     0.198 A 
ATOM     74  C   UNL A   1      38.555  34.003  38.926  1.00  0.00     0.198 A 
ATOM     75  F   UNL A   1      38.133  32.006  37.754  1.00  0.00    -0.203 F 
ATOM     76  F   UNL A   1      40.619  36.853  38.058  1.00  0.00    -0.200 F 
ATOM     77  C   UNL A   1      39.184  35.237  39.011  1.00  0.00     0.200 A 
ATOM     78  F   UNL A   1      37.766  33.583  39.924  1.00  0.00    -0.200 F 
ATOM     79  F   UNL A   1      39.020  36.001  40.099  1.00  0.00    -0.200 F 
ENDBRANCH  45  69
BRANCH  57  80
ATOM     80  C   UNL A   1      44.156  28.675  35.081  1.00  0.00     0.064 A 
ATOM     81  C   UNL A   1      45.435  29.241  34.977  1.00  0.00     0.173 A 
ATOM     82  C   UNL A   1      43.995  27.563  35.921  1.00  0.00     0.173 A 
ATOM     83  F   UNL A   1      45.643  30.294  34.173  1.00  0.00    -0.203 F 
ATOM     84  C   UNL A   1      46.515  28.700  35.668  1.00  0.00     0.198 A 
ATOM     85  C   UNL A   1      45.071  27.040  36.632  1.00  0.00     0.198 A 
ATOM     86  F   UNL A   1      42.790  26.988  36.059  1.00  0.00    -0.203 F 
ATOM     87  F   UNL A   1      47.738  29.227  35.517  1.00  0.00    -0.200 F 
ATOM     88  C   UNL A   1      46.331  27.604  36.500  1.00  0.00     0.200 A 
ATOM     89  F   UNL A   1      44.889  25.990  37.444  1.00  0.00    -0.200 F 
ATOM     90  F   UNL A   1      47.371  27.087  37.169  1.00  0.00    -0.200 F 
ENDBRANCH  57  80
ENDBRANCH  31  32
ENDBRANCH  23  26
ENDBRANCH  21  22
ENDBRANCH   1  21
TORSDOF 11
ENDMDL
