MODEL 1
REMARK VINA RESULT:     -13.5      0.000      0.000
REMARK SMILES COC(=O)[C@@H]1CN(C(=O)NC(=O)CCCC(=O)NCCCNC(=O)c2ccc(-c3c4nc(c(-c5c(F)c(F)c(F)c(F)c5F)c5ccc([nH]5)c(-c5c(F)c(F)c(F)c(F)c5F)c5nc(c(-c6c(F)c(F)c(F)c(F)c6F)c6ccc3[nH]6)C=C5)C=C4)cc2)C[C@H]1C
REMARK SMILES IDX 16 1 17 2 18 3 15 5 14 6 13 7 11 8 8 9 9 10 10 11 12 13 7 14
REMARK SMILES IDX 5 15 6 16 89 17 88 18 90 19 3 20 4 21 2 22 1 23 19 24 20 25
REMARK SMILES IDX 21 26 22 27 23 28 24 30 25 31 26 32 87 33 27 34 86 35 28 36
REMARK SMILES IDX 29 37 30 38 80 39 31 40 85 41 79 42 81 43 32 44 84 45 78 46
REMARK SMILES IDX 77 47 33 49 65 50 45 51 64 52 46 53 49 54 63 55 82 56 47 57
REMARK SMILES IDX 48 58 62 60 83 61 50 62 34 63 35 64 43 65 36 66 37 67 41 68
REMARK SMILES IDX 44 69 38 70 39 71 42 72 40 73 66 74 67 75 75 76 68 77 69 78
REMARK SMILES IDX 73 79 76 80 70 81 71 82 74 83 72 84 51 85 52 86 60 87 53 88
REMARK SMILES IDX 54 89 58 90 61 91 55 92 56 93 59 94 57 95
REMARK H PARENT 18 4 10 12 22 29 81 48 49 59
REMARK Flexibility Score: inf
ROOT
ATOM      1  C   UNL A   1      29.980  28.671  23.216  1.00  0.00     0.220 C 
ATOM      2  O   UNL A   1      29.624  28.668  22.013  1.00  0.00    -0.275 OA
ATOM      3  N   UNL A   1      30.748  30.116  24.314  1.00  0.00    -0.356 N 
ATOM      4  H   UNL A   1      30.723  30.965  23.816  1.00  0.00     0.163 HD
ENDROOT
BRANCH   1   5
ATOM      5  C   UNL A   1      29.724  26.950  23.753  1.00  0.00     0.100 C 
BRANCH   5   6
ATOM      6  C   UNL A   1      30.559  25.988  24.676  1.00  0.00     0.020 C 
BRANCH   6   7
ATOM      7  C   UNL A   1      32.092  25.929  24.842  1.00  0.00     0.101 C 
BRANCH   7   8
ATOM      8  C   UNL A   1      33.028  26.728  23.976  1.00  0.00     0.227 C 
ATOM      9  C   UNL A   1      33.146  25.271  21.960  1.00  0.00     0.324 C 
ATOM     10  O   UNL A   1      33.212  25.340  20.732  1.00  0.00    -0.248 OA
ATOM     11  N   UNL A   1      33.208  26.418  22.670  1.00  0.00    -0.278 N 
ATOM     12  H   UNL A   1      33.433  27.200  22.116  1.00  0.00     0.174 HD
ATOM     13  O   UNL A   1      33.694  27.646  24.462  1.00  0.00    -0.275 OA
BRANCH   9  14
ATOM     14  N   UNL A   1      33.081  24.056  22.591  1.00  0.00    -0.323 N 
ATOM     15  C   UNL A   1      32.607  21.397  24.394  1.00  0.00     0.123 C 
ATOM     16  C   UNL A   1      31.674  22.771  23.207  1.00  0.00     0.137 C 
ATOM     17  C   UNL A   1      34.594  21.852  24.381  1.00  0.00     0.021 C 
ATOM     18  C   UNL A   1      34.815  23.507  23.263  1.00  0.00     0.125 C 
ATOM     19  C   UNL A   1      35.229  22.040  25.787  1.00  0.00     0.010 C 
BRANCH  15  20
ATOM     20  C   UNL A   1      32.372  19.896  24.221  1.00  0.00     0.310 C 
ATOM     21  O   UNL A   1      32.192  19.168  25.196  1.00  0.00    -0.252 OA
BRANCH  20  22
ATOM     22  O   UNL A   1      32.107  19.411  22.987  1.00  0.00    -0.469 OA
ATOM     23  C   UNL A   1      32.523  18.136  22.500  1.00  0.00     0.282 C 
ENDBRANCH  20  22
ENDBRANCH  15  20
ENDBRANCH   9  14
ENDBRANCH   7   8
ENDBRANCH   6   7
ENDBRANCH   5   6
ENDBRANCH   1   5
BRANCH   3  24
ATOM     24  C   UNL A   1      31.424  30.359  25.810  1.00  0.00     0.117 C 
BRANCH  24  25
ATOM     25  C   UNL A   1      31.365  31.836  26.209  1.00  0.00     0.042 C 
BRANCH  25  26
ATOM     26  C   UNL A   1      32.540  32.267  27.045  1.00  0.00     0.118 C 
BRANCH  26  27
ATOM     27  N   UNL A   1      32.424  33.663  27.413  1.00  0.00    -0.352 N 
ATOM     28  C   UNL A   1      33.061  34.333  28.428  1.00  0.00     0.251 C 
ATOM     29  H   UNL A   1      31.810  34.200  26.863  1.00  0.00     0.163 HD
ATOM     30  O   UNL A   1      32.610  35.399  28.830  1.00  0.00    -0.269 OA
BRANCH  28  31
ATOM     31  C   UNL A   1      34.275  33.753  29.042  1.00  0.00     0.039 A 
ATOM     32  C   UNL A   1      35.519  34.311  28.753  1.00  0.00     0.014 A 
ATOM     33  C   UNL A   1      34.190  32.648  29.895  1.00  0.00     0.014 A 
ATOM     34  C   UNL A   1      36.664  33.769  29.335  1.00  0.00     0.010 A 
ATOM     35  C   UNL A   1      35.301  32.229  30.607  1.00  0.00     0.010 A 
ATOM     36  C   UNL A   1      36.561  32.737  30.286  1.00  0.00    -0.014 A 
BRANCH  36  37
ATOM     37  C   UNL A   1      37.774  32.127  30.881  1.00  0.00     0.031 A 
ATOM     38  C   UNL A   1      38.221  32.533  32.261  1.00  0.00     0.074 A 
ATOM     39  C   UNL A   1      38.466  31.211  30.178  1.00  0.00     0.049 A 
ATOM     40  N   UNL A   1      39.217  32.074  32.976  1.00  0.00    -0.248 NA
ATOM     41  C   UNL A   1      37.477  33.622  32.918  1.00  0.00     0.031 C 
ATOM     42  C   UNL A   1      38.171  30.802  28.804  1.00  0.00     0.029 A 
ATOM     43  N   UNL A   1      39.549  30.448  30.527  1.00  0.00    -0.354 N 
ATOM     44  C   UNL A   1      39.213  32.818  34.150  1.00  0.00     0.074 A 
ATOM     45  C   UNL A   1      38.187  33.822  34.016  1.00  0.00     0.031 C 
ATOM     46  C   UNL A   1      39.013  29.820  28.449  1.00  0.00     0.029 A 
ATOM     47  C   UNL A   1      39.930  29.560  29.553  1.00  0.00     0.049 A 
ATOM     48  H   UNL A   1      40.009  30.529  31.395  1.00  0.00     0.167 HD
ATOM     49  C   UNL A   1      39.964  32.648  35.263  1.00  0.00     0.037 A 
ATOM     50  C   UNL A   1      40.907  28.634  29.556  1.00  0.00     0.037 A 
ATOM     51  C   UNL A   1      40.973  31.632  35.392  1.00  0.00     0.049 A 
ATOM     52  C   UNL A   1      41.729  28.458  30.804  1.00  0.00     0.074 A 
ATOM     53  C   UNL A   1      41.770  31.338  36.482  1.00  0.00     0.029 A 
ATOM     54  N   UNL A   1      41.326  30.745  34.384  1.00  0.00    -0.354 N 
ATOM     55  N   UNL A   1      41.661  29.112  31.940  1.00  0.00    -0.248 NA
ATOM     56  C   UNL A   1      42.753  27.406  30.777  1.00  0.00     0.031 C 
ATOM     57  C   UNL A   1      42.647  30.315  36.115  1.00  0.00     0.029 A 
ATOM     58  C   UNL A   1      42.348  29.918  34.820  1.00  0.00     0.049 A 
ATOM     59  H   UNL A   1      40.912  30.709  33.491  1.00  0.00     0.167 HD
ATOM     60  C   UNL A   1      42.611  28.535  32.771  1.00  0.00     0.074 A 
ATOM     61  C   UNL A   1      43.228  27.464  32.014  1.00  0.00     0.031 C 
ATOM     62  C   UNL A   1      42.943  28.857  34.046  1.00  0.00     0.037 A 
BRANCH  49  63
ATOM     63  C   UNL A   1      39.712  33.576  36.420  1.00  0.00     0.064 A 
ATOM     64  C   UNL A   1      38.857  33.222  37.479  1.00  0.00     0.173 A 
ATOM     65  C   UNL A   1      40.335  34.830  36.477  1.00  0.00     0.173 A 
ATOM     66  F   UNL A   1      38.222  32.041  37.469  1.00  0.00    -0.203 F 
ATOM     67  C   UNL A   1      38.606  34.105  38.526  1.00  0.00     0.198 A 
ATOM     68  C   UNL A   1      40.113  35.695  37.547  1.00  0.00     0.198 A 
ATOM     69  F   UNL A   1      41.162  35.221  35.496  1.00  0.00    -0.203 F 
ATOM     70  F   UNL A   1      37.734  33.770  39.487  1.00  0.00    -0.200 F 
ATOM     71  C   UNL A   1      39.240  35.337  38.564  1.00  0.00     0.200 A 
ATOM     72  F   UNL A   1      40.737  36.880  37.589  1.00  0.00    -0.200 F 
ATOM     73  F   UNL A   1      39.001  36.184  39.574  1.00  0.00    -0.200 F 
ENDBRANCH  49  63
BRANCH  50  74
ATOM     74  C   UNL A   1      41.127  27.789  28.353  1.00  0.00     0.064 A 
ATOM     75  C   UNL A   1      40.482  26.553  28.201  1.00  0.00     0.173 A 
ATOM     76  C   UNL A   1      41.974  28.213  27.318  1.00  0.00     0.173 A 
ATOM     77  F   UNL A   1      39.672  26.097  29.167  1.00  0.00    -0.203 F 
ATOM     78  C   UNL A   1      40.695  25.764  27.072  1.00  0.00     0.198 A 
ATOM     79  C   UNL A   1      42.158  27.439  26.174  1.00  0.00     0.198 A 
ATOM     80  F   UNL A   1      42.604  29.393  27.406  1.00  0.00    -0.203 F 
ATOM     81  F   UNL A   1      40.102  24.567  26.972  1.00  0.00    -0.200 F 
ATOM     82  C   UNL A   1      41.527  26.212  26.056  1.00  0.00     0.200 A 
ATOM     83  F   UNL A   1      42.944  27.887  25.186  1.00  0.00    -0.200 F 
ATOM     84  F   UNL A   1      41.721  25.458  24.965  1.00  0.00    -0.200 F 
ENDBRANCH  50  74
BRANCH  62  85
ATOM     85  C   UNL A   1      43.990  28.016  34.717  1.00  0.00     0.064 A 
ATOM     86  C   UNL A   1      45.343  28.386  34.726  1.00  0.00     0.173 A 
ATOM     87  C   UNL A   1      43.626  26.843  35.396  1.00  0.00     0.173 A 
ATOM     88  F   UNL A   1      45.746  29.493  34.084  1.00  0.00    -0.203 F 
ATOM     89  C   UNL A   1      46.296  27.593  35.359  1.00  0.00     0.198 A 
ATOM     90  C   UNL A   1      44.575  26.074  36.061  1.00  0.00     0.198 A 
ATOM     91  F   UNL A   1      42.343  26.451  35.428  1.00  0.00    -0.203 F 
ATOM     92  F   UNL A   1      47.592  27.933  35.304  1.00  0.00    -0.200 F 
ATOM     93  C   UNL A   1      45.911  26.443  36.032  1.00  0.00     0.200 A 
ATOM     94  F   UNL A   1      44.196  24.975  36.728  1.00  0.00    -0.200 F 
ATOM     95  F   UNL A   1      46.828  25.686  36.648  1.00  0.00    -0.200 F 
ENDBRANCH  62  85
ENDBRANCH  36  37
ENDBRANCH  28  31
ENDBRANCH  26  27
ENDBRANCH  25  26
ENDBRANCH  24  25
ENDBRANCH   3  24
TORSDOF 16
ENDMDL
MODEL 2
REMARK VINA RESULT:     -13.1      5.041     10.932
REMARK SMILES COC(=O)[C@@H]1CN(C(=O)NC(=O)CCCC(=O)NCCCNC(=O)c2ccc(-c3c4nc(c(-c5c(F)c(F)c(F)c(F)c5F)c5ccc([nH]5)c(-c5c(F)c(F)c(F)c(F)c5F)c5nc(c(-c6c(F)c(F)c(F)c(F)c6F)c6ccc3[nH]6)C=C5)C=C4)cc2)C[C@H]1C
REMARK SMILES IDX 16 1 17 2 18 3 15 5 14 6 13 7 11 8 8 9 9 10 10 11 12 13 7 14
REMARK SMILES IDX 5 15 6 16 89 17 88 18 90 19 3 20 4 21 2 22 1 23 19 24 20 25
REMARK SMILES IDX 21 26 22 27 23 28 24 30 25 31 26 32 87 33 27 34 86 35 28 36
REMARK SMILES IDX 29 37 30 38 80 39 31 40 85 41 79 42 81 43 32 44 84 45 78 46
REMARK SMILES IDX 77 47 33 49 65 50 45 51 64 52 46 53 49 54 63 55 82 56 47 57
REMARK SMILES IDX 48 58 62 60 83 61 50 62 34 63 35 64 43 65 36 66 37 67 41 68
REMARK SMILES IDX 44 69 38 70 39 71 42 72 40 73 66 74 67 75 75 76 68 77 69 78
REMARK SMILES IDX 73 79 76 80 70 81 71 82 74 83 72 84 51 85 52 86 60 87 53 88
REMARK SMILES IDX 54 89 58 90 61 91 55 92 56 93 59 94 57 95
REMARK H PARENT 18 4 10 12 22 29 81 48 49 59
REMARK Flexibility Score: inf
ROOT
ATOM      1  C   UNL A   1      33.194  19.595  24.475  1.00  0.00     0.220 C 
ATOM      2  O   UNL A   1      32.225  18.866  24.794  1.00  0.00    -0.275 OA
ATOM      3  N   UNL A   1      35.060  19.585  25.110  1.00  0.00    -0.356 N 
ATOM      4  H   UNL A   1      35.215  18.798  25.681  1.00  0.00     0.163 HD
ENDROOT
BRANCH   1   5
ATOM      5  C   UNL A   1      32.474  20.800  23.315  1.00  0.00     0.100 C 
BRANCH   5   6
ATOM      6  C   UNL A   1      32.648  22.355  23.150  1.00  0.00     0.020 C 
BRANCH   6   7
ATOM      7  C   UNL A   1      32.939  23.396  24.251  1.00  0.00     0.101 C 
BRANCH   7   8
ATOM      8  C   UNL A   1      33.010  23.030  25.709  1.00  0.00     0.227 C 
ATOM      9  C   UNL A   1      30.806  23.873  26.505  1.00  0.00     0.324 C 
ATOM     10  O   UNL A   1      29.899  23.589  27.288  1.00  0.00    -0.248 OA
ATOM     11  N   UNL A   1      31.915  23.103  26.502  1.00  0.00    -0.278 N 
ATOM     12  H   UNL A   1      31.931  22.451  27.240  1.00  0.00     0.174 HD
ATOM     13  O   UNL A   1      34.089  22.713  26.218  1.00  0.00    -0.275 OA
BRANCH   9  14
ATOM     14  N   UNL A   1      30.720  24.983  25.705  1.00  0.00    -0.323 N 
ATOM     15  C   UNL A   1      30.761  27.345  23.477  1.00  0.00     0.123 C 
ATOM     16  C   UNL A   1      30.134  25.437  23.845  1.00  0.00     0.137 C 
ATOM     17  C   UNL A   1      31.640  28.022  25.185  1.00  0.00     0.021 C 
ATOM     18  C   UNL A   1      31.593  26.514  26.513  1.00  0.00     0.125 C 
ATOM     19  C   UNL A   1      33.087  28.561  25.005  1.00  0.00     0.010 C 
BRANCH  15  20
ATOM     20  C   UNL A   1      29.829  28.392  22.869  1.00  0.00     0.310 C 
ATOM     21  O   UNL A   1      29.994  28.794  21.718  1.00  0.00    -0.252 OA
BRANCH  20  22
ATOM     22  O   UNL A   1      28.673  28.690  23.504  1.00  0.00    -0.469 OA
ATOM     23  C   UNL A   1      27.463  29.092  22.862  1.00  0.00     0.282 C 
ENDBRANCH  20  22
ENDBRANCH  15  20
ENDBRANCH   9  14
ENDBRANCH   7   8
ENDBRANCH   6   7
ENDBRANCH   5   6
ENDBRANCH   1   5
BRANCH   3  24
ATOM     24  C   UNL A   1      36.453  20.479  24.990  1.00  0.00     0.117 C 
BRANCH  24  25
ATOM     25  C   UNL A   1      37.690  19.579  25.026  1.00  0.00     0.042 C 
BRANCH  25  26
ATOM     26  C   UNL A   1      38.868  20.225  25.707  1.00  0.00     0.118 C 
BRANCH  26  27
ATOM     27  N   UNL A   1      39.940  19.270  25.893  1.00  0.00    -0.352 N 
ATOM     28  C   UNL A   1      41.283  19.515  26.044  1.00  0.00     0.251 C 
ATOM     29  H   UNL A   1      39.672  18.323  25.915  1.00  0.00     0.163 HD
ATOM     30  O   UNL A   1      42.092  18.616  25.844  1.00  0.00    -0.269 OA
BRANCH  28  31
ATOM     31  C   UNL A   1      41.744  20.867  26.427  1.00  0.00     0.039 A 
ATOM     32  C   UNL A   1      42.085  21.120  27.755  1.00  0.00     0.014 A 
ATOM     33  C   UNL A   1      41.830  21.891  25.480  1.00  0.00     0.014 A 
ATOM     34  C   UNL A   1      42.525  22.392  28.117  1.00  0.00     0.010 A 
ATOM     35  C   UNL A   1      42.434  23.095  25.805  1.00  0.00     0.010 A 
ATOM     36  C   UNL A   1      42.725  23.384  27.140  1.00  0.00    -0.014 A 
BRANCH  36  37
ATOM     37  C   UNL A   1      43.155  24.752  27.519  1.00  0.00     0.031 A 
ATOM     38  C   UNL A   1      44.571  25.194  27.259  1.00  0.00     0.074 A 
ATOM     39  C   UNL A   1      42.269  25.586  28.093  1.00  0.00     0.049 A 
ATOM     40  N   UNL A   1      45.122  26.364  27.463  1.00  0.00    -0.248 NA
ATOM     41  C   UNL A   1      45.508  24.186  26.733  1.00  0.00     0.031 C 
ATOM     42  C   UNL A   1      40.897  25.237  28.463  1.00  0.00     0.029 A 
ATOM     43  N   UNL A   1      42.386  26.904  28.451  1.00  0.00    -0.354 N 
ATOM     44  C   UNL A   1      46.454  26.224  27.095  1.00  0.00     0.074 A 
ATOM     45  C   UNL A   1      46.658  24.838  26.751  1.00  0.00     0.031 C 
ATOM     46  C   UNL A   1      40.280  26.329  28.940  1.00  0.00     0.029 A 
ATOM     47  C   UNL A   1      41.225  27.442  28.946  1.00  0.00     0.049 A 
ATOM     48  H   UNL A   1      43.223  27.416  28.361  1.00  0.00     0.167 HD
ATOM     49  C   UNL A   1      47.412  27.175  27.002  1.00  0.00     0.037 A 
ATOM     50  C   UNL A   1      40.952  28.695  29.352  1.00  0.00     0.037 A 
ATOM     51  C   UNL A   1      47.193  28.557  27.332  1.00  0.00     0.049 A 
ATOM     52  C   UNL A   1      42.030  29.740  29.238  1.00  0.00     0.074 A 
ATOM     53  C   UNL A   1      48.074  29.618  27.241  1.00  0.00     0.029 A 
ATOM     54  N   UNL A   1      45.998  29.066  27.824  1.00  0.00    -0.354 N 
ATOM     55  N   UNL A   1      43.263  29.614  28.809  1.00  0.00    -0.248 NA
ATOM     56  C   UNL A   1      41.673  31.104  29.650  1.00  0.00     0.031 C 
ATOM     57  C   UNL A   1      47.433  30.757  27.737  1.00  0.00     0.029 A 
ATOM     58  C   UNL A   1      46.128  30.423  28.065  1.00  0.00     0.049 A 
ATOM     59  H   UNL A   1      45.181  28.540  27.979  1.00  0.00     0.167 HD
ATOM     60  C   UNL A   1      43.822  30.882  28.872  1.00  0.00     0.074 A 
ATOM     61  C   UNL A   1      42.784  31.768  29.363  1.00  0.00     0.031 C 
ATOM     62  C   UNL A   1      45.078  31.283  28.552  1.00  0.00     0.037 A 
BRANCH  49  63
ATOM     63  C   UNL A   1      48.771  26.747  26.521  1.00  0.00     0.064 A 
ATOM     64  C   UNL A   1      49.701  26.134  27.379  1.00  0.00     0.173 A 
ATOM     65  C   UNL A   1      49.150  26.944  25.185  1.00  0.00     0.173 A 
ATOM     66  F   UNL A   1      49.399  25.935  28.671  1.00  0.00    -0.203 F 
ATOM     67  C   UNL A   1      50.968  25.775  26.927  1.00  0.00     0.198 A 
ATOM     68  C   UNL A   1      50.404  26.546  24.727  1.00  0.00     0.198 A 
ATOM     69  F   UNL A   1      48.304  27.522  24.319  1.00  0.00    -0.203 F 
ATOM     70  F   UNL A   1      51.860  25.256  27.784  1.00  0.00    -0.200 F 
ATOM     71  C   UNL A   1      51.316  25.974  25.601  1.00  0.00     0.200 A 
ATOM     72  F   UNL A   1      50.734  26.727  23.441  1.00  0.00    -0.200 F 
ATOM     73  F   UNL A   1      52.535  25.624  25.167  1.00  0.00    -0.200 F 
ENDBRANCH  49  63
BRANCH  50  74
ATOM     74  C   UNL A   1      39.596  29.028  29.864  1.00  0.00     0.064 A 
ATOM     75  C   UNL A   1      38.592  29.510  29.012  1.00  0.00     0.173 A 
ATOM     76  C   UNL A   1      39.271  28.850  31.217  1.00  0.00     0.173 A 
ATOM     77  F   UNL A   1      38.855  29.709  27.713  1.00  0.00    -0.203 F 
ATOM     78  C   UNL A   1      37.324  29.822  29.499  1.00  0.00     0.198 A 
ATOM     79  C   UNL A   1      37.993  29.129  31.695  1.00  0.00     0.198 A 
ATOM     80  F   UNL A   1      40.191  28.378  32.072  1.00  0.00    -0.203 F 
ATOM     81  F   UNL A   1      36.397  30.324  28.672  1.00  0.00    -0.200 F 
ATOM     82  C   UNL A   1      37.024  29.624  30.838  1.00  0.00     0.200 A 
ATOM     83  F   UNL A   1      37.702  28.913  32.985  1.00  0.00    -0.200 F 
ATOM     84  F   UNL A   1      35.800  29.913  31.303  1.00  0.00    -0.200 F 
ENDBRANCH  50  74
BRANCH  62  85
ATOM     85  C   UNL A   1      45.387  32.746  28.681  1.00  0.00     0.064 A 
ATOM     86  C   UNL A   1      45.126  33.654  27.645  1.00  0.00     0.173 A 
ATOM     87  C   UNL A   1      45.916  33.252  29.879  1.00  0.00     0.173 A 
ATOM     88  F   UNL A   1      44.630  33.221  26.476  1.00  0.00    -0.203 F 
ATOM     89  C   UNL A   1      45.416  35.007  27.790  1.00  0.00     0.198 A 
ATOM     90  C   UNL A   1      46.168  34.610  30.035  1.00  0.00     0.198 A 
ATOM     91  F   UNL A   1      46.174  32.428  30.906  1.00  0.00    -0.203 F 
ATOM     92  F   UNL A   1      45.215  35.848  26.765  1.00  0.00    -0.200 F 
ATOM     93  C   UNL A   1      45.929  35.486  28.987  1.00  0.00     0.200 A 
ATOM     94  F   UNL A   1      46.644  35.072  31.200  1.00  0.00    -0.200 F 
ATOM     95  F   UNL A   1      46.201  36.790  29.128  1.00  0.00    -0.200 F 
ENDBRANCH  62  85
ENDBRANCH  36  37
ENDBRANCH  28  31
ENDBRANCH  26  27
ENDBRANCH  25  26
ENDBRANCH  24  25
ENDBRANCH   3  24
TORSDOF 16
ENDMDL
MODEL 3
REMARK VINA RESULT:     -12.9      1.313      2.565
REMARK SMILES COC(=O)[C@@H]1CN(C(=O)NC(=O)CCCC(=O)NCCCNC(=O)c2ccc(-c3c4nc(c(-c5c(F)c(F)c(F)c(F)c5F)c5ccc([nH]5)c(-c5c(F)c(F)c(F)c(F)c5F)c5nc(c(-c6c(F)c(F)c(F)c(F)c6F)c6ccc3[nH]6)C=C5)C=C4)cc2)C[C@H]1C
REMARK SMILES IDX 16 1 17 2 18 3 15 5 14 6 13 7 11 8 8 9 9 10 10 11 12 13 7 14
REMARK SMILES IDX 5 15 6 16 89 17 88 18 90 19 3 20 4 21 2 22 1 23 19 24 20 25
REMARK SMILES IDX 21 26 22 27 23 28 24 30 25 31 26 32 87 33 27 34 86 35 28 36
REMARK SMILES IDX 29 37 30 38 80 39 31 40 85 41 79 42 81 43 32 44 84 45 78 46
REMARK SMILES IDX 77 47 33 49 65 50 45 51 64 52 46 53 49 54 63 55 82 56 47 57
REMARK SMILES IDX 48 58 62 60 83 61 50 62 34 63 35 64 43 65 36 66 37 67 41 68
REMARK SMILES IDX 44 69 38 70 39 71 42 72 40 73 66 74 67 75 75 76 68 77 69 78
REMARK SMILES IDX 73 79 76 80 70 81 71 82 74 83 72 84 51 85 52 86 60 87 53 88
REMARK SMILES IDX 54 89 58 90 61 91 55 92 56 93 59 94 57 95
REMARK H PARENT 18 4 10 12 22 29 81 48 49 59
REMARK Flexibility Score: inf
ROOT
ATOM      1  C   UNL A   1      30.294  29.143  22.735  1.00  0.00     0.220 C 
ATOM      2  O   UNL A   1      29.780  29.304  21.602  1.00  0.00    -0.275 OA
ATOM      3  N   UNL A   1      30.596  30.434  24.193  1.00  0.00    -0.356 N 
ATOM      4  H   UNL A   1      30.158  31.289  23.980  1.00  0.00     0.163 HD
ENDROOT
BRANCH   1   5
ATOM      5  C   UNL A   1      30.828  27.402  22.729  1.00  0.00     0.100 C 
BRANCH   5   6
ATOM      6  C   UNL A   1      32.239  26.722  22.582  1.00  0.00     0.020 C 
BRANCH   6   7
ATOM      7  C   UNL A   1      33.601  27.251  23.077  1.00  0.00     0.101 C 
BRANCH   7   8
ATOM      8  C   UNL A   1      33.756  28.604  23.717  1.00  0.00     0.227 C 
ATOM      9  C   UNL A   1      34.064  27.957  26.101  1.00  0.00     0.324 C 
ATOM     10  O   UNL A   1      34.695  28.282  27.107  1.00  0.00    -0.248 OA
ATOM     11  N   UNL A   1      34.173  28.729  24.999  1.00  0.00    -0.278 N 
ATOM     12  H   UNL A   1      34.664  29.567  25.164  1.00  0.00     0.174 HD
ATOM     13  O   UNL A   1      33.446  29.625  23.095  1.00  0.00    -0.275 OA
BRANCH   9  14
ATOM     14  N   UNL A   1      33.219  26.877  26.122  1.00  0.00    -0.323 N 
ATOM     15  C   UNL A   1      31.393  24.222  25.720  1.00  0.00     0.123 C 
ATOM     16  C   UNL A   1      33.316  24.904  25.797  1.00  0.00     0.137 C 
ATOM     17  C   UNL A   1      30.182  25.817  26.096  1.00  0.00     0.021 C 
ATOM     18  C   UNL A   1      31.369  27.422  26.322  1.00  0.00     0.125 C 
ATOM     19  C   UNL A   1      29.092  26.077  25.019  1.00  0.00     0.010 C 
BRANCH  15  20
ATOM     20  C   UNL A   1      30.950  22.982  26.496  1.00  0.00     0.310 C 
ATOM     21  O   UNL A   1      30.114  23.064  27.394  1.00  0.00    -0.252 OA
BRANCH  20  22
ATOM     22  O   UNL A   1      31.285  21.759  26.026  1.00  0.00    -0.469 OA
ATOM     23  C   UNL A   1      32.023  21.514  24.830  1.00  0.00     0.282 C 
ENDBRANCH  20  22
ENDBRANCH  15  20
ENDBRANCH   9  14
ENDBRANCH   7   8
ENDBRANCH   6   7
ENDBRANCH   5   6
ENDBRANCH   1   5
BRANCH   3  24
ATOM     24  C   UNL A   1      31.354  30.539  25.666  1.00  0.00     0.117 C 
BRANCH  24  25
ATOM     25  C   UNL A   1      31.216  31.945  26.257  1.00  0.00     0.042 C 
BRANCH  25  26
ATOM     26  C   UNL A   1      32.432  32.379  27.031  1.00  0.00     0.118 C 
BRANCH  26  27
ATOM     27  N   UNL A   1      32.341  33.779  27.388  1.00  0.00    -0.352 N 
ATOM     28  C   UNL A   1      32.996  34.448  28.392  1.00  0.00     0.251 C 
ATOM     29  H   UNL A   1      31.730  34.322  26.839  1.00  0.00     0.163 HD
ATOM     30  O   UNL A   1      32.565  35.524  28.790  1.00  0.00    -0.269 OA
BRANCH  28  31
ATOM     31  C   UNL A   1      34.206  33.854  29.001  1.00  0.00     0.039 A 
ATOM     32  C   UNL A   1      35.460  34.348  28.646  1.00  0.00     0.014 A 
ATOM     33  C   UNL A   1      34.107  32.800  29.915  1.00  0.00     0.014 A 
ATOM     34  C   UNL A   1      36.602  33.793  29.223  1.00  0.00     0.010 A 
ATOM     35  C   UNL A   1      35.224  32.376  30.616  1.00  0.00     0.010 A 
ATOM     36  C   UNL A   1      36.491  32.817  30.230  1.00  0.00    -0.014 A 
BRANCH  36  37
ATOM     37  C   UNL A   1      37.699  32.193  30.822  1.00  0.00     0.031 A 
ATOM     38  C   UNL A   1      38.149  32.586  32.205  1.00  0.00     0.074 A 
ATOM     39  C   UNL A   1      38.382  31.276  30.114  1.00  0.00     0.049 A 
ATOM     40  N   UNL A   1      39.141  32.114  32.917  1.00  0.00    -0.248 NA
ATOM     41  C   UNL A   1      37.415  33.678  32.869  1.00  0.00     0.031 C 
ATOM     42  C   UNL A   1      38.083  30.877  28.737  1.00  0.00     0.029 A 
ATOM     43  N   UNL A   1      39.458  30.500  30.458  1.00  0.00    -0.354 N 
ATOM     44  C   UNL A   1      39.143  32.850  34.095  1.00  0.00     0.074 A 
ATOM     45  C   UNL A   1      38.126  33.864  33.968  1.00  0.00     0.031 C 
ATOM     46  C   UNL A   1      38.917  29.890  28.376  1.00  0.00     0.029 A 
ATOM     47  C   UNL A   1      39.832  29.615  29.478  1.00  0.00     0.049 A 
ATOM     48  H   UNL A   1      39.919  30.571  31.326  1.00  0.00     0.167 HD
ATOM     49  C   UNL A   1      39.892  32.667  35.207  1.00  0.00     0.037 A 
ATOM     50  C   UNL A   1      40.800  28.681  29.476  1.00  0.00     0.037 A 
ATOM     51  C   UNL A   1      40.892  31.641  35.330  1.00  0.00     0.049 A 
ATOM     52  C   UNL A   1      41.621  28.489  30.723  1.00  0.00     0.074 A 
ATOM     53  C   UNL A   1      41.686  31.333  36.419  1.00  0.00     0.029 A 
ATOM     54  N   UNL A   1      41.238  30.757  34.317  1.00  0.00    -0.354 N 
ATOM     55  N   UNL A   1      41.558  29.137  31.862  1.00  0.00    -0.248 NA
ATOM     56  C   UNL A   1      42.635  27.428  30.689  1.00  0.00     0.031 C 
ATOM     57  C   UNL A   1      42.554  30.304  36.045  1.00  0.00     0.029 A 
ATOM     58  C   UNL A   1      42.251  29.919  34.748  1.00  0.00     0.049 A 
ATOM     59  H   UNL A   1      40.823  30.731  33.424  1.00  0.00     0.167 HD
ATOM     60  C   UNL A   1      42.503  28.546  32.690  1.00  0.00     0.074 A 
ATOM     61  C   UNL A   1      43.110  27.474  31.926  1.00  0.00     0.031 C 
ATOM     62  C   UNL A   1      42.837  28.857  33.968  1.00  0.00     0.037 A 
BRANCH  49  63
ATOM     63  C   UNL A   1      39.648  33.589  36.370  1.00  0.00     0.064 A 
ATOM     64  C   UNL A   1      40.284  34.839  36.469  1.00  0.00     0.173 A 
ATOM     65  C   UNL A   1      38.763  33.226  37.396  1.00  0.00     0.173 A 
ATOM     66  F   UNL A   1      41.152  35.232  35.525  1.00  0.00    -0.203 F 
ATOM     67  C   UNL A   1      40.074  35.668  37.568  1.00  0.00     0.198 A 
ATOM     68  C   UNL A   1      38.525  34.076  38.474  1.00  0.00     0.198 A 
ATOM     69  F   UNL A   1      38.126  32.047  37.354  1.00  0.00    -0.203 F 
ATOM     70  F   UNL A   1      40.746  36.823  37.671  1.00  0.00    -0.200 F 
ATOM     71  C   UNL A   1      39.190  35.290  38.565  1.00  0.00     0.200 A 
ATOM     72  F   UNL A   1      37.659  33.715  39.430  1.00  0.00    -0.200 F 
ATOM     73  F   UNL A   1      38.986  36.090  39.621  1.00  0.00    -0.200 F 
ENDBRANCH  49  63
BRANCH  50  74
ATOM     74  C   UNL A   1      41.013  27.841  28.267  1.00  0.00     0.064 A 
ATOM     75  C   UNL A   1      41.840  28.267  27.219  1.00  0.00     0.173 A 
ATOM     76  C   UNL A   1      40.407  26.580  28.148  1.00  0.00     0.173 A 
ATOM     77  F   UNL A   1      42.433  29.468  27.279  1.00  0.00    -0.203 F 
ATOM     78  C   UNL A   1      42.034  27.476  26.088  1.00  0.00     0.198 A 
ATOM     79  C   UNL A   1      40.630  25.776  27.032  1.00  0.00     0.198 A 
ATOM     80  F   UNL A   1      39.618  26.119  29.129  1.00  0.00    -0.203 F 
ATOM     81  F   UNL A   1      42.794  27.926  25.080  1.00  0.00    -0.200 F 
ATOM     82  C   UNL A   1      41.435  26.228  25.999  1.00  0.00     0.200 A 
ATOM     83  F   UNL A   1      40.069  24.562  26.964  1.00  0.00    -0.200 F 
ATOM     84  F   UNL A   1      41.632  25.463  24.917  1.00  0.00    -0.200 F 
ENDBRANCH  50  74
BRANCH  62  85
ATOM     85  C   UNL A   1      43.877  28.003  34.633  1.00  0.00     0.064 A 
ATOM     86  C   UNL A   1      45.238  28.344  34.617  1.00  0.00     0.173 A 
ATOM     87  C   UNL A   1      43.499  26.846  35.332  1.00  0.00     0.173 A 
ATOM     88  F   UNL A   1      45.653  29.435  33.955  1.00  0.00    -0.203 F 
ATOM     89  C   UNL A   1      46.184  27.540  35.246  1.00  0.00     0.198 A 
ATOM     90  C   UNL A   1      44.441  26.066  35.992  1.00  0.00     0.198 A 
ATOM     91  F   UNL A   1      42.209  26.481  35.387  1.00  0.00    -0.203 F 
ATOM     92  F   UNL A   1      47.485  27.852  35.167  1.00  0.00    -0.200 F 
ATOM     93  C   UNL A   1      45.785  26.406  35.939  1.00  0.00     0.200 A 
ATOM     94  F   UNL A   1      44.050  24.983  36.678  1.00  0.00    -0.200 F 
ATOM     95  F   UNL A   1      46.695  25.637  36.550  1.00  0.00    -0.200 F 
ENDBRANCH  62  85
ENDBRANCH  36  37
ENDBRANCH  28  31
ENDBRANCH  26  27
ENDBRANCH  25  26
ENDBRANCH  24  25
ENDBRANCH   3  24
TORSDOF 16
ENDMDL
