MODEL 1
REMARK VINA RESULT:     -12.6      0.000      0.000
REMARK SMILES CC[C@@](C)(NC(=O)c1c(C)cc(C)[nH]c1=O)C(=O)NCCCNC(=O)c1ccc(-c2c3nc(c(-c4c(F)c(F)c(F)c(F)c4F)c4ccc([nH]4)c(-c4c(F)c(F)c(F)c(F)c4F)c4nc(c(-c5c(F)c(F)c(F)c(F)c5F)c5ccc2[nH]5)C=C4)C=C3)cc1
REMARK SMILES IDX 21 1 20 2 19 3 17 4 18 5 3 7 4 8 2 9 1 10 5 11 6 12 7 14
REMARK SMILES IDX 8 15 9 16 15 17 10 18 11 19 14 20 16 21 12 22 13 24 22 25
REMARK SMILES IDX 23 26 24 27 25 29 26 30 27 31 88 32 28 33 87 34 29 35 30 36
REMARK SMILES IDX 31 37 81 38 32 39 86 40 80 41 82 42 33 43 85 44 79 45 78 46
REMARK SMILES IDX 34 48 66 49 46 50 65 51 47 52 50 53 64 54 83 55 48 56 49 57
REMARK SMILES IDX 63 59 84 60 51 61 35 62 36 63 44 64 37 65 38 66 42 67 45 68
REMARK SMILES IDX 39 69 40 70 43 71 41 72 67 73 68 74 76 75 69 76 70 77 74 78
REMARK SMILES IDX 77 79 71 80 72 81 75 82 73 83 52 84 53 85 61 86 54 87 55 88
REMARK SMILES IDX 59 89 62 90 56 91 57 92 60 93 58 94
REMARK H PARENT 19 6 5 13 14 23 23 28 82 47 50 58
REMARK Flexibility Score: inf
ROOT
ATOM      1  C   UNL A   1      33.476  28.795  23.611  1.00  0.00     0.042 C 
ENDROOT
BRANCH   1   2
ATOM      2  C   UNL A   1      32.322  28.034  22.944  1.00  0.00     0.117 C 
BRANCH   2   3
ATOM      3  N   UNL A   1      32.652  27.172  21.815  1.00  0.00    -0.354 N 
ATOM      4  C   UNL A   1      32.892  25.842  21.616  1.00  0.00     0.245 C 
ATOM      5  O   UNL A   1      33.268  25.563  20.466  1.00  0.00    -0.272 OA
ATOM      6  H   UNL A   1      32.719  27.682  20.976  1.00  0.00     0.163 HD
BRANCH   4   7
ATOM      7  C   UNL A   1      32.750  24.700  22.696  1.00  0.00     0.116 C 
ATOM      8  C   UNL A   1      31.239  24.519  22.985  1.00  0.00     0.045 C 
BRANCH   7   9
ATOM      9  C   UNL A   1      33.278  23.347  22.105  1.00  0.00     0.035 C 
ATOM     10  C   UNL A   1      32.263  22.212  21.947  1.00  0.00     0.007 C 
ENDBRANCH   7   9
BRANCH   7  11
ATOM     11  N   UNL A   1      33.426  24.872  24.038  1.00  0.00    -0.338 N 
ATOM     12  C   UNL A   1      33.530  24.141  25.196  1.00  0.00     0.258 C 
ATOM     13  H   UNL A   1      33.916  25.723  24.096  1.00  0.00     0.164 HD
ATOM     14  O   UNL A   1      33.698  24.808  26.222  1.00  0.00    -0.269 OA
BRANCH  12  15
ATOM     15  C   UNL A   1      33.529  22.640  25.259  1.00  0.00     0.107 A 
ATOM     16  C   UNL A   1      34.516  21.804  24.837  1.00  0.00    -0.031 A 
ATOM     17  C   UNL A   1      32.242  21.961  25.469  1.00  0.00     0.261 A 
ATOM     18  C   UNL A   1      35.836  22.200  24.236  1.00  0.00     0.045 C 
ATOM     19  C   UNL A   1      34.330  20.340  24.888  1.00  0.00     0.025 A 
ATOM     20  N   UNL A   1      32.204  20.635  25.751  1.00  0.00    -0.326 N 
ATOM     21  O   UNL A   1      31.204  22.548  25.233  1.00  0.00    -0.269 OA
ATOM     22  C   UNL A   1      33.211  19.793  25.392  1.00  0.00     0.015 A 
ATOM     23  H   UNL A   1      31.424  20.271  26.230  1.00  0.00     0.169 HD
ATOM     24  C   UNL A   1      32.902  18.330  25.441  1.00  0.00     0.064 C 
ENDBRANCH  12  15
ENDBRANCH   7  11
ENDBRANCH   4   7
ENDBRANCH   2   3
ENDBRANCH   1   2
BRANCH   1  25
ATOM     25  C   UNL A   1      33.519  28.838  25.147  1.00  0.00     0.118 C 
BRANCH  25  26
ATOM     26  N   UNL A   1      32.746  29.878  25.790  1.00  0.00    -0.352 N 
ATOM     27  C   UNL A   1      33.165  30.827  26.692  1.00  0.00     0.251 C 
ATOM     28  H   UNL A   1      31.792  29.908  25.552  1.00  0.00     0.163 HD
ATOM     29  O   UNL A   1      32.427  31.777  26.951  1.00  0.00    -0.269 OA
BRANCH  27  30
ATOM     30  C   UNL A   1      34.445  30.699  27.436  1.00  0.00     0.039 A 
ATOM     31  C   UNL A   1      34.699  29.455  28.023  1.00  0.00     0.014 A 
ATOM     32  C   UNL A   1      35.354  31.745  27.626  1.00  0.00     0.014 A 
ATOM     33  C   UNL A   1      35.871  29.240  28.753  1.00  0.00     0.010 A 
ATOM     34  C   UNL A   1      36.550  31.520  28.333  1.00  0.00     0.010 A 
ATOM     35  C   UNL A   1      36.820  30.263  28.900  1.00  0.00    -0.014 A 
BRANCH  35  36
ATOM     36  C   UNL A   1      38.087  29.975  29.630  1.00  0.00     0.031 A 
ATOM     37  C   UNL A   1      38.331  30.515  31.011  1.00  0.00     0.074 A 
ATOM     38  C   UNL A   1      39.009  29.168  29.066  1.00  0.00     0.049 A 
ATOM     39  N   UNL A   1      39.318  30.262  31.835  1.00  0.00    -0.248 NA
ATOM     40  C   UNL A   1      37.340  31.465  31.536  1.00  0.00     0.031 C 
ATOM     41  C   UNL A   1      38.910  28.590  27.727  1.00  0.00     0.029 A 
ATOM     42  N   UNL A   1      40.198  28.679  29.555  1.00  0.00    -0.354 N 
ATOM     43  C   UNL A   1      39.061  31.005  32.979  1.00  0.00     0.074 A 
ATOM     44  C   UNL A   1      37.851  31.759  32.725  1.00  0.00     0.031 C 
ATOM     45  C   UNL A   1      39.972  27.795  27.514  1.00  0.00     0.029 A 
ATOM     46  C   UNL A   1      40.836  27.821  28.692  1.00  0.00     0.049 A 
ATOM     47  H   UNL A   1      40.557  28.921  30.439  1.00  0.00     0.167 HD
ATOM     48  C   UNL A   1      39.755  31.037  34.143  1.00  0.00     0.037 A 
ATOM     49  C   UNL A   1      41.978  27.120  28.835  1.00  0.00     0.037 A 
ATOM     50  C   UNL A   1      40.954  30.284  34.407  1.00  0.00     0.049 A 
ATOM     51  C   UNL A   1      42.750  27.204  30.124  1.00  0.00     0.074 A 
ATOM     52  C   UNL A   1      41.693  30.224  35.577  1.00  0.00     0.029 A 
ATOM     53  N   UNL A   1      41.593  29.465  33.489  1.00  0.00    -0.354 N 
ATOM     54  N   UNL A   1      42.459  27.858  31.220  1.00  0.00    -0.248 NA
ATOM     55  C   UNL A   1      44.010  26.448  30.195  1.00  0.00     0.031 C 
ATOM     56  C   UNL A   1      42.802  29.401  35.355  1.00  0.00     0.029 A 
ATOM     57  C   UNL A   1      42.732  28.917  34.059  1.00  0.00     0.049 A 
ATOM     58  H   UNL A   1      41.284  29.297  32.570  1.00  0.00     0.167 HD
ATOM     59  C   UNL A   1      43.482  27.579  32.116  1.00  0.00     0.074 A 
ATOM     60  C   UNL A   1      44.400  26.686  31.441  1.00  0.00     0.031 C 
ATOM     61  C   UNL A   1      43.641  28.027  33.384  1.00  0.00     0.037 A 
BRANCH  48  62
ATOM     62  C   UNL A   1      39.227  31.908  35.244  1.00  0.00     0.064 A 
ATOM     63  C   UNL A   1      38.456  31.373  36.286  1.00  0.00     0.173 A 
ATOM     64  C   UNL A   1      39.561  33.269  35.302  1.00  0.00     0.173 A 
ATOM     65  F   UNL A   1      38.109  30.078  36.273  1.00  0.00    -0.203 F 
ATOM     66  C   UNL A   1      38.022  32.174  37.338  1.00  0.00     0.198 A 
ATOM     67  C   UNL A   1      39.144  34.063  36.368  1.00  0.00     0.198 A 
ATOM     68  F   UNL A   1      40.307  33.825  34.337  1.00  0.00    -0.203 F 
ATOM     69  F   UNL A   1      37.262  31.649  38.309  1.00  0.00    -0.200 F 
ATOM     70  C   UNL A   1      38.373  33.516  37.384  1.00  0.00     0.200 A 
ATOM     71  F   UNL A   1      39.495  35.356  36.418  1.00  0.00    -0.200 F 
ATOM     72  F   UNL A   1      37.965  34.283  38.403  1.00  0.00    -0.200 F 
ENDBRANCH  48  62
BRANCH  49  73
ATOM     73  C   UNL A   1      42.439  26.237  27.734  1.00  0.00     0.064 A 
ATOM     74  C   UNL A   1      41.917  24.946  27.582  1.00  0.00     0.173 A 
ATOM     75  C   UNL A   1      43.398  26.670  26.807  1.00  0.00     0.173 A 
ATOM     76  F   UNL A   1      41.017  24.480  28.461  1.00  0.00    -0.203 F 
ATOM     77  C   UNL A   1      42.339  24.118  26.546  1.00  0.00     0.198 A 
ATOM     78  C   UNL A   1      43.803  25.848  25.758  1.00  0.00     0.198 A 
ATOM     79  F   UNL A   1      43.929  27.896  26.914  1.00  0.00    -0.203 F 
ATOM     80  F   UNL A   1      41.846  22.877  26.439  1.00  0.00    -0.200 F 
ATOM     81  C   UNL A   1      43.276  24.572  25.629  1.00  0.00     0.200 A 
ATOM     82  F   UNL A   1      44.702  26.293  24.869  1.00  0.00    -0.200 F 
ATOM     83  F   UNL A   1      43.675  23.777  24.626  1.00  0.00    -0.200 F 
ENDBRANCH  49  73
BRANCH  61  84
ATOM     84  C   UNL A   1      44.847  27.560  34.145  1.00  0.00     0.064 A 
ATOM     85  C   UNL A   1      46.030  28.310  34.167  1.00  0.00     0.173 A 
ATOM     86  C   UNL A   1      44.789  26.397  34.929  1.00  0.00     0.173 A 
ATOM     87  F   UNL A   1      46.138  29.422  33.424  1.00  0.00    -0.203 F 
ATOM     88  C   UNL A   1      47.115  27.913  34.945  1.00  0.00     0.198 A 
ATOM     89  C   UNL A   1      45.868  26.014  35.721  1.00  0.00     0.198 A 
ATOM     90  F   UNL A   1      43.677  25.648  34.946  1.00  0.00    -0.203 F 
ATOM     91  F   UNL A   1      48.245  28.635  34.935  1.00  0.00    -0.200 F 
ATOM     92  C   UNL A   1      47.030  26.772  35.728  1.00  0.00     0.200 A 
ATOM     93  F   UNL A   1      45.780  24.918  36.487  1.00  0.00    -0.200 F 
ATOM     94  F   UNL A   1      48.068  26.401  36.490  1.00  0.00    -0.200 F 
ENDBRANCH  61  84
ENDBRANCH  35  36
ENDBRANCH  27  30
ENDBRANCH  25  26
ENDBRANCH   1  25
TORSDOF 13
ENDMDL
MODEL 2
REMARK VINA RESULT:     -12.5      0.934      2.960
REMARK SMILES CC[C@@](C)(NC(=O)c1c(C)cc(C)[nH]c1=O)C(=O)NCCCNC(=O)c1ccc(-c2c3nc(c(-c4c(F)c(F)c(F)c(F)c4F)c4ccc([nH]4)c(-c4c(F)c(F)c(F)c(F)c4F)c4nc(c(-c5c(F)c(F)c(F)c(F)c5F)c5ccc2[nH]5)C=C4)C=C3)cc1
REMARK SMILES IDX 21 1 20 2 19 3 17 4 18 5 3 7 4 8 2 9 1 10 5 11 6 12 7 14
REMARK SMILES IDX 8 15 9 16 15 17 10 18 11 19 14 20 16 21 12 22 13 24 22 25
REMARK SMILES IDX 23 26 24 27 25 29 26 30 27 31 88 32 28 33 87 34 29 35 30 36
REMARK SMILES IDX 31 37 81 38 32 39 86 40 80 41 82 42 33 43 85 44 79 45 78 46
REMARK SMILES IDX 34 48 66 49 46 50 65 51 47 52 50 53 64 54 83 55 48 56 49 57
REMARK SMILES IDX 63 59 84 60 51 61 35 62 36 63 44 64 37 65 38 66 42 67 45 68
REMARK SMILES IDX 39 69 40 70 43 71 41 72 67 73 68 74 76 75 69 76 70 77 74 78
REMARK SMILES IDX 77 79 71 80 72 81 75 82 73 83 52 84 53 85 61 86 54 87 55 88
REMARK SMILES IDX 59 89 62 90 56 91 57 92 60 93 58 94
REMARK H PARENT 19 6 5 13 14 23 23 28 82 47 50 58
REMARK Flexibility Score: inf
ROOT
ATOM      1  C   UNL A   1      32.664  27.934  26.052  1.00  0.00     0.042 C 
ENDROOT
BRANCH   1   2
ATOM      2  C   UNL A   1      33.514  26.684  25.785  1.00  0.00     0.117 C 
BRANCH   2   3
ATOM      3  N   UNL A   1      32.927  25.391  26.118  1.00  0.00    -0.354 N 
ATOM      4  C   UNL A   1      33.167  24.082  25.814  1.00  0.00     0.245 C 
ATOM      5  O   UNL A   1      32.304  23.297  26.241  1.00  0.00    -0.272 OA
ATOM      6  H   UNL A   1      32.154  25.488  26.720  1.00  0.00     0.163 HD
BRANCH   4   7
ATOM      7  C   UNL A   1      34.391  23.530  24.985  1.00  0.00     0.116 C 
ATOM      8  C   UNL A   1      35.643  24.339  25.409  1.00  0.00     0.045 C 
BRANCH   7   9
ATOM      9  C   UNL A   1      34.653  22.031  25.366  1.00  0.00     0.035 C 
ATOM     10  C   UNL A   1      34.045  20.963  24.453  1.00  0.00     0.007 C 
ENDBRANCH   7   9
BRANCH   7  11
ATOM     11  N   UNL A   1      34.337  23.582  23.475  1.00  0.00    -0.338 N 
ATOM     12  C   UNL A   1      33.446  24.028  22.529  1.00  0.00     0.258 C 
ATOM     13  H   UNL A   1      35.146  23.200  23.065  1.00  0.00     0.164 HD
ATOM     14  O   UNL A   1      33.496  23.439  21.445  1.00  0.00    -0.269 OA
BRANCH  12  15
ATOM     15  C   UNL A   1      32.516  25.193  22.718  1.00  0.00     0.107 A 
ATOM     16  C   UNL A   1      31.204  25.143  23.070  1.00  0.00    -0.031 A 
ATOM     17  C   UNL A   1      32.918  26.492  22.156  1.00  0.00     0.261 A 
ATOM     18  C   UNL A   1      30.398  23.909  23.371  1.00  0.00     0.045 C 
ATOM     19  C   UNL A   1      30.397  26.378  23.132  1.00  0.00     0.025 A 
ATOM     20  N   UNL A   1      32.236  27.619  22.478  1.00  0.00    -0.326 N 
ATOM     21  O   UNL A   1      33.760  26.536  21.280  1.00  0.00    -0.269 OA
ATOM     22  C   UNL A   1      30.940  27.583  22.892  1.00  0.00     0.015 A 
ATOM     23  H   UNL A   1      32.692  28.489  22.409  1.00  0.00     0.169 HD
ATOM     24  C   UNL A   1      30.203  28.884  22.877  1.00  0.00     0.064 C 
ENDBRANCH  12  15
ENDBRANCH   7  11
ENDBRANCH   4   7
ENDBRANCH   2   3
ENDBRANCH   1   2
BRANCH   1  25
ATOM     25  C   UNL A   1      33.237  29.299  25.636  1.00  0.00     0.118 C 
BRANCH  25  26
ATOM     26  N   UNL A   1      32.605  30.469  26.204  1.00  0.00    -0.352 N 
ATOM     27  C   UNL A   1      33.160  31.444  27.000  1.00  0.00     0.251 C 
ATOM     28  H   UNL A   1      31.651  30.582  25.996  1.00  0.00     0.163 HD
ATOM     29  O   UNL A   1      32.538  32.488  27.193  1.00  0.00    -0.269 OA
BRANCH  27  30
ATOM     30  C   UNL A   1      34.450  31.244  27.710  1.00  0.00     0.039 A 
ATOM     31  C   UNL A   1      34.621  30.012  28.350  1.00  0.00     0.014 A 
ATOM     32  C   UNL A   1      35.448  32.219  27.820  1.00  0.00     0.014 A 
ATOM     33  C   UNL A   1      35.796  29.735  29.053  1.00  0.00     0.010 A 
ATOM     34  C   UNL A   1      36.645  31.927  28.500  1.00  0.00     0.010 A 
ATOM     35  C   UNL A   1      36.831  30.680  29.121  1.00  0.00    -0.014 A 
BRANCH  35  36
ATOM     36  C   UNL A   1      38.094  30.322  29.825  1.00  0.00     0.031 A 
ATOM     37  C   UNL A   1      38.375  30.810  31.218  1.00  0.00     0.074 A 
ATOM     38  C   UNL A   1      38.977  29.499  29.225  1.00  0.00     0.049 A 
ATOM     39  N   UNL A   1      39.361  30.494  32.022  1.00  0.00    -0.248 NA
ATOM     40  C   UNL A   1      37.427  31.780  31.785  1.00  0.00     0.031 C 
ATOM     41  C   UNL A   1      38.841  28.966  27.870  1.00  0.00     0.029 A 
ATOM     42  N   UNL A   1      40.152  28.950  29.683  1.00  0.00    -0.354 N 
ATOM     43  C   UNL A   1      39.147  31.210  33.191  1.00  0.00     0.074 A 
ATOM     44  C   UNL A   1      37.963  32.017  32.975  1.00  0.00     0.031 C 
ATOM     45  C   UNL A   1      39.868  28.138  27.619  1.00  0.00     0.029 A 
ATOM     46  C   UNL A   1      40.747  28.095  28.787  1.00  0.00     0.049 A 
ATOM     47  H   UNL A   1      40.531  29.150  30.569  1.00  0.00     0.167 HD
ATOM     48  C   UNL A   1      39.855  31.180  34.346  1.00  0.00     0.037 A 
ATOM     49  C   UNL A   1      41.862  27.347  28.893  1.00  0.00     0.037 A 
ATOM     50  C   UNL A   1      41.027  30.374  34.571  1.00  0.00     0.049 A 
ATOM     51  C   UNL A   1      42.653  27.362  30.174  1.00  0.00     0.074 A 
ATOM     52  C   UNL A   1      41.777  30.250  35.729  1.00  0.00     0.029 A 
ATOM     53  N   UNL A   1      41.623  29.560  33.621  1.00  0.00    -0.354 N 
ATOM     54  N   UNL A   1      42.400  27.992  31.293  1.00  0.00    -0.248 NA
ATOM     55  C   UNL A   1      43.884  26.556  30.206  1.00  0.00     0.031 C 
ATOM     56  C   UNL A   1      42.851  29.393  35.468  1.00  0.00     0.029 A 
ATOM     57  C   UNL A   1      42.747  28.952  34.159  1.00  0.00     0.049 A 
ATOM     58  H   UNL A   1      41.297  29.433  32.701  1.00  0.00     0.167 HD
ATOM     59  C   UNL A   1      43.422  27.647  32.166  1.00  0.00     0.074 A 
ATOM     60  C   UNL A   1      44.297  26.741  31.453  1.00  0.00     0.031 C 
ATOM     61  C   UNL A   1      43.613  28.049  33.446  1.00  0.00     0.037 A 
BRANCH  48  62
ATOM     62  C   UNL A   1      39.374  32.036  35.480  1.00  0.00     0.064 A 
ATOM     63  C   UNL A   1      38.510  31.525  36.459  1.00  0.00     0.173 A 
ATOM     64  C   UNL A   1      39.842  33.350  35.633  1.00  0.00     0.173 A 
ATOM     65  F   UNL A   1      38.035  30.276  36.355  1.00  0.00    -0.203 F 
ATOM     66  C   UNL A   1      38.118  32.305  37.544  1.00  0.00     0.198 A 
ATOM     67  C   UNL A   1      39.465  34.119  36.731  1.00  0.00     0.198 A 
ATOM     68  F   UNL A   1      40.679  33.880  34.730  1.00  0.00    -0.203 F 
ATOM     69  F   UNL A   1      37.270  31.806  38.454  1.00  0.00    -0.200 F 
ATOM     70  C   UNL A   1      38.601  33.598  37.684  1.00  0.00     0.200 A 
ATOM     71  F   UNL A   1      39.943  35.364  36.872  1.00  0.00    -0.200 F 
ATOM     72  F   UNL A   1      38.232  34.342  38.734  1.00  0.00    -0.200 F 
ENDBRANCH  48  62
BRANCH  49  73
ATOM     73  C   UNL A   1      42.277  26.482  27.760  1.00  0.00     0.064 A 
ATOM     74  C   UNL A   1      43.236  26.917  26.836  1.00  0.00     0.173 A 
ATOM     75  C   UNL A   1      41.735  25.200  27.587  1.00  0.00     0.173 A 
ATOM     76  F   UNL A   1      43.763  28.146  26.948  1.00  0.00    -0.203 F 
ATOM     77  C   UNL A   1      43.635  26.105  25.778  1.00  0.00     0.198 A 
ATOM     78  C   UNL A   1      42.151  24.380  26.540  1.00  0.00     0.198 A 
ATOM     79  F   UNL A   1      40.811  24.741  28.443  1.00  0.00    -0.203 F 
ATOM     80  F   UNL A   1      44.533  26.556  24.892  1.00  0.00    -0.200 F 
ATOM     81  C   UNL A   1      43.098  24.834  25.635  1.00  0.00     0.200 A 
ATOM     82  F   UNL A   1      41.637  23.150  26.409  1.00  0.00    -0.200 F 
ATOM     83  F   UNL A   1      43.490  24.050  24.621  1.00  0.00    -0.200 F 
ENDBRANCH  49  73
BRANCH  61  84
ATOM     84  C   UNL A   1      44.809  27.513  34.176  1.00  0.00     0.064 A 
ATOM     85  C   UNL A   1      46.014  28.227  34.223  1.00  0.00     0.173 A 
ATOM     86  C   UNL A   1      44.721  26.319  34.908  1.00  0.00     0.173 A 
ATOM     87  F   UNL A   1      46.151  29.367  33.529  1.00  0.00    -0.203 F 
ATOM     88  C   UNL A   1      47.092  27.763  34.974  1.00  0.00     0.198 A 
ATOM     89  C   UNL A   1      45.793  25.870  35.675  1.00  0.00     0.198 A 
ATOM     90  F   UNL A   1      43.588  25.603  34.901  1.00  0.00    -0.203 F 
ATOM     91  F   UNL A   1      48.242  28.451  34.988  1.00  0.00    -0.200 F 
ATOM     92  C   UNL A   1      46.977  26.592  35.707  1.00  0.00     0.200 A 
ATOM     93  F   UNL A   1      45.677  24.743  36.393  1.00  0.00    -0.200 F 
ATOM     94  F   UNL A   1      48.008  26.157  36.444  1.00  0.00    -0.200 F 
ENDBRANCH  61  84
ENDBRANCH  35  36
ENDBRANCH  27  30
ENDBRANCH  25  26
ENDBRANCH   1  25
TORSDOF 13
ENDMDL
MODEL 3
REMARK VINA RESULT:     -12.5      4.523      9.957
REMARK SMILES CC[C@@](C)(NC(=O)c1c(C)cc(C)[nH]c1=O)C(=O)NCCCNC(=O)c1ccc(-c2c3nc(c(-c4c(F)c(F)c(F)c(F)c4F)c4ccc([nH]4)c(-c4c(F)c(F)c(F)c(F)c4F)c4nc(c(-c5c(F)c(F)c(F)c(F)c5F)c5ccc2[nH]5)C=C4)C=C3)cc1
REMARK SMILES IDX 21 1 20 2 19 3 17 4 18 5 3 7 4 8 2 9 1 10 5 11 6 12 7 14
REMARK SMILES IDX 8 15 9 16 15 17 10 18 11 19 14 20 16 21 12 22 13 24 22 25
REMARK SMILES IDX 23 26 24 27 25 29 26 30 27 31 88 32 28 33 87 34 29 35 30 36
REMARK SMILES IDX 31 37 81 38 32 39 86 40 80 41 82 42 33 43 85 44 79 45 78 46
REMARK SMILES IDX 34 48 66 49 46 50 65 51 47 52 50 53 64 54 83 55 48 56 49 57
REMARK SMILES IDX 63 59 84 60 51 61 35 62 36 63 44 64 37 65 38 66 42 67 45 68
REMARK SMILES IDX 39 69 40 70 43 71 41 72 67 73 68 74 76 75 69 76 70 77 74 78
REMARK SMILES IDX 77 79 71 80 72 81 75 82 73 83 52 84 53 85 61 86 54 87 55 88
REMARK SMILES IDX 59 89 62 90 56 91 57 92 60 93 58 94
REMARK H PARENT 19 6 5 13 14 23 23 28 82 47 50 58
REMARK Flexibility Score: inf
ROOT
ATOM      1  C   UNL A   1      37.657  19.742  24.971  1.00  0.00     0.042 C 
ENDROOT
BRANCH   1   2
ATOM      2  C   UNL A   1      36.515  20.768  24.968  1.00  0.00     0.117 C 
BRANCH   2   3
ATOM      3  N   UNL A   1      36.810  22.101  25.479  1.00  0.00    -0.354 N 
ATOM      4  C   UNL A   1      36.222  23.333  25.444  1.00  0.00     0.245 C 
ATOM      5  O   UNL A   1      36.918  24.239  25.931  1.00  0.00    -0.272 OA
ATOM      6  H   UNL A   1      37.656  22.117  25.983  1.00  0.00     0.163 HD
BRANCH   4   7
ATOM      7  C   UNL A   1      34.803  23.668  24.842  1.00  0.00     0.116 C 
ATOM      8  C   UNL A   1      33.779  22.711  25.504  1.00  0.00     0.045 C 
BRANCH   7   9
ATOM      9  C   UNL A   1      34.395  25.131  25.235  1.00  0.00     0.035 C 
ATOM     10  C   UNL A   1      33.208  25.291  26.188  1.00  0.00     0.007 C 
ENDBRANCH   7   9
BRANCH   7  11
ATOM     11  N   UNL A   1      34.594  23.554  23.349  1.00  0.00    -0.338 N 
ATOM     12  C   UNL A   1      33.576  23.823  22.467  1.00  0.00     0.258 C 
ATOM     13  H   UNL A   1      35.390  23.196  22.894  1.00  0.00     0.164 HD
ATOM     14  O   UNL A   1      33.571  23.128  21.446  1.00  0.00    -0.269 OA
BRANCH  12  15
ATOM     15  C   UNL A   1      32.568  24.923  22.640  1.00  0.00     0.107 A 
ATOM     16  C   UNL A   1      31.312  24.807  23.147  1.00  0.00    -0.031 A 
ATOM     17  C   UNL A   1      32.784  26.176  21.901  1.00  0.00     0.261 A 
ATOM     18  C   UNL A   1      30.662  23.555  23.670  1.00  0.00     0.045 C 
ATOM     19  C   UNL A   1      30.404  25.972  23.174  1.00  0.00     0.025 A 
ATOM     20  N   UNL A   1      32.038  27.274  22.180  1.00  0.00    -0.326 N 
ATOM     21  O   UNL A   1      33.517  26.188  20.932  1.00  0.00    -0.269 OA
ATOM     22  C   UNL A   1      30.803  27.181  22.746  1.00  0.00     0.015 A 
ATOM     23  H   UNL A   1      32.401  28.164  21.967  1.00  0.00     0.169 HD
ATOM     24  C   UNL A   1      29.951  28.409  22.681  1.00  0.00     0.064 C 
ENDBRANCH  12  15
ENDBRANCH   7  11
ENDBRANCH   4   7
ENDBRANCH   2   3
ENDBRANCH   1   2
BRANCH   1  25
ATOM     25  C   UNL A   1      38.910  20.060  25.802  1.00  0.00     0.118 C 
BRANCH  25  26
ATOM     26  N   UNL A   1      40.065  19.217  25.586  1.00  0.00    -0.352 N 
ATOM     27  C   UNL A   1      41.354  19.393  26.032  1.00  0.00     0.251 C 
ATOM     28  H   UNL A   1      39.908  18.410  25.046  1.00  0.00     0.163 HD
ATOM     29  O   UNL A   1      42.150  18.459  25.955  1.00  0.00    -0.269 OA
BRANCH  27  30
ATOM     30  C   UNL A   1      41.847  20.707  26.522  1.00  0.00     0.039 A 
ATOM     31  C   UNL A   1      41.952  21.725  25.569  1.00  0.00     0.014 A 
ATOM     32  C   UNL A   1      42.257  20.953  27.837  1.00  0.00     0.014 A 
ATOM     33  C   UNL A   1      42.416  22.992  25.932  1.00  0.00     0.010 A 
ATOM     34  C   UNL A   1      42.693  22.238  28.210  1.00  0.00     0.010 A 
ATOM     35  C   UNL A   1      42.774  23.270  27.260  1.00  0.00    -0.014 A 
BRANCH  35  36
ATOM     36  C   UNL A   1      43.202  24.651  27.620  1.00  0.00     0.031 A 
ATOM     37  C   UNL A   1      44.599  25.131  27.344  1.00  0.00     0.074 A 
ATOM     38  C   UNL A   1      42.305  25.506  28.151  1.00  0.00     0.049 A 
ATOM     39  N   UNL A   1      45.102  26.334  27.478  1.00  0.00    -0.248 NA
ATOM     40  C   UNL A   1      45.559  24.131  26.857  1.00  0.00     0.031 C 
ATOM     41  C   UNL A   1      40.923  25.170  28.487  1.00  0.00     0.029 A 
ATOM     42  N   UNL A   1      42.414  26.837  28.481  1.00  0.00    -0.354 N 
ATOM     43  C   UNL A   1      46.427  26.242  27.078  1.00  0.00     0.074 A 
ATOM     44  C   UNL A   1      46.667  24.853  26.743  1.00  0.00     0.031 C 
ATOM     45  C   UNL A   1      40.300  26.271  28.940  1.00  0.00     0.029 A 
ATOM     46  C   UNL A   1      41.244  27.388  28.944  1.00  0.00     0.049 A 
ATOM     47  H   UNL A   1      43.252  27.347  28.395  1.00  0.00     0.167 HD
ATOM     48  C   UNL A   1      47.352  27.227  26.975  1.00  0.00     0.037 A 
ATOM     49  C   UNL A   1      40.953  28.650  29.315  1.00  0.00     0.037 A 
ATOM     50  C   UNL A   1      47.120  28.611  27.297  1.00  0.00     0.049 A 
ATOM     51  C   UNL A   1      42.011  29.717  29.228  1.00  0.00     0.074 A 
ATOM     52  C   UNL A   1      47.990  29.682  27.176  1.00  0.00     0.029 A 
ATOM     53  N   UNL A   1      45.935  29.117  27.808  1.00  0.00    -0.354 N 
ATOM     54  N   UNL A   1      43.239  29.628  28.783  1.00  0.00    -0.248 NA
ATOM     55  C   UNL A   1      41.638  31.063  29.691  1.00  0.00     0.031 C 
ATOM     56  C   UNL A   1      47.346  30.828  27.652  1.00  0.00     0.029 A 
ATOM     57  C   UNL A   1      46.061  30.479  28.033  1.00  0.00     0.049 A 
ATOM     58  H   UNL A   1      45.124  28.588  27.985  1.00  0.00     0.167 HD
ATOM     59  C   UNL A   1      43.779  30.902  28.893  1.00  0.00     0.074 A 
ATOM     60  C   UNL A   1      42.741  31.754  29.436  1.00  0.00     0.031 C 
ATOM     61  C   UNL A   1      45.026  31.323  28.571  1.00  0.00     0.037 A 
BRANCH  48  62
ATOM     62  C   UNL A   1      48.715  26.852  26.471  1.00  0.00     0.064 A 
ATOM     63  C   UNL A   1      49.674  26.287  27.324  1.00  0.00     0.173 A 
ATOM     64  C   UNL A   1      49.036  26.983  25.112  1.00  0.00     0.173 A 
ATOM     65  F   UNL A   1      49.414  26.144  28.631  1.00  0.00    -0.203 F 
ATOM     66  C   UNL A   1      50.914  25.883  26.837  1.00  0.00     0.198 A 
ATOM     67  C   UNL A   1      50.269  26.557  24.624  1.00  0.00     0.198 A 
ATOM     68  F   UNL A   1      48.148  27.506  24.254  1.00  0.00    -0.203 F 
ATOM     69  F   UNL A   1      51.826  25.372  27.674  1.00  0.00    -0.200 F 
ATOM     70  C   UNL A   1      51.208  26.010  25.487  1.00  0.00     0.200 A 
ATOM     71  F   UNL A   1      50.547  26.668  23.318  1.00  0.00    -0.200 F 
ATOM     72  F   UNL A   1      52.397  25.610  25.018  1.00  0.00    -0.200 F 
ENDBRANCH  48  62
BRANCH  49  73
ATOM     73  C   UNL A   1      39.578  28.984  29.766  1.00  0.00     0.064 A 
ATOM     74  C   UNL A   1      38.632  29.493  28.867  1.00  0.00     0.173 A 
ATOM     75  C   UNL A   1      39.181  28.789  31.096  1.00  0.00     0.173 A 
ATOM     76  F   UNL A   1      38.975  29.719  27.590  1.00  0.00    -0.203 F 
ATOM     77  C   UNL A   1      37.338  29.798  29.282  1.00  0.00     0.198 A 
ATOM     78  C   UNL A   1      37.880  29.075  31.506  1.00  0.00     0.198 A 
ATOM     79  F   UNL A   1      40.053  28.309  31.994  1.00  0.00    -0.203 F 
ATOM     80  F   UNL A   1      36.460  30.310  28.410  1.00  0.00    -0.200 F 
ATOM     81  C   UNL A   1      36.961  29.582  30.600  1.00  0.00     0.200 A 
ATOM     82  F   UNL A   1      37.516  28.857  32.777  1.00  0.00    -0.200 F 
ATOM     83  F   UNL A   1      35.713  29.868  30.996  1.00  0.00    -0.200 F 
ENDBRANCH  49  73
BRANCH  61  84
ATOM     84  C   UNL A   1      45.352  32.771  28.783  1.00  0.00     0.064 A 
ATOM     85  C   UNL A   1      45.015  33.742  27.829  1.00  0.00     0.173 A 
ATOM     86  C   UNL A   1      45.925  33.205  29.988  1.00  0.00     0.173 A 
ATOM     87  F   UNL A   1      44.477  33.375  26.655  1.00  0.00    -0.203 F 
ATOM     88  C   UNL A   1      45.244  35.094  28.071  1.00  0.00     0.198 A 
ATOM     89  C   UNL A   1      46.133  34.559  30.236  1.00  0.00     0.198 A 
ATOM     90  F   UNL A   1      46.259  32.316  30.935  1.00  0.00    -0.203 F 
ATOM     91  F   UNL A   1      44.933  36.003  27.136  1.00  0.00    -0.200 F 
ATOM     92  C   UNL A   1      45.792  35.502  29.278  1.00  0.00     0.200 A 
ATOM     93  F   UNL A   1      46.652  34.953  31.407  1.00  0.00    -0.200 F 
ATOM     94  F   UNL A   1      45.994  36.804  29.517  1.00  0.00    -0.200 F 
ENDBRANCH  61  84
ENDBRANCH  35  36
ENDBRANCH  27  30
ENDBRANCH  25  26
ENDBRANCH   1  25
TORSDOF 13
ENDMDL
