MODEL 1
REMARK VINA RESULT:     -12.3      0.000      0.000
REMARK SMILES Cc1cccc(/C=C(/F)C(=O)NCCCNC(=O)c2ccc(-c3c4nc(c(-c5c(F)c(F)c(F)c(F)c5F)c5ccc([nH]5)c(-c5c(F)c(F)c(F)c(F)c5F)c5nc(c(-c6c(F)c(F)c(F)c(F)c6F)c6ccc3[nH]6)C=C5)C=C4)cc2)c1C
REMARK SMILES IDX 14 1 13 2 12 3 10 4 11 5 8 7 7 8 9 9 6 10 1 11 2 12 3 13
REMARK SMILES IDX 82 14 4 15 83 16 5 17 15 18 16 19 17 20 18 22 19 23 20 24
REMARK SMILES IDX 81 25 21 26 80 27 22 28 23 29 24 30 74 31 25 32 79 33 73 34
REMARK SMILES IDX 75 35 26 36 78 37 72 38 71 39 27 41 59 42 39 43 58 44 40 45
REMARK SMILES IDX 43 46 57 47 76 48 41 49 42 50 56 52 77 53 44 54 28 55 29 56
REMARK SMILES IDX 37 57 30 58 31 59 35 60 38 61 32 62 33 63 36 64 34 65 60 66
REMARK SMILES IDX 61 67 69 68 62 69 63 70 67 71 70 72 64 73 65 74 68 75 66 76
REMARK SMILES IDX 45 77 46 78 54 79 47 80 48 81 52 82 55 83 49 84 50 85 53 86
REMARK SMILES IDX 51 87
REMARK H PARENT 12 6 16 21 75 40 43 51
REMARK Flexibility Score: inf
ROOT
ATOM      1  C   UNL A   1      31.423  32.052  26.831  1.00  0.00     0.042 C 
ENDROOT
BRANCH   1   2
ATOM      2  C   UNL A   1      31.759  30.719  26.160  1.00  0.00     0.118 C 
BRANCH   2   3
ATOM      3  N   UNL A   1      31.625  29.648  27.132  1.00  0.00    -0.350 N 
ATOM      4  C   UNL A   1      32.271  28.444  27.148  1.00  0.00     0.280 C 
ATOM      5  O   UNL A   1      31.638  27.429  27.425  1.00  0.00    -0.267 OA
ATOM      6  H   UNL A   1      30.992  29.810  27.869  1.00  0.00     0.163 HD
BRANCH   4   7
ATOM      7  C   UNL A   1      33.746  28.472  27.043  1.00  0.00     0.188 C 
ATOM      8  C   UNL A   1      34.455  28.015  25.999  1.00  0.00     0.053 C 
ATOM      9  F   UNL A   1      34.407  28.945  28.122  1.00  0.00    -0.201 F 
BRANCH   8  10
ATOM     10  C   UNL A   1      34.025  27.448  24.700  1.00  0.00    -0.019 A 
ATOM     11  C   UNL A   1      32.823  24.353  22.754  1.00  0.00     0.044 C 
ATOM     12  C   UNL A   1      33.288  25.747  23.096  1.00  0.00    -0.048 A 
ATOM     13  C   UNL A   1      33.295  26.710  22.077  1.00  0.00     0.004 A 
ATOM     14  C   UNL A   1      33.715  26.096  24.408  1.00  0.00    -0.041 A 
ATOM     15  C   UNL A   1      33.670  28.018  22.347  1.00  0.00     0.001 A 
ATOM     16  C   UNL A   1      33.801  24.998  25.438  1.00  0.00     0.045 C 
ATOM     17  C   UNL A   1      34.013  28.383  23.646  1.00  0.00     0.008 A 
ENDBRANCH   8  10
ENDBRANCH   4   7
ENDBRANCH   2   3
ENDBRANCH   1   2
BRANCH   1  18
ATOM     18  C   UNL A   1      32.641  32.796  27.375  1.00  0.00     0.118 C 
BRANCH  18  19
ATOM     19  N   UNL A   1      32.373  34.202  27.637  1.00  0.00    -0.352 N 
ATOM     20  C   UNL A   1      32.972  35.035  28.549  1.00  0.00     0.251 C 
ATOM     21  H   UNL A   1      31.669  34.611  27.084  1.00  0.00     0.163 HD
ATOM     22  O   UNL A   1      32.516  36.156  28.760  1.00  0.00    -0.269 OA
BRANCH  20  23
ATOM     23  C   UNL A   1      34.151  34.564  29.306  1.00  0.00     0.039 A 
ATOM     24  C   UNL A   1      33.958  33.961  30.550  1.00  0.00     0.014 A 
ATOM     25  C   UNL A   1      35.438  34.699  28.777  1.00  0.00     0.014 A 
ATOM     26  C   UNL A   1      35.050  33.423  31.233  1.00  0.00     0.010 A 
ATOM     27  C   UNL A   1      36.517  34.107  29.430  1.00  0.00     0.010 A 
ATOM     28  C   UNL A   1      36.331  33.456  30.659  1.00  0.00    -0.014 A 
BRANCH  28  29
ATOM     29  C   UNL A   1      37.489  32.795  31.313  1.00  0.00     0.031 A 
ATOM     30  C   UNL A   1      38.161  31.625  30.655  1.00  0.00     0.074 A 
ATOM     31  C   UNL A   1      37.880  33.197  32.537  1.00  0.00     0.049 A 
ATOM     32  N   UNL A   1      39.108  30.847  31.116  1.00  0.00    -0.248 NA
ATOM     33  C   UNL A   1      37.689  31.265  29.309  1.00  0.00     0.031 C 
ATOM     34  C   UNL A   1      37.284  34.296  33.298  1.00  0.00     0.029 A 
ATOM     35  N   UNL A   1      38.861  32.714  33.368  1.00  0.00    -0.354 N 
ATOM     36  C   UNL A   1      39.332  29.899  30.128  1.00  0.00     0.074 A 
ATOM     37  C   UNL A   1      38.395  30.172  29.059  1.00  0.00     0.031 C 
ATOM     38  C   UNL A   1      37.917  34.410  34.476  1.00  0.00     0.029 A 
ATOM     39  C   UNL A   1      38.935  33.369  34.573  1.00  0.00     0.049 A 
ATOM     40  H   UNL A   1      39.456  31.968  33.122  1.00  0.00     0.167 HD
ATOM     41  C   UNL A   1      40.248  28.901  30.108  1.00  0.00     0.037 A 
ATOM     42  C   UNL A   1      39.723  33.145  35.641  1.00  0.00     0.037 A 
ATOM     43  C   UNL A   1      41.196  28.647  31.160  1.00  0.00     0.049 A 
ATOM     44  C   UNL A   1      40.721  32.020  35.599  1.00  0.00     0.074 A 
ATOM     45  C   UNL A   1      42.209  27.705  31.200  1.00  0.00     0.029 A 
ATOM     46  N   UNL A   1      41.249  29.341  32.360  1.00  0.00    -0.354 N 
ATOM     47  N   UNL A   1      40.964  31.167  34.634  1.00  0.00    -0.248 NA
ATOM     48  C   UNL A   1      41.552  31.826  36.796  1.00  0.00     0.031 C 
ATOM     49  C   UNL A   1      42.848  27.800  32.441  1.00  0.00     0.029 A 
ATOM     50  C   UNL A   1      42.260  28.831  33.157  1.00  0.00     0.049 A 
ATOM     51  H   UNL A   1      40.654  30.085  32.609  1.00  0.00     0.167 HD
ATOM     52  C   UNL A   1      41.989  30.353  35.096  1.00  0.00     0.074 A 
ATOM     53  C   UNL A   1      42.331  30.820  36.423  1.00  0.00     0.031 C 
ATOM     54  C   UNL A   1      42.591  29.310  34.474  1.00  0.00     0.037 A 
BRANCH  41  55
ATOM     55  C   UNL A   1      40.270  28.005  28.905  1.00  0.00     0.064 A 
ATOM     56  C   UNL A   1      41.007  28.336  27.758  1.00  0.00     0.173 A 
ATOM     57  C   UNL A   1      39.585  26.781  28.916  1.00  0.00     0.173 A 
ATOM     58  F   UNL A   1      41.671  29.500  27.694  1.00  0.00    -0.203 F 
ATOM     59  C   UNL A   1      41.035  27.486  26.655  1.00  0.00     0.198 A 
ATOM     60  C   UNL A   1      39.636  25.922  27.822  1.00  0.00     0.198 A 
ATOM     61  F   UNL A   1      38.870  26.415  29.991  1.00  0.00    -0.203 F 
ATOM     62  F   UNL A   1      41.709  27.843  25.554  1.00  0.00    -0.200 F 
ATOM     63  C   UNL A   1      40.355  26.278  26.690  1.00  0.00     0.200 A 
ATOM     64  F   UNL A   1      38.989  24.749  27.862  1.00  0.00    -0.200 F 
ATOM     65  F   UNL A   1      40.388  25.458  25.631  1.00  0.00    -0.200 F 
ENDBRANCH  41  55
BRANCH  42  66
ATOM     66  C   UNL A   1      39.606  34.011  36.841  1.00  0.00     0.064 A 
ATOM     67  C   UNL A   1      38.816  33.621  37.932  1.00  0.00     0.173 A 
ATOM     68  C   UNL A   1      40.277  35.239  36.925  1.00  0.00     0.173 A 
ATOM     69  F   UNL A   1      38.138  32.465  37.887  1.00  0.00    -0.203 F 
ATOM     70  C   UNL A   1      38.690  34.435  39.056  1.00  0.00     0.198 A 
ATOM     71  C   UNL A   1      40.171  36.040  38.060  1.00  0.00     0.198 A 
ATOM     72  F   UNL A   1      41.047  35.655  35.908  1.00  0.00    -0.203 F 
ATOM     73  F   UNL A   1      37.899  34.057  40.069  1.00  0.00    -0.200 F 
ATOM     74  C   UNL A   1      39.373  35.640  39.122  1.00  0.00     0.200 A 
ATOM     75  F   UNL A   1      40.840  37.199  38.125  1.00  0.00    -0.200 F 
ATOM     76  F   UNL A   1      39.255  36.421  40.204  1.00  0.00    -0.200 F 
ENDBRANCH  42  66
BRANCH  54  77
ATOM     77  C   UNL A   1      43.700  28.618  35.210  1.00  0.00     0.064 A 
ATOM     78  C   UNL A   1      45.028  29.056  35.116  1.00  0.00     0.173 A 
ATOM     79  C   UNL A   1      43.421  27.533  36.056  1.00  0.00     0.173 A 
ATOM     80  F   UNL A   1      45.346  30.078  34.306  1.00  0.00    -0.203 F 
ATOM     81  C   UNL A   1      46.042  28.424  35.831  1.00  0.00     0.198 A 
ATOM     82  C   UNL A   1      44.433  26.920  36.789  1.00  0.00     0.198 A 
ATOM     83  F   UNL A   1      42.165  27.080  36.183  1.00  0.00    -0.203 F 
ATOM     84  F   UNL A   1      47.309  28.836  35.699  1.00  0.00    -0.200 F 
ATOM     85  C   UNL A   1      45.743  27.362  36.672  1.00  0.00     0.200 A 
ATOM     86  F   UNL A   1      44.142  25.901  37.609  1.00  0.00    -0.200 F 
ATOM     87  F   UNL A   1      46.718  26.761  37.367  1.00  0.00    -0.200 F 
ENDBRANCH  54  77
ENDBRANCH  28  29
ENDBRANCH  20  23
ENDBRANCH  18  19
ENDBRANCH   1  18
TORSDOF 11
ENDMDL
MODEL 2
REMARK VINA RESULT:     -12.3      0.118      2.023
REMARK SMILES Cc1cccc(/C=C(/F)C(=O)NCCCNC(=O)c2ccc(-c3c4nc(c(-c5c(F)c(F)c(F)c(F)c5F)c5ccc([nH]5)c(-c5c(F)c(F)c(F)c(F)c5F)c5nc(c(-c6c(F)c(F)c(F)c(F)c6F)c6ccc3[nH]6)C=C5)C=C4)cc2)c1C
REMARK SMILES IDX 14 1 13 2 12 3 10 4 11 5 8 7 7 8 9 9 6 10 1 11 2 12 3 13
REMARK SMILES IDX 82 14 4 15 83 16 5 17 15 18 16 19 17 20 18 22 19 23 20 24
REMARK SMILES IDX 81 25 21 26 80 27 22 28 23 29 24 30 74 31 25 32 79 33 73 34
REMARK SMILES IDX 75 35 26 36 78 37 72 38 71 39 27 41 59 42 39 43 58 44 40 45
REMARK SMILES IDX 43 46 57 47 76 48 41 49 42 50 56 52 77 53 44 54 28 55 29 56
REMARK SMILES IDX 37 57 30 58 31 59 35 60 38 61 32 62 33 63 36 64 34 65 60 66
REMARK SMILES IDX 61 67 69 68 62 69 63 70 67 71 70 72 64 73 65 74 68 75 66 76
REMARK SMILES IDX 45 77 46 78 54 79 47 80 48 81 52 82 55 83 49 84 50 85 53 86
REMARK SMILES IDX 51 87
REMARK H PARENT 12 6 16 21 75 40 43 51
REMARK Flexibility Score: inf
ROOT
ATOM      1  C   UNL A   1      31.457  32.080  26.737  1.00  0.00     0.042 C 
ENDROOT
BRANCH   1   2
ATOM      2  C   UNL A   1      31.831  30.723  26.138  1.00  0.00     0.118 C 
BRANCH   2   3
ATOM      3  N   UNL A   1      31.720  29.702  27.164  1.00  0.00    -0.350 N 
ATOM      4  C   UNL A   1      32.357  28.493  27.217  1.00  0.00     0.280 C 
ATOM      5  O   UNL A   1      31.726  27.499  27.563  1.00  0.00    -0.267 OA
ATOM      6  H   UNL A   1      31.112  29.904  27.912  1.00  0.00     0.163 HD
BRANCH   4   7
ATOM      7  C   UNL A   1      33.828  28.503  27.064  1.00  0.00     0.188 C 
ATOM      8  C   UNL A   1      34.496  28.044  25.995  1.00  0.00     0.053 C 
ATOM      9  F   UNL A   1      34.530  28.961  28.124  1.00  0.00    -0.201 F 
BRANCH   8  10
ATOM     10  C   UNL A   1      34.018  27.492  24.708  1.00  0.00    -0.019 A 
ATOM     11  C   UNL A   1      32.643  24.444  22.800  1.00  0.00     0.044 C 
ATOM     12  C   UNL A   1      33.176  25.817  23.126  1.00  0.00    -0.048 A 
ATOM     13  C   UNL A   1      33.205  26.775  22.102  1.00  0.00     0.004 A 
ATOM     14  C   UNL A   1      33.643  26.153  24.428  1.00  0.00    -0.041 A 
ATOM     15  C   UNL A   1      33.642  28.066  22.359  1.00  0.00     0.001 A 
ATOM     16  C   UNL A   1      33.701  25.056  25.461  1.00  0.00     0.045 C 
ATOM     17  C   UNL A   1      34.025  28.422  23.649  1.00  0.00     0.008 A 
ENDBRANCH   8  10
ENDBRANCH   4   7
ENDBRANCH   2   3
ENDBRANCH   1   2
BRANCH   1  18
ATOM     18  C   UNL A   1      32.615  32.784  27.444  1.00  0.00     0.118 C 
BRANCH  18  19
ATOM     19  N   UNL A   1      32.358  34.196  27.678  1.00  0.00    -0.352 N 
ATOM     20  C   UNL A   1      32.968  35.044  28.568  1.00  0.00     0.251 C 
ATOM     21  H   UNL A   1      31.652  34.598  27.122  1.00  0.00     0.163 HD
ATOM     22  O   UNL A   1      32.521  36.173  28.759  1.00  0.00    -0.269 OA
BRANCH  20  23
ATOM     23  C   UNL A   1      34.150  34.582  29.326  1.00  0.00     0.039 A 
ATOM     24  C   UNL A   1      33.970  34.077  30.615  1.00  0.00     0.014 A 
ATOM     25  C   UNL A   1      35.426  34.627  28.755  1.00  0.00     0.014 A 
ATOM     26  C   UNL A   1      35.060  33.546  31.307  1.00  0.00     0.010 A 
ATOM     27  C   UNL A   1      36.499  34.040  29.421  1.00  0.00     0.010 A 
ATOM     28  C   UNL A   1      36.325  33.486  30.698  1.00  0.00    -0.014 A 
BRANCH  28  29
ATOM     29  C   UNL A   1      37.475  32.828  31.368  1.00  0.00     0.031 A 
ATOM     30  C   UNL A   1      38.161  31.662  30.717  1.00  0.00     0.074 A 
ATOM     31  C   UNL A   1      37.846  33.228  32.599  1.00  0.00     0.049 A 
ATOM     32  N   UNL A   1      39.103  30.886  31.190  1.00  0.00    -0.248 NA
ATOM     33  C   UNL A   1      37.711  31.303  29.363  1.00  0.00     0.031 C 
ATOM     34  C   UNL A   1      37.235  34.323  33.354  1.00  0.00     0.029 A 
ATOM     35  N   UNL A   1      38.816  32.746  33.443  1.00  0.00    -0.354 N 
ATOM     36  C   UNL A   1      39.345  29.941  30.203  1.00  0.00     0.074 A 
ATOM     37  C   UNL A   1      38.425  30.214  29.121  1.00  0.00     0.031 C 
ATOM     38  C   UNL A   1      37.849  34.436  34.542  1.00  0.00     0.029 A 
ATOM     39  C   UNL A   1      38.869  33.398  34.650  1.00  0.00     0.049 A 
ATOM     40  H   UNL A   1      39.418  32.003  33.204  1.00  0.00     0.167 HD
ATOM     41  C   UNL A   1      40.266  28.947  30.195  1.00  0.00     0.037 A 
ATOM     42  C   UNL A   1      39.642  33.174  35.730  1.00  0.00     0.037 A 
ATOM     43  C   UNL A   1      41.199  28.694  31.260  1.00  0.00     0.049 A 
ATOM     44  C   UNL A   1      40.645  32.053  35.700  1.00  0.00     0.074 A 
ATOM     45  C   UNL A   1      42.214  27.755  31.313  1.00  0.00     0.029 A 
ATOM     46  N   UNL A   1      41.231  29.384  32.462  1.00  0.00    -0.354 N 
ATOM     47  N   UNL A   1      40.906  31.204  34.736  1.00  0.00    -0.248 NA
ATOM     48  C   UNL A   1      41.458  31.859  36.909  1.00  0.00     0.031 C 
ATOM     49  C   UNL A   1      42.834  27.849  32.563  1.00  0.00     0.029 A 
ATOM     50  C   UNL A   1      42.232  28.876  33.273  1.00  0.00     0.049 A 
ATOM     51  H   UNL A   1      40.630  30.126  32.704  1.00  0.00     0.167 HD
ATOM     52  C   UNL A   1      41.926  30.392  35.212  1.00  0.00     0.074 A 
ATOM     53  C   UNL A   1      42.246  30.857  36.545  1.00  0.00     0.031 C 
ATOM     54  C   UNL A   1      42.542  29.353  34.596  1.00  0.00     0.037 A 
BRANCH  41  55
ATOM     55  C   UNL A   1      40.309  28.055  28.990  1.00  0.00     0.064 A 
ATOM     56  C   UNL A   1      39.594  26.849  28.943  1.00  0.00     0.173 A 
ATOM     57  C   UNL A   1      41.038  28.430  27.851  1.00  0.00     0.173 A 
ATOM     58  F   UNL A   1      38.890  26.440  30.010  1.00  0.00    -0.203 F 
ATOM     59  C   UNL A   1      39.627  26.039  27.811  1.00  0.00     0.198 A 
ATOM     60  C   UNL A   1      41.048  27.631  26.711  1.00  0.00     0.198 A 
ATOM     61  F   UNL A   1      41.735  29.577  27.842  1.00  0.00    -0.203 F 
ATOM     62  F   UNL A   1      38.972  24.871  27.806  1.00  0.00    -0.200 F 
ATOM     63  C   UNL A   1      40.349  26.433  26.695  1.00  0.00     0.200 A 
ATOM     64  F   UNL A   1      41.736  28.019  25.628  1.00  0.00    -0.200 F 
ATOM     65  F   UNL A   1      40.375  25.657  25.603  1.00  0.00    -0.200 F 
ENDBRANCH  41  55
BRANCH  42  66
ATOM     66  C   UNL A   1      39.504  34.037  36.931  1.00  0.00     0.064 A 
ATOM     67  C   UNL A   1      40.152  35.278  36.999  1.00  0.00     0.173 A 
ATOM     68  C   UNL A   1      38.725  33.643  38.028  1.00  0.00     0.173 A 
ATOM     69  F   UNL A   1      40.925  35.686  35.982  1.00  0.00    -0.203 F 
ATOM     70  C   UNL A   1      40.038  36.088  38.128  1.00  0.00     0.198 A 
ATOM     71  C   UNL A   1      38.591  34.465  39.145  1.00  0.00     0.198 A 
ATOM     72  F   UNL A   1      38.084  32.466  38.010  1.00  0.00    -0.203 F 
ATOM     73  F   UNL A   1      40.697  37.252  38.184  1.00  0.00    -0.200 F 
ATOM     74  C   UNL A   1      39.253  35.683  39.197  1.00  0.00     0.200 A 
ATOM     75  F   UNL A   1      37.823  34.077  40.172  1.00  0.00    -0.200 F 
ATOM     76  F   UNL A   1      39.140  36.463  40.280  1.00  0.00    -0.200 F 
ENDBRANCH  42  66
BRANCH  54  77
ATOM     77  C   UNL A   1      43.641  28.663  35.347  1.00  0.00     0.064 A 
ATOM     78  C   UNL A   1      43.384  27.566  36.182  1.00  0.00     0.173 A 
ATOM     79  C   UNL A   1      44.974  29.075  35.191  1.00  0.00     0.173 A 
ATOM     80  F   UNL A   1      42.124  27.148  36.376  1.00  0.00    -0.203 F 
ATOM     81  C   UNL A   1      44.420  26.916  36.847  1.00  0.00     0.198 A 
ATOM     82  C   UNL A   1      46.009  28.406  35.837  1.00  0.00     0.198 A 
ATOM     83  F   UNL A   1      45.272  30.116  34.399  1.00  0.00    -0.203 F 
ATOM     84  F   UNL A   1      44.147  25.894  37.669  1.00  0.00    -0.200 F 
ATOM     85  C   UNL A   1      45.731  27.331  36.669  1.00  0.00     0.200 A 
ATOM     86  F   UNL A   1      47.277  28.801  35.657  1.00  0.00    -0.200 F 
ATOM     87  F   UNL A   1      46.728  26.698  37.302  1.00  0.00    -0.200 F 
ENDBRANCH  54  77
ENDBRANCH  28  29
ENDBRANCH  20  23
ENDBRANCH  18  19
ENDBRANCH   1  18
TORSDOF 11
ENDMDL
MODEL 3
REMARK VINA RESULT:     -12.3      0.486      1.283
REMARK SMILES Cc1cccc(/C=C(/F)C(=O)NCCCNC(=O)c2ccc(-c3c4nc(c(-c5c(F)c(F)c(F)c(F)c5F)c5ccc([nH]5)c(-c5c(F)c(F)c(F)c(F)c5F)c5nc(c(-c6c(F)c(F)c(F)c(F)c6F)c6ccc3[nH]6)C=C5)C=C4)cc2)c1C
REMARK SMILES IDX 14 1 13 2 12 3 10 4 11 5 8 7 7 8 9 9 6 10 1 11 2 12 3 13
REMARK SMILES IDX 82 14 4 15 83 16 5 17 15 18 16 19 17 20 18 22 19 23 20 24
REMARK SMILES IDX 81 25 21 26 80 27 22 28 23 29 24 30 74 31 25 32 79 33 73 34
REMARK SMILES IDX 75 35 26 36 78 37 72 38 71 39 27 41 59 42 39 43 58 44 40 45
REMARK SMILES IDX 43 46 57 47 76 48 41 49 42 50 56 52 77 53 44 54 28 55 29 56
REMARK SMILES IDX 37 57 30 58 31 59 35 60 38 61 32 62 33 63 36 64 34 65 60 66
REMARK SMILES IDX 61 67 69 68 62 69 63 70 67 71 70 72 64 73 65 74 68 75 66 76
REMARK SMILES IDX 45 77 46 78 54 79 47 80 48 81 52 82 55 83 49 84 50 85 53 86
REMARK SMILES IDX 51 87
REMARK H PARENT 12 6 16 21 75 40 43 51
REMARK Flexibility Score: inf
ROOT
ATOM      1  C   UNL A   1      31.488  32.067  26.698  1.00  0.00     0.042 C 
ENDROOT
BRANCH   1   2
ATOM      2  C   UNL A   1      31.832  30.683  26.143  1.00  0.00     0.118 C 
BRANCH   2   3
ATOM      3  N   UNL A   1      31.710  29.700  27.205  1.00  0.00    -0.350 N 
ATOM      4  C   UNL A   1      32.130  28.399  27.196  1.00  0.00     0.280 C 
ATOM      5  O   UNL A   1      31.401  27.531  27.666  1.00  0.00    -0.267 OA
ATOM      6  H   UNL A   1      31.272  30.008  28.032  1.00  0.00     0.163 HD
BRANCH   4   7
ATOM      7  C   UNL A   1      33.539  28.152  26.817  1.00  0.00     0.188 C 
ATOM      8  C   UNL A   1      33.939  27.414  25.771  1.00  0.00     0.053 C 
ATOM      9  F   UNL A   1      34.474  28.673  27.641  1.00  0.00    -0.201 F 
BRANCH   8  10
ATOM     10  C   UNL A   1      33.168  26.725  24.710  1.00  0.00    -0.019 A 
ATOM     11  C   UNL A   1      30.999  23.702  23.723  1.00  0.00     0.044 C 
ATOM     12  C   UNL A   1      31.805  24.976  23.663  1.00  0.00    -0.048 A 
ATOM     13  C   UNL A   1      31.829  25.686  22.454  1.00  0.00     0.004 A 
ATOM     14  C   UNL A   1      32.529  25.461  24.788  1.00  0.00    -0.041 A 
ATOM     15  C   UNL A   1      32.516  26.887  22.357  1.00  0.00     0.001 A 
ATOM     16  C   UNL A   1      32.568  24.603  26.027  1.00  0.00     0.045 C 
ATOM     17  C   UNL A   1      33.161  27.406  23.476  1.00  0.00     0.008 A 
ENDBRANCH   8  10
ENDBRANCH   4   7
ENDBRANCH   2   3
ENDBRANCH   1   2
BRANCH   1  18
ATOM     18  C   UNL A   1      32.673  32.788  27.339  1.00  0.00     0.118 C 
BRANCH  18  19
ATOM     19  N   UNL A   1      32.395  34.186  27.627  1.00  0.00    -0.352 N 
ATOM     20  C   UNL A   1      32.984  35.006  28.557  1.00  0.00     0.251 C 
ATOM     21  H   UNL A   1      31.689  34.600  27.080  1.00  0.00     0.163 HD
ATOM     22  O   UNL A   1      32.520  36.120  28.788  1.00  0.00    -0.269 OA
BRANCH  20  23
ATOM     23  C   UNL A   1      34.164  34.529  29.308  1.00  0.00     0.039 A 
ATOM     24  C   UNL A   1      33.979  33.970  30.574  1.00  0.00     0.014 A 
ATOM     25  C   UNL A   1      35.445  34.615  28.753  1.00  0.00     0.014 A 
ATOM     26  C   UNL A   1      35.069  33.426  31.255  1.00  0.00     0.010 A 
ATOM     27  C   UNL A   1      36.520  34.017  29.406  1.00  0.00     0.010 A 
ATOM     28  C   UNL A   1      36.340  33.409  30.658  1.00  0.00    -0.014 A 
BRANCH  28  29
ATOM     29  C   UNL A   1      37.493  32.740  31.313  1.00  0.00     0.031 A 
ATOM     30  C   UNL A   1      38.178  31.586  30.640  1.00  0.00     0.074 A 
ATOM     31  C   UNL A   1      37.867  33.118  32.550  1.00  0.00     0.049 A 
ATOM     32  N   UNL A   1      39.123  30.803  31.096  1.00  0.00    -0.248 NA
ATOM     33  C   UNL A   1      37.724  31.251  29.281  1.00  0.00     0.031 C 
ATOM     34  C   UNL A   1      37.257  34.199  33.326  1.00  0.00     0.029 A 
ATOM     35  N   UNL A   1      38.840  32.622  33.383  1.00  0.00    -0.354 N 
ATOM     36  C   UNL A   1      39.362  29.875  30.092  1.00  0.00     0.074 A 
ATOM     37  C   UNL A   1      38.438  30.166  29.017  1.00  0.00     0.031 C 
ATOM     38  C   UNL A   1      37.874  34.291  34.514  1.00  0.00     0.029 A 
ATOM     39  C   UNL A   1      38.896  33.252  34.601  1.00  0.00     0.049 A 
ATOM     40  H   UNL A   1      39.441  31.884  33.129  1.00  0.00     0.167 HD
ATOM     41  C   UNL A   1      40.283  28.882  30.063  1.00  0.00     0.037 A 
ATOM     42  C   UNL A   1      39.672  33.010  35.675  1.00  0.00     0.037 A 
ATOM     43  C   UNL A   1      41.220  28.611  31.122  1.00  0.00     0.049 A 
ATOM     44  C   UNL A   1      40.675  31.890  35.622  1.00  0.00     0.074 A 
ATOM     45  C   UNL A   1      42.236  27.672  31.155  1.00  0.00     0.029 A 
ATOM     46  N   UNL A   1      41.254  29.280  32.336  1.00  0.00    -0.354 N 
ATOM     47  N   UNL A   1      40.934  31.059  34.643  1.00  0.00    -0.248 NA
ATOM     48  C   UNL A   1      41.492  31.676  36.825  1.00  0.00     0.031 C 
ATOM     49  C   UNL A   1      42.859  27.744  32.406  1.00  0.00     0.029 A 
ATOM     50  C   UNL A   1      42.258  28.758  33.135  1.00  0.00     0.049 A 
ATOM     51  H   UNL A   1      40.653  30.017  32.593  1.00  0.00     0.167 HD
ATOM     52  C   UNL A   1      41.956  30.239  35.101  1.00  0.00     0.074 A 
ATOM     53  C   UNL A   1      42.280  30.681  36.441  1.00  0.00     0.031 C 
ATOM     54  C   UNL A   1      42.571  29.212  34.465  1.00  0.00     0.037 A 
BRANCH  41  55
ATOM     55  C   UNL A   1      40.324  28.011  28.843  1.00  0.00     0.064 A 
ATOM     56  C   UNL A   1      41.081  28.363  27.715  1.00  0.00     0.173 A 
ATOM     57  C   UNL A   1      39.636  26.789  28.817  1.00  0.00     0.173 A 
ATOM     58  F   UNL A   1      41.748  29.527  27.687  1.00  0.00    -0.203 F 
ATOM     59  C   UNL A   1      41.126  27.536  26.596  1.00  0.00     0.198 A 
ATOM     60  C   UNL A   1      39.705  25.952  27.707  1.00  0.00     0.198 A 
ATOM     61  F   UNL A   1      38.903  26.402  29.872  1.00  0.00    -0.203 F 
ATOM     62  F   UNL A   1      41.820  27.914  25.514  1.00  0.00    -0.200 F 
ATOM     63  C   UNL A   1      40.443  26.329  26.595  1.00  0.00     0.200 A 
ATOM     64  F   UNL A   1      39.055  24.780  27.711  1.00  0.00    -0.200 F 
ATOM     65  F   UNL A   1      40.493  25.531  25.520  1.00  0.00    -0.200 F 
ENDBRANCH  41  55
BRANCH  42  66
ATOM     66  C   UNL A   1      39.536  33.851  36.891  1.00  0.00     0.064 A 
ATOM     67  C   UNL A   1      38.725  33.442  37.959  1.00  0.00     0.173 A 
ATOM     68  C   UNL A   1      40.211  35.075  37.013  1.00  0.00     0.173 A 
ATOM     69  F   UNL A   1      38.043  32.289  37.877  1.00  0.00    -0.203 F 
ATOM     70  C   UNL A   1      38.582  34.232  39.097  1.00  0.00     0.198 A 
ATOM     71  C   UNL A   1      40.086  35.852  38.162  1.00  0.00     0.198 A 
ATOM     72  F   UNL A   1      41.000  35.509  36.019  1.00  0.00    -0.203 F 
ATOM     73  F   UNL A   1      37.771  33.836  40.087  1.00  0.00    -0.200 F 
ATOM     74  C   UNL A   1      39.268  35.433  39.200  1.00  0.00     0.200 A 
ATOM     75  F   UNL A   1      40.759  37.006  38.264  1.00  0.00    -0.200 F 
ATOM     76  F   UNL A   1      39.133  36.191  40.297  1.00  0.00    -0.200 F 
ENDBRANCH  42  66
BRANCH  54  77
ATOM     77  C   UNL A   1      43.673  28.510  35.201  1.00  0.00     0.064 A 
ATOM     78  C   UNL A   1      43.421  27.390  36.006  1.00  0.00     0.173 A 
ATOM     79  C   UNL A   1      45.004  28.934  35.059  1.00  0.00     0.173 A 
ATOM     80  F   UNL A   1      42.163  26.958  36.186  1.00  0.00    -0.203 F 
ATOM     81  C   UNL A   1      44.459  26.729  36.657  1.00  0.00     0.198 A 
ATOM     82  C   UNL A   1      46.042  28.255  35.691  1.00  0.00     0.198 A 
ATOM     83  F   UNL A   1      45.297  29.998  34.296  1.00  0.00    -0.203 F 
ATOM     84  F   UNL A   1      44.192  25.684  37.451  1.00  0.00    -0.200 F 
ATOM     85  C   UNL A   1      45.768  27.157  36.493  1.00  0.00     0.200 A 
ATOM     86  F   UNL A   1      47.307  28.663  35.524  1.00  0.00    -0.200 F 
ATOM     87  F   UNL A   1      46.767  26.514  37.112  1.00  0.00    -0.200 F 
ENDBRANCH  54  77
ENDBRANCH  28  29
ENDBRANCH  20  23
ENDBRANCH  18  19
ENDBRANCH   1  18
TORSDOF 11
ENDMDL
