MODEL 1
REMARK VINA RESULT:     -12.7      0.000      0.000
REMARK SMILES C[C@H]1[C@H](C(=O)NCCCNC(=O)c2ccc(-c3c4nc(c(-c5c(F)c(F)c(F)c(F)c5F)c5ccc([nH]5)c(-c5c(F)c(F)c(F)c(F)c5F)c5nc(c(-c6c(F)c(F)c(F)c(F)c6F)c6ccc3[nH]6)C=C5)C=C4)cc2)CCN1c1ncnc2sccc12
REMARK SMILES IDX 8 1 7 2 6 3 4 4 5 5 3 7 1 8 2 9 78 10 76 11 77 12 79 13
REMARK SMILES IDX 80 14 87 15 81 16 83 17 86 18 82 19 84 20 85 21 9 22 10 23
REMARK SMILES IDX 11 24 12 26 13 27 14 28 75 29 15 30 74 31 16 32 17 33 18 34
REMARK SMILES IDX 68 35 19 36 73 37 67 38 69 39 20 40 72 41 66 42 65 43 21 45
REMARK SMILES IDX 53 46 33 47 52 48 34 49 37 50 51 51 70 52 35 53 36 54 50 56
REMARK SMILES IDX 71 57 38 58 22 59 23 60 31 61 24 62 25 63 29 64 32 65 26 66
REMARK SMILES IDX 27 67 30 68 28 69 54 70 55 71 63 72 56 73 57 74 61 75 64 76
REMARK SMILES IDX 58 77 59 78 62 79 60 80 39 81 40 82 48 83 41 84 42 85 46 86
REMARK SMILES IDX 49 87 43 88 44 89 47 90 45 91
REMARK H PARENT 6 6 10 25 69 44 37 55
REMARK Flexibility Score: inf
ROOT
ATOM      1  C   UNL A   1      31.450  32.324  26.622  1.00  0.00     0.042 C 
ENDROOT
BRANCH   1   2
ATOM      2  C   UNL A   1      31.597  30.819  26.431  1.00  0.00     0.117 C 
BRANCH   2   3
ATOM      3  N   UNL A   1      31.088  30.370  25.146  1.00  0.00    -0.356 N 
ATOM      4  C   UNL A   1      31.576  29.474  24.250  1.00  0.00     0.225 C 
ATOM      5  O   UNL A   1      30.936  29.322  23.205  1.00  0.00    -0.275 OA
ATOM      6  H   UNL A   1      30.240  30.791  24.877  1.00  0.00     0.163 HD
BRANCH   4   7
ATOM      7  C   UNL A   1      32.838  28.661  24.491  1.00  0.00     0.102 C 
ATOM      8  C   UNL A   1      33.711  28.018  26.764  1.00  0.00     0.032 C 
ATOM      9  C   UNL A   1      32.701  27.682  25.664  1.00  0.00     0.093 C 
ATOM     10  N   UNL A   1      32.969  26.361  25.081  1.00  0.00    -0.352 N 
ATOM     11  C   UNL A   1      33.293  27.863  23.275  1.00  0.00     0.037 C 
ATOM     12  C   UNL A   1      33.540  26.438  23.754  1.00  0.00     0.119 C 
BRANCH  10  13
ATOM     13  C   UNL A   1      32.647  25.205  25.760  1.00  0.00     0.141 A 
ATOM     14  N   UNL A   1      31.341  25.045  26.111  1.00  0.00    -0.219 NA
ATOM     15  C   UNL A   1      33.538  24.151  26.109  1.00  0.00     0.054 A 
ATOM     16  C   UNL A   1      30.944  23.947  26.768  1.00  0.00     0.225 A 
ATOM     17  C   UNL A   1      32.973  23.059  26.762  1.00  0.00     0.128 A 
ATOM     18  C   UNL A   1      34.954  23.925  25.947  1.00  0.00     0.026 A 
ATOM     19  N   UNL A   1      31.689  22.905  27.117  1.00  0.00    -0.225 NA
ATOM     20  S   UNL A   1      34.093  21.819  27.110  1.00  0.00    -0.124 S 
ATOM     21  C   UNL A   1      35.376  22.703  26.424  1.00  0.00     0.068 A 
ENDBRANCH  10  13
ENDBRANCH   4   7
ENDBRANCH   2   3
ENDBRANCH   1   2
BRANCH   1  22
ATOM     22  C   UNL A   1      32.719  33.011  27.110  1.00  0.00     0.118 C 
BRANCH  22  23
ATOM     23  N   UNL A   1      32.468  34.345  27.637  1.00  0.00    -0.352 N 
ATOM     24  C   UNL A   1      33.014  34.990  28.716  1.00  0.00     0.251 C 
ATOM     25  H   UNL A   1      31.799  34.868  27.138  1.00  0.00     0.163 HD
ATOM     26  O   UNL A   1      32.518  36.050  29.103  1.00  0.00    -0.269 OA
BRANCH  24  27
ATOM     27  C   UNL A   1      34.178  34.426  29.432  1.00  0.00     0.039 A 
ATOM     28  C   UNL A   1      33.962  33.746  30.634  1.00  0.00     0.014 A 
ATOM     29  C   UNL A   1      35.479  34.593  28.952  1.00  0.00     0.014 A 
ATOM     30  C   UNL A   1      35.040  33.183  31.319  1.00  0.00     0.010 A 
ATOM     31  C   UNL A   1      36.543  33.962  29.591  1.00  0.00     0.010 A 
ATOM     32  C   UNL A   1      36.337  33.256  30.784  1.00  0.00    -0.014 A 
BRANCH  32  33
ATOM     33  C   UNL A   1      37.482  32.599  31.464  1.00  0.00     0.031 A 
ATOM     34  C   UNL A   1      38.197  31.450  30.809  1.00  0.00     0.074 A 
ATOM     35  C   UNL A   1      37.840  33.001  32.698  1.00  0.00     0.049 A 
ATOM     36  N   UNL A   1      39.185  30.720  31.267  1.00  0.00    -0.248 NA
ATOM     37  C   UNL A   1      37.723  31.047  29.477  1.00  0.00     0.031 C 
ATOM     38  C   UNL A   1      37.186  34.065  33.462  1.00  0.00     0.029 A 
ATOM     39  N   UNL A   1      38.837  32.558  33.531  1.00  0.00    -0.354 N 
ATOM     40  C   UNL A   1      39.440  29.771  30.286  1.00  0.00     0.074 A 
ATOM     41  C   UNL A   1      38.467  29.978  29.235  1.00  0.00     0.031 C 
ATOM     42  C   UNL A   1      37.810  34.206  34.641  1.00  0.00     0.029 A 
ATOM     43  C   UNL A   1      38.887  33.224  34.730  1.00  0.00     0.049 A 
ATOM     44  H   UNL A   1      39.456  31.832  33.291  1.00  0.00     0.167 HD
ATOM     45  C   UNL A   1      40.412  28.828  30.253  1.00  0.00     0.037 A 
ATOM     46  C   UNL A   1      39.707  33.059  35.785  1.00  0.00     0.037 A 
ATOM     47  C   UNL A   1      41.392  28.638  31.290  1.00  0.00     0.049 A 
ATOM     48  C   UNL A   1      40.788  32.016  35.718  1.00  0.00     0.074 A 
ATOM     49  C   UNL A   1      42.451  27.748  31.328  1.00  0.00     0.029 A 
ATOM     50  N   UNL A   1      41.430  29.352  32.480  1.00  0.00    -0.354 N 
ATOM     51  N   UNL A   1      41.063  31.170  34.755  1.00  0.00    -0.248 NA
ATOM     52  C   UNL A   1      41.682  31.914  36.880  1.00  0.00     0.031 C 
ATOM     53  C   UNL A   1      43.105  27.896  32.555  1.00  0.00     0.029 A 
ATOM     54  C   UNL A   1      42.484  28.911  33.264  1.00  0.00     0.049 A 
ATOM     55  H   UNL A   1      40.801  30.067  32.730  1.00  0.00     0.167 HD
ATOM     56  C   UNL A   1      42.169  30.449  35.184  1.00  0.00     0.074 A 
ATOM     57  C   UNL A   1      42.529  30.974  36.485  1.00  0.00     0.031 C 
ATOM     58  C   UNL A   1      42.827  29.443  34.559  1.00  0.00     0.037 A 
BRANCH  45  59
ATOM     59  C   UNL A   1      40.469  27.936  29.046  1.00  0.00     0.064 A 
ATOM     60  C   UNL A   1      41.280  28.243  27.942  1.00  0.00     0.173 A 
ATOM     61  C   UNL A   1      39.728  26.745  29.002  1.00  0.00     0.173 A 
ATOM     62  F   UNL A   1      41.999  29.376  27.928  1.00  0.00    -0.203 F 
ATOM     63  C   UNL A   1      41.322  27.410  26.828  1.00  0.00     0.198 A 
ATOM     64  C   UNL A   1      39.796  25.899  27.899  1.00  0.00     0.198 A 
ATOM     65  F   UNL A   1      38.941  26.398  30.033  1.00  0.00    -0.203 F 
ATOM     66  F   UNL A   1      42.062  27.753  25.765  1.00  0.00    -0.200 F 
ATOM     67  C   UNL A   1      40.585  26.236  26.809  1.00  0.00     0.200 A 
ATOM     68  F   UNL A   1      39.094  24.757  27.888  1.00  0.00    -0.200 F 
ATOM     69  F   UNL A   1      40.630  25.432  25.738  1.00  0.00    -0.200 F 
ENDBRANCH  45  59
BRANCH  46  70
ATOM     70  C   UNL A   1      39.553  33.924  36.983  1.00  0.00     0.064 A 
ATOM     71  C   UNL A   1      40.144  35.195  37.034  1.00  0.00     0.173 A 
ATOM     72  C   UNL A   1      38.809  33.504  38.095  1.00  0.00     0.173 A 
ATOM     73  F   UNL A   1      40.881  35.632  36.004  1.00  0.00    -0.203 F 
ATOM     74  C   UNL A   1      40.012  36.004  38.161  1.00  0.00     0.198 A 
ATOM     75  C   UNL A   1      38.655  34.325  39.210  1.00  0.00     0.198 A 
ATOM     76  F   UNL A   1      38.219  32.300  38.092  1.00  0.00    -0.203 F 
ATOM     77  F   UNL A   1      40.624  37.195  38.201  1.00  0.00    -0.200 F 
ATOM     78  C   UNL A   1      39.263  35.571  39.245  1.00  0.00     0.200 A 
ATOM     79  F   UNL A   1      37.919  33.909  40.248  1.00  0.00    -0.200 F 
ATOM     80  F   UNL A   1      39.133  36.352  40.326  1.00  0.00    -0.200 F 
ENDBRANCH  46  70
BRANCH  58  81
ATOM     81  C   UNL A   1      44.014  28.859  35.266  1.00  0.00     0.064 A 
ATOM     82  C   UNL A   1      43.880  27.805  36.182  1.00  0.00     0.173 A 
ATOM     83  C   UNL A   1      45.306  29.343  35.006  1.00  0.00     0.173 A 
ATOM     84  F   UNL A   1      42.665  27.317  36.476  1.00  0.00    -0.203 F 
ATOM     85  C   UNL A   1      44.991  27.279  36.836  1.00  0.00     0.198 A 
ATOM     86  C   UNL A   1      46.417  28.795  35.639  1.00  0.00     0.198 A 
ATOM     87  F   UNL A   1      45.490  30.346  34.133  1.00  0.00    -0.203 F 
ATOM     88  F   UNL A   1      44.834  26.310  37.748  1.00  0.00    -0.200 F 
ATOM     89  C   UNL A   1      46.259  27.770  36.559  1.00  0.00     0.200 A 
ATOM     90  F   UNL A   1      47.643  29.262  35.362  1.00  0.00    -0.200 F 
ATOM     91  F   UNL A   1      47.327  27.261  37.188  1.00  0.00    -0.200 F 
ENDBRANCH  58  81
ENDBRANCH  32  33
ENDBRANCH  24  27
ENDBRANCH  22  23
ENDBRANCH   1  22
TORSDOF 11
ENDMDL
MODEL 2
REMARK VINA RESULT:     -12.7      0.123      1.616
REMARK SMILES C[C@H]1[C@H](C(=O)NCCCNC(=O)c2ccc(-c3c4nc(c(-c5c(F)c(F)c(F)c(F)c5F)c5ccc([nH]5)c(-c5c(F)c(F)c(F)c(F)c5F)c5nc(c(-c6c(F)c(F)c(F)c(F)c6F)c6ccc3[nH]6)C=C5)C=C4)cc2)CCN1c1ncnc2sccc12
REMARK SMILES IDX 8 1 7 2 6 3 4 4 5 5 3 7 1 8 2 9 78 10 76 11 77 12 79 13
REMARK SMILES IDX 80 14 87 15 81 16 83 17 86 18 82 19 84 20 85 21 9 22 10 23
REMARK SMILES IDX 11 24 12 26 13 27 14 28 75 29 15 30 74 31 16 32 17 33 18 34
REMARK SMILES IDX 68 35 19 36 73 37 67 38 69 39 20 40 72 41 66 42 65 43 21 45
REMARK SMILES IDX 53 46 33 47 52 48 34 49 37 50 51 51 70 52 35 53 36 54 50 56
REMARK SMILES IDX 71 57 38 58 22 59 23 60 31 61 24 62 25 63 29 64 32 65 26 66
REMARK SMILES IDX 27 67 30 68 28 69 54 70 55 71 63 72 56 73 57 74 61 75 64 76
REMARK SMILES IDX 58 77 59 78 62 79 60 80 39 81 40 82 48 83 41 84 42 85 46 86
REMARK SMILES IDX 49 87 43 88 44 89 47 90 45 91
REMARK H PARENT 6 6 10 25 69 44 37 55
REMARK Flexibility Score: inf
ROOT
ATOM      1  C   UNL A   1      31.403  32.268  26.503  1.00  0.00     0.042 C 
ENDROOT
BRANCH   1   2
ATOM      2  C   UNL A   1      31.468  30.757  26.324  1.00  0.00     0.117 C 
BRANCH   2   3
ATOM      3  N   UNL A   1      31.028  30.335  25.005  1.00  0.00    -0.356 N 
ATOM      4  C   UNL A   1      31.562  29.456  24.117  1.00  0.00     0.225 C 
ATOM      5  O   UNL A   1      30.978  29.326  23.038  1.00  0.00    -0.275 OA
ATOM      6  H   UNL A   1      30.195  30.761  24.700  1.00  0.00     0.163 HD
BRANCH   4   7
ATOM      7  C   UNL A   1      32.810  28.637  24.408  1.00  0.00     0.102 C 
ATOM      8  C   UNL A   1      33.620  28.037  26.715  1.00  0.00     0.032 C 
ATOM      9  C   UNL A   1      32.634  27.685  25.597  1.00  0.00     0.093 C 
ATOM     10  N   UNL A   1      32.904  26.350  25.051  1.00  0.00    -0.352 N 
ATOM     11  C   UNL A   1      33.287  27.809  23.221  1.00  0.00     0.037 C 
ATOM     12  C   UNL A   1      33.509  26.393  23.737  1.00  0.00     0.119 C 
BRANCH  10  13
ATOM     13  C   UNL A   1      32.554  25.212  25.746  1.00  0.00     0.141 A 
ATOM     14  N   UNL A   1      31.241  25.078  26.079  1.00  0.00    -0.219 NA
ATOM     15  C   UNL A   1      33.423  24.151  26.129  1.00  0.00     0.054 A 
ATOM     16  C   UNL A   1      30.817  23.999  26.750  1.00  0.00     0.225 A 
ATOM     17  C   UNL A   1      32.832  23.081  26.793  1.00  0.00     0.128 A 
ATOM     18  C   UNL A   1      34.838  23.902  25.993  1.00  0.00     0.026 A 
ATOM     19  N   UNL A   1      31.541  22.953  27.131  1.00  0.00    -0.225 NA
ATOM     20  S   UNL A   1      33.927  21.831  27.182  1.00  0.00    -0.124 S 
ATOM     21  C   UNL A   1      35.234  22.683  26.499  1.00  0.00     0.068 A 
ENDBRANCH  10  13
ENDBRANCH   4   7
ENDBRANCH   2   3
ENDBRANCH   1   2
BRANCH   1  22
ATOM     22  C   UNL A   1      32.640  32.866  27.161  1.00  0.00     0.118 C 
BRANCH  22  23
ATOM     23  N   UNL A   1      32.426  34.230  27.626  1.00  0.00    -0.352 N 
ATOM     24  C   UNL A   1      32.996  34.912  28.668  1.00  0.00     0.251 C 
ATOM     25  H   UNL A   1      31.765  34.744  27.107  1.00  0.00     0.163 HD
ATOM     26  O   UNL A   1      32.529  36.001  29.007  1.00  0.00    -0.269 OA
BRANCH  24  27
ATOM     27  C   UNL A   1      34.152  34.355  29.401  1.00  0.00     0.039 A 
ATOM     28  C   UNL A   1      33.921  33.657  30.590  1.00  0.00     0.014 A 
ATOM     29  C   UNL A   1      35.461  34.545  28.950  1.00  0.00     0.014 A 
ATOM     30  C   UNL A   1      34.992  33.100  31.291  1.00  0.00     0.010 A 
ATOM     31  C   UNL A   1      36.520  33.921  29.604  1.00  0.00     0.010 A 
ATOM     32  C   UNL A   1      36.298  33.198  30.784  1.00  0.00    -0.014 A 
BRANCH  32  33
ATOM     33  C   UNL A   1      37.439  32.547  31.480  1.00  0.00     0.031 A 
ATOM     34  C   UNL A   1      38.161  31.393  30.842  1.00  0.00     0.074 A 
ATOM     35  C   UNL A   1      37.784  32.961  32.714  1.00  0.00     0.049 A 
ATOM     36  N   UNL A   1      39.145  30.669  31.315  1.00  0.00    -0.248 NA
ATOM     37  C   UNL A   1      37.698  30.979  29.508  1.00  0.00     0.031 C 
ATOM     38  C   UNL A   1      37.123  34.030  33.463  1.00  0.00     0.029 A 
ATOM     39  N   UNL A   1      38.774  32.525  33.559  1.00  0.00    -0.354 N 
ATOM     40  C   UNL A   1      39.410  29.712  30.343  1.00  0.00     0.074 A 
ATOM     41  C   UNL A   1      38.446  29.908  29.282  1.00  0.00     0.031 C 
ATOM     42  C   UNL A   1      37.736  34.182  34.646  1.00  0.00     0.029 A 
ATOM     43  C   UNL A   1      38.813  33.202  34.753  1.00  0.00     0.049 A 
ATOM     44  H   UNL A   1      39.396  31.798  33.331  1.00  0.00     0.167 HD
ATOM     45  C   UNL A   1      40.383  28.769  30.327  1.00  0.00     0.037 A 
ATOM     46  C   UNL A   1      39.624  33.047  35.817  1.00  0.00     0.037 A 
ATOM     47  C   UNL A   1      41.353  28.589  31.375  1.00  0.00     0.049 A 
ATOM     48  C   UNL A   1      40.707  32.005  35.768  1.00  0.00     0.074 A 
ATOM     49  C   UNL A   1      42.413  27.701  31.429  1.00  0.00     0.029 A 
ATOM     50  N   UNL A   1      41.380  29.314  32.559  1.00  0.00    -0.354 N 
ATOM     51  N   UNL A   1      40.991  31.150  34.815  1.00  0.00    -0.248 NA
ATOM     52  C   UNL A   1      41.590  31.914  36.939  1.00  0.00     0.031 C 
ATOM     53  C   UNL A   1      43.056  27.860  32.662  1.00  0.00     0.029 A 
ATOM     54  C   UNL A   1      42.428  28.880  33.356  1.00  0.00     0.049 A 
ATOM     55  H   UNL A   1      40.748  30.030  32.797  1.00  0.00     0.167 HD
ATOM     56  C   UNL A   1      42.094  30.435  35.260  1.00  0.00     0.074 A 
ATOM     57  C   UNL A   1      42.442  30.971  36.560  1.00  0.00     0.031 C 
ATOM     58  C   UNL A   1      42.758  29.424  34.649  1.00  0.00     0.037 A 
BRANCH  45  59
ATOM     59  C   UNL A   1      40.451  27.868  29.129  1.00  0.00     0.064 A 
ATOM     60  C   UNL A   1      39.688  26.692  29.049  1.00  0.00     0.173 A 
ATOM     61  C   UNL A   1      41.265  28.195  28.033  1.00  0.00     0.173 A 
ATOM     62  F   UNL A   1      38.903  26.327  30.074  1.00  0.00    -0.203 F 
ATOM     63  C   UNL A   1      39.761  25.862  27.934  1.00  0.00     0.198 A 
ATOM     64  C   UNL A   1      41.312  27.378  26.906  1.00  0.00     0.198 A 
ATOM     65  F   UNL A   1      42.010  29.310  28.052  1.00  0.00    -0.203 F 
ATOM     66  F   UNL A   1      39.064  24.718  27.906  1.00  0.00    -0.200 F 
ATOM     67  C   UNL A   1      40.568  26.208  26.861  1.00  0.00     0.200 A 
ATOM     68  F   UNL A   1      42.082  27.721  25.864  1.00  0.00    -0.200 F 
ATOM     69  F   UNL A   1      40.634  25.411  25.787  1.00  0.00    -0.200 F 
ENDBRANCH  45  59
BRANCH  46  70
ATOM     70  C   UNL A   1      39.458  33.922  37.006  1.00  0.00     0.064 A 
ATOM     71  C   UNL A   1      40.048  35.193  37.052  1.00  0.00     0.173 A 
ATOM     72  C   UNL A   1      38.703  33.511  38.114  1.00  0.00     0.173 A 
ATOM     73  F   UNL A   1      40.796  35.621  36.025  1.00  0.00    -0.203 F 
ATOM     74  C   UNL A   1      39.906  36.011  38.171  1.00  0.00     0.198 A 
ATOM     75  C   UNL A   1      38.539  34.342  39.220  1.00  0.00     0.198 A 
ATOM     76  F   UNL A   1      38.113  32.307  38.115  1.00  0.00    -0.203 F 
ATOM     77  F   UNL A   1      40.517  37.203  38.207  1.00  0.00    -0.200 F 
ATOM     78  C   UNL A   1      39.146  35.587  39.251  1.00  0.00     0.200 A 
ATOM     79  F   UNL A   1      37.792  33.934  40.255  1.00  0.00    -0.200 F 
ATOM     80  F   UNL A   1      39.006  36.377  40.325  1.00  0.00    -0.200 F 
ENDBRANCH  46  70
BRANCH  58  81
ATOM     81  C   UNL A   1      43.940  28.847  35.372  1.00  0.00     0.064 A 
ATOM     82  C   UNL A   1      45.241  29.323  35.151  1.00  0.00     0.173 A 
ATOM     83  C   UNL A   1      43.767  27.822  36.314  1.00  0.00     0.173 A 
ATOM     84  F   UNL A   1      45.462  30.292  34.249  1.00  0.00    -0.203 F 
ATOM     85  C   UNL A   1      46.329  28.772  35.823  1.00  0.00     0.198 A 
ATOM     86  C   UNL A   1      44.852  27.294  37.007  1.00  0.00     0.198 A 
ATOM     87  F   UNL A   1      42.542  27.335  36.567  1.00  0.00    -0.203 F 
ATOM     88  F   UNL A   1      47.569  29.205  35.557  1.00  0.00    -0.200 F 
ATOM     89  C   UNL A   1      46.133  27.763  36.755  1.00  0.00     0.200 A 
ATOM     90  F   UNL A   1      44.661  26.327  37.915  1.00  0.00    -0.200 F 
ATOM     91  F   UNL A   1      47.180  27.235  37.403  1.00  0.00    -0.200 F 
ENDBRANCH  58  81
ENDBRANCH  32  33
ENDBRANCH  24  27
ENDBRANCH  22  23
ENDBRANCH   1  22
TORSDOF 11
ENDMDL
MODEL 3
REMARK VINA RESULT:     -12.7      0.148      1.617
REMARK SMILES C[C@H]1[C@H](C(=O)NCCCNC(=O)c2ccc(-c3c4nc(c(-c5c(F)c(F)c(F)c(F)c5F)c5ccc([nH]5)c(-c5c(F)c(F)c(F)c(F)c5F)c5nc(c(-c6c(F)c(F)c(F)c(F)c6F)c6ccc3[nH]6)C=C5)C=C4)cc2)CCN1c1ncnc2sccc12
REMARK SMILES IDX 8 1 7 2 6 3 4 4 5 5 3 7 1 8 2 9 78 10 76 11 77 12 79 13
REMARK SMILES IDX 80 14 87 15 81 16 83 17 86 18 82 19 84 20 85 21 9 22 10 23
REMARK SMILES IDX 11 24 12 26 13 27 14 28 75 29 15 30 74 31 16 32 17 33 18 34
REMARK SMILES IDX 68 35 19 36 73 37 67 38 69 39 20 40 72 41 66 42 65 43 21 45
REMARK SMILES IDX 53 46 33 47 52 48 34 49 37 50 51 51 70 52 35 53 36 54 50 56
REMARK SMILES IDX 71 57 38 58 22 59 23 60 31 61 24 62 25 63 29 64 32 65 26 66
REMARK SMILES IDX 27 67 30 68 28 69 54 70 55 71 63 72 56 73 57 74 61 75 64 76
REMARK SMILES IDX 58 77 59 78 62 79 60 80 39 81 40 82 48 83 41 84 42 85 46 86
REMARK SMILES IDX 49 87 43 88 44 89 47 90 45 91
REMARK H PARENT 6 6 10 25 69 44 37 55
REMARK Flexibility Score: inf
ROOT
ATOM      1  C   UNL A   1      31.429  32.280  26.545  1.00  0.00     0.042 C 
ENDROOT
BRANCH   1   2
ATOM      2  C   UNL A   1      31.549  30.775  26.343  1.00  0.00     0.117 C 
BRANCH   2   3
ATOM      3  N   UNL A   1      31.045  30.346  25.049  1.00  0.00    -0.356 N 
ATOM      4  C   UNL A   1      31.511  29.430  24.162  1.00  0.00     0.225 C 
ATOM      5  O   UNL A   1      30.884  29.304  23.106  1.00  0.00    -0.275 OA
ATOM      6  H   UNL A   1      30.218  30.800  24.766  1.00  0.00     0.163 HD
BRANCH   4   7
ATOM      7  C   UNL A   1      32.736  28.568  24.424  1.00  0.00     0.102 C 
ATOM      8  C   UNL A   1      33.562  27.918  26.712  1.00  0.00     0.032 C 
ATOM      9  C   UNL A   1      32.547  27.610  25.608  1.00  0.00     0.093 C 
ATOM     10  N   UNL A   1      32.763  26.272  25.045  1.00  0.00    -0.352 N 
ATOM     11  C   UNL A   1      33.166  27.735  23.222  1.00  0.00     0.037 C 
ATOM     12  C   UNL A   1      33.348  26.308  23.721  1.00  0.00     0.119 C 
BRANCH  10  13
ATOM     13  C   UNL A   1      32.387  25.140  25.735  1.00  0.00     0.141 A 
ATOM     14  N   UNL A   1      31.059  25.001  26.005  1.00  0.00    -0.219 NA
ATOM     15  C   UNL A   1      33.242  24.089  26.172  1.00  0.00     0.054 A 
ATOM     16  C   UNL A   1      30.610  23.927  26.667  1.00  0.00     0.225 A 
ATOM     17  C   UNL A   1      32.626  23.023  26.819  1.00  0.00     0.128 A 
ATOM     18  C   UNL A   1      34.664  23.848  26.110  1.00  0.00     0.026 A 
ATOM     19  N   UNL A   1      31.320  22.890  27.095  1.00  0.00    -0.225 NA
ATOM     20  S   UNL A   1      33.708  21.785  27.276  1.00  0.00    -0.124 S 
ATOM     21  C   UNL A   1      35.042  22.638  26.649  1.00  0.00     0.068 A 
ENDBRANCH  10  13
ENDBRANCH   4   7
ENDBRANCH   2   3
ENDBRANCH   1   2
BRANCH   1  22
ATOM     22  C   UNL A   1      32.693  32.933  27.088  1.00  0.00     0.118 C 
BRANCH  22  23
ATOM     23  N   UNL A   1      32.460  34.281  27.588  1.00  0.00    -0.352 N 
ATOM     24  C   UNL A   1      33.021  34.945  28.647  1.00  0.00     0.251 C 
ATOM     25  H   UNL A   1      31.792  34.799  27.081  1.00  0.00     0.163 HD
ATOM     26  O   UNL A   1      32.538  36.018  29.013  1.00  0.00    -0.269 OA
BRANCH  24  27
ATOM     27  C   UNL A   1      34.185  34.386  29.365  1.00  0.00     0.039 A 
ATOM     28  C   UNL A   1      33.963  33.650  30.534  1.00  0.00     0.014 A 
ATOM     29  C   UNL A   1      35.491  34.611  28.923  1.00  0.00     0.014 A 
ATOM     30  C   UNL A   1      35.043  33.091  31.220  1.00  0.00     0.010 A 
ATOM     31  C   UNL A   1      36.560  33.986  29.561  1.00  0.00     0.010 A 
ATOM     32  C   UNL A   1      36.348  33.225  30.719  1.00  0.00    -0.014 A 
BRANCH  32  33
ATOM     33  C   UNL A   1      37.498  32.574  31.398  1.00  0.00     0.031 A 
ATOM     34  C   UNL A   1      38.212  31.422  30.747  1.00  0.00     0.074 A 
ATOM     35  C   UNL A   1      37.860  32.985  32.628  1.00  0.00     0.049 A 
ATOM     36  N   UNL A   1      39.203  30.697  31.205  1.00  0.00    -0.248 NA
ATOM     37  C   UNL A   1      37.732  31.010  29.419  1.00  0.00     0.031 C 
ATOM     38  C   UNL A   1      37.207  34.052  33.389  1.00  0.00     0.029 A 
ATOM     39  N   UNL A   1      38.861  32.548  33.459  1.00  0.00    -0.354 N 
ATOM     40  C   UNL A   1      39.455  29.742  30.229  1.00  0.00     0.074 A 
ATOM     41  C   UNL A   1      38.478  29.941  29.180  1.00  0.00     0.031 C 
ATOM     42  C   UNL A   1      37.837  34.201  34.564  1.00  0.00     0.029 A 
ATOM     43  C   UNL A   1      38.915  33.222  34.654  1.00  0.00     0.049 A 
ATOM     44  H   UNL A   1      39.480  31.822  33.221  1.00  0.00     0.167 HD
ATOM     45  C   UNL A   1      40.429  28.801  30.197  1.00  0.00     0.037 A 
ATOM     46  C   UNL A   1      39.740  33.065  35.707  1.00  0.00     0.037 A 
ATOM     47  C   UNL A   1      41.413  28.619  31.231  1.00  0.00     0.049 A 
ATOM     48  C   UNL A   1      40.823  32.024  35.641  1.00  0.00     0.074 A 
ATOM     49  C   UNL A   1      42.474  27.731  31.270  1.00  0.00     0.029 A 
ATOM     50  N   UNL A   1      41.456  29.341  32.416  1.00  0.00    -0.354 N 
ATOM     51  N   UNL A   1      41.096  31.172  34.682  1.00  0.00    -0.248 NA
ATOM     52  C   UNL A   1      41.722  31.930  36.799  1.00  0.00     0.031 C 
ATOM     53  C   UNL A   1      43.134  27.887  32.494  1.00  0.00     0.029 A 
ATOM     54  C   UNL A   1      42.514  28.906  33.198  1.00  0.00     0.049 A 
ATOM     55  H   UNL A   1      40.826  30.056  32.665  1.00  0.00     0.167 HD
ATOM     56  C   UNL A   1      42.204  30.456  35.111  1.00  0.00     0.074 A 
ATOM     57  C   UNL A   1      42.569  30.989  36.407  1.00  0.00     0.031 C 
ATOM     58  C   UNL A   1      42.861  29.447  34.489  1.00  0.00     0.037 A 
BRANCH  45  59
ATOM     59  C   UNL A   1      40.482  27.902  28.996  1.00  0.00     0.064 A 
ATOM     60  C   UNL A   1      41.295  28.199  27.890  1.00  0.00     0.173 A 
ATOM     61  C   UNL A   1      39.736  26.714  28.959  1.00  0.00     0.173 A 
ATOM     62  F   UNL A   1      42.019  29.328  27.870  1.00  0.00    -0.203 F 
ATOM     63  C   UNL A   1      41.333  27.359  26.781  1.00  0.00     0.198 A 
ATOM     64  C   UNL A   1      39.800  25.860  27.860  1.00  0.00     0.198 A 
ATOM     65  F   UNL A   1      38.947  26.377  29.991  1.00  0.00    -0.203 F 
ATOM     66  F   UNL A   1      42.076  27.692  25.716  1.00  0.00    -0.200 F 
ATOM     67  C   UNL A   1      40.591  26.188  26.769  1.00  0.00     0.200 A 
ATOM     68  F   UNL A   1      39.093  24.722  27.856  1.00  0.00    -0.200 F 
ATOM     69  F   UNL A   1      40.633  25.378  25.703  1.00  0.00    -0.200 F 
ENDBRANCH  45  59
BRANCH  46  70
ATOM     70  C   UNL A   1      39.590  33.937  36.900  1.00  0.00     0.064 A 
ATOM     71  C   UNL A   1      38.808  33.534  37.991  1.00  0.00     0.173 A 
ATOM     72  C   UNL A   1      40.228  35.184  36.977  1.00  0.00     0.173 A 
ATOM     73  F   UNL A   1      38.163  32.360  37.956  1.00  0.00    -0.203 F 
ATOM     74  C   UNL A   1      38.654  34.355  39.107  1.00  0.00     0.198 A 
ATOM     75  C   UNL A   1      40.095  35.991  38.104  1.00  0.00     0.198 A 
ATOM     76  F   UNL A   1      40.992  35.611  35.960  1.00  0.00    -0.203 F 
ATOM     77  F   UNL A   1      37.866  33.965  40.117  1.00  0.00    -0.200 F 
ATOM     78  C   UNL A   1      39.303  35.580  39.165  1.00  0.00     0.200 A 
ATOM     79  F   UNL A   1      40.734  37.166  38.162  1.00  0.00    -0.200 F 
ATOM     80  F   UNL A   1      39.157  36.367  40.240  1.00  0.00    -0.200 F 
ENDBRANCH  46  70
BRANCH  58  81
ATOM     81  C   UNL A   1      44.053  28.869  35.194  1.00  0.00     0.064 A 
ATOM     82  C   UNL A   1      45.342  29.389  35.006  1.00  0.00     0.173 A 
ATOM     83  C   UNL A   1      43.901  27.797  36.087  1.00  0.00     0.173 A 
ATOM     84  F   UNL A   1      45.543  30.404  34.152  1.00  0.00    -0.203 F 
ATOM     85  C   UNL A   1      46.440  28.837  35.662  1.00  0.00     0.198 A 
ATOM     86  C   UNL A   1      44.995  27.267  36.764  1.00  0.00     0.198 A 
ATOM     87  F   UNL A   1      42.688  27.267  36.307  1.00  0.00    -0.203 F 
ATOM     88  F   UNL A   1      47.669  29.315  35.426  1.00  0.00    -0.200 F 
ATOM     89  C   UNL A   1      46.264  27.781  36.545  1.00  0.00     0.200 A 
ATOM     90  F   UNL A   1      44.823  26.255  37.626  1.00  0.00    -0.200 F 
ATOM     91  F   UNL A   1      47.321  27.253  37.177  1.00  0.00    -0.200 F 
ENDBRANCH  58  81
ENDBRANCH  32  33
ENDBRANCH  24  27
ENDBRANCH  22  23
ENDBRANCH   1  22
TORSDOF 11
ENDMDL
