MODEL 1
REMARK VINA RESULT:     -13.6      0.000      0.000
REMARK SMILES Cc1cc(C)c(S(=O)(=O)Nc2ccc(N3CC[NH+](C)CC3)c(C(=O)NCCCNC(=O)c3ccc(-c4c5nc(c(-c6c(F)c(F)c(F)c(F)c6F)c6ccc([nH]6)c(-c6c(F)c(F)c(F)c(F)c6F)c6nc(c(-c7c(F)c(F)c(F)c(F)c7F)c7ccc4[nH]7)C=C6)C=C5)cc3)c2)c(C)c1
REMARK SMILES IDX 26 1 25 2 23 3 24 4 22 6 11 7 12 8 95 9 13 10 14 11 10 12
REMARK SMILES IDX 7 14 8 15 9 16 6 17 1 18 2 19 3 20 98 21 4 22 96 23 5 24
REMARK SMILES IDX 97 25 15 26 16 27 21 28 17 29 20 30 18 31 19 32 27 34 28 35
REMARK SMILES IDX 29 36 30 37 31 39 32 40 33 41 94 42 34 43 93 44 35 45 36 46
REMARK SMILES IDX 37 47 87 48 38 49 92 50 86 51 88 52 39 53 91 54 85 55 84 56
REMARK SMILES IDX 40 58 72 59 52 60 71 61 53 62 56 63 70 64 89 65 54 66 55 67
REMARK SMILES IDX 69 69 90 70 57 71 41 72 42 73 50 74 43 75 44 76 48 77 51 78
REMARK SMILES IDX 45 79 46 80 49 81 47 82 73 83 74 84 82 85 75 86 76 87 80 88
REMARK SMILES IDX 83 89 77 90 78 91 81 92 79 93 58 94 59 95 67 96 60 97 61 98
REMARK SMILES IDX 65 99 68 100 62 101 63 102 66 103 64 104
REMARK H PARENT 25 5 10 13 18 33 29 38 88 57 56 68
REMARK Flexibility Score: inf
ROOT
ATOM      1  C   UNL A   1      37.203  20.991  24.815  1.00  0.00     0.118 C 
ENDROOT
BRANCH   1   2
ATOM      2  N   UNL A   1      36.316  21.045  25.957  1.00  0.00    -0.352 N 
ATOM      3  C   UNL A   1      34.993  21.384  26.107  1.00  0.00     0.253 C 
ATOM      4  O   UNL A   1      34.626  21.511  27.274  1.00  0.00    -0.269 OA
ATOM      5  H   UNL A   1      36.750  20.785  26.801  1.00  0.00     0.163 HD
BRANCH   3   6
ATOM      6  C   UNL A   1      34.050  21.603  24.958  1.00  0.00     0.065 A 
ATOM      7  C   UNL A   1      33.292  23.011  23.126  1.00  0.00     0.050 A 
ATOM      8  C   UNL A   1      32.327  22.071  22.789  1.00  0.00     0.029 A 
ATOM      9  C   UNL A   1      34.018  22.847  24.299  1.00  0.00     0.042 A 
ATOM     10  C   UNL A   1      32.294  20.857  23.463  1.00  0.00     0.029 A 
ATOM     11  C   UNL A   1      33.227  20.551  24.472  1.00  0.00     0.050 A 
BRANCH   7  12
ATOM     12  N   UNL A   1      33.545  24.024  22.164  1.00  0.00    -0.280 N 
ATOM     13  H   UNL A   1      34.314  23.880  21.567  1.00  0.00     0.180 HD
BRANCH  12  14
ATOM     14  S   UNL A   1      32.680  25.436  21.935  1.00  0.00     0.262 S 
ATOM     15  O   UNL A   1      31.279  25.042  21.866  1.00  0.00    -0.201 OA
ATOM     16  O   UNL A   1      33.323  26.093  20.824  1.00  0.00    -0.201 OA
BRANCH  14  17
ATOM     17  C   UNL A   1      32.815  26.569  23.335  1.00  0.00     0.093 A 
ATOM     18  C   UNL A   1      33.868  28.390  27.126  1.00  0.00     0.044 C 
ATOM     19  C   UNL A   1      33.460  27.797  25.811  1.00  0.00    -0.051 A 
ATOM     20  C   UNL A   1      32.502  26.789  25.755  1.00  0.00     0.008 A 
ATOM     21  C   UNL A   1      33.966  28.291  24.609  1.00  0.00     0.008 A 
ATOM     22  C   UNL A   1      32.165  26.169  24.536  1.00  0.00    -0.030 A 
ATOM     23  C   UNL A   1      33.620  27.726  23.358  1.00  0.00    -0.030 A 
ATOM     24  C   UNL A   1      31.030  25.172  24.605  1.00  0.00     0.046 C 
ATOM     25  C   UNL A   1      34.127  28.474  22.163  1.00  0.00     0.046 C 
ENDBRANCH  14  17
ENDBRANCH  12  14
ENDBRANCH   7  12
BRANCH  11  26
ATOM     26  N   UNL A   1      33.407  19.218  24.800  1.00  0.00    -0.360 N 
ATOM     27  C   UNL A   1      34.559  18.447  24.319  1.00  0.00     0.178 C 
ATOM     28  C   UNL A   1      32.834  18.695  26.050  1.00  0.00     0.178 C 
ATOM     29  C   UNL A   1      34.121  16.973  24.123  1.00  0.00     0.283 C 
ATOM     30  C   UNL A   1      32.455  17.209  25.872  1.00  0.00     0.283 C 
ATOM     31  N   UNL A   1      33.571  16.374  25.371  1.00  0.00    -0.334 N 
ATOM     32  C   UNL A   1      33.103  15.013  25.123  1.00  0.00     0.332 C 
ATOM     33  H   UNL A   1      34.311  16.339  26.072  1.00  0.00     0.347 HD
ENDBRANCH  11  26
ENDBRANCH   3   6
ENDBRANCH   1   2
BRANCH   1  34
ATOM     34  C   UNL A   1      38.213  19.855  24.963  1.00  0.00     0.042 C 
BRANCH  34  35
ATOM     35  C   UNL A   1      39.214  20.091  26.086  1.00  0.00     0.118 C 
BRANCH  35  36
ATOM     36  N   UNL A   1      40.331  19.162  26.024  1.00  0.00    -0.352 N 
ATOM     37  C   UNL A   1      41.677  19.425  26.055  1.00  0.00     0.251 C 
ATOM     38  H   UNL A   1      40.088  18.211  25.949  1.00  0.00     0.163 HD
ATOM     39  O   UNL A   1      42.478  18.532  25.796  1.00  0.00    -0.269 OA
BRANCH  37  40
ATOM     40  C   UNL A   1      42.167  20.781  26.387  1.00  0.00     0.039 A 
ATOM     41  C   UNL A   1      42.288  21.137  27.734  1.00  0.00     0.014 A 
ATOM     42  C   UNL A   1      42.464  21.713  25.389  1.00  0.00     0.014 A 
ATOM     43  C   UNL A   1      42.730  22.415  28.078  1.00  0.00     0.010 A 
ATOM     44  C   UNL A   1      42.969  22.965  25.731  1.00  0.00     0.010 A 
ATOM     45  C   UNL A   1      43.085  23.335  27.079  1.00  0.00    -0.014 A 
BRANCH  45  46
ATOM     46  C   UNL A   1      43.527  24.707  27.428  1.00  0.00     0.031 A 
ATOM     47  C   UNL A   1      42.518  25.732  27.862  1.00  0.00     0.074 A 
ATOM     48  C   UNL A   1      44.824  25.044  27.306  1.00  0.00     0.049 A 
ATOM     49  N   UNL A   1      42.692  26.995  28.159  1.00  0.00    -0.248 NA
ATOM     50  C   UNL A   1      41.118  25.285  27.944  1.00  0.00     0.031 C 
ATOM     51  C   UNL A   1      45.890  24.156  26.840  1.00  0.00     0.029 A 
ATOM     52  N   UNL A   1      45.466  26.230  27.558  1.00  0.00    -0.354 N 
ATOM     53  C   UNL A   1      41.426  27.497  28.429  1.00  0.00     0.074 A 
ATOM     54  C   UNL A   1      40.488  26.415  28.226  1.00  0.00     0.031 C 
ATOM     55  C   UNL A   1      47.056  24.821  26.859  1.00  0.00     0.029 A 
ATOM     56  C   UNL A   1      46.816  26.186  27.318  1.00  0.00     0.049 A 
ATOM     57  H   UNL A   1      45.001  27.036  27.881  1.00  0.00     0.167 HD
ATOM     58  C   UNL A   1      41.079  28.742  28.831  1.00  0.00     0.037 A 
ATOM     59  C   UNL A   1      47.754  27.142  27.459  1.00  0.00     0.037 A 
ATOM     60  C   UNL A   1      42.018  29.802  29.085  1.00  0.00     0.049 A 
ATOM     61  C   UNL A   1      47.353  28.496  27.974  1.00  0.00     0.074 A 
ATOM     62  C   UNL A   1      41.776  31.076  29.567  1.00  0.00     0.029 A 
ATOM     63  N   UNL A   1      43.387  29.701  28.887  1.00  0.00    -0.354 N 
ATOM     64  N   UNL A   1      46.162  28.942  28.287  1.00  0.00    -0.248 NA
ATOM     65  C   UNL A   1      48.432  29.477  28.166  1.00  0.00     0.031 C 
ATOM     66  C   UNL A   1      42.998  31.755  29.638  1.00  0.00     0.029 A 
ATOM     67  C   UNL A   1      44.003  30.893  29.230  1.00  0.00     0.049 A 
ATOM     68  H   UNL A   1      43.852  28.901  28.551  1.00  0.00     0.167 HD
ATOM     69  C   UNL A   1      46.346  30.243  28.733  1.00  0.00     0.074 A 
ATOM     70  C   UNL A   1      47.768  30.511  28.663  1.00  0.00     0.031 C 
ATOM     71  C   UNL A   1      45.420  31.135  29.161  1.00  0.00     0.037 A 
BRANCH  58  72
ATOM     72  C   UNL A   1      39.619  29.022  29.028  1.00  0.00     0.064 A 
ATOM     73  C   UNL A   1      39.007  28.884  30.283  1.00  0.00     0.173 A 
ATOM     74  C   UNL A   1      38.824  29.449  27.953  1.00  0.00     0.173 A 
ATOM     75  F   UNL A   1      39.721  28.464  31.339  1.00  0.00    -0.203 F 
ATOM     76  C   UNL A   1      37.648  29.133  30.449  1.00  0.00     0.198 A 
ATOM     77  C   UNL A   1      37.471  29.723  28.128  1.00  0.00     0.198 A 
ATOM     78  F   UNL A   1      39.361  29.600  26.734  1.00  0.00    -0.203 F 
ATOM     79  F   UNL A   1      37.074  28.947  31.646  1.00  0.00    -0.200 F 
ATOM     80  C   UNL A   1      36.882  29.557  29.373  1.00  0.00     0.200 A 
ATOM     81  F   UNL A   1      36.733  30.140  27.091  1.00  0.00    -0.200 F 
ATOM     82  F   UNL A   1      35.574  29.798  29.534  1.00  0.00    -0.200 F 
ENDBRANCH  58  72
BRANCH  59  83
ATOM     83  C   UNL A   1      49.172  26.830  27.154  1.00  0.00     0.064 A 
ATOM     84  C   UNL A   1      50.033  26.360  28.155  1.00  0.00     0.173 A 
ATOM     85  C   UNL A   1      49.691  26.980  25.861  1.00  0.00     0.173 A 
ATOM     86  F   UNL A   1      49.585  26.221  29.412  1.00  0.00    -0.203 F 
ATOM     87  C   UNL A   1      51.365  26.065  27.877  1.00  0.00     0.198 A 
ATOM     88  C   UNL A   1      51.019  26.663  25.579  1.00  0.00     0.198 A 
ATOM     89  F   UNL A   1      48.904  27.422  24.870  1.00  0.00    -0.203 F 
ATOM     90  F   UNL A   1      52.177  25.650  28.859  1.00  0.00    -0.200 F 
ATOM     91  C   UNL A   1      51.856  26.212  26.588  1.00  0.00     0.200 A 
ATOM     92  F   UNL A   1      51.487  26.798  24.331  1.00  0.00    -0.200 F 
ATOM     93  F   UNL A   1      53.137  25.923  26.320  1.00  0.00    -0.200 F 
ENDBRANCH  59  83
BRANCH  71  94
ATOM     94  C   UNL A   1      45.919  32.474  29.611  1.00  0.00     0.064 A 
ATOM     95  C   UNL A   1      46.032  33.549  28.720  1.00  0.00     0.173 A 
ATOM     96  C   UNL A   1      46.251  32.692  30.956  1.00  0.00     0.173 A 
ATOM     97  F   UNL A   1      45.740  33.383  27.421  1.00  0.00    -0.203 F 
ATOM     98  C   UNL A   1      46.479  34.793  29.156  1.00  0.00     0.198 A 
ATOM     99  C   UNL A   1      46.676  33.944  31.393  1.00  0.00     0.198 A 
ATOM    100  F   UNL A   1      46.155  31.694  31.847  1.00  0.00    -0.203 F 
ATOM    101  F   UNL A   1      46.616  35.799  28.280  1.00  0.00    -0.200 F 
ATOM    102  C   UNL A   1      46.795  34.991  30.492  1.00  0.00     0.200 A 
ATOM    103  F   UNL A   1      46.974  34.135  32.686  1.00  0.00    -0.200 F 
ATOM    104  F   UNL A   1      47.222  36.190  30.910  1.00  0.00    -0.200 F 
ENDBRANCH  71  94
ENDBRANCH  45  46
ENDBRANCH  37  40
ENDBRANCH  35  36
ENDBRANCH  34  35
ENDBRANCH   1  34
TORSDOF 14
ENDMDL
MODEL 2
REMARK VINA RESULT:     -13.4      0.647      6.959
REMARK SMILES Cc1cc(C)c(S(=O)(=O)Nc2ccc(N3CC[NH+](C)CC3)c(C(=O)NCCCNC(=O)c3ccc(-c4c5nc(c(-c6c(F)c(F)c(F)c(F)c6F)c6ccc([nH]6)c(-c6c(F)c(F)c(F)c(F)c6F)c6nc(c(-c7c(F)c(F)c(F)c(F)c7F)c7ccc4[nH]7)C=C6)C=C5)cc3)c2)c(C)c1
REMARK SMILES IDX 26 1 25 2 23 3 24 4 22 6 11 7 12 8 95 9 13 10 14 11 10 12
REMARK SMILES IDX 7 14 8 15 9 16 6 17 1 18 2 19 3 20 98 21 4 22 96 23 5 24
REMARK SMILES IDX 97 25 15 26 16 27 21 28 17 29 20 30 18 31 19 32 27 34 28 35
REMARK SMILES IDX 29 36 30 37 31 39 32 40 33 41 94 42 34 43 93 44 35 45 36 46
REMARK SMILES IDX 37 47 87 48 38 49 92 50 86 51 88 52 39 53 91 54 85 55 84 56
REMARK SMILES IDX 40 58 72 59 52 60 71 61 53 62 56 63 70 64 89 65 54 66 55 67
REMARK SMILES IDX 69 69 90 70 57 71 41 72 42 73 50 74 43 75 44 76 48 77 51 78
REMARK SMILES IDX 45 79 46 80 49 81 47 82 73 83 74 84 82 85 75 86 76 87 80 88
REMARK SMILES IDX 83 89 77 90 78 91 81 92 79 93 58 94 59 95 67 96 60 97 61 98
REMARK SMILES IDX 65 99 68 100 62 101 63 102 66 103 64 104
REMARK H PARENT 25 5 10 13 18 33 29 38 88 57 56 68
REMARK Flexibility Score: inf
ROOT
ATOM      1  C   UNL A   1      37.236  21.069  24.800  1.00  0.00     0.118 C 
ENDROOT
BRANCH   1   2
ATOM      2  N   UNL A   1      36.369  21.098  25.959  1.00  0.00    -0.352 N 
ATOM      3  C   UNL A   1      35.045  21.420  26.136  1.00  0.00     0.253 C 
ATOM      4  O   UNL A   1      34.697  21.528  27.311  1.00  0.00    -0.269 OA
ATOM      5  H   UNL A   1      36.821  20.833  26.792  1.00  0.00     0.163 HD
BRANCH   3   6
ATOM      6  C   UNL A   1      34.079  21.642  25.007  1.00  0.00     0.065 A 
ATOM      7  C   UNL A   1      33.284  23.055  23.194  1.00  0.00     0.050 A 
ATOM      8  C   UNL A   1      32.312  22.116  22.874  1.00  0.00     0.029 A 
ATOM      9  C   UNL A   1      34.033  22.888  24.352  1.00  0.00     0.042 A 
ATOM     10  C   UNL A   1      32.293  20.899  23.545  1.00  0.00     0.029 A 
ATOM     11  C   UNL A   1      33.247  20.591  24.534  1.00  0.00     0.050 A 
BRANCH   7  12
ATOM     12  N   UNL A   1      33.517  24.071  22.230  1.00  0.00    -0.280 N 
ATOM     13  H   UNL A   1      34.278  23.932  21.621  1.00  0.00     0.180 HD
BRANCH  12  14
ATOM     14  S   UNL A   1      32.642  25.479  22.017  1.00  0.00     0.262 S 
ATOM     15  O   UNL A   1      31.240  25.083  22.007  1.00  0.00    -0.201 OA
ATOM     16  O   UNL A   1      33.240  26.123  20.874  1.00  0.00    -0.201 OA
BRANCH  14  17
ATOM     17  C   UNL A   1      32.829  26.629  23.397  1.00  0.00     0.093 A 
ATOM     18  C   UNL A   1      34.011  28.492  27.129  1.00  0.00     0.044 C 
ATOM     19  C   UNL A   1      33.558  27.885  25.835  1.00  0.00    -0.051 A 
ATOM     20  C   UNL A   1      32.590  26.886  25.822  1.00  0.00     0.008 A 
ATOM     21  C   UNL A   1      34.032  28.358  24.611  1.00  0.00     0.008 A 
ATOM     22  C   UNL A   1      32.211  26.252  24.622  1.00  0.00    -0.030 A 
ATOM     23  C   UNL A   1      33.644  27.780  23.380  1.00  0.00    -0.030 A 
ATOM     24  C   UNL A   1      31.070  25.267  24.739  1.00  0.00     0.046 C 
ATOM     25  C   UNL A   1      34.121  28.506  22.159  1.00  0.00     0.046 C 
ENDBRANCH  14  17
ENDBRANCH  12  14
ENDBRANCH   7  12
BRANCH  11  26
ATOM     26  N   UNL A   1      33.434  19.257  24.855  1.00  0.00    -0.360 N 
ATOM     27  C   UNL A   1      34.575  18.487  24.345  1.00  0.00     0.178 C 
ATOM     28  C   UNL A   1      32.890  18.730  26.116  1.00  0.00     0.178 C 
ATOM     29  C   UNL A   1      34.132  17.014  24.155  1.00  0.00     0.283 C 
ATOM     30  C   UNL A   1      32.507  17.245  25.943  1.00  0.00     0.283 C 
ATOM     31  N   UNL A   1      33.610  16.412  25.414  1.00  0.00    -0.334 N 
ATOM     32  C   UNL A   1      33.136  15.051  25.174  1.00  0.00     0.332 C 
ATOM     33  H   UNL A   1      34.367  16.375  26.098  1.00  0.00     0.347 HD
ENDBRANCH  11  26
ENDBRANCH   3   6
ENDBRANCH   1   2
BRANCH   1  34
ATOM     34  C   UNL A   1      38.257  19.939  24.913  1.00  0.00     0.042 C 
BRANCH  34  35
ATOM     35  C   UNL A   1      39.145  20.059  26.144  1.00  0.00     0.118 C 
BRANCH  35  36
ATOM     36  N   UNL A   1      40.308  19.189  26.064  1.00  0.00    -0.352 N 
ATOM     37  C   UNL A   1      41.638  19.522  26.064  1.00  0.00     0.251 C 
ATOM     38  H   UNL A   1      40.113  18.227  26.000  1.00  0.00     0.163 HD
ATOM     39  O   UNL A   1      42.479  18.670  25.794  1.00  0.00    -0.269 OA
BRANCH  37  40
ATOM     40  C   UNL A   1      42.064  20.904  26.377  1.00  0.00     0.039 A 
ATOM     41  C   UNL A   1      42.289  21.248  27.713  1.00  0.00     0.014 A 
ATOM     42  C   UNL A   1      42.199  21.869  25.375  1.00  0.00     0.014 A 
ATOM     43  C   UNL A   1      42.673  22.549  28.041  1.00  0.00     0.010 A 
ATOM     44  C   UNL A   1      42.648  23.148  25.694  1.00  0.00     0.010 A 
ATOM     45  C   UNL A   1      42.867  23.506  27.033  1.00  0.00    -0.014 A 
BRANCH  45  46
ATOM     46  C   UNL A   1      43.246  24.901  27.366  1.00  0.00     0.031 A 
ATOM     47  C   UNL A   1      44.652  25.374  27.127  1.00  0.00     0.074 A 
ATOM     48  C   UNL A   1      42.342  25.723  27.929  1.00  0.00     0.049 A 
ATOM     49  N   UNL A   1      45.195  26.533  27.397  1.00  0.00    -0.248 NA
ATOM     50  C   UNL A   1      45.582  24.401  26.531  1.00  0.00     0.031 C 
ATOM     51  C   UNL A   1      40.963  25.364  28.264  1.00  0.00     0.029 A 
ATOM     52  N   UNL A   1      42.451  27.032  28.326  1.00  0.00    -0.354 N 
ATOM     53  C   UNL A   1      46.530  26.418  27.037  1.00  0.00     0.074 A 
ATOM     54  C   UNL A   1      46.727  25.066  26.563  1.00  0.00     0.031 C 
ATOM     55  C   UNL A   1      40.348  26.432  28.796  1.00  0.00     0.029 A 
ATOM     56  C   UNL A   1      41.294  27.543  28.859  1.00  0.00     0.049 A 
ATOM     57  H   UNL A   1      43.281  27.555  28.236  1.00  0.00     0.167 HD
ATOM     58  C   UNL A   1      47.501  27.361  27.077  1.00  0.00     0.037 A 
ATOM     59  C   UNL A   1      41.028  28.773  29.338  1.00  0.00     0.037 A 
ATOM     60  C   UNL A   1      47.292  28.720  27.497  1.00  0.00     0.049 A 
ATOM     61  C   UNL A   1      42.104  29.823  29.307  1.00  0.00     0.074 A 
ATOM     62  C   UNL A   1      48.190  29.772  27.504  1.00  0.00     0.029 A 
ATOM     63  N   UNL A   1      46.088  29.217  27.975  1.00  0.00    -0.354 N 
ATOM     64  N   UNL A   1      43.346  29.721  28.905  1.00  0.00    -0.248 NA
ATOM     65  C   UNL A   1      41.735  31.163  29.787  1.00  0.00     0.031 C 
ATOM     66  C   UNL A   1      47.537  30.902  28.009  1.00  0.00     0.029 A 
ATOM     67  C   UNL A   1      46.222  30.560  28.287  1.00  0.00     0.049 A 
ATOM     68  H   UNL A   1      45.262  28.693  28.079  1.00  0.00     0.167 HD
ATOM     69  C   UNL A   1      43.902  30.983  29.060  1.00  0.00     0.074 A 
ATOM     70  C   UNL A   1      42.856  31.839  29.582  1.00  0.00     0.031 C 
ATOM     71  C   UNL A   1      45.166  31.395  28.796  1.00  0.00     0.037 A 
BRANCH  58  72
ATOM     72  C   UNL A   1      48.879  26.952  26.646  1.00  0.00     0.064 A 
ATOM     73  C   UNL A   1      49.818  26.456  27.562  1.00  0.00     0.173 A 
ATOM     74  C   UNL A   1      49.258  27.043  25.298  1.00  0.00     0.173 A 
ATOM     75  F   UNL A   1      49.508  26.365  28.864  1.00  0.00    -0.203 F 
ATOM     76  C   UNL A   1      51.097  26.094  27.150  1.00  0.00     0.198 A 
ATOM     77  C   UNL A   1      50.530  26.654  24.885  1.00  0.00     0.198 A 
ATOM     78  F   UNL A   1      48.396  27.507  24.382  1.00  0.00    -0.203 F 
ATOM     79  F   UNL A   1      51.995  25.668  28.050  1.00  0.00    -0.200 F 
ATOM     80  C   UNL A   1      51.451  26.188  25.812  1.00  0.00     0.200 A 
ATOM     81  F   UNL A   1      50.868  26.738  23.592  1.00  0.00    -0.200 F 
ATOM     82  F   UNL A   1      52.682  25.837  25.417  1.00  0.00    -0.200 F 
ENDBRANCH  58  72
BRANCH  59  83
ATOM     83  C   UNL A   1      39.669  29.086  29.842  1.00  0.00     0.064 A 
ATOM     84  C   UNL A   1      39.361  28.948  31.203  1.00  0.00     0.173 A 
ATOM     85  C   UNL A   1      38.658  29.541  28.985  1.00  0.00     0.173 A 
ATOM     86  F   UNL A   1      40.292  28.497  32.057  1.00  0.00    -0.203 F 
ATOM     87  C   UNL A   1      38.087  29.241  31.685  1.00  0.00     0.198 A 
ATOM     88  C   UNL A   1      37.391  29.854  29.471  1.00  0.00     0.198 A 
ATOM     89  F   UNL A   1      38.907  29.692  27.676  1.00  0.00    -0.203 F 
ATOM     90  F   UNL A   1      37.809  29.068  32.984  1.00  0.00    -0.200 F 
ATOM     91  C   UNL A   1      37.105  29.698  30.819  1.00  0.00     0.200 A 
ATOM     92  F   UNL A   1      36.446  30.303  28.635  1.00  0.00    -0.200 F 
ATOM     93  F   UNL A   1      35.880  29.984  31.284  1.00  0.00    -0.200 F 
ENDBRANCH  59  83
BRANCH  71  94
ATOM     94  C   UNL A   1      45.479  32.840  29.041  1.00  0.00     0.064 A 
ATOM     95  C   UNL A   1      45.977  33.281  30.274  1.00  0.00     0.173 A 
ATOM     96  C   UNL A   1      45.313  33.784  28.018  1.00  0.00     0.173 A 
ATOM     97  F   UNL A   1      46.138  32.415  31.286  1.00  0.00    -0.203 F 
ATOM     98  C   UNL A   1      46.281  34.623  30.481  1.00  0.00     0.198 A 
ATOM     99  C   UNL A   1      45.639  35.122  28.222  1.00  0.00     0.198 A 
ATOM    100  F   UNL A   1      44.842  33.409  26.820  1.00  0.00    -0.203 F 
ATOM    101  F   UNL A   1      46.722  35.030  31.680  1.00  0.00    -0.200 F 
ATOM    102  C   UNL A   1      46.118  35.541  29.455  1.00  0.00     0.200 A 
ATOM    103  F   UNL A   1      45.487  36.007  27.227  1.00  0.00    -0.200 F 
ATOM    104  F   UNL A   1      46.414  36.832  29.655  1.00  0.00    -0.200 F 
ENDBRANCH  71  94
ENDBRANCH  45  46
ENDBRANCH  37  40
ENDBRANCH  35  36
ENDBRANCH  34  35
ENDBRANCH   1  34
TORSDOF 14
ENDMDL
MODEL 3
REMARK VINA RESULT:     -13.3      3.008      8.159
REMARK SMILES Cc1cc(C)c(S(=O)(=O)Nc2ccc(N3CC[NH+](C)CC3)c(C(=O)NCCCNC(=O)c3ccc(-c4c5nc(c(-c6c(F)c(F)c(F)c(F)c6F)c6ccc([nH]6)c(-c6c(F)c(F)c(F)c(F)c6F)c6nc(c(-c7c(F)c(F)c(F)c(F)c7F)c7ccc4[nH]7)C=C6)C=C5)cc3)c2)c(C)c1
REMARK SMILES IDX 26 1 25 2 23 3 24 4 22 6 11 7 12 8 95 9 13 10 14 11 10 12
REMARK SMILES IDX 7 14 8 15 9 16 6 17 1 18 2 19 3 20 98 21 4 22 96 23 5 24
REMARK SMILES IDX 97 25 15 26 16 27 21 28 17 29 20 30 18 31 19 32 27 34 28 35
REMARK SMILES IDX 29 36 30 37 31 39 32 40 33 41 94 42 34 43 93 44 35 45 36 46
REMARK SMILES IDX 37 47 87 48 38 49 92 50 86 51 88 52 39 53 91 54 85 55 84 56
REMARK SMILES IDX 40 58 72 59 52 60 71 61 53 62 56 63 70 64 89 65 54 66 55 67
REMARK SMILES IDX 69 69 90 70 57 71 41 72 42 73 50 74 43 75 44 76 48 77 51 78
REMARK SMILES IDX 45 79 46 80 49 81 47 82 73 83 74 84 82 85 75 86 76 87 80 88
REMARK SMILES IDX 83 89 77 90 78 91 81 92 79 93 58 94 59 95 67 96 60 97 61 98
REMARK SMILES IDX 65 99 68 100 62 101 63 102 66 103 64 104
REMARK H PARENT 25 5 10 13 18 33 29 38 88 57 56 68
REMARK Flexibility Score: inf
ROOT
ATOM      1  C   UNL A   1      36.611  22.766  23.565  1.00  0.00     0.118 C 
ENDROOT
BRANCH   1   2
ATOM      2  N   UNL A   1      35.407  22.958  22.784  1.00  0.00    -0.352 N 
ATOM      3  C   UNL A   1      34.072  22.991  23.105  1.00  0.00     0.253 C 
ATOM      4  O   UNL A   1      33.312  22.972  22.139  1.00  0.00    -0.269 OA
ATOM      5  H   UNL A   1      35.581  23.093  21.825  1.00  0.00     0.163 HD
BRANCH   3   6
ATOM      6  C   UNL A   1      33.550  23.032  24.515  1.00  0.00     0.065 A 
ATOM      7  C   UNL A   1      32.463  24.279  26.297  1.00  0.00     0.050 A 
ATOM      8  C   UNL A   1      32.543  23.173  27.133  1.00  0.00     0.029 A 
ATOM      9  C   UNL A   1      33.116  24.250  25.071  1.00  0.00     0.042 A 
ATOM     10  C   UNL A   1      33.024  21.970  26.630  1.00  0.00     0.029 A 
ATOM     11  C   UNL A   1      33.421  21.844  25.285  1.00  0.00     0.050 A 
BRANCH   7  12
ATOM     12  N   UNL A   1      31.605  25.327  26.722  1.00  0.00    -0.280 N 
ATOM     13  H   UNL A   1      30.725  25.057  27.074  1.00  0.00     0.180 HD
BRANCH  12  14
ATOM     14  S   UNL A   1      31.923  26.967  26.689  1.00  0.00     0.262 S 
ATOM     15  O   UNL A   1      33.339  27.095  26.372  1.00  0.00    -0.201 OA
ATOM     16  O   UNL A   1      31.390  27.477  27.928  1.00  0.00    -0.201 OA
BRANCH  14  17
ATOM     17  C   UNL A   1      31.034  27.821  25.369  1.00  0.00     0.093 A 
ATOM     18  C   UNL A   1      30.024  29.891  21.697  1.00  0.00     0.044 C 
ATOM     19  C   UNL A   1      30.323  29.193  22.990  1.00  0.00    -0.051 A 
ATOM     20  C   UNL A   1      30.943  29.873  24.034  1.00  0.00     0.008 A 
ATOM     21  C   UNL A   1      29.920  27.877  23.209  1.00  0.00     0.008 A 
ATOM     22  C   UNL A   1      31.301  29.211  25.225  1.00  0.00    -0.030 A 
ATOM     23  C   UNL A   1      30.220  27.188  24.408  1.00  0.00    -0.030 A 
ATOM     24  C   UNL A   1      31.861  30.094  26.317  1.00  0.00     0.046 C 
ATOM     25  C   UNL A   1      29.580  25.839  24.542  1.00  0.00     0.046 C 
ENDBRANCH  14  17
ENDBRANCH  12  14
ENDBRANCH   7  12
BRANCH  11  26
ATOM     26  N   UNL A   1      33.486  20.569  24.750  1.00  0.00    -0.360 N 
ATOM     27  C   UNL A   1      32.496  20.077  23.785  1.00  0.00     0.178 C 
ATOM     28  C   UNL A   1      34.788  19.890  24.648  1.00  0.00     0.178 C 
ATOM     29  C   UNL A   1      32.315  18.552  23.995  1.00  0.00     0.283 C 
ATOM     30  C   UNL A   1      34.598  18.366  24.796  1.00  0.00     0.283 C 
ATOM     31  N   UNL A   1      33.597  17.805  23.860  1.00  0.00    -0.334 N 
ATOM     32  C   UNL A   1      33.395  16.385  24.138  1.00  0.00     0.332 C 
ATOM     33  H   UNL A   1      33.935  17.902  22.902  1.00  0.00     0.347 HD
ENDBRANCH  11  26
ENDBRANCH   3   6
ENDBRANCH   1   2
BRANCH   1  34
ATOM     34  C   UNL A   1      36.735  23.838  24.646  1.00  0.00     0.042 C 
BRANCH  34  35
ATOM     35  C   UNL A   1      36.957  23.259  26.036  1.00  0.00     0.118 C 
BRANCH  35  36
ATOM     36  N   UNL A   1      38.121  22.388  26.084  1.00  0.00    -0.352 N 
ATOM     37  C   UNL A   1      39.421  22.698  26.390  1.00  0.00     0.251 C 
ATOM     38  H   UNL A   1      37.952  21.443  25.867  1.00  0.00     0.163 HD
ATOM     39  O   UNL A   1      40.307  21.872  26.191  1.00  0.00    -0.269 OA
BRANCH  37  40
ATOM     40  C   UNL A   1      39.764  24.026  26.946  1.00  0.00     0.039 A 
ATOM     41  C   UNL A   1      40.217  25.020  26.073  1.00  0.00     0.014 A 
ATOM     42  C   UNL A   1      39.685  24.283  28.318  1.00  0.00     0.014 A 
ATOM     43  C   UNL A   1      40.566  26.276  26.571  1.00  0.00     0.010 A 
ATOM     44  C   UNL A   1      39.968  25.556  28.806  1.00  0.00     0.010 A 
ATOM     45  C   UNL A   1      40.432  26.557  27.940  1.00  0.00    -0.014 A 
BRANCH  45  46
ATOM     46  C   UNL A   1      40.828  27.877  28.489  1.00  0.00     0.031 A 
ATOM     47  C   UNL A   1      42.267  28.147  28.829  1.00  0.00     0.074 A 
ATOM     48  C   UNL A   1      39.889  28.811  28.729  1.00  0.00     0.049 A 
ATOM     49  N   UNL A   1      42.807  29.212  29.365  1.00  0.00    -0.248 NA
ATOM     50  C   UNL A   1      43.223  27.061  28.558  1.00  0.00     0.031 C 
ATOM     51  C   UNL A   1      38.454  28.649  28.496  1.00  0.00     0.029 A 
ATOM     52  N   UNL A   1      40.003  30.083  29.230  1.00  0.00    -0.354 N 
ATOM     53  C   UNL A   1      44.153  28.912  29.524  1.00  0.00     0.074 A 
ATOM     54  C   UNL A   1      44.343  27.554  29.064  1.00  0.00     0.031 C 
ATOM     55  C   UNL A   1      37.822  29.784  28.833  1.00  0.00     0.029 A 
ATOM     56  C   UNL A   1      38.805  30.746  29.324  1.00  0.00     0.049 A 
ATOM     57  H   UNL A   1      40.864  30.483  29.495  1.00  0.00     0.167 HD
ATOM     58  C   UNL A   1      45.146  29.704  29.992  1.00  0.00     0.037 A 
ATOM     59  C   UNL A   1      38.535  31.992  29.756  1.00  0.00     0.037 A 
ATOM     60  C   UNL A   1      44.966  31.072  30.399  1.00  0.00     0.049 A 
ATOM     61  C   UNL A   1      39.664  32.877  30.205  1.00  0.00     0.074 A 
ATOM     62  C   UNL A   1      45.919  31.983  30.817  1.00  0.00     0.029 A 
ATOM     63  N   UNL A   1      43.744  31.729  30.425  1.00  0.00    -0.354 N 
ATOM     64  N   UNL A   1      40.942  32.605  30.292  1.00  0.00    -0.248 NA
ATOM     65  C   UNL A   1      39.313  34.247  30.605  1.00  0.00     0.031 C 
ATOM     66  C   UNL A   1      45.270  33.186  31.120  1.00  0.00     0.029 A 
ATOM     67  C   UNL A   1      43.918  33.032  30.859  1.00  0.00     0.049 A 
ATOM     68  H   UNL A   1      42.882  31.327  30.173  1.00  0.00     0.167 HD
ATOM     69  C   UNL A   1      41.551  33.771  30.734  1.00  0.00     0.074 A 
ATOM     70  C   UNL A   1      40.503  34.759  30.884  1.00  0.00     0.031 C 
ATOM     71  C   UNL A   1      42.862  34.001  30.992  1.00  0.00     0.037 A 
BRANCH  58  72
ATOM     72  C   UNL A   1      46.520  29.109  30.081  1.00  0.00     0.064 A 
ATOM     73  C   UNL A   1      47.411  29.152  28.999  1.00  0.00     0.173 A 
ATOM     74  C   UNL A   1      46.958  28.503  31.269  1.00  0.00     0.173 A 
ATOM     75  F   UNL A   1      47.034  29.708  27.837  1.00  0.00    -0.203 F 
ATOM     76  C   UNL A   1      48.678  28.583  29.091  1.00  0.00     0.198 A 
ATOM     77  C   UNL A   1      48.235  27.959  31.366  1.00  0.00     0.198 A 
ATOM     78  F   UNL A   1      46.146  28.440  32.334  1.00  0.00    -0.203 F 
ATOM     79  F   UNL A   1      49.495  28.592  28.027  1.00  0.00    -0.200 F 
ATOM     80  C   UNL A   1      49.091  27.992  30.276  1.00  0.00     0.200 A 
ATOM     81  F   UNL A   1      48.636  27.395  32.513  1.00  0.00    -0.200 F 
ATOM     82  F   UNL A   1      50.312  27.447  30.363  1.00  0.00    -0.200 F 
ENDBRANCH  58  72
BRANCH  59  83
ATOM     83  C   UNL A   1      37.137  32.490  29.734  1.00  0.00     0.064 A 
ATOM     84  C   UNL A   1      36.286  32.278  30.827  1.00  0.00     0.173 A 
ATOM     85  C   UNL A   1      36.629  33.193  28.634  1.00  0.00     0.173 A 
ATOM     86  F   UNL A   1      36.724  31.592  31.894  1.00  0.00    -0.203 F 
ATOM     87  C   UNL A   1      34.972  32.742  30.816  1.00  0.00     0.198 A 
ATOM     88  C   UNL A   1      35.321  33.675  28.632  1.00  0.00     0.198 A 
ATOM     89  F   UNL A   1      37.407  33.423  27.567  1.00  0.00    -0.203 F 
ATOM     90  F   UNL A   1      34.169  32.498  31.860  1.00  0.00    -0.200 F 
ATOM     91  C   UNL A   1      34.493  33.444  29.721  1.00  0.00     0.200 A 
ATOM     92  F   UNL A   1      34.863  34.360  27.577  1.00  0.00    -0.200 F 
ATOM     93  F   UNL A   1      33.230  33.894  29.711  1.00  0.00    -0.200 F 
ENDBRANCH  59  83
BRANCH  71  94
ATOM     94  C   UNL A   1      43.237  35.381  31.439  1.00  0.00     0.064 A 
ATOM     95  C   UNL A   1      43.254  35.731  32.796  1.00  0.00     0.173 A 
ATOM     96  C   UNL A   1      43.621  36.350  30.500  1.00  0.00     0.173 A 
ATOM     97  F   UNL A   1      42.880  34.841  33.727  1.00  0.00    -0.203 F 
ATOM     98  C   UNL A   1      43.623  37.012  33.197  1.00  0.00     0.198 A 
ATOM     99  C   UNL A   1      44.011  37.623  30.908  1.00  0.00     0.198 A 
ATOM    100  F   UNL A   1      43.625  36.060  29.191  1.00  0.00    -0.203 F 
ATOM    101  F   UNL A   1      43.596  37.338  34.497  1.00  0.00    -0.200 F 
ATOM    102  C   UNL A   1      44.007  37.954  32.255  1.00  0.00     0.200 A 
ATOM    103  F   UNL A   1      44.388  38.530  29.996  1.00  0.00    -0.200 F 
ATOM    104  F   UNL A   1      44.365  39.185  32.643  1.00  0.00    -0.200 F 
ENDBRANCH  71  94
ENDBRANCH  45  46
ENDBRANCH  37  40
ENDBRANCH  35  36
ENDBRANCH  34  35
ENDBRANCH   1  34
TORSDOF 14
ENDMDL
