MODEL 1
REMARK VINA RESULT:     -13.0      0.000      0.000
REMARK SMILES CC1=C(C)C[C@@H](C(=O)NCc2cccnc2)[C@H](C(=O)NCCCNC(=O)c2ccc(-c3c4nc(c(-c5c(F)c(F)c(F)c(F)c5F)c5ccc([nH]5)c(-c5c(F)c(F)c(F)c(F)c5F)c5nc(c(-c6c(F)c(F)c(F)c(F)c6F)c6ccc3[nH]6)C=C5)C=C4)cc2)C1
REMARK SMILES IDX 21 1 20 2 18 3 19 4 17 6 1 7 2 8 3 9 90 10 4 11 5 12 6 13
REMARK SMILES IDX 7 14 8 15 9 16 10 18 11 19 12 20 16 21 13 22 15 23 14 24
REMARK SMILES IDX 22 25 23 26 24 27 25 28 26 30 27 31 28 32 89 33 29 34 88 35
REMARK SMILES IDX 30 36 31 37 32 38 82 39 33 40 87 41 81 42 83 43 34 44 86 45
REMARK SMILES IDX 80 46 79 47 35 49 67 50 47 51 66 52 48 53 51 54 65 55 84 56
REMARK SMILES IDX 49 57 50 58 64 60 85 61 52 62 36 63 37 64 45 65 38 66 39 67
REMARK SMILES IDX 43 68 46 69 40 70 41 71 44 72 42 73 68 74 69 75 77 76 70 77
REMARK SMILES IDX 71 78 75 79 78 80 72 81 73 82 76 83 74 84 53 85 54 86 62 87
REMARK SMILES IDX 55 88 56 89 60 90 63 91 57 92 58 93 61 94 59 95
REMARK H PARENT 20 5 9 17 24 29 83 48 51 59
REMARK Flexibility Score: inf
ROOT
ATOM      1  C   UNL A   1      33.198  26.516  25.361  1.00  0.00     0.117 C 
ENDROOT
BRANCH   1   2
ATOM      2  N   UNL A   1      33.675  25.771  24.220  1.00  0.00    -0.356 N 
ATOM      3  C   UNL A   1      34.338  24.586  24.154  1.00  0.00     0.224 C 
ATOM      4  O   UNL A   1      34.580  24.149  23.026  1.00  0.00    -0.275 OA
ATOM      5  H   UNL A   1      33.490  26.188  23.349  1.00  0.00     0.163 HD
BRANCH   3   6
ATOM      6  C   UNL A   1      34.812  23.827  25.398  1.00  0.00     0.095 C 
ATOM      7  C   UNL A   1      38.613  24.159  26.325  1.00  0.00     0.039 C 
ATOM      8  C   UNL A   1      37.349  23.447  25.908  1.00  0.00    -0.074 C 
ATOM      9  C   UNL A   1      37.287  22.169  25.474  1.00  0.00    -0.074 C 
ATOM     10  C   UNL A   1      36.137  24.360  25.950  1.00  0.00     0.045 C 
ATOM     11  C   UNL A   1      38.470  21.246  25.305  1.00  0.00     0.039 C 
ATOM     12  C   UNL A   1      35.991  21.515  25.044  1.00  0.00     0.045 C 
ATOM     13  C   UNL A   1      34.696  22.313  25.193  1.00  0.00     0.095 C 
BRANCH  13  14
ATOM     14  C   UNL A   1      33.736  21.673  26.197  1.00  0.00     0.224 C 
ATOM     15  O   UNL A   1      33.871  21.897  27.404  1.00  0.00    -0.275 OA
ATOM     16  N   UNL A   1      32.719  20.848  25.843  1.00  0.00    -0.352 N 
ATOM     17  H   UNL A   1      32.236  20.461  26.609  1.00  0.00     0.163 HD
BRANCH  16  18
ATOM     18  C   UNL A   1      32.209  20.430  24.557  1.00  0.00     0.153 C 
BRANCH  18  19
ATOM     19  C   UNL A   1      32.823  19.178  24.001  1.00  0.00    -0.010 A 
ATOM     20  C   UNL A   1      33.915  18.598  24.663  1.00  0.00     0.009 A 
ATOM     21  C   UNL A   1      32.366  18.530  22.859  1.00  0.00     0.116 A 
ATOM     22  C   UNL A   1      34.490  17.430  24.172  1.00  0.00     0.020 A 
ATOM     23  N   UNL A   1      32.905  17.393  22.361  1.00  0.00    -0.264 NA
ATOM     24  C   UNL A   1      33.954  16.869  23.027  1.00  0.00     0.111 A 
ENDBRANCH  18  19
ENDBRANCH  16  18
ENDBRANCH  13  14
ENDBRANCH   3   6
ENDBRANCH   1   2
BRANCH   1  25
ATOM     25  C   UNL A   1      32.580  27.844  24.975  1.00  0.00     0.042 C 
BRANCH  25  26
ATOM     26  C   UNL A   1      33.567  28.988  25.092  1.00  0.00     0.118 C 
BRANCH  26  27
ATOM     27  N   UNL A   1      32.951  30.186  25.659  1.00  0.00    -0.352 N 
ATOM     28  C   UNL A   1      33.285  30.902  26.779  1.00  0.00     0.251 C 
ATOM     29  H   UNL A   1      32.177  30.532  25.160  1.00  0.00     0.163 HD
ATOM     30  O   UNL A   1      32.507  31.742  27.227  1.00  0.00    -0.269 OA
BRANCH  28  31
ATOM     31  C   UNL A   1      34.573  30.650  27.450  1.00  0.00     0.039 A 
ATOM     32  C   UNL A   1      35.476  31.702  27.611  1.00  0.00     0.014 A 
ATOM     33  C   UNL A   1      34.882  29.374  27.924  1.00  0.00     0.014 A 
ATOM     34  C   UNL A   1      36.663  31.484  28.312  1.00  0.00     0.010 A 
ATOM     35  C   UNL A   1      36.001  29.190  28.721  1.00  0.00     0.010 A 
ATOM     36  C   UNL A   1      36.912  30.237  28.908  1.00  0.00    -0.014 A 
BRANCH  36  37
ATOM     37  C   UNL A   1      38.131  29.988  29.710  1.00  0.00     0.031 A 
ATOM     38  C   UNL A   1      39.191  29.060  29.184  1.00  0.00     0.074 A 
ATOM     39  C   UNL A   1      38.242  30.528  30.939  1.00  0.00     0.049 A 
ATOM     40  N   UNL A   1      40.277  28.627  29.768  1.00  0.00    -0.248 NA
ATOM     41  C   UNL A   1      38.981  28.516  27.831  1.00  0.00     0.031 C 
ATOM     42  C   UNL A   1      37.252  31.400  31.574  1.00  0.00     0.029 A 
ATOM     43  N   UNL A   1      39.233  30.411  31.880  1.00  0.00    -0.354 N 
ATOM     44  C   UNL A   1      40.864  27.748  28.868  1.00  0.00     0.074 A 
ATOM     45  C   UNL A   1      39.984  27.657  27.725  1.00  0.00     0.031 C 
ATOM     46  C   UNL A   1      37.696  31.757  32.789  1.00  0.00     0.029 A 
ATOM     47  C   UNL A   1      38.976  31.102  33.039  1.00  0.00     0.049 A 
ATOM     48  H   UNL A   1      40.051  29.881  31.739  1.00  0.00     0.167 HD
ATOM     49  C   UNL A   1      42.044  27.094  28.975  1.00  0.00     0.037 A 
ATOM     50  C   UNL A   1      39.688  31.185  34.178  1.00  0.00     0.037 A 
ATOM     51  C   UNL A   1      42.926  27.216  30.105  1.00  0.00     0.049 A 
ATOM     52  C   UNL A   1      40.996  30.446  34.273  1.00  0.00     0.074 A 
ATOM     53  C   UNL A   1      44.176  26.653  30.287  1.00  0.00     0.029 A 
ATOM     54  N   UNL A   1      42.644  27.949  31.249  1.00  0.00    -0.354 N 
ATOM     55  N   UNL A   1      41.579  29.679  33.384  1.00  0.00    -0.248 NA
ATOM     56  C   UNL A   1      41.749  30.592  35.525  1.00  0.00     0.031 C 
ATOM     57  C   UNL A   1      44.626  26.997  31.565  1.00  0.00     0.029 A 
ATOM     58  C   UNL A   1      43.687  27.831  32.153  1.00  0.00     0.049 A 
ATOM     59  H   UNL A   1      41.826  28.475  31.396  1.00  0.00     0.167 HD
ATOM     60  C   UNL A   1      42.780  29.278  33.954  1.00  0.00     0.074 A 
ATOM     61  C   UNL A   1      42.848  29.899  35.261  1.00  0.00     0.031 C 
ATOM     62  C   UNL A   1      43.742  28.471  33.442  1.00  0.00     0.037 A 
BRANCH  49  63
ATOM     63  C   UNL A   1      42.451  26.195  27.844  1.00  0.00     0.064 A 
ATOM     64  C   UNL A   1      43.357  26.612  26.856  1.00  0.00     0.173 A 
ATOM     65  C   UNL A   1      41.959  24.883  27.768  1.00  0.00     0.173 A 
ATOM     66  F   UNL A   1      43.847  27.860  26.872  1.00  0.00    -0.203 F 
ATOM     67  C   UNL A   1      43.731  25.760  25.819  1.00  0.00     0.198 A 
ATOM     68  C   UNL A   1      42.363  24.023  26.751  1.00  0.00     0.198 A 
ATOM     69  F   UNL A   1      41.094  24.430  28.688  1.00  0.00    -0.203 F 
ATOM     70  F   UNL A   1      44.554  26.199  24.857  1.00  0.00    -0.200 F 
ATOM     71  C   UNL A   1      43.241  24.463  25.773  1.00  0.00     0.200 A 
ATOM     72  F   UNL A   1      41.900  22.765  26.717  1.00  0.00    -0.200 F 
ATOM     73  F   UNL A   1      43.611  23.641  24.782  1.00  0.00    -0.200 F 
ENDBRANCH  49  63
BRANCH  50  74
ATOM     74  C   UNL A   1      39.189  32.010  35.310  1.00  0.00     0.064 A 
ATOM     75  C   UNL A   1      39.468  33.382  35.382  1.00  0.00     0.173 A 
ATOM     76  C   UNL A   1      38.433  31.445  36.348  1.00  0.00     0.173 A 
ATOM     77  F   UNL A   1      40.201  33.966  34.423  1.00  0.00    -0.203 F 
ATOM     78  C   UNL A   1      39.034  34.151  36.459  1.00  0.00     0.198 A 
ATOM     79  C   UNL A   1      37.970  32.222  37.408  1.00  0.00     0.198 A 
ATOM     80  F   UNL A   1      38.129  30.139  36.324  1.00  0.00    -0.203 F 
ATOM     81  F   UNL A   1      39.361  35.448  36.528  1.00  0.00    -0.200 F 
ATOM     82  C   UNL A   1      38.280  33.571  37.469  1.00  0.00     0.200 A 
ATOM     83  F   UNL A   1      37.225  31.661  38.371  1.00  0.00    -0.200 F 
ATOM     84  F   UNL A   1      37.860  34.312  38.504  1.00  0.00    -0.200 F 
ENDBRANCH  50  74
BRANCH  62  85
ATOM     85  C   UNL A   1      44.974  28.253  34.271  1.00  0.00     0.064 A 
ATOM     86  C   UNL A   1      45.091  27.172  35.157  1.00  0.00     0.173 A 
ATOM     87  C   UNL A   1      46.077  29.111  34.133  1.00  0.00     0.173 A 
ATOM     88  F   UNL A   1      44.061  26.330  35.335  1.00  0.00    -0.203 F 
ATOM     89  C   UNL A   1      46.255  26.974  35.893  1.00  0.00     0.198 A 
ATOM     90  C   UNL A   1      47.252  28.889  34.844  1.00  0.00     0.198 A 
ATOM     91  F   UNL A   1      46.020  30.155  33.292  1.00  0.00    -0.203 F 
ATOM     92  F   UNL A   1      46.327  25.964  36.771  1.00  0.00    -0.200 F 
ATOM     93  C   UNL A   1      47.337  27.826  35.730  1.00  0.00     0.200 A 
ATOM     94  F   UNL A   1      48.303  29.703  34.669  1.00  0.00    -0.200 F 
ATOM     95  F   UNL A   1      48.462  27.626  36.430  1.00  0.00    -0.200 F 
ENDBRANCH  62  85
ENDBRANCH  36  37
ENDBRANCH  28  31
ENDBRANCH  26  27
ENDBRANCH  25  26
ENDBRANCH   1  25
TORSDOF 13
ENDMDL
MODEL 2
REMARK VINA RESULT:     -12.9      2.511      4.501
REMARK SMILES CC1=C(C)C[C@@H](C(=O)NCc2cccnc2)[C@H](C(=O)NCCCNC(=O)c2ccc(-c3c4nc(c(-c5c(F)c(F)c(F)c(F)c5F)c5ccc([nH]5)c(-c5c(F)c(F)c(F)c(F)c5F)c5nc(c(-c6c(F)c(F)c(F)c(F)c6F)c6ccc3[nH]6)C=C5)C=C4)cc2)C1
REMARK SMILES IDX 21 1 20 2 18 3 19 4 17 6 1 7 2 8 3 9 90 10 4 11 5 12 6 13
REMARK SMILES IDX 7 14 8 15 9 16 10 18 11 19 12 20 16 21 13 22 15 23 14 24
REMARK SMILES IDX 22 25 23 26 24 27 25 28 26 30 27 31 28 32 89 33 29 34 88 35
REMARK SMILES IDX 30 36 31 37 32 38 82 39 33 40 87 41 81 42 83 43 34 44 86 45
REMARK SMILES IDX 80 46 79 47 35 49 67 50 47 51 66 52 48 53 51 54 65 55 84 56
REMARK SMILES IDX 49 57 50 58 64 60 85 61 52 62 36 63 37 64 45 65 38 66 39 67
REMARK SMILES IDX 43 68 46 69 40 70 41 71 44 72 42 73 68 74 69 75 77 76 70 77
REMARK SMILES IDX 71 78 75 79 78 80 72 81 73 82 76 83 74 84 53 85 54 86 62 87
REMARK SMILES IDX 55 88 56 89 60 90 63 91 57 92 58 93 61 94 59 95
REMARK H PARENT 20 5 9 17 24 29 83 48 51 59
REMARK Flexibility Score: inf
ROOT
ATOM      1  C   UNL A   1      31.682  30.821  26.088  1.00  0.00     0.117 C 
ENDROOT
BRANCH   1   2
ATOM      2  N   UNL A   1      30.908  30.559  24.898  1.00  0.00    -0.356 N 
ATOM      3  C   UNL A   1      30.852  29.455  24.107  1.00  0.00     0.224 C 
ATOM      4  O   UNL A   1      30.051  29.487  23.169  1.00  0.00    -0.275 OA
ATOM      5  H   UNL A   1      30.326  31.300  24.614  1.00  0.00     0.163 HD
BRANCH   3   6
ATOM      6  C   UNL A   1      31.753  28.234  24.315  1.00  0.00     0.095 C 
ATOM      7  C   UNL A   1      32.179  25.812  21.254  1.00  0.00     0.039 C 
ATOM      8  C   UNL A   1      31.767  26.219  22.648  1.00  0.00    -0.074 C 
ATOM      9  C   UNL A   1      31.009  25.472  23.480  1.00  0.00    -0.074 C 
ATOM     10  C   UNL A   1      32.235  27.620  22.997  1.00  0.00     0.045 C 
ATOM     11  C   UNL A   1      30.421  24.121  23.150  1.00  0.00     0.039 C 
ATOM     12  C   UNL A   1      30.605  25.944  24.861  1.00  0.00     0.045 C 
ATOM     13  C   UNL A   1      31.155  27.282  25.355  1.00  0.00     0.095 C 
BRANCH  13  14
ATOM     14  C   UNL A   1      32.068  27.117  26.571  1.00  0.00     0.224 C 
ATOM     15  O   UNL A   1      31.641  27.380  27.700  1.00  0.00    -0.275 OA
ATOM     16  N   UNL A   1      33.354  26.694  26.493  1.00  0.00    -0.352 N 
ATOM     17  H   UNL A   1      33.831  26.709  27.355  1.00  0.00     0.163 HD
BRANCH  16  18
ATOM     18  C   UNL A   1      34.158  26.226  25.387  1.00  0.00     0.153 C 
BRANCH  18  19
ATOM     19  C   UNL A   1      34.123  24.744  25.151  1.00  0.00    -0.010 A 
ATOM     20  C   UNL A   1      34.514  24.238  23.902  1.00  0.00     0.009 A 
ATOM     21  C   UNL A   1      33.734  23.814  26.109  1.00  0.00     0.116 A 
ATOM     22  C   UNL A   1      34.501  22.867  23.667  1.00  0.00     0.020 A 
ATOM     23  N   UNL A   1      33.714  22.475  25.908  1.00  0.00    -0.264 NA
ATOM     24  C   UNL A   1      34.096  22.033  24.694  1.00  0.00     0.111 A 
ENDBRANCH  18  19
ENDBRANCH  16  18
ENDBRANCH  13  14
ENDBRANCH   3   6
ENDBRANCH   1   2
BRANCH   1  25
ATOM     25  C   UNL A   1      31.400  32.186  26.681  1.00  0.00     0.042 C 
BRANCH  25  26
ATOM     26  C   UNL A   1      32.634  32.803  27.306  1.00  0.00     0.118 C 
BRANCH  26  27
ATOM     27  N   UNL A   1      32.443  34.219  27.612  1.00  0.00    -0.352 N 
ATOM     28  C   UNL A   1      33.008  34.993  28.592  1.00  0.00     0.251 C 
ATOM     29  H   UNL A   1      31.810  34.689  27.023  1.00  0.00     0.163 HD
ATOM     30  O   UNL A   1      32.547  36.105  28.840  1.00  0.00    -0.269 OA
BRANCH  28  31
ATOM     31  C   UNL A   1      34.160  34.480  29.354  1.00  0.00     0.039 A 
ATOM     32  C   UNL A   1      33.938  33.805  30.556  1.00  0.00     0.014 A 
ATOM     33  C   UNL A   1      35.459  34.661  28.875  1.00  0.00     0.014 A 
ATOM     34  C   UNL A   1      35.020  33.252  31.240  1.00  0.00     0.010 A 
ATOM     35  C   UNL A   1      36.516  34.010  29.491  1.00  0.00     0.010 A 
ATOM     36  C   UNL A   1      36.311  33.315  30.690  1.00  0.00    -0.014 A 
BRANCH  36  37
ATOM     37  C   UNL A   1      37.474  32.686  31.358  1.00  0.00     0.031 A 
ATOM     38  C   UNL A   1      38.183  31.540  30.692  1.00  0.00     0.074 A 
ATOM     39  C   UNL A   1      37.833  33.091  32.591  1.00  0.00     0.049 A 
ATOM     40  N   UNL A   1      39.149  30.786  31.148  1.00  0.00    -0.248 NA
ATOM     41  C   UNL A   1      37.719  31.167  29.344  1.00  0.00     0.031 C 
ATOM     42  C   UNL A   1      37.182  34.157  33.356  1.00  0.00     0.029 A 
ATOM     43  N   UNL A   1      38.824  32.642  33.425  1.00  0.00    -0.354 N 
ATOM     44  C   UNL A   1      39.389  29.842  30.158  1.00  0.00     0.074 A 
ATOM     45  C   UNL A   1      38.428  30.075  29.104  1.00  0.00     0.031 C 
ATOM     46  C   UNL A   1      37.807  34.294  34.536  1.00  0.00     0.029 A 
ATOM     47  C   UNL A   1      38.868  33.297  34.632  1.00  0.00     0.049 A 
ATOM     48  H   UNL A   1      39.446  31.918  33.182  1.00  0.00     0.167 HD
ATOM     49  C   UNL A   1      40.344  28.884  30.123  1.00  0.00     0.037 A 
ATOM     50  C   UNL A   1      39.666  33.104  35.698  1.00  0.00     0.037 A 
ATOM     51  C   UNL A   1      41.314  28.681  31.164  1.00  0.00     0.049 A 
ATOM     52  C   UNL A   1      40.718  32.029  35.633  1.00  0.00     0.074 A 
ATOM     53  C   UNL A   1      42.367  27.785  31.199  1.00  0.00     0.029 A 
ATOM     54  N   UNL A   1      41.344  29.384  32.360  1.00  0.00    -0.354 N 
ATOM     55  N   UNL A   1      40.987  31.192  34.660  1.00  0.00    -0.248 NA
ATOM     56  C   UNL A   1      41.582  31.876  36.811  1.00  0.00     0.031 C 
ATOM     57  C   UNL A   1      42.998  27.904  32.440  1.00  0.00     0.029 A 
ATOM     58  C   UNL A   1      42.383  28.923  33.151  1.00  0.00     0.049 A 
ATOM     59  H   UNL A   1      40.722  30.104  32.609  1.00  0.00     0.167 HD
ATOM     60  C   UNL A   1      42.070  30.438  35.093  1.00  0.00     0.074 A 
ATOM     61  C   UNL A   1      42.416  30.927  36.411  1.00  0.00     0.031 C 
ATOM     62  C   UNL A   1      42.721  29.434  34.455  1.00  0.00     0.037 A 
BRANCH  49  63
ATOM     63  C   UNL A   1      40.387  27.985  28.920  1.00  0.00     0.064 A 
ATOM     64  C   UNL A   1      39.672  26.777  28.872  1.00  0.00     0.173 A 
ATOM     65  C   UNL A   1      41.120  28.356  27.783  1.00  0.00     0.173 A 
ATOM     66  F   UNL A   1      38.965  26.368  29.936  1.00  0.00    -0.203 F 
ATOM     67  C   UNL A   1      39.716  25.962  27.744  1.00  0.00     0.198 A 
ATOM     68  C   UNL A   1      41.133  27.555  26.644  1.00  0.00     0.198 A 
ATOM     69  F   UNL A   1      41.819  29.502  27.772  1.00  0.00    -0.203 F 
ATOM     70  F   UNL A   1      39.070  24.788  27.743  1.00  0.00    -0.200 F 
ATOM     71  C   UNL A   1      40.438  26.356  26.628  1.00  0.00     0.200 A 
ATOM     72  F   UNL A   1      41.819  27.946  25.561  1.00  0.00    -0.200 F 
ATOM     73  F   UNL A   1      40.470  25.576  25.539  1.00  0.00    -0.200 F 
ENDBRANCH  49  63
BRANCH  50  74
ATOM     74  C   UNL A   1      39.514  33.955  36.907  1.00  0.00     0.064 A 
ATOM     75  C   UNL A   1      38.756  33.523  38.005  1.00  0.00     0.173 A 
ATOM     76  C   UNL A   1      40.113  35.221  36.989  1.00  0.00     0.173 A 
ATOM     77  F   UNL A   1      38.150  32.327  37.969  1.00  0.00    -0.203 F 
ATOM     78  C   UNL A   1      38.581  34.333  39.124  1.00  0.00     0.198 A 
ATOM     79  C   UNL A   1      39.965  36.017  38.123  1.00  0.00     0.198 A 
ATOM     80  F   UNL A   1      40.856  35.680  35.971  1.00  0.00    -0.203 F 
ATOM     81  F   UNL A   1      37.808  33.916  40.136  1.00  0.00    -0.200 F 
ATOM     82  C   UNL A   1      39.191  35.577  39.185  1.00  0.00     0.200 A 
ATOM     83  F   UNL A   1      40.572  37.210  38.185  1.00  0.00    -0.200 F 
ATOM     84  F   UNL A   1      39.024  36.355  40.264  1.00  0.00    -0.200 F 
ENDBRANCH  50  74
BRANCH  62  85
ATOM     85  C   UNL A   1      43.907  28.830  35.150  1.00  0.00     0.064 A 
ATOM     86  C   UNL A   1      45.204  29.336  34.979  1.00  0.00     0.173 A 
ATOM     87  C   UNL A   1      43.731  27.763  36.044  1.00  0.00     0.173 A 
ATOM     88  F   UNL A   1      45.428  30.347  34.125  1.00  0.00    -0.203 F 
ATOM     89  C   UNL A   1      46.283  28.778  35.657  1.00  0.00     0.198 A 
ATOM     90  C   UNL A   1      44.808  27.231  36.747  1.00  0.00     0.198 A 
ATOM     91  F   UNL A   1      42.509  27.248  36.251  1.00  0.00    -0.203 F 
ATOM     92  F   UNL A   1      47.521  29.244  35.440  1.00  0.00    -0.200 F 
ATOM     93  C   UNL A   1      46.084  27.733  36.547  1.00  0.00     0.200 A 
ATOM     94  F   UNL A   1      44.608  26.234  37.621  1.00  0.00    -0.200 F 
ATOM     95  F   UNL A   1      47.124  27.206  37.208  1.00  0.00    -0.200 F 
ENDBRANCH  62  85
ENDBRANCH  36  37
ENDBRANCH  28  31
ENDBRANCH  26  27
ENDBRANCH  25  26
ENDBRANCH   1  25
TORSDOF 13
ENDMDL
MODEL 3
REMARK VINA RESULT:     -12.9      1.891      3.876
REMARK SMILES CC1=C(C)C[C@@H](C(=O)NCc2cccnc2)[C@H](C(=O)NCCCNC(=O)c2ccc(-c3c4nc(c(-c5c(F)c(F)c(F)c(F)c5F)c5ccc([nH]5)c(-c5c(F)c(F)c(F)c(F)c5F)c5nc(c(-c6c(F)c(F)c(F)c(F)c6F)c6ccc3[nH]6)C=C5)C=C4)cc2)C1
REMARK SMILES IDX 21 1 20 2 18 3 19 4 17 6 1 7 2 8 3 9 90 10 4 11 5 12 6 13
REMARK SMILES IDX 7 14 8 15 9 16 10 18 11 19 12 20 16 21 13 22 15 23 14 24
REMARK SMILES IDX 22 25 23 26 24 27 25 28 26 30 27 31 28 32 89 33 29 34 88 35
REMARK SMILES IDX 30 36 31 37 32 38 82 39 33 40 87 41 81 42 83 43 34 44 86 45
REMARK SMILES IDX 80 46 79 47 35 49 67 50 47 51 66 52 48 53 51 54 65 55 84 56
REMARK SMILES IDX 49 57 50 58 64 60 85 61 52 62 36 63 37 64 45 65 38 66 39 67
REMARK SMILES IDX 43 68 46 69 40 70 41 71 44 72 42 73 68 74 69 75 77 76 70 77
REMARK SMILES IDX 71 78 75 79 78 80 72 81 73 82 76 83 74 84 53 85 54 86 62 87
REMARK SMILES IDX 55 88 56 89 60 90 63 91 57 92 58 93 61 94 59 95
REMARK H PARENT 20 5 9 17 24 29 83 48 51 59
REMARK Flexibility Score: inf
ROOT
ATOM      1  C   UNL A   1      34.030  28.687  22.771  1.00  0.00     0.117 C 
ENDROOT
BRANCH   1   2
ATOM      2  N   UNL A   1      33.696  27.668  21.804  1.00  0.00    -0.356 N 
ATOM      3  C   UNL A   1      33.298  26.380  21.981  1.00  0.00     0.224 C 
ATOM      4  O   UNL A   1      33.024  25.741  20.963  1.00  0.00    -0.275 OA
ATOM      5  H   UNL A   1      33.768  27.951  20.865  1.00  0.00     0.163 HD
BRANCH   3   6
ATOM      6  C   UNL A   1      33.223  25.714  23.359  1.00  0.00     0.095 C 
ATOM      7  C   UNL A   1      35.306  22.421  23.840  1.00  0.00     0.039 C 
ATOM      8  C   UNL A   1      34.061  23.270  23.764  1.00  0.00    -0.074 C 
ATOM      9  C   UNL A   1      32.797  22.791  23.755  1.00  0.00    -0.074 C 
ATOM     10  C   UNL A   1      34.382  24.745  23.613  1.00  0.00     0.045 C 
ATOM     11  C   UNL A   1      32.416  21.330  23.791  1.00  0.00     0.039 C 
ATOM     12  C   UNL A   1      31.584  23.691  23.652  1.00  0.00     0.045 C 
ATOM     13  C   UNL A   1      31.807  25.203  23.644  1.00  0.00     0.095 C 
BRANCH  13  14
ATOM     14  C   UNL A   1      31.191  25.884  24.869  1.00  0.00     0.224 C 
ATOM     15  O   UNL A   1      31.858  26.009  25.901  1.00  0.00    -0.275 OA
ATOM     16  N   UNL A   1      29.925  26.368  24.902  1.00  0.00    -0.352 N 
ATOM     17  H   UNL A   1      29.653  26.712  25.784  1.00  0.00     0.163 HD
BRANCH  16  18
ATOM     18  C   UNL A   1      28.899  26.477  23.889  1.00  0.00     0.153 C 
BRANCH  18  19
ATOM     19  C   UNL A   1      28.859  27.786  23.155  1.00  0.00    -0.010 A 
ATOM     20  C   UNL A   1      27.702  28.576  23.225  1.00  0.00     0.009 A 
ATOM     21  C   UNL A   1      29.917  28.289  22.406  1.00  0.00     0.116 A 
ATOM     22  C   UNL A   1      27.648  29.799  22.564  1.00  0.00     0.020 A 
ATOM     23  N   UNL A   1      29.892  29.476  21.755  1.00  0.00    -0.264 NA
ATOM     24  C   UNL A   1      28.761  30.202  21.847  1.00  0.00     0.111 A 
ENDBRANCH  18  19
ENDBRANCH  16  18
ENDBRANCH  13  14
ENDBRANCH   3   6
ENDBRANCH   1   2
BRANCH   1  25
ATOM     25  C   UNL A   1      32.916  28.938  23.766  1.00  0.00     0.042 C 
BRANCH  25  26
ATOM     26  C   UNL A   1      33.447  29.221  25.157  1.00  0.00     0.118 C 
BRANCH  26  27
ATOM     27  N   UNL A   1      32.866  30.435  25.728  1.00  0.00    -0.352 N 
ATOM     28  C   UNL A   1      33.223  31.140  26.847  1.00  0.00     0.251 C 
ATOM     29  H   UNL A   1      32.101  30.802  25.230  1.00  0.00     0.163 HD
ATOM     30  O   UNL A   1      32.470  32.000  27.298  1.00  0.00    -0.269 OA
BRANCH  28  31
ATOM     31  C   UNL A   1      34.505  30.851  27.514  1.00  0.00     0.039 A 
ATOM     32  C   UNL A   1      35.444  31.875  27.661  1.00  0.00     0.014 A 
ATOM     33  C   UNL A   1      34.775  29.570  27.999  1.00  0.00     0.014 A 
ATOM     34  C   UNL A   1      36.626  31.624  28.358  1.00  0.00     0.010 A 
ATOM     35  C   UNL A   1      35.891  29.356  28.791  1.00  0.00     0.010 A 
ATOM     36  C   UNL A   1      36.837  30.374  28.964  1.00  0.00    -0.014 A 
BRANCH  36  37
ATOM     37  C   UNL A   1      38.051  30.093  29.763  1.00  0.00     0.031 A 
ATOM     38  C   UNL A   1      39.096  29.156  29.222  1.00  0.00     0.074 A 
ATOM     39  C   UNL A   1      38.170  30.611  31.001  1.00  0.00     0.049 A 
ATOM     40  N   UNL A   1      40.175  28.696  29.800  1.00  0.00    -0.248 NA
ATOM     41  C   UNL A   1      38.879  28.638  27.860  1.00  0.00     0.031 C 
ATOM     42  C   UNL A   1      37.193  31.488  31.650  1.00  0.00     0.029 A 
ATOM     43  N   UNL A   1      39.158  30.462  31.940  1.00  0.00    -0.354 N 
ATOM     44  C   UNL A   1      40.748  27.822  28.885  1.00  0.00     0.074 A 
ATOM     45  C   UNL A   1      39.868  27.765  27.740  1.00  0.00     0.031 C 
ATOM     46  C   UNL A   1      37.642  31.817  32.870  1.00  0.00     0.029 A 
ATOM     47  C   UNL A   1      38.911  31.138  33.110  1.00  0.00     0.049 A 
ATOM     48  H   UNL A   1      39.967  29.921  31.790  1.00  0.00     0.167 HD
ATOM     49  C   UNL A   1      41.917  27.149  28.983  1.00  0.00     0.037 A 
ATOM     50  C   UNL A   1      39.623  31.190  34.251  1.00  0.00     0.037 A 
ATOM     51  C   UNL A   1      42.800  27.237  30.114  1.00  0.00     0.049 A 
ATOM     52  C   UNL A   1      40.920  30.429  34.334  1.00  0.00     0.074 A 
ATOM     53  C   UNL A   1      44.041  26.651  30.288  1.00  0.00     0.029 A 
ATOM     54  N   UNL A   1      42.529  27.956  31.270  1.00  0.00    -0.354 N 
ATOM     55  N   UNL A   1      41.491  29.667  33.433  1.00  0.00    -0.248 NA
ATOM     56  C   UNL A   1      41.674  30.542  35.589  1.00  0.00     0.031 C 
ATOM     57  C   UNL A   1      44.495  26.966  31.571  1.00  0.00     0.029 A 
ATOM     58  C   UNL A   1      43.570  27.806  32.172  1.00  0.00     0.049 A 
ATOM     59  H   UNL A   1      41.720  28.492  31.426  1.00  0.00     0.167 HD
ATOM     60  C   UNL A   1      42.685  29.237  33.997  1.00  0.00     0.074 A 
ATOM     61  C   UNL A   1      42.761  29.836  35.313  1.00  0.00     0.031 C 
ATOM     62  C   UNL A   1      43.634  28.423  33.472  1.00  0.00     0.037 A 
BRANCH  49  63
ATOM     63  C   UNL A   1      42.310  26.261  27.836  1.00  0.00     0.064 A 
ATOM     64  C   UNL A   1      41.800  24.960  27.699  1.00  0.00     0.173 A 
ATOM     65  C   UNL A   1      43.178  26.732  26.839  1.00  0.00     0.173 A 
ATOM     66  F   UNL A   1      40.977  24.456  28.630  1.00  0.00    -0.203 F 
ATOM     67  C   UNL A   1      42.167  24.155  26.623  1.00  0.00     0.198 A 
ATOM     68  C   UNL A   1      43.515  25.937  25.747  1.00  0.00     0.198 A 
ATOM     69  F   UNL A   1      43.693  27.968  26.918  1.00  0.00    -0.203 F 
ATOM     70  F   UNL A   1      41.710  22.898  26.543  1.00  0.00    -0.200 F 
ATOM     71  C   UNL A   1      43.017  24.647  25.644  1.00  0.00     0.200 A 
ATOM     72  F   UNL A   1      44.324  26.420  24.794  1.00  0.00    -0.200 F 
ATOM     73  F   UNL A   1      43.360  23.876  24.604  1.00  0.00    -0.200 F 
ENDBRANCH  49  63
BRANCH  50  74
ATOM     74  C   UNL A   1      39.138  32.004  35.396  1.00  0.00     0.064 A 
ATOM     75  C   UNL A   1      39.439  33.370  35.491  1.00  0.00     0.173 A 
ATOM     76  C   UNL A   1      38.371  31.435  36.424  1.00  0.00     0.173 A 
ATOM     77  F   UNL A   1      40.182  33.958  34.542  1.00  0.00    -0.203 F 
ATOM     78  C   UNL A   1      39.016  34.128  36.581  1.00  0.00     0.198 A 
ATOM     79  C   UNL A   1      37.920  32.201  37.497  1.00  0.00     0.198 A 
ATOM     80  F   UNL A   1      38.046  30.134  36.378  1.00  0.00    -0.203 F 
ATOM     81  F   UNL A   1      39.364  35.419  36.671  1.00  0.00    -0.200 F 
ATOM     82  C   UNL A   1      38.252  33.544  37.580  1.00  0.00     0.200 A 
ATOM     83  F   UNL A   1      37.166  31.637  38.450  1.00  0.00    -0.200 F 
ATOM     84  F   UNL A   1      37.843  34.275  38.627  1.00  0.00    -0.200 F 
ENDBRANCH  50  74
BRANCH  62  85
ATOM     85  C   UNL A   1      44.862  28.172  34.298  1.00  0.00     0.064 A 
ATOM     86  C   UNL A   1      44.960  27.076  35.167  1.00  0.00     0.173 A 
ATOM     87  C   UNL A   1      45.978  29.014  34.174  1.00  0.00     0.173 A 
ATOM     88  F   UNL A   1      43.915  26.249  35.332  1.00  0.00    -0.203 F 
ATOM     89  C   UNL A   1      46.120  26.847  35.900  1.00  0.00     0.198 A 
ATOM     90  C   UNL A   1      47.149  28.761  34.882  1.00  0.00     0.198 A 
ATOM     91  F   UNL A   1      45.940  30.071  33.349  1.00  0.00    -0.203 F 
ATOM     92  F   UNL A   1      46.174  25.822  36.763  1.00  0.00    -0.200 F 
ATOM     93  C   UNL A   1      47.217  27.683  35.751  1.00  0.00     0.200 A 
ATOM     94  F   UNL A   1      48.214  29.559  34.720  1.00  0.00    -0.200 F 
ATOM     95  F   UNL A   1      48.338  27.453  36.448  1.00  0.00    -0.200 F 
ENDBRANCH  62  85
ENDBRANCH  36  37
ENDBRANCH  28  31
ENDBRANCH  26  27
ENDBRANCH  25  26
ENDBRANCH   1  25
TORSDOF 13
ENDMDL
