MODEL 1
REMARK VINA RESULT:     -13.2      0.000      0.000
REMARK SMILES Cc1ccc(C(=O)NCCCNC(=O)c2ccc(-c3c4nc(c(-c5c(F)c(F)c(F)c(F)c5F)c5ccc([nH]5)c(-c5c(F)c(F)c(F)c(F)c5F)c5nc(c(-c6c(F)c(F)c(F)c(F)c6F)c6ccc3[nH]6)C=C5)C=C4)cc2)c(Oc2cccc(F)c2C(N)=O)c1
REMARK SMILES IDX 9 1 8 2 6 3 7 4 5 6 1 7 2 8 3 9 90 10 4 11 78 12 79 13 80 14
REMARK SMILES IDX 81 15 86 16 82 17 84 18 83 19 85 20 87 21 88 22 89 23 10 26
REMARK SMILES IDX 11 27 12 28 13 29 14 31 15 32 16 33 77 34 17 35 76 36 18 37
REMARK SMILES IDX 19 38 20 39 70 40 21 41 75 42 69 43 71 44 22 45 74 46 68 47
REMARK SMILES IDX 67 48 23 50 55 51 35 52 54 53 36 54 39 55 53 56 72 57 37 58
REMARK SMILES IDX 38 59 52 61 73 62 40 63 24 64 25 65 33 66 26 67 27 68 31 69
REMARK SMILES IDX 34 70 28 71 29 72 32 73 30 74 56 75 57 76 65 77 58 78 59 79
REMARK SMILES IDX 63 80 66 81 60 82 61 83 64 84 62 85 41 86 42 87 50 88 43 89
REMARK SMILES IDX 44 90 48 91 51 92 45 93 46 94 49 95 47 96
REMARK H PARENT 8 5 88 24 88 25 12 30 71 49 39 60
REMARK Flexibility Score: inf
ROOT
ATOM      1  C   UNL A   1      33.844  28.860  25.895  1.00  0.00     0.118 C 
ENDROOT
BRANCH   1   2
ATOM      2  N   UNL A   1      33.937  28.846  24.449  1.00  0.00    -0.352 N 
ATOM      3  C   UNL A   1      33.085  28.848  23.379  1.00  0.00     0.255 C 
ATOM      4  O   UNL A   1      33.654  29.000  22.290  1.00  0.00    -0.269 OA
ATOM      5  H   UNL A   1      34.876  28.832  24.154  1.00  0.00     0.163 HD
BRANCH   3   6
ATOM      6  C   UNL A   1      31.609  28.597  23.354  1.00  0.00     0.082 A 
ATOM      7  C   UNL A   1      27.272  28.487  23.057  1.00  0.00     0.044 C 
ATOM      8  C   UNL A   1      28.766  28.540  23.164  1.00  0.00    -0.047 A 
ATOM      9  C   UNL A   1      29.482  29.605  22.627  1.00  0.00     0.004 A 
ATOM     10  C   UNL A   1      29.463  27.540  23.845  1.00  0.00     0.051 A 
ATOM     11  C   UNL A   1      30.877  29.633  22.728  1.00  0.00     0.018 A 
ATOM     12  C   UNL A   1      30.871  27.538  23.901  1.00  0.00     0.140 A 
BRANCH  12  13
ATOM     13  O   UNL A   1      31.476  26.551  24.620  1.00  0.00    -0.456 OA
BRANCH  13  14
ATOM     14  C   UNL A   1      31.567  25.250  24.152  1.00  0.00     0.143 A 
ATOM     15  C   UNL A   1      31.024  24.349  25.094  1.00  0.00     0.048 A 
ATOM     16  C   UNL A   1      32.208  24.737  23.012  1.00  0.00     0.117 A 
ATOM     17  C   UNL A   1      31.114  22.969  24.922  1.00  0.00     0.007 A 
ATOM     18  C   UNL A   1      32.277  23.343  22.852  1.00  0.00     0.139 A 
ATOM     19  C   UNL A   1      31.746  22.466  23.795  1.00  0.00     0.040 A 
ATOM     20  F   UNL A   1      32.919  22.805  21.803  1.00  0.00    -0.206 F 
BRANCH  16  21
ATOM     21  C   UNL A   1      32.836  25.504  21.918  1.00  0.00     0.255 C 
ATOM     22  N   UNL A   1      32.049  25.923  20.885  1.00  0.00    -0.365 N 
ATOM     23  O   UNL A   1      34.027  25.785  21.951  1.00  0.00    -0.269 OA
ATOM     24  H   UNL A   1      31.092  25.690  20.869  1.00  0.00     0.159 HD
ATOM     25  H   UNL A   1      32.438  26.455  20.154  1.00  0.00     0.159 HD
ENDBRANCH  16  21
ENDBRANCH  13  14
ENDBRANCH  12  13
ENDBRANCH   3   6
ENDBRANCH   1   2
BRANCH   1  26
ATOM     26  C   UNL A   1      33.564  30.235  26.477  1.00  0.00     0.042 C 
BRANCH  26  27
ATOM     27  C   UNL A   1      33.653  30.239  27.991  1.00  0.00     0.118 C 
BRANCH  27  28
ATOM     28  N   UNL A   1      34.438  31.332  28.570  1.00  0.00    -0.352 N 
ATOM     29  C   UNL A   1      35.766  31.277  28.974  1.00  0.00     0.251 C 
ATOM     30  H   UNL A   1      33.977  32.194  28.685  1.00  0.00     0.163 HD
ATOM     31  O   UNL A   1      36.353  32.265  29.404  1.00  0.00    -0.269 OA
BRANCH  29  32
ATOM     32  C   UNL A   1      36.480  29.999  28.758  1.00  0.00     0.039 A 
ATOM     33  C   UNL A   1      36.942  29.332  29.896  1.00  0.00     0.014 A 
ATOM     34  C   UNL A   1      37.065  29.788  27.513  1.00  0.00     0.014 A 
ATOM     35  C   UNL A   1      38.174  28.690  29.839  1.00  0.00     0.010 A 
ATOM     36  C   UNL A   1      38.343  29.261  27.489  1.00  0.00     0.010 A 
ATOM     37  C   UNL A   1      38.930  28.780  28.667  1.00  0.00    -0.014 A 
BRANCH  37  38
ATOM     38  C   UNL A   1      40.360  28.479  28.635  1.00  0.00     0.031 A 
ATOM     39  C   UNL A   1      40.811  27.147  28.181  1.00  0.00     0.074 A 
ATOM     40  C   UNL A   1      41.295  29.368  29.047  1.00  0.00     0.049 A 
ATOM     41  N   UNL A   1      41.810  26.512  28.700  1.00  0.00    -0.248 NA
ATOM     42  C   UNL A   1      40.139  26.403  27.125  1.00  0.00     0.031 C 
ATOM     43  C   UNL A   1      42.745  29.230  28.915  1.00  0.00     0.029 A 
ATOM     44  N   UNL A   1      41.130  30.516  29.842  1.00  0.00    -0.354 N 
ATOM     45  C   UNL A   1      42.066  25.418  27.907  1.00  0.00     0.074 A 
ATOM     46  C   UNL A   1      40.964  25.364  26.974  1.00  0.00     0.031 C 
ATOM     47  C   UNL A   1      43.345  30.024  29.814  1.00  0.00     0.029 A 
ATOM     48  C   UNL A   1      42.309  30.635  30.621  1.00  0.00     0.049 A 
ATOM     49  H   UNL A   1      40.350  31.118  29.856  1.00  0.00     0.167 HD
ATOM     50  C   UNL A   1      43.245  24.746  28.034  1.00  0.00     0.037 A 
ATOM     51  C   UNL A   1      42.290  30.686  31.984  1.00  0.00     0.037 A 
ATOM     52  C   UNL A   1      44.106  25.357  29.043  1.00  0.00     0.049 A 
ATOM     53  C   UNL A   1      43.059  29.575  32.652  1.00  0.00     0.074 A 
ATOM     54  C   UNL A   1      45.153  26.258  28.937  1.00  0.00     0.029 A 
ATOM     55  N   UNL A   1      43.756  25.316  30.387  1.00  0.00    -0.354 N 
ATOM     56  N   UNL A   1      43.491  28.520  32.020  1.00  0.00    -0.248 NA
ATOM     57  C   UNL A   1      43.321  29.514  34.088  1.00  0.00     0.031 C 
ATOM     58  C   UNL A   1      45.421  26.776  30.225  1.00  0.00     0.029 A 
ATOM     59  C   UNL A   1      44.539  26.192  31.116  1.00  0.00     0.049 A 
ATOM     60  H   UNL A   1      43.049  24.744  30.767  1.00  0.00     0.167 HD
ATOM     61  C   UNL A   1      43.978  27.617  32.929  1.00  0.00     0.074 A 
ATOM     62  C   UNL A   1      43.897  28.305  34.203  1.00  0.00     0.031 C 
ATOM     63  C   UNL A   1      44.360  26.363  32.550  1.00  0.00     0.037 A 
BRANCH  50  64
ATOM     64  C   UNL A   1      43.736  23.741  27.016  1.00  0.00     0.064 A 
ATOM     65  C   UNL A   1      44.643  24.113  26.000  1.00  0.00     0.173 A 
ATOM     66  C   UNL A   1      43.304  22.403  26.957  1.00  0.00     0.173 A 
ATOM     67  F   UNL A   1      45.249  25.306  26.002  1.00  0.00    -0.203 F 
ATOM     68  C   UNL A   1      44.964  23.267  24.935  1.00  0.00     0.198 A 
ATOM     69  C   UNL A   1      43.572  21.578  25.861  1.00  0.00     0.198 A 
ATOM     70  F   UNL A   1      42.647  21.842  27.981  1.00  0.00    -0.203 F 
ATOM     71  F   UNL A   1      45.822  23.682  23.993  1.00  0.00    -0.200 F 
ATOM     72  C   UNL A   1      44.391  22.017  24.840  1.00  0.00     0.200 A 
ATOM     73  F   UNL A   1      43.030  20.353  25.801  1.00  0.00    -0.200 F 
ATOM     74  F   UNL A   1      44.650  21.229  23.788  1.00  0.00    -0.200 F 
ENDBRANCH  50  64
BRANCH  51  75
ATOM     75  C   UNL A   1      41.042  31.290  32.513  1.00  0.00     0.064 A 
ATOM     76  C   UNL A   1      40.839  32.665  32.290  1.00  0.00     0.173 A 
ATOM     77  C   UNL A   1      39.922  30.498  32.787  1.00  0.00     0.173 A 
ATOM     78  F   UNL A   1      41.889  33.464  32.039  1.00  0.00    -0.203 F 
ATOM     79  C   UNL A   1      39.558  33.187  32.159  1.00  0.00     0.198 A 
ATOM     80  C   UNL A   1      38.639  31.033  32.683  1.00  0.00     0.198 A 
ATOM     81  F   UNL A   1      40.057  29.183  33.011  1.00  0.00    -0.203 F 
ATOM     82  F   UNL A   1      39.391  34.461  31.777  1.00  0.00    -0.200 F 
ATOM     83  C   UNL A   1      38.458  32.360  32.315  1.00  0.00     0.200 A 
ATOM     84  F   UNL A   1      37.572  30.234  32.826  1.00  0.00    -0.200 F 
ATOM     85  F   UNL A   1      37.230  32.828  32.056  1.00  0.00    -0.200 F 
ENDBRANCH  51  75
BRANCH  63  86
ATOM     86  C   UNL A   1      44.690  25.228  33.484  1.00  0.00     0.064 A 
ATOM     87  C   UNL A   1      45.976  24.684  33.634  1.00  0.00     0.173 A 
ATOM     88  C   UNL A   1      43.708  24.722  34.369  1.00  0.00     0.173 A 
ATOM     89  F   UNL A   1      47.022  25.172  32.953  1.00  0.00    -0.203 F 
ATOM     90  C   UNL A   1      46.242  23.650  34.537  1.00  0.00     0.198 A 
ATOM     91  C   UNL A   1      43.989  23.731  35.309  1.00  0.00     0.198 A 
ATOM     92  F   UNL A   1      42.452  25.192  34.361  1.00  0.00    -0.203 F 
ATOM     93  F   UNL A   1      47.475  23.129  34.603  1.00  0.00    -0.200 F 
ATOM     94  C   UNL A   1      45.252  23.179  35.378  1.00  0.00     0.200 A 
ATOM     95  F   UNL A   1      43.033  23.326  36.157  1.00  0.00    -0.200 F 
ATOM     96  F   UNL A   1      45.519  22.212  36.265  1.00  0.00    -0.200 F 
ENDBRANCH  63  86
ENDBRANCH  37  38
ENDBRANCH  29  32
ENDBRANCH  27  28
ENDBRANCH  26  27
ENDBRANCH   1  26
TORSDOF 13
ENDMDL
MODEL 2
REMARK VINA RESULT:     -13.0      3.393      9.590
REMARK SMILES Cc1ccc(C(=O)NCCCNC(=O)c2ccc(-c3c4nc(c(-c5c(F)c(F)c(F)c(F)c5F)c5ccc([nH]5)c(-c5c(F)c(F)c(F)c(F)c5F)c5nc(c(-c6c(F)c(F)c(F)c(F)c6F)c6ccc3[nH]6)C=C5)C=C4)cc2)c(Oc2cccc(F)c2C(N)=O)c1
REMARK SMILES IDX 9 1 8 2 6 3 7 4 5 6 1 7 2 8 3 9 90 10 4 11 78 12 79 13 80 14
REMARK SMILES IDX 81 15 86 16 82 17 84 18 83 19 85 20 87 21 88 22 89 23 10 26
REMARK SMILES IDX 11 27 12 28 13 29 14 31 15 32 16 33 77 34 17 35 76 36 18 37
REMARK SMILES IDX 19 38 20 39 70 40 21 41 75 42 69 43 71 44 22 45 74 46 68 47
REMARK SMILES IDX 67 48 23 50 55 51 35 52 54 53 36 54 39 55 53 56 72 57 37 58
REMARK SMILES IDX 38 59 52 61 73 62 40 63 24 64 25 65 33 66 26 67 27 68 31 69
REMARK SMILES IDX 34 70 28 71 29 72 32 73 30 74 56 75 57 76 65 77 58 78 59 79
REMARK SMILES IDX 63 80 66 81 60 82 61 83 64 84 62 85 41 86 42 87 50 88 43 89
REMARK SMILES IDX 44 90 48 91 51 92 45 93 46 94 49 95 47 96
REMARK H PARENT 8 5 88 24 88 25 12 30 71 49 39 60
REMARK Flexibility Score: inf
ROOT
ATOM      1  C   UNL A   1      37.818  22.925  25.852  1.00  0.00     0.118 C 
ENDROOT
BRANCH   1   2
ATOM      2  N   UNL A   1      37.319  22.851  24.494  1.00  0.00    -0.352 N 
ATOM      3  C   UNL A   1      36.120  22.978  23.846  1.00  0.00     0.255 C 
ATOM      4  O   UNL A   1      36.220  22.991  22.613  1.00  0.00    -0.269 OA
ATOM      5  H   UNL A   1      38.045  22.657  23.859  1.00  0.00     0.163 HD
BRANCH   3   6
ATOM      6  C   UNL A   1      34.739  23.002  24.425  1.00  0.00     0.082 A 
ATOM      7  C   UNL A   1      30.675  22.456  25.871  1.00  0.00     0.044 C 
ATOM      8  C   UNL A   1      32.072  22.636  25.359  1.00  0.00    -0.047 A 
ATOM      9  C   UNL A   1      32.787  21.560  24.844  1.00  0.00     0.004 A 
ATOM     10  C   UNL A   1      32.666  23.899  25.352  1.00  0.00     0.051 A 
ATOM     11  C   UNL A   1      34.093  21.745  24.379  1.00  0.00     0.018 A 
ATOM     12  C   UNL A   1      34.000  24.079  24.936  1.00  0.00     0.140 A 
BRANCH  12  13
ATOM     13  O   UNL A   1      34.495  25.348  24.918  1.00  0.00    -0.456 OA
BRANCH  13  14
ATOM     14  C   UNL A   1      33.696  26.445  24.642  1.00  0.00     0.143 A 
ATOM     15  C   UNL A   1      33.574  27.265  25.784  1.00  0.00     0.048 A 
ATOM     16  C   UNL A   1      32.935  26.753  23.501  1.00  0.00     0.117 A 
ATOM     17  C   UNL A   1      32.715  28.363  25.809  1.00  0.00     0.007 A 
ATOM     18  C   UNL A   1      32.085  27.870  23.542  1.00  0.00     0.139 A 
ATOM     19  C   UNL A   1      31.967  28.664  24.681  1.00  0.00     0.040 A 
ATOM     20  F   UNL A   1      31.305  28.176  22.495  1.00  0.00    -0.206 F 
BRANCH  16  21
ATOM     21  C   UNL A   1      32.919  26.026  22.216  1.00  0.00     0.255 C 
ATOM     22  N   UNL A   1      31.979  25.054  22.032  1.00  0.00    -0.365 N 
ATOM     23  O   UNL A   1      33.710  26.308  21.325  1.00  0.00    -0.269 OA
ATOM     24  H   UNL A   1      31.348  24.836  22.757  1.00  0.00     0.159 HD
ATOM     25  H   UNL A   1      31.932  24.570  21.176  1.00  0.00     0.159 HD
ENDBRANCH  16  21
ENDBRANCH  13  14
ENDBRANCH  12  13
ENDBRANCH   3   6
ENDBRANCH   1   2
BRANCH   1  26
ATOM     26  C   UNL A   1      39.127  22.183  26.064  1.00  0.00     0.042 C 
BRANCH  26  27
ATOM     27  C   UNL A   1      40.004  22.863  27.097  1.00  0.00     0.118 C 
BRANCH  27  28
ATOM     28  N   UNL A   1      41.322  23.287  26.620  1.00  0.00    -0.352 N 
ATOM     29  C   UNL A   1      41.711  24.581  26.295  1.00  0.00     0.251 C 
ATOM     30  H   UNL A   1      42.003  22.583  26.518  1.00  0.00     0.163 HD
ATOM     31  O   UNL A   1      42.858  24.844  25.949  1.00  0.00    -0.269 OA
BRANCH  29  32
ATOM     32  C   UNL A   1      40.709  25.652  26.492  1.00  0.00     0.039 A 
ATOM     33  C   UNL A   1      41.067  26.938  26.080  1.00  0.00     0.014 A 
ATOM     34  C   UNL A   1      39.735  25.453  27.466  1.00  0.00     0.014 A 
ATOM     35  C   UNL A   1      40.669  28.022  26.856  1.00  0.00     0.010 A 
ATOM     36  C   UNL A   1      39.444  26.513  28.305  1.00  0.00     0.010 A 
ATOM     37  C   UNL A   1      39.973  27.784  28.043  1.00  0.00    -0.014 A 
BRANCH  37  38
ATOM     38  C   UNL A   1      39.849  28.795  29.092  1.00  0.00     0.031 A 
ATOM     39  C   UNL A   1      38.802  29.831  28.982  1.00  0.00     0.074 A 
ATOM     40  C   UNL A   1      40.693  28.843  30.152  1.00  0.00     0.049 A 
ATOM     41  N   UNL A   1      38.967  31.061  29.345  1.00  0.00    -0.248 NA
ATOM     42  C   UNL A   1      37.489  29.569  28.410  1.00  0.00     0.031 C 
ATOM     43  C   UNL A   1      40.566  29.707  31.325  1.00  0.00     0.029 A 
ATOM     44  N   UNL A   1      41.952  28.237  30.305  1.00  0.00    -0.354 N 
ATOM     45  C   UNL A   1      37.741  31.679  29.292  1.00  0.00     0.074 A 
ATOM     46  C   UNL A   1      36.865  30.724  28.651  1.00  0.00     0.031 C 
ATOM     47  C   UNL A   1      41.766  29.831  31.911  1.00  0.00     0.029 A 
ATOM     48  C   UNL A   1      42.730  29.127  31.088  1.00  0.00     0.049 A 
ATOM     49  H   UNL A   1      42.238  27.369  29.940  1.00  0.00     0.167 HD
ATOM     50  C   UNL A   1      37.556  32.881  29.910  1.00  0.00     0.037 A 
ATOM     51  C   UNL A   1      43.930  29.623  30.668  1.00  0.00     0.037 A 
ATOM     52  C   UNL A   1      38.769  33.326  30.590  1.00  0.00     0.049 A 
ATOM     53  C   UNL A   1      43.972  31.127  30.572  1.00  0.00     0.074 A 
ATOM     54  C   UNL A   1      39.176  33.223  31.910  1.00  0.00     0.029 A 
ATOM     55  N   UNL A   1      39.892  33.696  29.859  1.00  0.00    -0.354 N 
ATOM     56  N   UNL A   1      42.911  31.881  30.631  1.00  0.00    -0.248 NA
ATOM     57  C   UNL A   1      45.189  31.892  30.309  1.00  0.00     0.031 C 
ATOM     58  C   UNL A   1      40.558  33.513  31.970  1.00  0.00     0.029 A 
ATOM     59  C   UNL A   1      40.994  33.795  30.688  1.00  0.00     0.049 A 
ATOM     60  H   UNL A   1      39.901  33.862  28.888  1.00  0.00     0.167 HD
ATOM     61  C   UNL A   1      43.256  33.172  30.324  1.00  0.00     0.074 A 
ATOM     62  C   UNL A   1      44.698  33.137  30.180  1.00  0.00     0.031 C 
ATOM     63  C   UNL A   1      42.309  34.143  30.169  1.00  0.00     0.037 A 
BRANCH  50  64
ATOM     64  C   UNL A   1      36.190  33.477  30.163  1.00  0.00     0.064 A 
ATOM     65  C   UNL A   1      35.431  34.039  29.113  1.00  0.00     0.173 A 
ATOM     66  C   UNL A   1      35.594  33.573  31.434  1.00  0.00     0.173 A 
ATOM     67  F   UNL A   1      35.796  33.904  27.833  1.00  0.00    -0.203 F 
ATOM     68  C   UNL A   1      34.259  34.766  29.341  1.00  0.00     0.198 A 
ATOM     69  C   UNL A   1      34.459  34.352  31.672  1.00  0.00     0.198 A 
ATOM     70  F   UNL A   1      36.070  32.875  32.475  1.00  0.00    -0.203 F 
ATOM     71  F   UNL A   1      33.590  35.288  28.304  1.00  0.00    -0.200 F 
ATOM     72  C   UNL A   1      33.800  34.963  30.625  1.00  0.00     0.200 A 
ATOM     73  F   UNL A   1      34.009  34.508  32.926  1.00  0.00    -0.200 F 
ATOM     74  F   UNL A   1      32.712  35.712  30.850  1.00  0.00    -0.200 F 
ENDBRANCH  50  64
BRANCH  51  75
ATOM     75  C   UNL A   1      44.641  28.695  29.756  1.00  0.00     0.064 A 
ATOM     76  C   UNL A   1      45.263  27.569  30.329  1.00  0.00     0.173 A 
ATOM     77  C   UNL A   1      44.329  28.649  28.393  1.00  0.00     0.173 A 
ATOM     78  F   UNL A   1      45.593  27.577  31.630  1.00  0.00    -0.203 F 
ATOM     79  C   UNL A   1      45.394  26.384  29.615  1.00  0.00     0.198 A 
ATOM     80  C   UNL A   1      44.489  27.466  27.673  1.00  0.00     0.198 A 
ATOM     81  F   UNL A   1      43.740  29.694  27.795  1.00  0.00    -0.203 F 
ATOM     82  F   UNL A   1      45.830  25.277  30.232  1.00  0.00    -0.200 F 
ATOM     83  C   UNL A   1      44.968  26.322  28.299  1.00  0.00     0.200 A 
ATOM     84  F   UNL A   1      44.071  27.401  26.402  1.00  0.00    -0.200 F 
ATOM     85  F   UNL A   1      44.967  25.148  27.653  1.00  0.00    -0.200 F 
ENDBRANCH  51  75
BRANCH  63  86
ATOM     86  C   UNL A   1      42.552  35.522  29.615  1.00  0.00     0.064 A 
ATOM     87  C   UNL A   1      43.294  36.514  30.279  1.00  0.00     0.173 A 
ATOM     88  C   UNL A   1      42.130  35.851  28.306  1.00  0.00     0.173 A 
ATOM     89  F   UNL A   1      43.867  36.278  31.467  1.00  0.00    -0.203 F 
ATOM     90  C   UNL A   1      43.520  37.772  29.712  1.00  0.00     0.198 A 
ATOM     91  C   UNL A   1      42.406  37.087  27.720  1.00  0.00     0.198 A 
ATOM     92  F   UNL A   1      41.455  34.974  27.549  1.00  0.00    -0.203 F 
ATOM     93  F   UNL A   1      44.188  38.702  30.409  1.00  0.00    -0.200 F 
ATOM     94  C   UNL A   1      43.082  38.056  28.432  1.00  0.00     0.200 A 
ATOM     95  F   UNL A   1      42.026  37.325  26.457  1.00  0.00    -0.200 F 
ATOM     96  F   UNL A   1      43.330  39.250  27.880  1.00  0.00    -0.200 F 
ENDBRANCH  63  86
ENDBRANCH  37  38
ENDBRANCH  29  32
ENDBRANCH  27  28
ENDBRANCH  26  27
ENDBRANCH   1  26
TORSDOF 13
ENDMDL
MODEL 3
REMARK VINA RESULT:     -13.0      3.664      9.728
REMARK SMILES Cc1ccc(C(=O)NCCCNC(=O)c2ccc(-c3c4nc(c(-c5c(F)c(F)c(F)c(F)c5F)c5ccc([nH]5)c(-c5c(F)c(F)c(F)c(F)c5F)c5nc(c(-c6c(F)c(F)c(F)c(F)c6F)c6ccc3[nH]6)C=C5)C=C4)cc2)c(Oc2cccc(F)c2C(N)=O)c1
REMARK SMILES IDX 9 1 8 2 6 3 7 4 5 6 1 7 2 8 3 9 90 10 4 11 78 12 79 13 80 14
REMARK SMILES IDX 81 15 86 16 82 17 84 18 83 19 85 20 87 21 88 22 89 23 10 26
REMARK SMILES IDX 11 27 12 28 13 29 14 31 15 32 16 33 77 34 17 35 76 36 18 37
REMARK SMILES IDX 19 38 20 39 70 40 21 41 75 42 69 43 71 44 22 45 74 46 68 47
REMARK SMILES IDX 67 48 23 50 55 51 35 52 54 53 36 54 39 55 53 56 72 57 37 58
REMARK SMILES IDX 38 59 52 61 73 62 40 63 24 64 25 65 33 66 26 67 27 68 31 69
REMARK SMILES IDX 34 70 28 71 29 72 32 73 30 74 56 75 57 76 65 77 58 78 59 79
REMARK SMILES IDX 63 80 66 81 60 82 61 83 64 84 62 85 41 86 42 87 50 88 43 89
REMARK SMILES IDX 44 90 48 91 51 92 45 93 46 94 49 95 47 96
REMARK H PARENT 8 5 88 24 88 25 12 30 71 49 39 60
REMARK Flexibility Score: inf
ROOT
ATOM      1  C   UNL A   1      37.358  22.559  25.791  1.00  0.00     0.118 C 
ENDROOT
BRANCH   1   2
ATOM      2  N   UNL A   1      36.703  22.785  24.518  1.00  0.00    -0.352 N 
ATOM      3  C   UNL A   1      35.471  23.170  24.067  1.00  0.00     0.255 C 
ATOM      4  O   UNL A   1      35.431  23.384  22.849  1.00  0.00    -0.269 OA
ATOM      5  H   UNL A   1      37.318  22.615  23.769  1.00  0.00     0.163 HD
BRANCH   3   6
ATOM      6  C   UNL A   1      34.182  23.264  24.824  1.00  0.00     0.082 A 
ATOM      7  C   UNL A   1      30.304  22.945  26.764  1.00  0.00     0.044 C 
ATOM      8  C   UNL A   1      31.634  23.048  26.082  1.00  0.00    -0.047 A 
ATOM      9  C   UNL A   1      32.182  21.954  25.420  1.00  0.00     0.004 A 
ATOM     10  C   UNL A   1      32.329  24.259  26.064  1.00  0.00     0.051 A 
ATOM     11  C   UNL A   1      33.430  22.066  24.798  1.00  0.00     0.018 A 
ATOM     12  C   UNL A   1      33.609  24.360  25.485  1.00  0.00     0.140 A 
BRANCH  12  13
ATOM     13  O   UNL A   1      34.204  25.585  25.469  1.00  0.00    -0.456 OA
BRANCH  13  14
ATOM     14  C   UNL A   1      33.605  26.687  24.882  1.00  0.00     0.143 A 
ATOM     15  C   UNL A   1      33.658  26.585  23.475  1.00  0.00     0.048 A 
ATOM     16  C   UNL A   1      33.114  27.871  25.458  1.00  0.00     0.117 A 
ATOM     17  C   UNL A   1      33.242  27.627  22.648  1.00  0.00     0.007 A 
ATOM     18  C   UNL A   1      32.688  28.905  24.608  1.00  0.00     0.139 A 
ATOM     19  C   UNL A   1      32.756  28.793  23.221  1.00  0.00     0.040 A 
ATOM     20  F   UNL A   1      32.255  30.071  25.112  1.00  0.00    -0.206 F 
BRANCH  16  21
ATOM     21  C   UNL A   1      32.978  28.174  26.897  1.00  0.00     0.255 C 
ATOM     22  N   UNL A   1      31.854  27.753  27.545  1.00  0.00    -0.365 N 
ATOM     23  O   UNL A   1      33.865  28.763  27.501  1.00  0.00    -0.269 OA
ATOM     24  H   UNL A   1      31.146  27.280  27.048  1.00  0.00     0.159 HD
ATOM     25  H   UNL A   1      31.748  27.922  28.509  1.00  0.00     0.159 HD
ENDBRANCH  16  21
ENDBRANCH  13  14
ENDBRANCH  12  13
ENDBRANCH   3   6
ENDBRANCH   1   2
BRANCH   1  26
ATOM     26  C   UNL A   1      38.835  22.224  25.669  1.00  0.00     0.042 C 
BRANCH  26  27
ATOM     27  C   UNL A   1      39.632  22.727  26.857  1.00  0.00     0.118 C 
BRANCH  27  28
ATOM     28  N   UNL A   1      40.999  23.158  26.558  1.00  0.00    -0.352 N 
ATOM     29  C   UNL A   1      41.441  24.466  26.399  1.00  0.00     0.251 C 
ATOM     30  H   UNL A   1      41.675  22.449  26.460  1.00  0.00     0.163 HD
ATOM     31  O   UNL A   1      42.622  24.730  26.197  1.00  0.00    -0.269 OA
BRANCH  29  32
ATOM     32  C   UNL A   1      40.442  25.540  26.594  1.00  0.00     0.039 A 
ATOM     33  C   UNL A   1      40.781  26.813  26.128  1.00  0.00     0.014 A 
ATOM     34  C   UNL A   1      39.502  25.371  27.606  1.00  0.00     0.014 A 
ATOM     35  C   UNL A   1      40.405  27.921  26.880  1.00  0.00     0.010 A 
ATOM     36  C   UNL A   1      39.235  26.458  28.419  1.00  0.00     0.010 A 
ATOM     37  C   UNL A   1      39.751  27.721  28.098  1.00  0.00    -0.014 A 
BRANCH  37  38
ATOM     38  C   UNL A   1      39.658  28.765  29.116  1.00  0.00     0.031 A 
ATOM     39  C   UNL A   1      38.619  29.809  28.994  1.00  0.00     0.074 A 
ATOM     40  C   UNL A   1      40.523  28.838  30.157  1.00  0.00     0.049 A 
ATOM     41  N   UNL A   1      38.803  31.047  29.315  1.00  0.00    -0.248 NA
ATOM     42  C   UNL A   1      37.291  29.542  28.458  1.00  0.00     0.031 C 
ATOM     43  C   UNL A   1      40.429  29.741  31.304  1.00  0.00     0.029 A 
ATOM     44  N   UNL A   1      41.780  28.225  30.303  1.00  0.00    -0.354 N 
ATOM     45  C   UNL A   1      37.582  31.676  29.267  1.00  0.00     0.074 A 
ATOM     46  C   UNL A   1      36.684  30.711  28.674  1.00  0.00     0.031 C 
ATOM     47  C   UNL A   1      41.642  29.870  31.861  1.00  0.00     0.029 A 
ATOM     48  C   UNL A   1      42.582  29.131  31.042  1.00  0.00     0.049 A 
ATOM     49  H   UNL A   1      42.049  27.342  29.960  1.00  0.00     0.167 HD
ATOM     50  C   UNL A   1      37.422  32.899  29.850  1.00  0.00     0.037 A 
ATOM     51  C   UNL A   1      43.778  29.601  30.582  1.00  0.00     0.037 A 
ATOM     52  C   UNL A   1      38.652  33.352  30.490  1.00  0.00     0.049 A 
ATOM     53  C   UNL A   1      43.832  31.100  30.437  1.00  0.00     0.074 A 
ATOM     54  C   UNL A   1      39.086  33.287  31.805  1.00  0.00     0.029 A 
ATOM     55  N   UNL A   1      39.763  33.687  29.726  1.00  0.00    -0.354 N 
ATOM     56  N   UNL A   1      42.780  31.867  30.494  1.00  0.00    -0.248 NA
ATOM     57  C   UNL A   1      45.051  31.844  30.125  1.00  0.00     0.031 C 
ATOM     58  C   UNL A   1      40.471  33.565  31.828  1.00  0.00     0.029 A 
ATOM     59  C   UNL A   1      40.884  33.801  30.529  1.00  0.00     0.049 A 
ATOM     60  H   UNL A   1      39.754  33.823  28.750  1.00  0.00     0.167 HD
ATOM     61  C   UNL A   1      43.131  33.143  30.139  1.00  0.00     0.074 A 
ATOM     62  C   UNL A   1      44.570  33.090  29.967  1.00  0.00     0.031 C 
ATOM     63  C   UNL A   1      42.191  34.119  29.973  1.00  0.00     0.037 A 
BRANCH  50  64
ATOM     64  C   UNL A   1      36.066  33.517  30.111  1.00  0.00     0.064 A 
ATOM     65  C   UNL A   1      35.281  34.031  29.057  1.00  0.00     0.173 A 
ATOM     66  C   UNL A   1      35.508  33.679  31.393  1.00  0.00     0.173 A 
ATOM     67  F   UNL A   1      35.609  33.830  27.775  1.00  0.00    -0.203 F 
ATOM     68  C   UNL A   1      34.121  34.777  29.281  1.00  0.00     0.198 A 
ATOM     69  C   UNL A   1      34.384  34.478  31.624  1.00  0.00     0.198 A 
ATOM     70  F   UNL A   1      36.009  33.031  32.453  1.00  0.00    -0.203 F 
ATOM     71  F   UNL A   1      33.426  35.252  28.239  1.00  0.00    -0.200 F 
ATOM     72  C   UNL A   1      33.699  35.041  30.566  1.00  0.00     0.200 A 
ATOM     73  F   UNL A   1      33.972  34.699  32.880  1.00  0.00    -0.200 F 
ATOM     74  F   UNL A   1      32.623  35.808  30.784  1.00  0.00    -0.200 F 
ENDBRANCH  50  64
BRANCH  51  75
ATOM     75  C   UNL A   1      44.461  28.637  29.686  1.00  0.00     0.064 A 
ATOM     76  C   UNL A   1      44.315  28.824  28.298  1.00  0.00     0.173 A 
ATOM     77  C   UNL A   1      45.554  27.889  30.136  1.00  0.00     0.173 A 
ATOM     78  F   UNL A   1      43.271  29.522  27.823  1.00  0.00    -0.203 F 
ATOM     79  C   UNL A   1      45.319  28.442  27.416  1.00  0.00     0.198 A 
ATOM     80  C   UNL A   1      46.545  27.483  29.243  1.00  0.00     0.198 A 
ATOM     81  F   UNL A   1      45.738  27.676  31.446  1.00  0.00    -0.203 F 
ATOM     82  F   UNL A   1      45.238  28.783  26.122  1.00  0.00    -0.200 F 
ATOM     83  C   UNL A   1      46.453  27.808  27.896  1.00  0.00     0.200 A 
ATOM     84  F   UNL A   1      47.646  26.875  29.705  1.00  0.00    -0.200 F 
ATOM     85  F   UNL A   1      47.479  27.562  27.070  1.00  0.00    -0.200 F 
ENDBRANCH  51  75
BRANCH  63  86
ATOM     86  C   UNL A   1      42.436  35.478  29.370  1.00  0.00     0.064 A 
ATOM     87  C   UNL A   1      41.844  35.926  28.178  1.00  0.00     0.173 A 
ATOM     88  C   UNL A   1      43.209  36.438  30.065  1.00  0.00     0.173 A 
ATOM     89  F   UNL A   1      40.980  35.159  27.499  1.00  0.00    -0.203 F 
ATOM     90  C   UNL A   1      42.077  37.207  27.672  1.00  0.00     0.198 A 
ATOM     91  C   UNL A   1      43.394  37.735  29.586  1.00  0.00     0.198 A 
ATOM     92  F   UNL A   1      43.789  36.151  31.240  1.00  0.00    -0.203 F 
ATOM     93  F   UNL A   1      41.530  37.568  26.502  1.00  0.00    -0.200 F 
ATOM     94  C   UNL A   1      42.846  38.114  28.378  1.00  0.00     0.200 A 
ATOM     95  F   UNL A   1      44.093  38.620  30.311  1.00  0.00    -0.200 F 
ATOM     96  F   UNL A   1      43.039  39.351  27.906  1.00  0.00    -0.200 F 
ENDBRANCH  63  86
ENDBRANCH  37  38
ENDBRANCH  29  32
ENDBRANCH  27  28
ENDBRANCH  26  27
ENDBRANCH   1  26
TORSDOF 13
ENDMDL
