MODEL 1
REMARK VINA RESULT:     -11.5      0.000      0.000
REMARK SMILES CC(C)C[C@H](NC(=O)CNC(=O)[C@@H](NC(=O)OCc1ccccc1)C(C)C)C(=O)N[C@@H](C)C(=O)NCCCNC(=O)c1ccc(-c2c3nc(c(-c4c(F)c(F)c(F)c(F)c4F)c4ccc([nH]4)c(-c4c(F)c(F)c(F)c(F)c4F)c4nc(c(-c5c(F)c(F)c(F)c(F)c5F)c5ccc2[nH]5)C=C4)C=C3)cc1
REMARK SMILES IDX 28 1 29 2 30 3 5 5 4 6 2 7 1 8 3 9 6 10 7 11 8 13 9 14 10 15
REMARK SMILES IDX 11 16 12 18 13 19 14 20 15 21 16 23 17 24 18 25 19 26 20 27
REMARK SMILES IDX 24 28 21 29 23 30 22 31 25 32 26 33 27 34 31 35 32 36 33 37
REMARK SMILES IDX 34 38 35 39 36 41 37 42 38 43 39 44 40 45 41 47 42 48 43 49
REMARK SMILES IDX 104 50 44 51 103 52 45 53 46 54 47 55 97 56 48 57 102 58
REMARK SMILES IDX 96 59 98 60 49 61 101 62 95 63 94 64 50 66 82 67 62 68 81 69
REMARK SMILES IDX 63 70 66 71 80 72 99 73 64 74 65 75 79 77 100 78 67 79 51 80
REMARK SMILES IDX 52 81 60 82 53 83 54 84 58 85 61 86 55 87 56 88 59 89 57 90
REMARK SMILES IDX 83 91 84 92 92 93 85 94 86 95 90 96 93 97 87 98 88 99 91 100
REMARK SMILES IDX 89 101 68 102 69 103 77 104 70 105 71 106 75 107 78 108
REMARK SMILES IDX 72 109 73 110 76 111 74 112
REMARK H PARENT 30 4 6 12 10 17 14 22 35 40 39 46 98 65 66 76
REMARK Flexibility Score: inf
ROOT
ATOM      1  C   UNL A   1      32.662  29.189  26.672  1.00  0.00     0.243 C 
ATOM      2  O   UNL A   1      32.690  27.998  27.002  1.00  0.00    -0.273 OA
ATOM      3  N   UNL A   1      33.155  30.112  27.546  1.00  0.00    -0.343 N 
ATOM      4  H   UNL A   1      33.292  29.788  28.466  1.00  0.00     0.164 HD
ENDROOT
BRANCH   1   5
ATOM      5  C   UNL A   1      32.137  29.594  25.283  1.00  0.00     0.171 C 
BRANCH   5   6
ATOM      6  C   UNL A   1      30.868  28.847  24.840  1.00  0.00     0.038 C 
BRANCH   6   7
ATOM      7  C   UNL A   1      30.268  29.279  23.468  1.00  0.00    -0.015 C 
ATOM      8  C   UNL A   1      29.346  28.255  22.809  1.00  0.00     0.007 C 
ATOM      9  C   UNL A   1      29.450  30.558  23.643  1.00  0.00     0.007 C 
ENDBRANCH   6   7
ENDBRANCH   5   6
BRANCH   5  10
ATOM     10  N   UNL A   1      33.259  29.552  24.336  1.00  0.00    -0.343 N 
ATOM     11  C   UNL A   1      33.889  28.537  23.696  1.00  0.00     0.240 C 
ATOM     12  H   UNL A   1      33.626  30.441  24.123  1.00  0.00     0.164 HD
ATOM     13  O   UNL A   1      34.588  28.859  22.726  1.00  0.00    -0.273 OA
BRANCH  11  14
ATOM     14  C   UNL A   1      33.692  27.058  24.033  1.00  0.00     0.216 C 
BRANCH  14  15
ATOM     15  N   UNL A   1      32.591  26.389  23.379  1.00  0.00    -0.345 N 
ATOM     16  C   UNL A   1      32.053  25.151  23.440  1.00  0.00     0.243 C 
ATOM     17  H   UNL A   1      32.123  26.972  22.738  1.00  0.00     0.164 HD
ATOM     18  O   UNL A   1      31.083  24.998  22.683  1.00  0.00    -0.273 OA
BRANCH  16  19
ATOM     19  C   UNL A   1      32.500  23.977  24.380  1.00  0.00     0.177 C 
BRANCH  19  20
ATOM     20  N   UNL A   1      31.634  23.709  25.531  1.00  0.00    -0.309 N 
ATOM     21  C   UNL A   1      31.939  23.362  26.796  1.00  0.00     0.408 C 
ATOM     22  H   UNL A   1      30.671  23.796  25.348  1.00  0.00     0.167 HD
ATOM     23  O   UNL A   1      31.106  22.831  27.524  1.00  0.00    -0.225 OA
BRANCH  21  24
ATOM     24  O   UNL A   1      33.181  23.730  27.151  1.00  0.00    -0.445 OA
BRANCH  24  25
ATOM     25  C   UNL A   1      34.082  22.654  27.412  1.00  0.00     0.270 C 
BRANCH  25  26
ATOM     26  C   UNL A   1      35.178  22.484  26.373  1.00  0.00    -0.011 A 
ATOM     27  C   UNL A   1      35.407  21.202  25.856  1.00  0.00     0.007 A 
ATOM     28  C   UNL A   1      36.048  23.515  25.978  1.00  0.00     0.007 A 
ATOM     29  C   UNL A   1      36.478  20.960  24.994  1.00  0.00     0.000 A 
ATOM     30  C   UNL A   1      37.123  23.273  25.123  1.00  0.00     0.000 A 
ATOM     31  C   UNL A   1      37.342  21.991  24.636  1.00  0.00     0.000 A 
ENDBRANCH  25  26
ENDBRANCH  24  25
ENDBRANCH  21  24
ENDBRANCH  19  20
BRANCH  19  32
ATOM     32  C   UNL A   1      33.061  22.766  23.601  1.00  0.00     0.015 C 
ATOM     33  C   UNL A   1      31.971  22.089  22.750  1.00  0.00     0.010 C 
ATOM     34  C   UNL A   1      34.178  23.189  22.636  1.00  0.00     0.010 C 
ENDBRANCH  19  32
ENDBRANCH  16  19
ENDBRANCH  14  15
ENDBRANCH  11  14
ENDBRANCH   5  10
ENDBRANCH   1   5
BRANCH   3  35
ATOM     35  C   UNL A   1      33.512  31.516  27.321  1.00  0.00     0.168 C 
ATOM     36  C   UNL A   1      32.294  32.429  27.362  1.00  0.00     0.041 C 
BRANCH  35  37
ATOM     37  C   UNL A   1      34.634  31.980  28.258  1.00  0.00     0.242 C 
ATOM     38  O   UNL A   1      35.321  31.158  28.871  1.00  0.00    -0.273 OA
ATOM     39  N   UNL A   1      34.953  33.289  28.401  1.00  0.00    -0.354 N 
ATOM     40  H   UNL A   1      35.666  33.470  29.054  1.00  0.00     0.163 HD
BRANCH  39  41
ATOM     41  C   UNL A   1      34.418  34.470  27.752  1.00  0.00     0.117 C 
BRANCH  41  42
ATOM     42  C   UNL A   1      33.950  35.504  28.761  1.00  0.00     0.042 C 
BRANCH  42  43
ATOM     43  C   UNL A   1      32.963  34.945  29.776  1.00  0.00     0.118 C 
BRANCH  43  44
ATOM     44  N   UNL A   1      32.579  35.933  30.778  1.00  0.00    -0.352 N 
ATOM     45  C   UNL A   1      32.950  36.030  32.096  1.00  0.00     0.251 C 
ATOM     46  H   UNL A   1      31.962  36.633  30.464  1.00  0.00     0.163 HD
ATOM     47  O   UNL A   1      32.350  36.780  32.857  1.00  0.00    -0.269 OA
BRANCH  45  48
ATOM     48  C   UNL A   1      34.078  35.218  32.586  1.00  0.00     0.039 A 
ATOM     49  C   UNL A   1      33.831  33.975  33.171  1.00  0.00     0.014 A 
ATOM     50  C   UNL A   1      35.385  35.691  32.448  1.00  0.00     0.014 A 
ATOM     51  C   UNL A   1      34.905  33.173  33.558  1.00  0.00     0.010 A 
ATOM     52  C   UNL A   1      36.450  34.853  32.737  1.00  0.00     0.010 A 
ATOM     53  C   UNL A   1      36.221  33.593  33.311  1.00  0.00    -0.014 A 
BRANCH  53  54
ATOM     54  C   UNL A   1      37.396  32.768  33.679  1.00  0.00     0.031 A 
ATOM     55  C   UNL A   1      38.122  33.062  34.962  1.00  0.00     0.074 A 
ATOM     56  C   UNL A   1      37.868  31.841  32.824  1.00  0.00     0.049 A 
ATOM     57  N   UNL A   1      39.265  32.598  35.395  1.00  0.00    -0.248 NA
ATOM     58  C   UNL A   1      37.494  34.046  35.859  1.00  0.00     0.031 C 
ATOM     59  C   UNL A   1      37.267  31.491  31.537  1.00  0.00     0.029 A 
ATOM     60  N   UNL A   1      38.979  31.040  32.902  1.00  0.00    -0.354 N 
ATOM     61  C   UNL A   1      39.501  33.251  36.598  1.00  0.00     0.074 A 
ATOM     62  C   UNL A   1      38.420  34.190  36.793  1.00  0.00     0.031 C 
ATOM     63  C   UNL A   1      38.012  30.542  30.948  1.00  0.00     0.029 A 
ATOM     64  C   UNL A   1      39.168  30.254  31.791  1.00  0.00     0.049 A 
ATOM     65  H   UNL A   1      39.583  31.031  33.679  1.00  0.00     0.167 HD
ATOM     66  C   UNL A   1      40.516  33.062  37.474  1.00  0.00     0.037 A 
ATOM     67  C   UNL A   1      40.175  29.415  31.482  1.00  0.00     0.037 A 
ATOM     68  C   UNL A   1      41.575  32.110  37.279  1.00  0.00     0.049 A 
ATOM     69  C   UNL A   1      41.307  29.238  32.461  1.00  0.00     0.074 A 
ATOM     70  C   UNL A   1      42.631  31.809  38.120  1.00  0.00     0.029 A 
ATOM     71  N   UNL A   1      41.712  31.304  36.158  1.00  0.00    -0.354 N 
ATOM     72  N   UNL A   1      41.499  29.822  33.618  1.00  0.00    -0.248 NA
ATOM     73  C   UNL A   1      42.359  28.281  32.092  1.00  0.00     0.031 C 
ATOM     74  C   UNL A   1      43.437  30.860  37.484  1.00  0.00     0.029 A 
ATOM     75  C   UNL A   1      42.845  30.517  36.278  1.00  0.00     0.049 A 
ATOM     76  H   UNL A   1      41.095  31.293  35.390  1.00  0.00     0.167 HD
ATOM     77  C   UNL A   1      42.665  29.275  34.135  1.00  0.00     0.074 A 
ATOM     78  C   UNL A   1      43.139  28.311  33.164  1.00  0.00     0.031 C 
ATOM     79  C   UNL A   1      43.284  29.542  35.312  1.00  0.00     0.037 A 
BRANCH  66  80
ATOM     80  C   UNL A   1      40.524  33.906  38.716  1.00  0.00     0.064 A 
ATOM     81  C   UNL A   1      41.230  35.118  38.782  1.00  0.00     0.173 A 
ATOM     82  C   UNL A   1      39.806  33.507  39.854  1.00  0.00     0.173 A 
ATOM     83  F   UNL A   1      41.944  35.542  37.728  1.00  0.00    -0.203 F 
ATOM     84  C   UNL A   1      41.251  35.875  39.951  1.00  0.00     0.198 A 
ATOM     85  C   UNL A   1      39.797  34.285  41.008  1.00  0.00     0.198 A 
ATOM     86  F   UNL A   1      39.108  32.361  39.847  1.00  0.00    -0.203 F 
ATOM     87  F   UNL A   1      41.987  36.993  40.009  1.00  0.00    -0.200 F 
ATOM     88  C   UNL A   1      40.529  35.462  41.060  1.00  0.00     0.200 A 
ATOM     89  F   UNL A   1      39.085  33.894  42.074  1.00  0.00    -0.200 F 
ATOM     90  F   UNL A   1      40.546  36.194  42.183  1.00  0.00    -0.200 F 
ENDBRANCH  66  80
BRANCH  67  91
ATOM     91  C   UNL A   1      40.149  28.668  30.197  1.00  0.00     0.064 A 
ATOM     92  C   UNL A   1      40.769  29.185  29.051  1.00  0.00     0.173 A 
ATOM     93  C   UNL A   1      39.508  27.425  30.084  1.00  0.00     0.173 A 
ATOM     94  F   UNL A   1      41.381  30.377  29.101  1.00  0.00    -0.203 F 
ATOM     95  C   UNL A   1      40.730  28.499  27.838  1.00  0.00     0.198 A 
ATOM     96  C   UNL A   1      39.495  26.726  28.880  1.00  0.00     0.198 A 
ATOM     97  F   UNL A   1      38.905  26.881  31.153  1.00  0.00    -0.203 F 
ATOM     98  F   UNL A   1      41.289  29.040  26.747  1.00  0.00    -0.200 F 
ATOM     99  C   UNL A   1      40.098  27.268  27.754  1.00  0.00     0.200 A 
ATOM    100  F   UNL A   1      38.900  25.528  28.809  1.00  0.00    -0.200 F 
ATOM    101  F   UNL A   1      40.064  26.607  26.589  1.00  0.00    -0.200 F 
ENDBRANCH  67  91
BRANCH  79 102
ATOM    102  C   UNL A   1      44.502  28.736  35.658  1.00  0.00     0.064 A 
ATOM    103  C   UNL A   1      45.796  29.161  35.328  1.00  0.00     0.173 A 
ATOM    104  C   UNL A   1      44.369  27.554  36.405  1.00  0.00     0.173 A 
ATOM    105  F   UNL A   1      45.976  30.277  34.603  1.00  0.00    -0.203 F 
ATOM    106  C   UNL A   1      46.911  28.426  35.721  1.00  0.00     0.198 A 
ATOM    107  C   UNL A   1      45.488  26.841  36.825  1.00  0.00     0.198 A 
ATOM    108  F   UNL A   1      43.153  27.107  36.753  1.00  0.00    -0.203 F 
ATOM    109  F   UNL A   1      48.138  28.832  35.363  1.00  0.00    -0.200 F 
ATOM    110  C   UNL A   1      46.758  27.274  36.478  1.00  0.00     0.200 A 
ATOM    111  F   UNL A   1      45.336  25.739  37.572  1.00  0.00    -0.200 F 
ATOM    112  F   UNL A   1      47.834  26.581  36.873  1.00  0.00    -0.200 F 
ENDBRANCH  79 102
ENDBRANCH  53  54
ENDBRANCH  45  48
ENDBRANCH  43  44
ENDBRANCH  42  43
ENDBRANCH  41  42
ENDBRANCH  39  41
ENDBRANCH  35  37
ENDBRANCH   3  35
TORSDOF 23
ENDMDL
MODEL 2
REMARK VINA RESULT:     -10.6      5.145      7.594
REMARK SMILES CC(C)C[C@H](NC(=O)CNC(=O)[C@@H](NC(=O)OCc1ccccc1)C(C)C)C(=O)N[C@@H](C)C(=O)NCCCNC(=O)c1ccc(-c2c3nc(c(-c4c(F)c(F)c(F)c(F)c4F)c4ccc([nH]4)c(-c4c(F)c(F)c(F)c(F)c4F)c4nc(c(-c5c(F)c(F)c(F)c(F)c5F)c5ccc2[nH]5)C=C4)C=C3)cc1
REMARK SMILES IDX 28 1 29 2 30 3 5 5 4 6 2 7 1 8 3 9 6 10 7 11 8 13 9 14 10 15
REMARK SMILES IDX 11 16 12 18 13 19 14 20 15 21 16 23 17 24 18 25 19 26 20 27
REMARK SMILES IDX 24 28 21 29 23 30 22 31 25 32 26 33 27 34 31 35 32 36 33 37
REMARK SMILES IDX 34 38 35 39 36 41 37 42 38 43 39 44 40 45 41 47 42 48 43 49
REMARK SMILES IDX 104 50 44 51 103 52 45 53 46 54 47 55 97 56 48 57 102 58
REMARK SMILES IDX 96 59 98 60 49 61 101 62 95 63 94 64 50 66 82 67 62 68 81 69
REMARK SMILES IDX 63 70 66 71 80 72 99 73 64 74 65 75 79 77 100 78 67 79 51 80
REMARK SMILES IDX 52 81 60 82 53 83 54 84 58 85 61 86 55 87 56 88 59 89 57 90
REMARK SMILES IDX 83 91 84 92 92 93 85 94 86 95 90 96 93 97 87 98 88 99 91 100
REMARK SMILES IDX 89 101 68 102 69 103 77 104 70 105 71 106 75 107 78 108
REMARK SMILES IDX 72 109 73 110 76 111 74 112
REMARK H PARENT 30 4 6 12 10 17 14 22 35 40 39 46 98 65 66 76
REMARK Flexibility Score: inf
ROOT
ATOM      1  C   UNL A   1      31.220  28.419  24.868  1.00  0.00     0.243 C 
ATOM      2  O   UNL A   1      30.833  27.245  24.897  1.00  0.00    -0.273 OA
ATOM      3  N   UNL A   1      31.653  28.985  26.030  1.00  0.00    -0.343 N 
ATOM      4  H   UNL A   1      31.416  28.493  26.850  1.00  0.00     0.164 HD
ENDROOT
BRANCH   1   5
ATOM      5  C   UNL A   1      31.263  29.184  23.534  1.00  0.00     0.171 C 
BRANCH   5   6
ATOM      6  C   UNL A   1      30.041  28.956  22.629  1.00  0.00     0.038 C 
BRANCH   6   7
ATOM      7  C   UNL A   1      29.222  30.230  22.257  1.00  0.00    -0.015 C 
ATOM      8  C   UNL A   1      27.826  29.964  21.698  1.00  0.00     0.007 C 
ATOM      9  C   UNL A   1      29.039  31.104  23.497  1.00  0.00     0.007 C 
ENDBRANCH   6   7
ENDBRANCH   5   6
BRANCH   5  10
ATOM     10  N   UNL A   1      32.570  28.943  22.905  1.00  0.00    -0.343 N 
ATOM     11  C   UNL A   1      33.311  27.824  22.718  1.00  0.00     0.240 C 
ATOM     12  H   UNL A   1      32.990  29.759  22.548  1.00  0.00     0.164 HD
ATOM     13  O   UNL A   1      34.215  27.908  21.877  1.00  0.00    -0.273 OA
BRANCH  11  14
ATOM     14  C   UNL A   1      33.018  26.481  23.387  1.00  0.00     0.216 C 
BRANCH  14  15
ATOM     15  N   UNL A   1      33.237  25.299  22.585  1.00  0.00    -0.345 N 
ATOM     16  C   UNL A   1      33.658  24.039  22.834  1.00  0.00     0.243 C 
ATOM     17  H   UNL A   1      33.034  25.447  21.634  1.00  0.00     0.164 HD
ATOM     18  O   UNL A   1      33.700  23.325  21.822  1.00  0.00    -0.273 OA
BRANCH  16  19
ATOM     19  C   UNL A   1      34.022  23.430  24.234  1.00  0.00     0.177 C 
BRANCH  19  20
ATOM     20  N   UNL A   1      32.909  22.858  24.996  1.00  0.00    -0.309 N 
ATOM     21  C   UNL A   1      32.343  21.637  24.940  1.00  0.00     0.408 C 
ATOM     22  H   UNL A   1      32.510  23.468  25.659  1.00  0.00     0.167 HD
ATOM     23  O   UNL A   1      31.214  21.444  25.379  1.00  0.00    -0.225 OA
BRANCH  21  24
ATOM     24  O   UNL A   1      33.170  20.704  24.442  1.00  0.00    -0.445 OA
BRANCH  24  25
ATOM     25  C   UNL A   1      32.526  19.592  23.820  1.00  0.00     0.270 C 
BRANCH  25  26
ATOM     26  C   UNL A   1      33.041  18.234  24.270  1.00  0.00    -0.011 A 
ATOM     27  C   UNL A   1      32.263  17.497  25.172  1.00  0.00     0.007 A 
ATOM     28  C   UNL A   1      34.302  17.721  23.920  1.00  0.00     0.007 A 
ATOM     29  C   UNL A   1      32.737  16.302  25.716  1.00  0.00     0.000 A 
ATOM     30  C   UNL A   1      34.781  16.532  24.469  1.00  0.00     0.000 A 
ATOM     31  C   UNL A   1      34.000  15.825  25.374  1.00  0.00     0.000 A 
ENDBRANCH  25  26
ENDBRANCH  24  25
ENDBRANCH  21  24
ENDBRANCH  19  20
BRANCH  19  32
ATOM     32  C   UNL A   1      35.360  22.655  24.220  1.00  0.00     0.015 C 
ATOM     33  C   UNL A   1      36.463  23.447  23.496  1.00  0.00     0.010 C 
ATOM     34  C   UNL A   1      35.867  22.390  25.646  1.00  0.00     0.010 C 
ENDBRANCH  19  32
ENDBRANCH  16  19
ENDBRANCH  14  15
ENDBRANCH  11  14
ENDBRANCH   5  10
ENDBRANCH   1   5
BRANCH   3  35
ATOM     35  C   UNL A   1      32.417  30.218  26.243  1.00  0.00     0.168 C 
ATOM     36  C   UNL A   1      31.512  31.414  26.506  1.00  0.00     0.041 C 
BRANCH  35  37
ATOM     37  C   UNL A   1      33.499  30.044  27.316  1.00  0.00     0.242 C 
ATOM     38  O   UNL A   1      33.902  28.920  27.626  1.00  0.00    -0.273 OA
ATOM     39  N   UNL A   1      34.092  31.106  27.915  1.00  0.00    -0.354 N 
ATOM     40  H   UNL A   1      34.746  30.872  28.611  1.00  0.00     0.163 HD
BRANCH  39  41
ATOM     41  C   UNL A   1      33.922  32.529  27.700  1.00  0.00     0.117 C 
BRANCH  41  42
ATOM     42  C   UNL A   1      33.863  33.293  29.011  1.00  0.00     0.042 C 
BRANCH  42  43
ATOM     43  C   UNL A   1      35.210  33.380  29.714  1.00  0.00     0.118 C 
BRANCH  43  44
ATOM     44  N   UNL A   1      35.114  33.079  31.138  1.00  0.00    -0.352 N 
ATOM     45  C   UNL A   1      35.918  32.286  31.919  1.00  0.00     0.251 C 
ATOM     46  H   UNL A   1      34.363  33.506  31.608  1.00  0.00     0.163 HD
ATOM     47  O   UNL A   1      35.558  31.952  33.042  1.00  0.00    -0.269 OA
BRANCH  45  48
ATOM     48  C   UNL A   1      37.218  31.837  31.389  1.00  0.00     0.039 A 
ATOM     49  C   UNL A   1      38.173  31.309  32.258  1.00  0.00     0.014 A 
ATOM     50  C   UNL A   1      37.477  31.930  30.019  1.00  0.00     0.014 A 
ATOM     51  C   UNL A   1      39.369  30.810  31.741  1.00  0.00     0.010 A 
ATOM     52  C   UNL A   1      38.617  31.341  29.497  1.00  0.00     0.010 A 
ATOM     53  C   UNL A   1      39.583  30.790  30.354  1.00  0.00    -0.014 A 
BRANCH  53  54
ATOM     54  C   UNL A   1      40.823  30.248  29.752  1.00  0.00     0.031 A 
ATOM     55  C   UNL A   1      41.968  31.180  29.472  1.00  0.00     0.074 A 
ATOM     56  C   UNL A   1      40.882  28.959  29.367  1.00  0.00     0.049 A 
ATOM     57  N   UNL A   1      43.067  30.968  28.795  1.00  0.00    -0.248 NA
ATOM     58  C   UNL A   1      41.836  32.553  29.989  1.00  0.00     0.031 C 
ATOM     59  C   UNL A   1      39.822  27.968  29.556  1.00  0.00     0.029 A 
ATOM     60  N   UNL A   1      41.869  28.269  28.709  1.00  0.00    -0.354 N 
ATOM     61  C   UNL A   1      43.739  32.183  28.785  1.00  0.00     0.074 A 
ATOM     62  C   UNL A   1      42.898  33.142  29.463  1.00  0.00     0.031 C 
ATOM     63  C   UNL A   1      40.218  26.796  29.035  1.00  0.00     0.029 A 
ATOM     64  C   UNL A   1      41.535  26.967  28.430  1.00  0.00     0.049 A 
ATOM     65  H   UNL A   1      42.734  28.670  28.462  1.00  0.00     0.167 HD
ATOM     66  C   UNL A   1      44.963  32.464  28.279  1.00  0.00     0.037 A 
ATOM     67  C   UNL A   1      42.209  26.026  27.741  1.00  0.00     0.037 A 
ATOM     68  C   UNL A   1      45.800  31.495  27.624  1.00  0.00     0.049 A 
ATOM     69  C   UNL A   1      43.559  26.367  27.165  1.00  0.00     0.074 A 
ATOM     70  C   UNL A   1      47.073  31.662  27.110  1.00  0.00     0.029 A 
ATOM     71  N   UNL A   1      45.443  30.175  27.393  1.00  0.00    -0.354 N 
ATOM     72  N   UNL A   1      44.211  27.503  27.202  1.00  0.00    -0.248 NA
ATOM     73  C   UNL A   1      44.269  25.293  26.457  1.00  0.00     0.031 C 
ATOM     74  C   UNL A   1      47.465  30.458  26.518  1.00  0.00     0.029 A 
ATOM     75  C   UNL A   1      46.465  29.519  26.726  1.00  0.00     0.049 A 
ATOM     76  H   UNL A   1      44.589  29.764  27.661  1.00  0.00     0.167 HD
ATOM     77  C   UNL A   1      45.421  27.272  26.563  1.00  0.00     0.074 A 
ATOM     78  C   UNL A   1      45.414  25.885  26.147  1.00  0.00     0.031 C 
ATOM     79  C   UNL A   1      46.449  28.129  26.346  1.00  0.00     0.037 A 
BRANCH  66  80
ATOM     80  C   UNL A   1      45.461  33.874  28.415  1.00  0.00     0.064 A 
ATOM     81  C   UNL A   1      45.095  34.878  27.503  1.00  0.00     0.173 A 
ATOM     82  C   UNL A   1      46.306  34.233  29.476  1.00  0.00     0.173 A 
ATOM     83  F   UNL A   1      44.301  34.588  26.461  1.00  0.00    -0.203 F 
ATOM     84  C   UNL A   1      45.589  36.174  27.626  1.00  0.00     0.198 A 
ATOM     85  C   UNL A   1      46.765  35.540  29.619  1.00  0.00     0.198 A 
ATOM     86  F   UNL A   1      46.683  33.318  30.381  1.00  0.00    -0.203 F 
ATOM     87  F   UNL A   1      45.279  37.097  26.704  1.00  0.00    -0.200 F 
ATOM     88  C   UNL A   1      46.416  36.506  28.687  1.00  0.00     0.200 A 
ATOM     89  F   UNL A   1      47.552  35.863  30.654  1.00  0.00    -0.200 F 
ATOM     90  F   UNL A   1      46.887  37.756  28.807  1.00  0.00    -0.200 F 
ENDBRANCH  66  80
BRANCH  67  91
ATOM     91  C   UNL A   1      41.624  24.669  27.571  1.00  0.00     0.064 A 
ATOM     92  C   UNL A   1      42.139  23.570  28.271  1.00  0.00     0.173 A 
ATOM     93  C   UNL A   1      40.541  24.442  26.709  1.00  0.00     0.173 A 
ATOM     94  F   UNL A   1      43.185  23.730  29.094  1.00  0.00    -0.203 F 
ATOM     95  C   UNL A   1      41.608  22.293  28.099  1.00  0.00     0.198 A 
ATOM     96  C   UNL A   1      39.990  23.172  26.562  1.00  0.00     0.198 A 
ATOM     97  F   UNL A   1      40.004  25.462  26.022  1.00  0.00    -0.203 F 
ATOM     98  F   UNL A   1      42.152  21.251  28.744  1.00  0.00    -0.200 F 
ATOM     99  C   UNL A   1      40.530  22.095  27.249  1.00  0.00     0.200 A 
ATOM    100  F   UNL A   1      38.937  22.989  25.753  1.00  0.00    -0.200 F 
ATOM    101  F   UNL A   1      40.017  20.868  27.088  1.00  0.00    -0.200 F 
ENDBRANCH  67  91
BRANCH  79 102
ATOM    102  C   UNL A   1      47.687  27.585  25.694  1.00  0.00     0.064 A 
ATOM    103  C   UNL A   1      47.830  27.527  24.301  1.00  0.00     0.173 A 
ATOM    104  C   UNL A   1      48.779  27.189  26.484  1.00  0.00     0.173 A 
ATOM    105  F   UNL A   1      46.812  27.880  23.502  1.00  0.00    -0.203 F 
ATOM    106  C   UNL A   1      49.015  27.079  23.723  1.00  0.00     0.198 A 
ATOM    107  C   UNL A   1      49.973  26.775  25.903  1.00  0.00     0.198 A 
ATOM    108  F   UNL A   1      48.695  27.233  27.823  1.00  0.00    -0.203 F 
ATOM    109  F   UNL A   1      49.118  26.996  22.389  1.00  0.00    -0.200 F 
ATOM    110  C   UNL A   1      50.089  26.715  24.523  1.00  0.00     0.200 A 
ATOM    111  F   UNL A   1      51.013  26.442  26.679  1.00  0.00    -0.200 F 
ATOM    112  F   UNL A   1      51.235  26.305  23.964  1.00  0.00    -0.200 F 
ENDBRANCH  79 102
ENDBRANCH  53  54
ENDBRANCH  45  48
ENDBRANCH  43  44
ENDBRANCH  42  43
ENDBRANCH  41  42
ENDBRANCH  39  41
ENDBRANCH  35  37
ENDBRANCH   3  35
TORSDOF 23
ENDMDL
MODEL 3
REMARK VINA RESULT:     -10.5      0.690      2.092
REMARK SMILES CC(C)C[C@H](NC(=O)CNC(=O)[C@@H](NC(=O)OCc1ccccc1)C(C)C)C(=O)N[C@@H](C)C(=O)NCCCNC(=O)c1ccc(-c2c3nc(c(-c4c(F)c(F)c(F)c(F)c4F)c4ccc([nH]4)c(-c4c(F)c(F)c(F)c(F)c4F)c4nc(c(-c5c(F)c(F)c(F)c(F)c5F)c5ccc2[nH]5)C=C4)C=C3)cc1
REMARK SMILES IDX 28 1 29 2 30 3 5 5 4 6 2 7 1 8 3 9 6 10 7 11 8 13 9 14 10 15
REMARK SMILES IDX 11 16 12 18 13 19 14 20 15 21 16 23 17 24 18 25 19 26 20 27
REMARK SMILES IDX 24 28 21 29 23 30 22 31 25 32 26 33 27 34 31 35 32 36 33 37
REMARK SMILES IDX 34 38 35 39 36 41 37 42 38 43 39 44 40 45 41 47 42 48 43 49
REMARK SMILES IDX 104 50 44 51 103 52 45 53 46 54 47 55 97 56 48 57 102 58
REMARK SMILES IDX 96 59 98 60 49 61 101 62 95 63 94 64 50 66 82 67 62 68 81 69
REMARK SMILES IDX 63 70 66 71 80 72 99 73 64 74 65 75 79 77 100 78 67 79 51 80
REMARK SMILES IDX 52 81 60 82 53 83 54 84 58 85 61 86 55 87 56 88 59 89 57 90
REMARK SMILES IDX 83 91 84 92 92 93 85 94 86 95 90 96 93 97 87 98 88 99 91 100
REMARK SMILES IDX 89 101 68 102 69 103 77 104 70 105 71 106 75 107 78 108
REMARK SMILES IDX 72 109 73 110 76 111 74 112
REMARK H PARENT 30 4 6 12 10 17 14 22 35 40 39 46 98 65 66 76
REMARK Flexibility Score: inf
ROOT
ATOM      1  C   UNL A   1      31.908  29.153  26.237  1.00  0.00     0.243 C 
ATOM      2  O   UNL A   1      31.742  27.972  26.560  1.00  0.00    -0.273 OA
ATOM      3  N   UNL A   1      32.367  30.023  27.182  1.00  0.00    -0.343 N 
ATOM      4  H   UNL A   1      32.320  29.696  28.110  1.00  0.00     0.164 HD
ENDROOT
BRANCH   1   5
ATOM      5  C   UNL A   1      31.658  29.599  24.785  1.00  0.00     0.171 C 
BRANCH   5   6
ATOM      6  C   UNL A   1      30.507  28.861  24.082  1.00  0.00     0.038 C 
BRANCH   6   7
ATOM      7  C   UNL A   1      29.423  29.765  23.420  1.00  0.00    -0.015 C 
ATOM      8  C   UNL A   1      29.403  31.214  23.902  1.00  0.00     0.007 C 
ATOM      9  C   UNL A   1      29.641  29.808  21.908  1.00  0.00     0.007 C 
ENDBRANCH   6   7
ENDBRANCH   5   6
BRANCH   5  10
ATOM     10  N   UNL A   1      32.943  29.593  24.072  1.00  0.00    -0.343 N 
ATOM     11  C   UNL A   1      33.729  28.597  23.595  1.00  0.00     0.240 C 
ATOM     12  H   UNL A   1      33.306  30.494  23.909  1.00  0.00     0.164 HD
ATOM     13  O   UNL A   1      34.587  28.933  22.769  1.00  0.00    -0.273 OA
BRANCH  11  14
ATOM     14  C   UNL A   1      33.534  27.118  23.930  1.00  0.00     0.216 C 
BRANCH  14  15
ATOM     15  N   UNL A   1      33.626  26.189  22.826  1.00  0.00    -0.345 N 
ATOM     16  C   UNL A   1      33.383  24.871  22.664  1.00  0.00     0.243 C 
ATOM     17  H   UNL A   1      33.941  26.619  21.998  1.00  0.00     0.164 HD
ATOM     18  O   UNL A   1      33.601  24.468  21.512  1.00  0.00    -0.273 OA
BRANCH  16  19
ATOM     19  C   UNL A   1      32.825  23.878  23.744  1.00  0.00     0.177 C 
BRANCH  19  20
ATOM     20  N   UNL A   1      32.264  24.489  24.951  1.00  0.00    -0.309 N 
ATOM     21  C   UNL A   1      32.229  24.047  26.223  1.00  0.00     0.408 C 
ATOM     22  H   UNL A   1      31.844  25.368  24.809  1.00  0.00     0.167 HD
ATOM     23  O   UNL A   1      31.422  24.501  27.028  1.00  0.00    -0.225 OA
BRANCH  21  24
ATOM     24  O   UNL A   1      33.196  23.155  26.490  1.00  0.00    -0.445 OA
BRANCH  24  25
ATOM     25  C   UNL A   1      34.511  23.699  26.605  1.00  0.00     0.270 C 
BRANCH  25  26
ATOM     26  C   UNL A   1      35.617  22.782  26.111  1.00  0.00    -0.011 A 
ATOM     27  C   UNL A   1      36.918  23.297  26.033  1.00  0.00     0.007 A 
ATOM     28  C   UNL A   1      35.397  21.481  25.625  1.00  0.00     0.007 A 
ATOM     29  C   UNL A   1      37.953  22.545  25.473  1.00  0.00     0.000 A 
ATOM     30  C   UNL A   1      36.428  20.733  25.058  1.00  0.00     0.000 A 
ATOM     31  C   UNL A   1      37.706  21.269  24.974  1.00  0.00     0.000 A 
ENDBRANCH  25  26
ENDBRANCH  24  25
ENDBRANCH  21  24
ENDBRANCH  19  20
BRANCH  19  32
ATOM     32  C   UNL A   1      32.068  22.681  23.125  1.00  0.00     0.015 C 
ATOM     33  C   UNL A   1      32.329  21.382  23.908  1.00  0.00     0.010 C 
ATOM     34  C   UNL A   1      30.550  22.911  23.139  1.00  0.00     0.010 C 
ENDBRANCH  19  32
ENDBRANCH  16  19
ENDBRANCH  14  15
ENDBRANCH  11  14
ENDBRANCH   5  10
ENDBRANCH   1   5
BRANCH   3  35
ATOM     35  C   UNL A   1      32.921  31.371  27.023  1.00  0.00     0.168 C 
ATOM     36  C   UNL A   1      31.839  32.442  27.076  1.00  0.00     0.041 C 
BRANCH  35  37
ATOM     37  C   UNL A   1      34.070  31.638  28.002  1.00  0.00     0.242 C 
ATOM     38  O   UNL A   1      34.759  30.708  28.431  1.00  0.00    -0.273 OA
ATOM     39  N   UNL A   1      34.411  32.893  28.382  1.00  0.00    -0.354 N 
ATOM     40  H   UNL A   1      35.142  32.940  29.040  1.00  0.00     0.163 HD
BRANCH  39  41
ATOM     41  C   UNL A   1      33.878  34.180  27.982  1.00  0.00     0.117 C 
BRANCH  41  42
ATOM     42  C   UNL A   1      32.887  34.720  28.997  1.00  0.00     0.042 C 
BRANCH  42  43
ATOM     43  C   UNL A   1      33.252  36.106  29.511  1.00  0.00     0.118 C 
BRANCH  43  44
ATOM     44  N   UNL A   1      32.569  36.434  30.758  1.00  0.00    -0.352 N 
ATOM     45  C   UNL A   1      32.750  35.914  32.015  1.00  0.00     0.251 C 
ATOM     46  H   UNL A   1      31.877  37.130  30.687  1.00  0.00     0.163 HD
ATOM     47  O   UNL A   1      31.931  36.131  32.900  1.00  0.00    -0.269 OA
BRANCH  45  48
ATOM     48  C   UNL A   1      33.939  35.087  32.286  1.00  0.00     0.039 A 
ATOM     49  C   UNL A   1      35.212  35.649  32.176  1.00  0.00     0.014 A 
ATOM     50  C   UNL A   1      33.783  33.751  32.665  1.00  0.00     0.014 A 
ATOM     51  C   UNL A   1      36.330  34.887  32.512  1.00  0.00     0.010 A 
ATOM     52  C   UNL A   1      34.884  33.030  33.097  1.00  0.00     0.010 A 
ATOM     53  C   UNL A   1      36.171  33.584  33.009  1.00  0.00    -0.014 A 
BRANCH  53  54
ATOM     54  C   UNL A   1      37.324  32.742  33.405  1.00  0.00     0.031 A 
ATOM     55  C   UNL A   1      38.033  33.035  34.697  1.00  0.00     0.074 A 
ATOM     56  C   UNL A   1      37.791  31.797  32.568  1.00  0.00     0.049 A 
ATOM     57  N   UNL A   1      39.160  32.554  35.155  1.00  0.00    -0.248 NA
ATOM     58  C   UNL A   1      37.409  34.040  35.574  1.00  0.00     0.031 C 
ATOM     59  C   UNL A   1      37.206  31.445  31.274  1.00  0.00     0.029 A 
ATOM     60  N   UNL A   1      38.886  30.976  32.672  1.00  0.00    -0.354 N 
ATOM     61  C   UNL A   1      39.388  33.215  36.354  1.00  0.00     0.074 A 
ATOM     62  C   UNL A   1      38.322  34.176  36.522  1.00  0.00     0.031 C 
ATOM     63  C   UNL A   1      37.943  30.476  30.708  1.00  0.00     0.029 A 
ATOM     64  C   UNL A   1      39.079  30.175  31.574  1.00  0.00     0.049 A 
ATOM     65  H   UNL A   1      39.477  30.963  33.460  1.00  0.00     0.167 HD
ATOM     66  C   UNL A   1      40.384  33.016  37.250  1.00  0.00     0.037 A 
ATOM     67  C   UNL A   1      40.074  29.314  31.290  1.00  0.00     0.037 A 
ATOM     68  C   UNL A   1      41.428  32.042  37.082  1.00  0.00     0.049 A 
ATOM     69  C   UNL A   1      41.186  29.126  32.289  1.00  0.00     0.074 A 
ATOM     70  C   UNL A   1      42.464  31.730  37.944  1.00  0.00     0.029 A 
ATOM     71  N   UNL A   1      41.568  31.222  35.971  1.00  0.00    -0.354 N 
ATOM     72  N   UNL A   1      41.370  29.718  33.444  1.00  0.00    -0.248 NA
ATOM     73  C   UNL A   1      42.226  28.146  31.948  1.00  0.00     0.031 C 
ATOM     74  C   UNL A   1      43.262  30.760  37.332  1.00  0.00     0.029 A 
ATOM     75  C   UNL A   1      42.685  30.416  36.119  1.00  0.00     0.049 A 
ATOM     76  H   UNL A   1      40.965  31.215  35.194  1.00  0.00     0.167 HD
ATOM     77  C   UNL A   1      42.517  29.155  33.986  1.00  0.00     0.074 A 
ATOM     78  C   UNL A   1      42.988  28.172  33.033  1.00  0.00     0.031 C 
ATOM     79  C   UNL A   1      43.121  29.423  35.170  1.00  0.00     0.037 A 
BRANCH  66  80
ATOM     80  C   UNL A   1      40.387  33.873  38.483  1.00  0.00     0.064 A 
ATOM     81  C   UNL A   1      39.687  33.501  39.643  1.00  0.00     0.173 A 
ATOM     82  C   UNL A   1      41.109  35.076  38.514  1.00  0.00     0.173 A 
ATOM     83  F   UNL A   1      38.969  32.367  39.664  1.00  0.00    -0.203 F 
ATOM     84  C   UNL A   1      39.675  34.321  40.768  1.00  0.00     0.198 A 
ATOM     85  C   UNL A   1      41.127  35.873  39.656  1.00  0.00     0.198 A 
ATOM     86  F   UNL A   1      41.801  35.479  37.438  1.00  0.00    -0.203 F 
ATOM     87  F   UNL A   1      38.944  33.976  41.837  1.00  0.00    -0.200 F 
ATOM     88  C   UNL A   1      40.401  35.501  40.777  1.00  0.00     0.200 A 
ATOM     89  F   UNL A   1      41.843  37.007  39.668  1.00  0.00    -0.200 F 
ATOM     90  F   UNL A   1      40.393  36.287  41.863  1.00  0.00    -0.200 F 
ENDBRANCH  66  80
BRANCH  67  91
ATOM     91  C   UNL A   1      40.056  28.555  30.012  1.00  0.00     0.064 A 
ATOM     92  C   UNL A   1      39.455  27.291  29.932  1.00  0.00     0.173 A 
ATOM     93  C   UNL A   1      40.637  29.073  28.844  1.00  0.00     0.173 A 
ATOM     94  F   UNL A   1      38.901  26.744  31.023  1.00  0.00    -0.203 F 
ATOM     95  C   UNL A   1      39.455  26.567  28.741  1.00  0.00     0.198 A 
ATOM     96  C   UNL A   1      40.609  28.362  27.648  1.00  0.00     0.198 A 
ATOM     97  F   UNL A   1      41.219  30.282  28.864  1.00  0.00    -0.203 F 
ATOM     98  F   UNL A   1      38.915  25.340  28.707  1.00  0.00    -0.200 F 
ATOM     99  C   UNL A   1      40.026  27.104  27.598  1.00  0.00     0.200 A 
ATOM    100  F   UNL A   1      41.146  28.894  26.541  1.00  0.00    -0.200 F 
ATOM    101  F   UNL A   1      40.021  26.410  26.453  1.00  0.00    -0.200 F 
ENDBRANCH  67  91
BRANCH  79 102
ATOM    102  C   UNL A   1      44.317  28.597  35.546  1.00  0.00     0.064 A 
ATOM    103  C   UNL A   1      44.199  27.398  36.263  1.00  0.00     0.173 A 
ATOM    104  C   UNL A   1      45.596  28.977  35.107  1.00  0.00     0.173 A 
ATOM    105  F   UNL A   1      43.001  26.998  36.717  1.00  0.00    -0.203 F 
ATOM    106  C   UNL A   1      45.319  26.619  36.540  1.00  0.00     0.198 A 
ATOM    107  C   UNL A   1      46.707  28.178  35.356  1.00  0.00     0.198 A 
ATOM    108  F   UNL A   1      45.762  30.112  34.410  1.00  0.00    -0.203 F 
ATOM    109  F   UNL A   1      45.189  25.495  37.259  1.00  0.00    -0.200 F 
ATOM    110  C   UNL A   1      46.570  27.002  36.077  1.00  0.00     0.200 A 
ATOM    111  F   UNL A   1      47.910  28.543  34.891  1.00  0.00    -0.200 F 
ATOM    112  F   UNL A   1      47.642  26.240  36.326  1.00  0.00    -0.200 F 
ENDBRANCH  79 102
ENDBRANCH  53  54
ENDBRANCH  45  48
ENDBRANCH  43  44
ENDBRANCH  42  43
ENDBRANCH  41  42
ENDBRANCH  39  41
ENDBRANCH  35  37
ENDBRANCH   3  35
TORSDOF 23
ENDMDL
