MODEL 1
REMARK VINA RESULT:     -11.7      0.000      0.000
REMARK SMILES CC1([C@@]2(C)C[C@@H]2C(=O)NCCCNC(=O)c2ccc(-c3c4nc(c(-c5c(F)c(F)c(F)c(F)c5F)c5ccc([nH]5)c(-c5c(F)c(F)c(F)c(F)c5F)c5nc(c(-c6c(F)c(F)c(F)c(F)c6F)c6ccc3[nH]6)C=C5)C=C4)cc2)CC1
REMARK SMILES IDX 11 1 10 2 9 3 7 4 8 5 6 7 3 8 4 9 5 10 2 11 1 12 79 13 80 14
REMARK SMILES IDX 12 15 13 16 14 17 15 19 16 20 17 21 78 22 18 23 77 24 19 25
REMARK SMILES IDX 20 26 21 27 71 28 22 29 76 30 70 31 72 32 23 33 75 34 69 35
REMARK SMILES IDX 68 36 24 38 56 39 36 40 55 41 37 42 40 43 54 44 73 45 38 46
REMARK SMILES IDX 39 47 53 49 74 50 41 51 25 52 26 53 34 54 27 55 28 56 32 57
REMARK SMILES IDX 35 58 29 59 30 60 33 61 31 62 57 63 58 64 66 65 59 66 60 67
REMARK SMILES IDX 64 68 67 69 61 70 62 71 65 72 63 73 42 74 43 75 51 76 44 77
REMARK SMILES IDX 45 78 49 79 52 80 46 81 47 82 50 83 48 84
REMARK H PARENT 9 6 13 18 72 37 40 48
REMARK Flexibility Score: inf
ROOT
ATOM      1  C   UNL A   1      31.258  32.251  26.489  1.00  0.00     0.042 C 
ENDROOT
BRANCH   1   2
ATOM      2  C   UNL A   1      31.470  30.858  25.901  1.00  0.00     0.117 C 
BRANCH   2   3
ATOM      3  N   UNL A   1      30.703  30.663  24.687  1.00  0.00    -0.356 N 
ATOM      4  C   UNL A   1      30.573  29.535  23.924  1.00  0.00     0.223 C 
ATOM      5  O   UNL A   1      30.006  29.596  22.840  1.00  0.00    -0.275 OA
ATOM      6  H   UNL A   1      30.207  31.451  24.368  1.00  0.00     0.163 HD
BRANCH   4   7
ATOM      7  C   UNL A   1      31.149  28.265  24.431  1.00  0.00     0.085 C 
ATOM      8  C   UNL A   1      32.634  27.905  24.224  1.00  0.00    -0.015 C 
ATOM      9  C   UNL A   1      33.498  28.820  23.378  1.00  0.00     0.013 C 
ATOM     10  C   UNL A   1      31.540  27.166  23.479  1.00  0.00     0.022 C 
BRANCH   8  11
ATOM     11  C   UNL A   1      33.411  27.266  25.422  1.00  0.00    -0.026 C 
ATOM     12  C   UNL A   1      33.933  25.872  25.140  1.00  0.00     0.012 C 
ATOM     13  C   UNL A   1      32.899  27.502  26.837  1.00  0.00     0.008 C 
ATOM     14  C   UNL A   1      34.205  28.096  26.421  1.00  0.00     0.008 C 
ENDBRANCH   8  11
ENDBRANCH   4   7
ENDBRANCH   2   3
ENDBRANCH   1   2
BRANCH   1  15
ATOM     15  C   UNL A   1      32.455  32.811  27.258  1.00  0.00     0.118 C 
BRANCH  15  16
ATOM     16  N   UNL A   1      32.288  34.203  27.650  1.00  0.00    -0.352 N 
ATOM     17  C   UNL A   1      32.964  34.958  28.577  1.00  0.00     0.251 C 
ATOM     18  H   UNL A   1      31.573  34.682  27.171  1.00  0.00     0.163 HD
ATOM     19  O   UNL A   1      32.559  36.088  28.844  1.00  0.00    -0.269 OA
BRANCH  17  20
ATOM     20  C   UNL A   1      34.152  34.426  29.285  1.00  0.00     0.039 A 
ATOM     21  C   UNL A   1      33.967  33.812  30.528  1.00  0.00     0.014 A 
ATOM     22  C   UNL A   1      35.441  34.556  28.764  1.00  0.00     0.014 A 
ATOM     23  C   UNL A   1      35.060  33.269  31.211  1.00  0.00     0.010 A 
ATOM     24  C   UNL A   1      36.519  33.948  29.407  1.00  0.00     0.010 A 
ATOM     25  C   UNL A   1      36.342  33.296  30.638  1.00  0.00    -0.014 A 
BRANCH  25  26
ATOM     26  C   UNL A   1      37.498  32.639  31.308  1.00  0.00     0.031 A 
ATOM     27  C   UNL A   1      38.227  31.505  30.640  1.00  0.00     0.074 A 
ATOM     28  C   UNL A   1      37.862  33.032  32.545  1.00  0.00     0.049 A 
ATOM     29  N   UNL A   1      39.217  30.774  31.092  1.00  0.00    -0.248 NA
ATOM     30  C   UNL A   1      37.769  31.125  29.296  1.00  0.00     0.031 C 
ATOM     31  C   UNL A   1      37.217  34.093  33.319  1.00  0.00     0.029 A 
ATOM     32  N   UNL A   1      38.859  32.577  33.375  1.00  0.00    -0.354 N 
ATOM     33  C   UNL A   1      39.492  29.849  30.095  1.00  0.00     0.074 A 
ATOM     34  C   UNL A   1      38.528  30.069  29.038  1.00  0.00     0.031 C 
ATOM     35  C   UNL A   1      37.849  34.225  34.497  1.00  0.00     0.029 A 
ATOM     36  C   UNL A   1      38.912  33.230  34.582  1.00  0.00     0.049 A 
ATOM     37  H   UNL A   1      39.477  31.852  33.126  1.00  0.00     0.167 HD
ATOM     38  C   UNL A   1      40.474  28.915  30.050  1.00  0.00     0.037 A 
ATOM     39  C   UNL A   1      39.719  33.040  35.645  1.00  0.00     0.037 A 
ATOM     40  C   UNL A   1      41.440  28.702  31.099  1.00  0.00     0.049 A 
ATOM     41  C   UNL A   1      40.777  31.972  35.585  1.00  0.00     0.074 A 
ATOM     42  C   UNL A   1      42.498  27.810  31.128  1.00  0.00     0.029 A 
ATOM     43  N   UNL A   1      41.460  29.384  32.307  1.00  0.00    -0.354 N 
ATOM     44  N   UNL A   1      41.069  31.147  34.609  1.00  0.00    -0.248 NA
ATOM     45  C   UNL A   1      41.626  31.814  36.774  1.00  0.00     0.031 C 
ATOM     46  C   UNL A   1      43.122  27.911  32.375  1.00  0.00     0.029 A 
ATOM     47  C   UNL A   1      42.497  28.913  33.098  1.00  0.00     0.049 A 
ATOM     48  H   UNL A   1      40.832  30.096  32.564  1.00  0.00     0.167 HD
ATOM     49  C   UNL A   1      42.153  30.400  35.050  1.00  0.00     0.074 A 
ATOM     50  C   UNL A   1      42.478  30.880  36.377  1.00  0.00     0.031 C 
ATOM     51  C   UNL A   1      42.821  29.406  34.413  1.00  0.00     0.037 A 
BRANCH  38  52
ATOM     52  C   UNL A   1      40.556  28.048  28.824  1.00  0.00     0.064 A 
ATOM     53  C   UNL A   1      39.861  26.832  28.735  1.00  0.00     0.173 A 
ATOM     54  C   UNL A   1      41.305  28.455  27.710  1.00  0.00     0.173 A 
ATOM     55  F   UNL A   1      39.136  26.390  29.774  1.00  0.00    -0.203 F 
ATOM     56  C   UNL A   1      39.940  26.042  27.591  1.00  0.00     0.198 A 
ATOM     57  C   UNL A   1      41.353  27.681  26.554  1.00  0.00     0.198 A 
ATOM     58  F   UNL A   1      41.981  29.614  27.735  1.00  0.00    -0.203 F 
ATOM     59  F   UNL A   1      39.311  24.859  27.551  1.00  0.00    -0.200 F 
ATOM     60  C   UNL A   1      40.678  26.470  26.498  1.00  0.00     0.200 A 
ATOM     61  F   UNL A   1      42.052  28.105  25.493  1.00  0.00    -0.200 F 
ATOM     62  F   UNL A   1      40.746  25.713  25.395  1.00  0.00    -0.200 F 
ENDBRANCH  38  52
BRANCH  39  63
ATOM     63  C   UNL A   1      39.570  33.892  36.856  1.00  0.00     0.064 A 
ATOM     64  C   UNL A   1      38.806  33.462  37.950  1.00  0.00     0.173 A 
ATOM     65  C   UNL A   1      40.170  35.157  36.939  1.00  0.00     0.173 A 
ATOM     66  F   UNL A   1      38.194  32.268  37.913  1.00  0.00    -0.203 F 
ATOM     67  C   UNL A   1      38.621  34.277  39.066  1.00  0.00     0.198 A 
ATOM     68  C   UNL A   1      40.012  35.957  38.069  1.00  0.00     0.198 A 
ATOM     69  F   UNL A   1      40.915  35.616  35.923  1.00  0.00    -0.203 F 
ATOM     70  F   UNL A   1      37.837  33.864  40.071  1.00  0.00    -0.200 F 
ATOM     71  C   UNL A   1      39.229  35.521  39.127  1.00  0.00     0.200 A 
ATOM     72  F   UNL A   1      40.616  37.152  38.132  1.00  0.00    -0.200 F 
ATOM     73  F   UNL A   1      39.052  36.304  40.200  1.00  0.00    -0.200 F 
ENDBRANCH  39  63
BRANCH  51  74
ATOM     74  C   UNL A   1      44.003  28.803  35.120  1.00  0.00     0.064 A 
ATOM     75  C   UNL A   1      45.303  29.300  34.948  1.00  0.00     0.173 A 
ATOM     76  C   UNL A   1      43.824  27.731  36.009  1.00  0.00     0.173 A 
ATOM     77  F   UNL A   1      45.532  30.314  34.100  1.00  0.00    -0.203 F 
ATOM     78  C   UNL A   1      46.384  28.726  35.614  1.00  0.00     0.198 A 
ATOM     79  C   UNL A   1      44.901  27.183  36.699  1.00  0.00     0.198 A 
ATOM     80  F   UNL A   1      42.601  27.220  36.216  1.00  0.00    -0.203 F 
ATOM     81  F   UNL A   1      47.624  29.180  35.390  1.00  0.00    -0.200 F 
ATOM     82  C   UNL A   1      46.181  27.674  36.495  1.00  0.00     0.200 A 
ATOM     83  F   UNL A   1      44.699  26.178  37.563  1.00  0.00    -0.200 F 
ATOM     84  F   UNL A   1      47.221  27.128  37.140  1.00  0.00    -0.200 F 
ENDBRANCH  51  74
ENDBRANCH  25  26
ENDBRANCH  17  20
ENDBRANCH  15  16
ENDBRANCH   1  15
TORSDOF 11
ENDMDL
MODEL 2
REMARK VINA RESULT:     -11.6      6.336     11.629
REMARK SMILES CC1([C@@]2(C)C[C@@H]2C(=O)NCCCNC(=O)c2ccc(-c3c4nc(c(-c5c(F)c(F)c(F)c(F)c5F)c5ccc([nH]5)c(-c5c(F)c(F)c(F)c(F)c5F)c5nc(c(-c6c(F)c(F)c(F)c(F)c6F)c6ccc3[nH]6)C=C5)C=C4)cc2)CC1
REMARK SMILES IDX 11 1 10 2 9 3 7 4 8 5 6 7 3 8 4 9 5 10 2 11 1 12 79 13 80 14
REMARK SMILES IDX 12 15 13 16 14 17 15 19 16 20 17 21 78 22 18 23 77 24 19 25
REMARK SMILES IDX 20 26 21 27 71 28 22 29 76 30 70 31 72 32 23 33 75 34 69 35
REMARK SMILES IDX 68 36 24 38 56 39 36 40 55 41 37 42 40 43 54 44 73 45 38 46
REMARK SMILES IDX 39 47 53 49 74 50 41 51 25 52 26 53 34 54 27 55 28 56 32 57
REMARK SMILES IDX 35 58 29 59 30 60 33 61 31 62 57 63 58 64 66 65 59 66 60 67
REMARK SMILES IDX 64 68 67 69 61 70 62 71 65 72 63 73 42 74 43 75 51 76 44 77
REMARK SMILES IDX 45 78 49 79 52 80 46 81 47 82 50 83 48 84
REMARK H PARENT 9 6 13 18 72 37 40 48
REMARK Flexibility Score: inf
ROOT
ATOM      1  C   UNL A   1      37.863  19.677  24.905  1.00  0.00     0.042 C 
ENDROOT
BRANCH   1   2
ATOM      2  C   UNL A   1      36.622  20.565  24.960  1.00  0.00     0.117 C 
BRANCH   2   3
ATOM      3  N   UNL A   1      35.402  19.785  25.011  1.00  0.00    -0.356 N 
ATOM      4  C   UNL A   1      34.104  20.211  24.928  1.00  0.00     0.223 C 
ATOM      5  O   UNL A   1      33.191  19.425  25.148  1.00  0.00    -0.275 OA
ATOM      6  H   UNL A   1      35.524  18.814  25.120  1.00  0.00     0.163 HD
BRANCH   4   7
ATOM      7  C   UNL A   1      33.845  21.632  24.592  1.00  0.00     0.085 C 
ATOM      8  C   UNL A   1      33.782  22.727  25.676  1.00  0.00    -0.015 C 
ATOM      9  C   UNL A   1      33.871  22.319  27.133  1.00  0.00     0.013 C 
ATOM     10  C   UNL A   1      32.532  22.277  24.947  1.00  0.00     0.022 C 
BRANCH   8  11
ATOM     11  C   UNL A   1      34.478  24.097  25.380  1.00  0.00    -0.026 C 
ATOM     12  C   UNL A   1      35.956  24.118  25.716  1.00  0.00     0.012 C 
ATOM     13  C   UNL A   1      33.719  25.384  25.677  1.00  0.00     0.008 C 
ATOM     14  C   UNL A   1      34.025  25.023  24.260  1.00  0.00     0.008 C 
ENDBRANCH   8  11
ENDBRANCH   4   7
ENDBRANCH   2   3
ENDBRANCH   1   2
BRANCH   1  15
ATOM     15  C   UNL A   1      39.029  20.150  25.774  1.00  0.00     0.118 C 
BRANCH  15  16
ATOM     16  N   UNL A   1      40.094  19.165  25.896  1.00  0.00    -0.352 N 
ATOM     17  C   UNL A   1      41.438  19.325  26.126  1.00  0.00     0.251 C 
ATOM     18  H   UNL A   1      39.802  18.230  25.797  1.00  0.00     0.163 HD
ATOM     19  O   UNL A   1      42.182  18.349  26.054  1.00  0.00    -0.269 OA
BRANCH  17  20
ATOM     20  C   UNL A   1      42.014  20.656  26.430  1.00  0.00     0.039 A 
ATOM     21  C   UNL A   1      42.356  21.494  25.363  1.00  0.00     0.014 A 
ATOM     22  C   UNL A   1      42.255  21.075  27.740  1.00  0.00     0.014 A 
ATOM     23  C   UNL A   1      42.872  22.769  25.610  1.00  0.00     0.010 A 
ATOM     24  C   UNL A   1      42.696  22.375  27.989  1.00  0.00     0.010 A 
ATOM     25  C   UNL A   1      43.009  23.239  26.927  1.00  0.00    -0.014 A 
BRANCH  25  26
ATOM     26  C   UNL A   1      43.467  24.628  27.205  1.00  0.00     0.031 A 
ATOM     27  C   UNL A   1      42.511  25.654  27.751  1.00  0.00     0.074 A 
ATOM     28  C   UNL A   1      44.735  24.981  26.917  1.00  0.00     0.049 A 
ATOM     29  N   UNL A   1      42.712  26.925  28.001  1.00  0.00    -0.248 NA
ATOM     30  C   UNL A   1      41.141  25.198  28.032  1.00  0.00     0.031 C 
ATOM     31  C   UNL A   1      45.752  24.095  26.351  1.00  0.00     0.029 A 
ATOM     32  N   UNL A   1      45.384  26.185  27.053  1.00  0.00    -0.354 N 
ATOM     33  C   UNL A   1      41.498  27.418  28.459  1.00  0.00     0.074 A 
ATOM     34  C   UNL A   1      40.549  26.327  28.397  1.00  0.00     0.031 C 
ATOM     35  C   UNL A   1      46.901  24.775  26.212  1.00  0.00     0.029 A 
ATOM     36  C   UNL A   1      46.693  26.156  26.634  1.00  0.00     0.049 A 
ATOM     37  H   UNL A   1      44.953  26.991  27.417  1.00  0.00     0.167 HD
ATOM     38  C   UNL A   1      41.204  28.661  28.914  1.00  0.00     0.037 A 
ATOM     39  C   UNL A   1      47.618  27.135  26.584  1.00  0.00     0.037 A 
ATOM     40  C   UNL A   1      42.151  29.745  28.984  1.00  0.00     0.049 A 
ATOM     41  C   UNL A   1      47.255  28.516  27.060  1.00  0.00     0.074 A 
ATOM     42  C   UNL A   1      41.960  31.027  29.469  1.00  0.00     0.029 A 
ATOM     43  N   UNL A   1      43.467  29.676  28.550  1.00  0.00    -0.354 N 
ATOM     44  N   UNL A   1      46.121  28.953  27.552  1.00  0.00    -0.248 NA
ATOM     45  C   UNL A   1      48.306  29.540  26.981  1.00  0.00     0.031 C 
ATOM     46  C   UNL A   1      43.141  31.751  29.274  1.00  0.00     0.029 A 
ATOM     47  C   UNL A   1      44.090  30.902  28.732  1.00  0.00     0.049 A 
ATOM     48  H   UNL A   1      43.895  28.876  28.169  1.00  0.00     0.167 HD
ATOM     49  C   UNL A   1      46.332  30.287  27.874  1.00  0.00     0.074 A 
ATOM     50  C   UNL A   1      47.708  30.585  27.536  1.00  0.00     0.031 C 
ATOM     51  C   UNL A   1      45.465  31.185  28.403  1.00  0.00     0.037 A 
BRANCH  38  52
ATOM     52  C   UNL A   1      39.795  28.920  29.373  1.00  0.00     0.064 A 
ATOM     53  C   UNL A   1      38.810  29.396  28.494  1.00  0.00     0.173 A 
ATOM     54  C   UNL A   1      39.415  28.650  30.696  1.00  0.00     0.173 A 
ATOM     55  F   UNL A   1      39.121  29.680  27.220  1.00  0.00    -0.203 F 
ATOM     56  C   UNL A   1      37.508  29.625  28.931  1.00  0.00     0.198 A 
ATOM     57  C   UNL A   1      38.104  28.845  31.121  1.00  0.00     0.198 A 
ATOM     58  F   UNL A   1      40.313  28.182  31.578  1.00  0.00    -0.203 F 
ATOM     59  F   UNL A   1      36.599  30.133  28.087  1.00  0.00    -0.200 F 
ATOM     60  C   UNL A   1      37.153  29.342  30.242  1.00  0.00     0.200 A 
ATOM     61  F   UNL A   1      37.758  28.554  32.383  1.00  0.00    -0.200 F 
ATOM     62  F   UNL A   1      35.898  29.554  30.658  1.00  0.00    -0.200 F 
ENDBRANCH  38  52
BRANCH  39  63
ATOM     63  C   UNL A   1      48.986  26.844  26.077  1.00  0.00     0.064 A 
ATOM     64  C   UNL A   1      49.324  27.080  24.737  1.00  0.00     0.173 A 
ATOM     65  C   UNL A   1      49.976  26.306  26.913  1.00  0.00     0.173 A 
ATOM     66  F   UNL A   1      48.406  27.575  23.892  1.00  0.00    -0.203 F 
ATOM     67  C   UNL A   1      50.588  26.761  24.245  1.00  0.00     0.198 A 
ATOM     68  C   UNL A   1      51.251  26.019  26.427  1.00  0.00     0.198 A 
ATOM     69  F   UNL A   1      49.708  26.064  28.204  1.00  0.00    -0.203 F 
ATOM     70  F   UNL A   1      50.864  26.944  22.946  1.00  0.00    -0.200 F 
ATOM     71  C   UNL A   1      51.552  26.237  25.091  1.00  0.00     0.200 A 
ATOM     72  F   UNL A   1      52.185  25.529  27.252  1.00  0.00    -0.200 F 
ATOM     73  F   UNL A   1      52.768  25.931  24.618  1.00  0.00    -0.200 F 
ENDBRANCH  39  63
BRANCH  51  74
ATOM     74  C   UNL A   1      45.989  32.562  28.699  1.00  0.00     0.064 A 
ATOM     75  C   UNL A   1      45.899  33.608  27.768  1.00  0.00     0.173 A 
ATOM     76  C   UNL A   1      46.562  32.847  29.950  1.00  0.00     0.173 A 
ATOM     77  F   UNL A   1      45.374  33.387  26.554  1.00  0.00    -0.203 F 
ATOM     78  C   UNL A   1      46.392  34.876  28.065  1.00  0.00     0.198 A 
ATOM     79  C   UNL A   1      47.021  34.125  30.255  1.00  0.00     0.198 A 
ATOM     80  F   UNL A   1      46.667  31.887  30.880  1.00  0.00    -0.203 F 
ATOM     81  F   UNL A   1      46.348  35.843  27.139  1.00  0.00    -0.200 F 
ATOM     82  C   UNL A   1      46.944  35.136  29.310  1.00  0.00     0.200 A 
ATOM     83  F   UNL A   1      47.538  34.377  31.465  1.00  0.00    -0.200 F 
ATOM     84  F   UNL A   1      47.412  36.359  29.596  1.00  0.00    -0.200 F 
ENDBRANCH  51  74
ENDBRANCH  25  26
ENDBRANCH  17  20
ENDBRANCH  15  16
ENDBRANCH   1  15
TORSDOF 11
ENDMDL
MODEL 3
REMARK VINA RESULT:     -11.6      6.368     11.637
REMARK SMILES CC1([C@@]2(C)C[C@@H]2C(=O)NCCCNC(=O)c2ccc(-c3c4nc(c(-c5c(F)c(F)c(F)c(F)c5F)c5ccc([nH]5)c(-c5c(F)c(F)c(F)c(F)c5F)c5nc(c(-c6c(F)c(F)c(F)c(F)c6F)c6ccc3[nH]6)C=C5)C=C4)cc2)CC1
REMARK SMILES IDX 11 1 10 2 9 3 7 4 8 5 6 7 3 8 4 9 5 10 2 11 1 12 79 13 80 14
REMARK SMILES IDX 12 15 13 16 14 17 15 19 16 20 17 21 78 22 18 23 77 24 19 25
REMARK SMILES IDX 20 26 21 27 71 28 22 29 76 30 70 31 72 32 23 33 75 34 69 35
REMARK SMILES IDX 68 36 24 38 56 39 36 40 55 41 37 42 40 43 54 44 73 45 38 46
REMARK SMILES IDX 39 47 53 49 74 50 41 51 25 52 26 53 34 54 27 55 28 56 32 57
REMARK SMILES IDX 35 58 29 59 30 60 33 61 31 62 57 63 58 64 66 65 59 66 60 67
REMARK SMILES IDX 64 68 67 69 61 70 62 71 65 72 63 73 42 74 43 75 51 76 44 77
REMARK SMILES IDX 45 78 49 79 52 80 46 81 47 82 50 83 48 84
REMARK H PARENT 9 6 13 18 72 37 40 48
REMARK Flexibility Score: inf
ROOT
ATOM      1  C   UNL A   1      37.860  19.568  25.001  1.00  0.00     0.042 C 
ENDROOT
BRANCH   1   2
ATOM      2  C   UNL A   1      36.657  20.509  25.001  1.00  0.00     0.117 C 
BRANCH   2   3
ATOM      3  N   UNL A   1      35.405  19.782  25.039  1.00  0.00    -0.356 N 
ATOM      4  C   UNL A   1      34.127  20.265  24.952  1.00  0.00     0.223 C 
ATOM      5  O   UNL A   1      33.179  19.518  25.161  1.00  0.00    -0.275 OA
ATOM      6  H   UNL A   1      35.483  18.807  25.142  1.00  0.00     0.163 HD
BRANCH   4   7
ATOM      7  C   UNL A   1      33.932  21.699  24.626  1.00  0.00     0.085 C 
ATOM      8  C   UNL A   1      33.920  22.789  25.716  1.00  0.00    -0.015 C 
ATOM      9  C   UNL A   1      33.993  22.368  27.171  1.00  0.00     0.013 C 
ATOM     10  C   UNL A   1      32.649  22.400  24.987  1.00  0.00     0.022 C 
BRANCH   8  11
ATOM     11  C   UNL A   1      34.676  24.127  25.429  1.00  0.00    -0.026 C 
ATOM     12  C   UNL A   1      36.157  24.075  25.751  1.00  0.00     0.012 C 
ATOM     13  C   UNL A   1      33.982  25.445  25.746  1.00  0.00     0.008 C 
ATOM     14  C   UNL A   1      34.258  25.085  24.322  1.00  0.00     0.008 C 
ENDBRANCH   8  11
ENDBRANCH   4   7
ENDBRANCH   2   3
ENDBRANCH   1   2
BRANCH   1  15
ATOM     15  C   UNL A   1      39.089  20.099  25.739  1.00  0.00     0.118 C 
BRANCH  15  16
ATOM     16  N   UNL A   1      40.150  19.111  25.876  1.00  0.00    -0.352 N 
ATOM     17  C   UNL A   1      41.491  19.269  26.126  1.00  0.00     0.251 C 
ATOM     18  H   UNL A   1      39.858  18.177  25.774  1.00  0.00     0.163 HD
ATOM     19  O   UNL A   1      42.234  18.292  26.064  1.00  0.00    -0.269 OA
BRANCH  17  20
ATOM     20  C   UNL A   1      42.066  20.599  26.437  1.00  0.00     0.039 A 
ATOM     21  C   UNL A   1      42.475  21.414  25.376  1.00  0.00     0.014 A 
ATOM     22  C   UNL A   1      42.240  21.038  27.751  1.00  0.00     0.014 A 
ATOM     23  C   UNL A   1      42.991  22.688  25.629  1.00  0.00     0.010 A 
ATOM     24  C   UNL A   1      42.683  22.337  28.001  1.00  0.00     0.010 A 
ATOM     25  C   UNL A   1      43.062  23.179  26.943  1.00  0.00    -0.014 A 
BRANCH  25  26
ATOM     26  C   UNL A   1      43.521  24.568  27.222  1.00  0.00     0.031 A 
ATOM     27  C   UNL A   1      42.559  25.602  27.742  1.00  0.00     0.074 A 
ATOM     28  C   UNL A   1      44.796  24.914  26.958  1.00  0.00     0.049 A 
ATOM     29  N   UNL A   1      42.761  26.873  27.989  1.00  0.00    -0.248 NA
ATOM     30  C   UNL A   1      41.182  25.154  27.999  1.00  0.00     0.031 C 
ATOM     31  C   UNL A   1      45.820  24.020  26.417  1.00  0.00     0.029 A 
ATOM     32  N   UNL A   1      45.448  26.116  27.099  1.00  0.00    -0.354 N 
ATOM     33  C   UNL A   1      41.540  27.374  28.419  1.00  0.00     0.074 A 
ATOM     34  C   UNL A   1      40.588  26.287  28.344  1.00  0.00     0.031 C 
ATOM     35  C   UNL A   1      46.975  24.694  26.297  1.00  0.00     0.029 A 
ATOM     36  C   UNL A   1      46.764  26.079  26.707  1.00  0.00     0.049 A 
ATOM     37  H   UNL A   1      45.013  26.926  27.449  1.00  0.00     0.167 HD
ATOM     38  C   UNL A   1      41.242  28.621  28.860  1.00  0.00     0.037 A 
ATOM     39  C   UNL A   1      47.694  27.053  26.669  1.00  0.00     0.037 A 
ATOM     40  C   UNL A   1      42.193  29.702  28.943  1.00  0.00     0.049 A 
ATOM     41  C   UNL A   1      47.329  28.439  27.129  1.00  0.00     0.074 A 
ATOM     42  C   UNL A   1      41.998  30.988  29.415  1.00  0.00     0.029 A 
ATOM     43  N   UNL A   1      43.517  29.624  28.535  1.00  0.00    -0.354 N 
ATOM     44  N   UNL A   1      46.187  28.883  27.596  1.00  0.00    -0.248 NA
ATOM     45  C   UNL A   1      48.385  29.458  27.065  1.00  0.00     0.031 C 
ATOM     46  C   UNL A   1      43.185  31.705  29.240  1.00  0.00     0.029 A 
ATOM     47  C   UNL A   1      44.142  30.848  28.722  1.00  0.00     0.049 A 
ATOM     48  H   UNL A   1      43.949  28.820  28.168  1.00  0.00     0.167 HD
ATOM     49  C   UNL A   1      46.398  30.219  27.913  1.00  0.00     0.074 A 
ATOM     50  C   UNL A   1      47.782  30.508  27.601  1.00  0.00     0.031 C 
ATOM     51  C   UNL A   1      45.523  31.124  28.420  1.00  0.00     0.037 A 
BRANCH  38  52
ATOM     52  C   UNL A   1      39.826  28.889  29.289  1.00  0.00     0.064 A 
ATOM     53  C   UNL A   1      38.856  29.348  28.384  1.00  0.00     0.173 A 
ATOM     54  C   UNL A   1      39.423  28.646  30.611  1.00  0.00     0.173 A 
ATOM     55  F   UNL A   1      39.189  29.605  27.110  1.00  0.00    -0.203 F 
ATOM     56  C   UNL A   1      37.547  29.585  28.794  1.00  0.00     0.198 A 
ATOM     57  C   UNL A   1      38.104  28.850  31.009  1.00  0.00     0.198 A 
ATOM     58  F   UNL A   1      40.305  28.197  31.517  1.00  0.00    -0.203 F 
ATOM     59  F   UNL A   1      36.653  30.075  27.923  1.00  0.00    -0.200 F 
ATOM     60  C   UNL A   1      37.169  29.328  30.103  1.00  0.00     0.200 A 
ATOM     61  F   UNL A   1      37.737  28.583  32.270  1.00  0.00    -0.200 F 
ATOM     62  F   UNL A   1      35.906  29.548  30.493  1.00  0.00    -0.200 F 
ENDBRANCH  38  52
BRANCH  39  63
ATOM     63  C   UNL A   1      49.071  26.753  26.192  1.00  0.00     0.064 A 
ATOM     64  C   UNL A   1      50.048  26.262  27.070  1.00  0.00     0.173 A 
ATOM     65  C   UNL A   1      49.446  26.969  24.857  1.00  0.00     0.173 A 
ATOM     66  F   UNL A   1      49.746  26.059  28.361  1.00  0.00    -0.203 F 
ATOM     67  C   UNL A   1      51.353  26.029  26.640  1.00  0.00     0.198 A 
ATOM     68  C   UNL A   1      50.742  26.702  24.420  1.00  0.00     0.198 A 
ATOM     69  F   UNL A   1      48.550  27.432  23.973  1.00  0.00    -0.203 F 
ATOM     70  F   UNL A   1      52.280  25.616  27.515  1.00  0.00    -0.200 F 
ATOM     71  C   UNL A   1      51.697  26.243  25.314  1.00  0.00     0.200 A 
ATOM     72  F   UNL A   1      51.067  26.894  23.135  1.00  0.00    -0.200 F 
ATOM     73  F   UNL A   1      52.952  26.017  24.901  1.00  0.00    -0.200 F 
ENDBRANCH  39  63
BRANCH  51  74
ATOM     74  C   UNL A   1      46.048  32.501  28.717  1.00  0.00     0.064 A 
ATOM     75  C   UNL A   1      46.637  32.821  29.949  1.00  0.00     0.173 A 
ATOM     76  C   UNL A   1      45.990  33.506  27.738  1.00  0.00     0.173 A 
ATOM     77  F   UNL A   1      46.706  31.902  30.924  1.00  0.00    -0.203 F 
ATOM     78  C   UNL A   1      47.117  34.104  30.202  1.00  0.00     0.198 A 
ATOM     79  C   UNL A   1      46.502  34.777  27.982  1.00  0.00     0.198 A 
ATOM     80  F   UNL A   1      45.443  33.254  26.540  1.00  0.00    -0.203 F 
ATOM     81  F   UNL A   1      47.623  34.403  31.406  1.00  0.00    -0.200 F 
ATOM     82  C   UNL A   1      47.057  35.078  29.216  1.00  0.00     0.200 A 
ATOM     83  F   UNL A   1      46.459  35.711  27.022  1.00  0.00    -0.200 F 
ATOM     84  F   UNL A   1      47.526  36.310  29.459  1.00  0.00    -0.200 F 
ENDBRANCH  51  74
ENDBRANCH  25  26
ENDBRANCH  17  20
ENDBRANCH  15  16
ENDBRANCH   1  15
TORSDOF 11
ENDMDL
