MODEL 1
REMARK VINA RESULT:     -12.0      0.000      0.000
REMARK SMILES CC[C@](C)(NC(=O)[C@](C)([NH3+])c1ccccc1)C(=O)NCCCNC(=O)c1ccc(-c2c3nc(c(-c4c(F)c(F)c(F)c(F)c4F)c4ccc([nH]4)c(-c4c(F)c(F)c(F)c(F)c4F)c4nc(c(-c5c(F)c(F)c(F)c(F)c5F)c5ccc2[nH]5)C=C4)C=C3)cc1
REMARK SMILES IDX 20 1 19 2 17 3 18 4 3 6 4 7 2 8 1 9 5 10 6 11 7 13 8 14 9 15
REMARK SMILES IDX 10 16 11 20 12 21 16 22 13 23 15 24 14 25 21 26 22 27 23 28
REMARK SMILES IDX 24 29 25 31 26 32 27 33 88 34 28 35 87 36 29 37 30 38 31 39
REMARK SMILES IDX 81 40 32 41 86 42 80 43 82 44 33 45 85 46 79 47 78 48 34 50
REMARK SMILES IDX 66 51 46 52 65 53 47 54 50 55 64 56 83 57 48 58 49 59 63 61
REMARK SMILES IDX 84 62 51 63 35 64 36 65 44 66 37 67 38 68 42 69 45 70 39 71
REMARK SMILES IDX 40 72 43 73 41 74 67 75 68 76 76 77 69 78 70 79 74 80 77 81
REMARK SMILES IDX 71 82 72 83 75 84 73 85 52 86 53 87 61 88 54 89 55 90 59 91
REMARK SMILES IDX 62 92 56 93 57 94 60 95 58 96
REMARK H PARENT 19 5 5 12 10 17 10 18 10 19 23 30 82 49 50 60
REMARK Flexibility Score: inf
ROOT
ATOM      1  C   UNL A   1      31.475  30.416  25.926  1.00  0.00     0.117 C 
ENDROOT
BRANCH   1   2
ATOM      2  N   UNL A   1      31.047  30.100  24.566  1.00  0.00    -0.354 N 
ATOM      3  C   UNL A   1      31.296  29.035  23.734  1.00  0.00     0.245 C 
ATOM      4  O   UNL A   1      30.615  28.957  22.708  1.00  0.00    -0.272 OA
ATOM      5  H   UNL A   1      30.464  30.785  24.165  1.00  0.00     0.163 HD
BRANCH   3   6
ATOM      6  C   UNL A   1      32.377  27.975  24.074  1.00  0.00     0.116 C 
ATOM      7  C   UNL A   1      33.795  28.571  23.972  1.00  0.00     0.045 C 
BRANCH   6   8
ATOM      8  C   UNL A   1      32.250  26.906  22.922  1.00  0.00     0.035 C 
ATOM      9  C   UNL A   1      33.495  26.117  22.547  1.00  0.00     0.007 C 
ENDBRANCH   6   8
BRANCH   6  10
ATOM     10  N   UNL A   1      32.219  27.400  25.443  1.00  0.00    -0.336 N 
ATOM     11  C   UNL A   1      31.198  26.725  26.069  1.00  0.00     0.286 C 
ATOM     12  H   UNL A   1      33.008  27.533  26.016  1.00  0.00     0.164 HD
ATOM     13  O   UNL A   1      31.032  27.078  27.248  1.00  0.00    -0.267 OA
BRANCH  11  14
ATOM     14  C   UNL A   1      30.369  25.505  25.495  1.00  0.00     0.196 C 
ATOM     15  C   UNL A   1      29.421  26.111  24.430  1.00  0.00     0.096 C 
BRANCH  14  16
ATOM     16  N   UNL A   1      29.481  24.909  26.501  1.00  0.00    -0.341 N 
ATOM     17  H   UNL A   1      28.688  24.467  26.036  1.00  0.00     0.345 HD
ATOM     18  H   UNL A   1      29.144  25.637  27.131  1.00  0.00     0.345 HD
ATOM     19  H   UNL A   1      29.995  24.209  27.036  1.00  0.00     0.345 HD
ENDBRANCH  14  16
BRANCH  14  20
ATOM     20  C   UNL A   1      31.169  24.361  24.870  1.00  0.00     0.022 A 
ATOM     21  C   UNL A   1      32.377  23.959  25.490  1.00  0.00     0.011 A 
ATOM     22  C   UNL A   1      30.804  23.725  23.679  1.00  0.00     0.011 A 
ATOM     23  C   UNL A   1      33.220  23.016  24.909  1.00  0.00     0.001 A 
ATOM     24  C   UNL A   1      31.648  22.771  23.100  1.00  0.00     0.001 A 
ATOM     25  C   UNL A   1      32.858  22.429  23.705  1.00  0.00     0.000 A 
ENDBRANCH  14  20
ENDBRANCH  11  14
ENDBRANCH   6  10
ENDBRANCH   3   6
ENDBRANCH   1   2
BRANCH   1  26
ATOM     26  C   UNL A   1      31.327  31.876  26.360  1.00  0.00     0.042 C 
BRANCH  26  27
ATOM     27  C   UNL A   1      32.572  32.551  26.930  1.00  0.00     0.118 C 
BRANCH  27  28
ATOM     28  N   UNL A   1      32.326  33.872  27.465  1.00  0.00    -0.352 N 
ATOM     29  C   UNL A   1      33.025  34.579  28.413  1.00  0.00     0.251 C 
ATOM     30  H   UNL A   1      31.539  34.334  27.095  1.00  0.00     0.163 HD
ATOM     31  O   UNL A   1      32.621  35.681  28.761  1.00  0.00    -0.269 OA
BRANCH  29  32
ATOM     32  C   UNL A   1      34.228  34.005  29.061  1.00  0.00     0.039 A 
ATOM     33  C   UNL A   1      34.025  33.115  30.120  1.00  0.00     0.014 A 
ATOM     34  C   UNL A   1      35.529  34.348  28.683  1.00  0.00     0.014 A 
ATOM     35  C   UNL A   1      35.118  32.530  30.762  1.00  0.00     0.010 A 
ATOM     36  C   UNL A   1      36.623  33.721  29.291  1.00  0.00     0.010 A 
ATOM     37  C   UNL A   1      36.428  32.803  30.335  1.00  0.00    -0.014 A 
BRANCH  37  38
ATOM     38  C   UNL A   1      37.581  32.107  30.969  1.00  0.00     0.031 A 
ATOM     39  C   UNL A   1      38.048  32.482  32.347  1.00  0.00     0.074 A 
ATOM     40  C   UNL A   1      38.218  31.130  30.292  1.00  0.00     0.049 A 
ATOM     41  N   UNL A   1      39.033  31.981  33.052  1.00  0.00    -0.248 NA
ATOM     42  C   UNL A   1      37.322  33.568  33.019  1.00  0.00     0.031 C 
ATOM     43  C   UNL A   1      37.877  30.683  28.942  1.00  0.00     0.029 A 
ATOM     44  N   UNL A   1      39.284  30.339  30.645  1.00  0.00    -0.354 N 
ATOM     45  C   UNL A   1      39.046  32.690  34.247  1.00  0.00     0.074 A 
ATOM     46  C   UNL A   1      37.999  33.687  34.153  1.00  0.00     0.031 C 
ATOM     47  C   UNL A   1      38.703  29.686  28.588  1.00  0.00     0.029 A 
ATOM     48  C   UNL A   1      39.659  29.451  29.666  1.00  0.00     0.049 A 
ATOM     49  H   UNL A   1      39.737  30.402  31.517  1.00  0.00     0.167 HD
ATOM     50  C   UNL A   1      39.845  32.513  35.328  1.00  0.00     0.037 A 
ATOM     51  C   UNL A   1      40.668  28.559  29.632  1.00  0.00     0.037 A 
ATOM     52  C   UNL A   1      40.885  31.520  35.421  1.00  0.00     0.049 A 
ATOM     53  C   UNL A   1      41.574  28.422  30.827  1.00  0.00     0.074 A 
ATOM     54  C   UNL A   1      41.711  31.235  36.495  1.00  0.00     0.029 A 
ATOM     55  N   UNL A   1      41.253  30.658  34.399  1.00  0.00    -0.354 N 
ATOM     56  N   UNL A   1      41.529  29.048  31.976  1.00  0.00    -0.248 NA
ATOM     57  C   UNL A   1      42.671  27.448  30.718  1.00  0.00     0.031 C 
ATOM     58  C   UNL A   1      42.621  30.248  36.101  1.00  0.00     0.029 A 
ATOM     59  C   UNL A   1      42.320  29.869  34.804  1.00  0.00     0.049 A 
ATOM     60  H   UNL A   1      40.820  30.613  33.514  1.00  0.00     0.167 HD
ATOM     61  C   UNL A   1      42.572  28.531  32.734  1.00  0.00     0.074 A 
ATOM     62  C   UNL A   1      43.218  27.523  31.922  1.00  0.00     0.031 C 
ATOM     63  C   UNL A   1      42.959  28.866  33.989  1.00  0.00     0.037 A 
BRANCH  50  64
ATOM     64  C   UNL A   1      39.637  33.426  36.504  1.00  0.00     0.064 A 
ATOM     65  C   UNL A   1      40.249  34.686  36.577  1.00  0.00     0.173 A 
ATOM     66  C   UNL A   1      38.772  33.058  37.546  1.00  0.00     0.173 A 
ATOM     67  F   UNL A   1      41.089  35.086  35.611  1.00  0.00    -0.203 F 
ATOM     68  C   UNL A   1      40.027  35.530  37.663  1.00  0.00     0.198 A 
ATOM     69  C   UNL A   1      38.526  33.917  38.614  1.00  0.00     0.198 A 
ATOM     70  F   UNL A   1      38.150  31.868  37.522  1.00  0.00    -0.203 F 
ATOM     71  F   UNL A   1      40.660  36.709  37.734  1.00  0.00    -0.200 F 
ATOM     72  C   UNL A   1      39.160  35.148  38.676  1.00  0.00     0.200 A 
ATOM     73  F   UNL A   1      37.674  33.554  39.582  1.00  0.00    -0.200 F 
ATOM     74  F   UNL A   1      38.939  35.966  39.714  1.00  0.00    -0.200 F 
ENDBRANCH  50  64
BRANCH  51  75
ATOM     75  C   UNL A   1      40.880  27.723  28.420  1.00  0.00     0.064 A 
ATOM     76  C   UNL A   1      41.688  28.167  27.365  1.00  0.00     0.173 A 
ATOM     77  C   UNL A   1      40.264  26.470  28.285  1.00  0.00     0.173 A 
ATOM     78  F   UNL A   1      42.280  29.368  27.436  1.00  0.00    -0.203 F 
ATOM     79  C   UNL A   1      41.855  27.400  26.212  1.00  0.00     0.198 A 
ATOM     80  C   UNL A   1      40.457  25.689  27.148  1.00  0.00     0.198 A 
ATOM     81  F   UNL A   1      39.481  25.997  29.266  1.00  0.00    -0.203 F 
ATOM     82  F   UNL A   1      42.591  27.873  25.197  1.00  0.00    -0.200 F 
ATOM     83  C   UNL A   1      41.244  26.160  26.108  1.00  0.00     0.200 A 
ATOM     84  F   UNL A   1      39.878  24.485  27.057  1.00  0.00    -0.200 F 
ATOM     85  F   UNL A   1      41.407  25.422  25.001  1.00  0.00    -0.200 F 
ENDBRANCH  51  75
BRANCH  63  86
ATOM     86  C   UNL A   1      44.122  28.117  34.578  1.00  0.00     0.064 A 
ATOM     87  C   UNL A   1      45.435  28.601  34.484  1.00  0.00     0.173 A 
ATOM     88  C   UNL A   1      43.916  26.917  35.277  1.00  0.00     0.173 A 
ATOM     89  F   UNL A   1      45.691  29.734  33.812  1.00  0.00    -0.203 F 
ATOM     90  C   UNL A   1      46.500  27.898  35.043  1.00  0.00     0.198 A 
ATOM     91  C   UNL A   1      44.979  26.236  35.865  1.00  0.00     0.198 A 
ATOM     92  F   UNL A   1      42.680  26.411  35.403  1.00  0.00    -0.203 F 
ATOM     93  F   UNL A   1      47.752  28.354  34.895  1.00  0.00    -0.200 F 
ATOM     94  C   UNL A   1      46.271  26.723  35.741  1.00  0.00     0.200 A 
ATOM     95  F   UNL A   1      44.752  25.108  36.553  1.00  0.00    -0.200 F 
ATOM     96  F   UNL A   1      47.296  26.054  36.286  1.00  0.00    -0.200 F 
ENDBRANCH  63  86
ENDBRANCH  37  38
ENDBRANCH  29  32
ENDBRANCH  27  28
ENDBRANCH  26  27
ENDBRANCH   1  26
TORSDOF 15
ENDMDL
MODEL 2
REMARK VINA RESULT:     -11.9      0.132      1.605
REMARK SMILES CC[C@](C)(NC(=O)[C@](C)([NH3+])c1ccccc1)C(=O)NCCCNC(=O)c1ccc(-c2c3nc(c(-c4c(F)c(F)c(F)c(F)c4F)c4ccc([nH]4)c(-c4c(F)c(F)c(F)c(F)c4F)c4nc(c(-c5c(F)c(F)c(F)c(F)c5F)c5ccc2[nH]5)C=C4)C=C3)cc1
REMARK SMILES IDX 20 1 19 2 17 3 18 4 3 6 4 7 2 8 1 9 5 10 6 11 7 13 8 14 9 15
REMARK SMILES IDX 10 16 11 20 12 21 16 22 13 23 15 24 14 25 21 26 22 27 23 28
REMARK SMILES IDX 24 29 25 31 26 32 27 33 88 34 28 35 87 36 29 37 30 38 31 39
REMARK SMILES IDX 81 40 32 41 86 42 80 43 82 44 33 45 85 46 79 47 78 48 34 50
REMARK SMILES IDX 66 51 46 52 65 53 47 54 50 55 64 56 83 57 48 58 49 59 63 61
REMARK SMILES IDX 84 62 51 63 35 64 36 65 44 66 37 67 38 68 42 69 45 70 39 71
REMARK SMILES IDX 40 72 43 73 41 74 67 75 68 76 76 77 69 78 70 79 74 80 77 81
REMARK SMILES IDX 71 82 72 83 75 84 73 85 52 86 53 87 61 88 54 89 55 90 59 91
REMARK SMILES IDX 62 92 56 93 57 94 60 95 58 96
REMARK H PARENT 19 5 5 12 10 17 10 18 10 19 23 30 82 49 50 60
REMARK Flexibility Score: inf
ROOT
ATOM      1  C   UNL A   1      31.522  30.389  25.985  1.00  0.00     0.117 C 
ENDROOT
BRANCH   1   2
ATOM      2  N   UNL A   1      31.110  30.104  24.613  1.00  0.00    -0.354 N 
ATOM      3  C   UNL A   1      31.352  29.049  23.766  1.00  0.00     0.245 C 
ATOM      4  O   UNL A   1      30.686  29.002  22.729  1.00  0.00    -0.272 OA
ATOM      5  H   UNL A   1      30.546  30.807  24.216  1.00  0.00     0.163 HD
BRANCH   3   6
ATOM      6  C   UNL A   1      32.408  27.964  24.103  1.00  0.00     0.116 C 
ATOM      7  C   UNL A   1      33.839  28.529  24.008  1.00  0.00     0.045 C 
BRANCH   6   8
ATOM      8  C   UNL A   1      32.260  26.903  22.947  1.00  0.00     0.035 C 
ATOM      9  C   UNL A   1      33.513  26.166  22.497  1.00  0.00     0.007 C 
ENDBRANCH   6   8
BRANCH   6  10
ATOM     10  N   UNL A   1      32.234  27.386  25.469  1.00  0.00    -0.336 N 
ATOM     11  C   UNL A   1      31.205  26.712  26.083  1.00  0.00     0.286 C 
ATOM     12  H   UNL A   1      33.018  27.516  26.051  1.00  0.00     0.164 HD
ATOM     13  O   UNL A   1      31.027  27.063  27.261  1.00  0.00    -0.267 OA
BRANCH  11  14
ATOM     14  C   UNL A   1      30.379  25.495  25.497  1.00  0.00     0.196 C 
ATOM     15  C   UNL A   1      29.421  26.111  24.447  1.00  0.00     0.096 C 
BRANCH  14  16
ATOM     16  N   UNL A   1      29.501  24.880  26.501  1.00  0.00    -0.341 N 
ATOM     17  H   UNL A   1      29.600  25.374  27.387  1.00  0.00     0.345 HD
ATOM     18  H   UNL A   1      29.761  23.902  26.626  1.00  0.00     0.345 HD
ATOM     19  H   UNL A   1      28.533  24.937  26.185  1.00  0.00     0.345 HD
ENDBRANCH  14  16
BRANCH  14  20
ATOM     20  C   UNL A   1      31.181  24.366  24.850  1.00  0.00     0.022 A 
ATOM     21  C   UNL A   1      32.421  23.996  25.427  1.00  0.00     0.011 A 
ATOM     22  C   UNL A   1      30.787  23.713  23.678  1.00  0.00     0.011 A 
ATOM     23  C   UNL A   1      33.264  23.068  24.821  1.00  0.00     0.001 A 
ATOM     24  C   UNL A   1      31.631  22.774  23.074  1.00  0.00     0.001 A 
ATOM     25  C   UNL A   1      32.871  22.464  23.635  1.00  0.00     0.000 A 
ENDBRANCH  14  20
ENDBRANCH  11  14
ENDBRANCH   6  10
ENDBRANCH   3   6
ENDBRANCH   1   2
BRANCH   1  26
ATOM     26  C   UNL A   1      31.351  31.834  26.457  1.00  0.00     0.042 C 
BRANCH  26  27
ATOM     27  C   UNL A   1      32.616  32.564  26.904  1.00  0.00     0.118 C 
BRANCH  27  28
ATOM     28  N   UNL A   1      32.369  33.883  27.443  1.00  0.00    -0.352 N 
ATOM     29  C   UNL A   1      33.056  34.580  28.406  1.00  0.00     0.251 C 
ATOM     30  H   UNL A   1      31.591  34.351  27.062  1.00  0.00     0.163 HD
ATOM     31  O   UNL A   1      32.653  35.683  28.754  1.00  0.00    -0.269 OA
BRANCH  29  32
ATOM     32  C   UNL A   1      34.246  33.995  29.070  1.00  0.00     0.039 A 
ATOM     33  C   UNL A   1      34.028  32.953  29.977  1.00  0.00     0.014 A 
ATOM     34  C   UNL A   1      35.543  34.468  28.854  1.00  0.00     0.014 A 
ATOM     35  C   UNL A   1      35.109  32.352  30.624  1.00  0.00     0.010 A 
ATOM     36  C   UNL A   1      36.631  33.830  29.462  1.00  0.00     0.010 A 
ATOM     37  C   UNL A   1      36.424  32.763  30.351  1.00  0.00    -0.014 A 
BRANCH  37  38
ATOM     38  C   UNL A   1      37.574  32.056  30.981  1.00  0.00     0.031 A 
ATOM     39  C   UNL A   1      38.032  32.409  32.368  1.00  0.00     0.074 A 
ATOM     40  C   UNL A   1      38.215  31.091  30.291  1.00  0.00     0.049 A 
ATOM     41  N   UNL A   1      39.013  31.896  33.070  1.00  0.00    -0.248 NA
ATOM     42  C   UNL A   1      37.301  33.483  33.053  1.00  0.00     0.031 C 
ATOM     43  C   UNL A   1      37.882  30.667  28.931  1.00  0.00     0.029 A 
ATOM     44  N   UNL A   1      39.279  30.295  30.637  1.00  0.00    -0.354 N 
ATOM     45  C   UNL A   1      39.018  32.584  34.277  1.00  0.00     0.074 A 
ATOM     46  C   UNL A   1      37.972  33.582  34.193  1.00  0.00     0.031 C 
ATOM     47  C   UNL A   1      38.711  29.677  28.565  1.00  0.00     0.029 A 
ATOM     48  C   UNL A   1      39.660  29.424  29.645  1.00  0.00     0.049 A 
ATOM     49  H   UNL A   1      39.726  30.343  31.513  1.00  0.00     0.167 HD
ATOM     50  C   UNL A   1      39.811  32.390  35.359  1.00  0.00     0.037 A 
ATOM     51  C   UNL A   1      40.670  28.533  29.602  1.00  0.00     0.037 A 
ATOM     52  C   UNL A   1      40.851  31.396  35.442  1.00  0.00     0.049 A 
ATOM     53  C   UNL A   1      41.569  28.375  30.800  1.00  0.00     0.074 A 
ATOM     54  C   UNL A   1      41.671  31.093  36.516  1.00  0.00     0.029 A 
ATOM     55  N   UNL A   1      41.225  30.551  34.407  1.00  0.00    -0.354 N 
ATOM     56  N   UNL A   1      41.517  28.982  31.960  1.00  0.00    -0.248 NA
ATOM     57  C   UNL A   1      42.666  27.404  30.681  1.00  0.00     0.031 C 
ATOM     58  C   UNL A   1      42.583  30.112  36.111  1.00  0.00     0.029 A 
ATOM     59  C   UNL A   1      42.290  29.755  34.806  1.00  0.00     0.049 A 
ATOM     60  H   UNL A   1      40.798  30.521  33.520  1.00  0.00     0.167 HD
ATOM     61  C   UNL A   1      42.555  28.453  32.715  1.00  0.00     0.074 A 
ATOM     62  C   UNL A   1      43.206  27.459  31.890  1.00  0.00     0.031 C 
ATOM     63  C   UNL A   1      42.934  28.766  33.978  1.00  0.00     0.037 A 
BRANCH  50  64
ATOM     64  C   UNL A   1      39.595  33.282  36.550  1.00  0.00     0.064 A 
ATOM     65  C   UNL A   1      38.707  32.936  37.579  1.00  0.00     0.173 A 
ATOM     66  C   UNL A   1      40.325  34.473  36.689  1.00  0.00     0.173 A 
ATOM     67  F   UNL A   1      37.981  31.812  37.496  1.00  0.00    -0.203 F 
ATOM     68  C   UNL A   1      38.536  33.762  38.688  1.00  0.00     0.198 A 
ATOM     69  C   UNL A   1      40.177  35.280  37.813  1.00  0.00     0.198 A 
ATOM     70  F   UNL A   1      41.197  34.846  35.738  1.00  0.00    -0.203 F 
ATOM     71  F   UNL A   1      37.648  33.434  39.636  1.00  0.00    -0.200 F 
ATOM     72  C   UNL A   1      39.277  34.929  38.807  1.00  0.00     0.200 A 
ATOM     73  F   UNL A   1      40.906  36.397  37.935  1.00  0.00    -0.200 F 
ATOM     74  F   UNL A   1      39.119  35.718  39.880  1.00  0.00    -0.200 F 
ENDBRANCH  50  64
BRANCH  51  75
ATOM     75  C   UNL A   1      40.889  27.717  28.378  1.00  0.00     0.064 A 
ATOM     76  C   UNL A   1      40.306  26.451  28.237  1.00  0.00     0.173 A 
ATOM     77  C   UNL A   1      41.701  28.180  27.332  1.00  0.00     0.173 A 
ATOM     78  F   UNL A   1      39.541  25.953  29.220  1.00  0.00    -0.203 F 
ATOM     79  C   UNL A   1      40.543  25.669  27.107  1.00  0.00     0.198 A 
ATOM     80  C   UNL A   1      41.911  27.413  26.188  1.00  0.00     0.198 A 
ATOM     81  F   UNL A   1      42.283  29.385  27.415  1.00  0.00    -0.203 F 
ATOM     82  F   UNL A   1      40.015  24.441  27.022  1.00  0.00    -0.200 F 
ATOM     83  C   UNL A   1      41.340  26.154  26.082  1.00  0.00     0.200 A 
ATOM     84  F   UNL A   1      42.669  27.891  25.192  1.00  0.00    -0.200 F 
ATOM     85  F   UNL A   1      41.565  25.404  24.994  1.00  0.00    -0.200 F 
ENDBRANCH  51  75
BRANCH  63  86
ATOM     86  C   UNL A   1      44.094  28.008  34.561  1.00  0.00     0.064 A 
ATOM     87  C   UNL A   1      45.407  28.497  34.489  1.00  0.00     0.173 A 
ATOM     88  C   UNL A   1      43.885  26.793  35.233  1.00  0.00     0.173 A 
ATOM     89  F   UNL A   1      45.665  29.645  33.845  1.00  0.00    -0.203 F 
ATOM     90  C   UNL A   1      46.469  27.785  35.043  1.00  0.00     0.198 A 
ATOM     91  C   UNL A   1      44.944  26.102  35.815  1.00  0.00     0.198 A 
ATOM     92  F   UNL A   1      42.650  26.281  35.336  1.00  0.00    -0.203 F 
ATOM     93  F   UNL A   1      47.721  28.248  34.915  1.00  0.00    -0.200 F 
ATOM     94  C   UNL A   1      46.236  26.594  35.713  1.00  0.00     0.200 A 
ATOM     95  F   UNL A   1      44.715  24.959  36.476  1.00  0.00    -0.200 F 
ATOM     96  F   UNL A   1      47.258  25.917  36.253  1.00  0.00    -0.200 F 
ENDBRANCH  63  86
ENDBRANCH  37  38
ENDBRANCH  29  32
ENDBRANCH  27  28
ENDBRANCH  26  27
ENDBRANCH   1  26
TORSDOF 15
ENDMDL
MODEL 3
REMARK VINA RESULT:     -11.9      0.242      7.432
REMARK SMILES CC[C@](C)(NC(=O)[C@](C)([NH3+])c1ccccc1)C(=O)NCCCNC(=O)c1ccc(-c2c3nc(c(-c4c(F)c(F)c(F)c(F)c4F)c4ccc([nH]4)c(-c4c(F)c(F)c(F)c(F)c4F)c4nc(c(-c5c(F)c(F)c(F)c(F)c5F)c5ccc2[nH]5)C=C4)C=C3)cc1
REMARK SMILES IDX 20 1 19 2 17 3 18 4 3 6 4 7 2 8 1 9 5 10 6 11 7 13 8 14 9 15
REMARK SMILES IDX 10 16 11 20 12 21 16 22 13 23 15 24 14 25 21 26 22 27 23 28
REMARK SMILES IDX 24 29 25 31 26 32 27 33 88 34 28 35 87 36 29 37 30 38 31 39
REMARK SMILES IDX 81 40 32 41 86 42 80 43 82 44 33 45 85 46 79 47 78 48 34 50
REMARK SMILES IDX 66 51 46 52 65 53 47 54 50 55 64 56 83 57 48 58 49 59 63 61
REMARK SMILES IDX 84 62 51 63 35 64 36 65 44 66 37 67 38 68 42 69 45 70 39 71
REMARK SMILES IDX 40 72 43 73 41 74 67 75 68 76 76 77 69 78 70 79 74 80 77 81
REMARK SMILES IDX 71 82 72 83 75 84 73 85 52 86 53 87 61 88 54 89 55 90 59 91
REMARK SMILES IDX 62 92 56 93 57 94 60 95 58 96
REMARK H PARENT 19 5 5 12 10 17 10 18 10 19 23 30 82 49 50 60
REMARK Flexibility Score: inf
ROOT
ATOM      1  C   UNL A   1      31.491  30.437  25.934  1.00  0.00     0.117 C 
ENDROOT
BRANCH   1   2
ATOM      2  N   UNL A   1      31.068  30.119  24.573  1.00  0.00    -0.354 N 
ATOM      3  C   UNL A   1      31.309  29.049  23.746  1.00  0.00     0.245 C 
ATOM      4  O   UNL A   1      30.633  28.974  22.717  1.00  0.00    -0.272 OA
ATOM      5  H   UNL A   1      30.494  30.809  24.167  1.00  0.00     0.163 HD
BRANCH   3   6
ATOM      6  C   UNL A   1      32.377  27.979  24.095  1.00  0.00     0.116 C 
ATOM      7  C   UNL A   1      33.801  28.562  24.007  1.00  0.00     0.045 C 
BRANCH   6   8
ATOM      8  C   UNL A   1      32.251  26.911  22.943  1.00  0.00     0.035 C 
ATOM      9  C   UNL A   1      33.521  26.210  22.484  1.00  0.00     0.007 C 
ENDBRANCH   6   8
BRANCH   6  10
ATOM     10  N   UNL A   1      32.202  27.406  25.463  1.00  0.00    -0.336 N 
ATOM     11  C   UNL A   1      31.169  26.740  26.080  1.00  0.00     0.286 C 
ATOM     12  H   UNL A   1      32.988  27.531  26.043  1.00  0.00     0.164 HD
ATOM     13  O   UNL A   1      30.996  27.095  27.257  1.00  0.00    -0.267 OA
BRANCH  11  14
ATOM     14  C   UNL A   1      30.333  25.528  25.499  1.00  0.00     0.196 C 
ATOM     15  C   UNL A   1      29.376  26.149  24.449  1.00  0.00     0.096 C 
BRANCH  14  16
ATOM     16  N   UNL A   1      29.453  24.922  26.505  1.00  0.00    -0.341 N 
ATOM     17  H   UNL A   1      28.643  25.523  26.656  1.00  0.00     0.345 HD
ATOM     18  H   UNL A   1      29.963  24.812  27.381  1.00  0.00     0.345 HD
ATOM     19  H   UNL A   1      29.141  24.007  26.177  1.00  0.00     0.345 HD
ENDBRANCH  14  16
BRANCH  14  20
ATOM     20  C   UNL A   1      31.125  24.392  24.852  1.00  0.00     0.022 A 
ATOM     21  C   UNL A   1      32.348  23.993  25.445  1.00  0.00     0.011 A 
ATOM     22  C   UNL A   1      30.740  23.760  23.666  1.00  0.00     0.011 A 
ATOM     23  C   UNL A   1      33.184  23.056  24.843  1.00  0.00     0.001 A 
ATOM     24  C   UNL A   1      31.577  22.813  23.065  1.00  0.00     0.001 A 
ATOM     25  C   UNL A   1      32.800  22.474  23.644  1.00  0.00     0.000 A 
ENDBRANCH  14  20
ENDBRANCH  11  14
ENDBRANCH   6  10
ENDBRANCH   3   6
ENDBRANCH   1   2
BRANCH   1  26
ATOM     26  C   UNL A   1      31.357  31.900  26.361  1.00  0.00     0.042 C 
BRANCH  26  27
ATOM     27  C   UNL A   1      32.569  32.528  27.045  1.00  0.00     0.118 C 
BRANCH  27  28
ATOM     28  N   UNL A   1      32.332  33.867  27.537  1.00  0.00    -0.352 N 
ATOM     29  C   UNL A   1      33.039  34.602  28.457  1.00  0.00     0.251 C 
ATOM     30  H   UNL A   1      31.546  34.320  27.155  1.00  0.00     0.163 HD
ATOM     31  O   UNL A   1      32.643  35.717  28.770  1.00  0.00    -0.269 OA
BRANCH  29  32
ATOM     32  C   UNL A   1      34.243  34.044  29.118  1.00  0.00     0.039 A 
ATOM     33  C   UNL A   1      34.040  33.143  30.168  1.00  0.00     0.014 A 
ATOM     34  C   UNL A   1      35.543  34.412  28.760  1.00  0.00     0.014 A 
ATOM     35  C   UNL A   1      35.134  32.572  30.821  1.00  0.00     0.010 A 
ATOM     36  C   UNL A   1      36.639  33.800  29.380  1.00  0.00     0.010 A 
ATOM     37  C   UNL A   1      36.445  32.871  30.415  1.00  0.00    -0.014 A 
BRANCH  37  38
ATOM     38  C   UNL A   1      37.601  32.190  31.060  1.00  0.00     0.031 A 
ATOM     39  C   UNL A   1      38.363  31.112  30.341  1.00  0.00     0.074 A 
ATOM     40  C   UNL A   1      37.962  32.541  32.311  1.00  0.00     0.049 A 
ATOM     41  N   UNL A   1      39.394  30.414  30.751  1.00  0.00    -0.248 NA
ATOM     42  C   UNL A   1      37.903  30.766  28.990  1.00  0.00     0.031 C 
ATOM     43  C   UNL A   1      37.294  33.557  33.125  1.00  0.00     0.029 A 
ATOM     44  N   UNL A   1      38.976  32.083  33.116  1.00  0.00    -0.354 N 
ATOM     45  C   UNL A   1      39.704  29.547  29.711  1.00  0.00     0.074 A 
ATOM     46  C   UNL A   1      38.724  29.775  28.670  1.00  0.00     0.031 C 
ATOM     47  C   UNL A   1      37.927  33.659  34.304  1.00  0.00     0.029 A 
ATOM     48  C   UNL A   1      39.016  32.689  34.349  1.00  0.00     0.049 A 
ATOM     49  H   UNL A   1      39.613  31.387  32.837  1.00  0.00     0.167 HD
ATOM     50  C   UNL A   1      40.723  28.657  29.627  1.00  0.00     0.037 A 
ATOM     51  C   UNL A   1      39.829  32.477  35.403  1.00  0.00     0.037 A 
ATOM     52  C   UNL A   1      41.699  28.431  30.663  1.00  0.00     0.049 A 
ATOM     53  C   UNL A   1      40.918  31.443  35.300  1.00  0.00     0.074 A 
ATOM     54  C   UNL A   1      42.795  27.585  30.646  1.00  0.00     0.029 A 
ATOM     55  N   UNL A   1      41.691  29.044  31.907  1.00  0.00    -0.354 N 
ATOM     56  N   UNL A   1      41.245  30.682  34.286  1.00  0.00    -0.248 NA
ATOM     57  C   UNL A   1      41.755  31.243  36.493  1.00  0.00     0.031 C 
ATOM     58  C   UNL A   1      43.411  27.637  31.901  1.00  0.00     0.029 A 
ATOM     59  C   UNL A   1      42.739  28.565  32.679  1.00  0.00     0.049 A 
ATOM     60  H   UNL A   1      41.036  29.720  32.200  1.00  0.00     0.167 HD
ATOM     61  C   UNL A   1      42.335  29.930  34.706  1.00  0.00     0.074 A 
ATOM     62  C   UNL A   1      42.629  30.345  36.061  1.00  0.00     0.031 C 
ATOM     63  C   UNL A   1      43.026  28.982  34.029  1.00  0.00     0.037 A 
BRANCH  50  64
ATOM     64  C   UNL A   1      40.832  27.841  28.369  1.00  0.00     0.064 A 
ATOM     65  C   UNL A   1      41.593  28.274  27.273  1.00  0.00     0.173 A 
ATOM     66  C   UNL A   1      40.212  26.585  28.279  1.00  0.00     0.173 A 
ATOM     67  F   UNL A   1      42.202  29.468  27.303  1.00  0.00    -0.203 F 
ATOM     68  C   UNL A   1      41.703  27.495  26.123  1.00  0.00     0.198 A 
ATOM     69  C   UNL A   1      40.352  25.793  27.142  1.00  0.00     0.198 A 
ATOM     70  F   UNL A   1      39.482  26.116  29.304  1.00  0.00    -0.203 F 
ATOM     71  F   UNL A   1      42.397  27.950  25.071  1.00  0.00    -0.200 F 
ATOM     72  C   UNL A   1      41.089  26.253  26.062  1.00  0.00     0.200 A 
ATOM     73  F   UNL A   1      39.773  24.586  27.092  1.00  0.00    -0.200 F 
ATOM     74  F   UNL A   1      41.206  25.499  24.959  1.00  0.00    -0.200 F 
ENDBRANCH  50  64
BRANCH  51  75
ATOM     75  C   UNL A   1      39.642  33.261  36.654  1.00  0.00     0.064 A 
ATOM     76  C   UNL A   1      38.744  32.842  37.644  1.00  0.00     0.173 A 
ATOM     77  C   UNL A   1      40.347  34.453  36.875  1.00  0.00     0.173 A 
ATOM     78  F   UNL A   1      38.029  31.721  37.468  1.00  0.00    -0.203 F 
ATOM     79  C   UNL A   1      38.540  33.597  38.798  1.00  0.00     0.198 A 
ATOM     80  C   UNL A   1      40.168  35.190  38.044  1.00  0.00     0.198 A 
ATOM     81  F   UNL A   1      41.220  34.899  35.961  1.00  0.00    -0.203 F 
ATOM     82  F   UNL A   1      37.636  33.200  39.704  1.00  0.00    -0.200 F 
ATOM     83  C   UNL A   1      39.257  34.766  38.999  1.00  0.00     0.200 A 
ATOM     84  F   UNL A   1      40.873  36.311  38.242  1.00  0.00    -0.200 F 
ATOM     85  F   UNL A   1      39.063  35.490  40.111  1.00  0.00    -0.200 F 
ENDBRANCH  51  75
BRANCH  63  86
ATOM     86  C   UNL A   1      44.190  28.340  34.732  1.00  0.00     0.064 A 
ATOM     87  C   UNL A   1      44.048  27.148  35.458  1.00  0.00     0.173 A 
ATOM     88  C   UNL A   1      45.472  28.905  34.648  1.00  0.00     0.173 A 
ATOM     89  F   UNL A   1      42.842  26.574  35.584  1.00  0.00    -0.203 F 
ATOM     90  C   UNL A   1      45.139  26.562  36.096  1.00  0.00     0.198 A 
ATOM     91  C   UNL A   1      46.567  28.297  35.258  1.00  0.00     0.198 A 
ATOM     92  F   UNL A   1      45.667  30.041  33.963  1.00  0.00    -0.203 F 
ATOM     93  F   UNL A   1      44.967  25.451  36.827  1.00  0.00    -0.200 F 
ATOM     94  C   UNL A   1      46.398  27.131  35.987  1.00  0.00     0.200 A 
ATOM     95  F   UNL A   1      47.786  28.841  35.138  1.00  0.00    -0.200 F 
ATOM     96  F   UNL A   1      47.448  26.560  36.594  1.00  0.00    -0.200 F 
ENDBRANCH  63  86
ENDBRANCH  37  38
ENDBRANCH  29  32
ENDBRANCH  27  28
ENDBRANCH  26  27
ENDBRANCH   1  26
TORSDOF 15
ENDMDL
