MODEL 1
REMARK VINA RESULT:     -12.4      0.000      0.000
REMARK SMILES CCOC(=O)c1sc(NC(=O)CCC(=O)NCCCNC(=O)c2ccc(-c3c4nc(c(-c5c(F)c(F)c(F)c(F)c5F)c5ccc([nH]5)c(-c5c(F)c(F)c(F)c(F)c5F)c5nc(c(-c6c(F)c(F)c(F)c(F)c6F)c6ccc3[nH]6)C=C5)C=C4)cc2)c(C#N)c1C
REMARK SMILES IDX 14 1 15 2 16 3 13 5 12 6 10 7 9 8 11 10 8 11 6 12 7 13 89 14
REMARK SMILES IDX 86 15 90 16 4 17 5 18 3 19 2 20 1 21 87 22 88 23 17 24 18 25
REMARK SMILES IDX 19 26 20 27 21 28 22 30 23 31 24 32 85 33 25 34 84 35 26 36
REMARK SMILES IDX 27 37 28 38 78 39 29 40 83 41 77 42 79 43 30 44 82 45 76 46
REMARK SMILES IDX 75 47 31 49 63 50 43 51 62 52 44 53 47 54 61 55 80 56 45 57
REMARK SMILES IDX 46 58 60 60 81 61 48 62 32 63 33 64 41 65 34 66 35 67 39 68
REMARK SMILES IDX 42 69 36 70 37 71 40 72 38 73 64 74 65 75 73 76 66 77 67 78
REMARK SMILES IDX 71 79 74 80 68 81 69 82 72 83 70 84 49 85 50 86 58 87 51 88
REMARK SMILES IDX 52 89 56 90 59 91 53 92 54 93 57 94 55 95
REMARK H PARENT 16 4 9 9 20 29 79 48 47 59
REMARK Flexibility Score: inf
ROOT
ATOM      1  C   UNL A   1      33.922  22.687  27.026  1.00  0.00     0.220 C 
ATOM      2  O   UNL A   1      33.568  22.505  28.192  1.00  0.00    -0.275 OA
ATOM      3  N   UNL A   1      34.961  21.937  26.552  1.00  0.00    -0.356 N 
ATOM      4  H   UNL A   1      35.537  21.543  27.246  1.00  0.00     0.163 HD
ENDROOT
BRANCH   1   5
ATOM      5  C   UNL A   1      33.271  23.763  26.182  1.00  0.00     0.110 C 
BRANCH   5   6
ATOM      6  C   UNL A   1      31.882  23.445  25.631  1.00  0.00     0.110 C 
BRANCH   6   7
ATOM      7  C   UNL A   1      30.710  23.830  26.514  1.00  0.00     0.225 C 
ATOM      8  N   UNL A   1      29.939  24.938  26.304  1.00  0.00    -0.317 N 
ATOM      9  H   UNL A   1      29.087  24.952  26.799  1.00  0.00     0.170 HD
ATOM     10  O   UNL A   1      30.356  23.058  27.414  1.00  0.00    -0.275 OA
BRANCH   8  11
ATOM     11  C   UNL A   1      30.167  26.043  25.508  1.00  0.00     0.114 A 
ATOM     12  C   UNL A   1      30.028  27.732  23.735  1.00  0.00     0.118 A 
ATOM     13  S   UNL A   1      29.430  26.155  23.980  1.00  0.00    -0.109 S 
ATOM     14  C   UNL A   1      31.039  28.037  24.623  1.00  0.00    -0.006 A 
ATOM     15  C   UNL A   1      30.976  27.137  25.733  1.00  0.00     0.091 A 
ATOM     16  C   UNL A   1      31.921  29.237  24.640  1.00  0.00     0.048 C 
BRANCH  12  17
ATOM     17  C   UNL A   1      29.427  28.571  22.733  1.00  0.00     0.348 C 
ATOM     18  O   UNL A   1      29.959  28.941  21.696  1.00  0.00    -0.245 OA
BRANCH  17  19
ATOM     19  O   UNL A   1      28.144  28.831  23.092  1.00  0.00    -0.462 OA
BRANCH  19  20
ATOM     20  C   UNL A   1      27.582  30.037  22.579  1.00  0.00     0.230 C 
ATOM     21  C   UNL A   1      27.752  31.163  23.577  1.00  0.00     0.049 C 
ENDBRANCH  19  20
ENDBRANCH  17  19
ENDBRANCH  12  17
BRANCH  15  22
ATOM     22  C   UNL A   1      31.505  27.582  26.983  1.00  0.00     0.103 C 
ATOM     23  N   UNL A   1      31.722  28.002  28.039  1.00  0.00    -0.192 NA
ENDBRANCH  15  22
ENDBRANCH   8  11
ENDBRANCH   6   7
ENDBRANCH   5   6
ENDBRANCH   1   5
BRANCH   3  24
ATOM     24  C   UNL A   1      35.353  21.626  25.186  1.00  0.00     0.117 C 
BRANCH  24  25
ATOM     25  C   UNL A   1      36.604  22.325  24.645  1.00  0.00     0.042 C 
BRANCH  25  26
ATOM     26  C   UNL A   1      37.578  22.960  25.629  1.00  0.00     0.118 C 
BRANCH  26  27
ATOM     27  N   UNL A   1      38.541  22.107  26.300  1.00  0.00    -0.352 N 
ATOM     28  C   UNL A   1      39.789  22.401  26.841  1.00  0.00     0.251 C 
ATOM     29  H   UNL A   1      38.267  21.165  26.387  1.00  0.00     0.163 HD
ATOM     30  O   UNL A   1      40.486  21.457  27.214  1.00  0.00    -0.269 OA
BRANCH  28  31
ATOM     31  C   UNL A   1      40.270  23.798  27.113  1.00  0.00     0.039 A 
ATOM     32  C   UNL A   1      41.446  23.981  27.866  1.00  0.00     0.014 A 
ATOM     33  C   UNL A   1      39.521  24.923  26.819  1.00  0.00     0.014 A 
ATOM     34  C   UNL A   1      41.698  25.198  28.523  1.00  0.00     0.010 A 
ATOM     35  C   UNL A   1      39.697  26.077  27.559  1.00  0.00     0.010 A 
ATOM     36  C   UNL A   1      40.740  26.207  28.473  1.00  0.00    -0.014 A 
BRANCH  36  37
ATOM     37  C   UNL A   1      40.886  27.514  29.128  1.00  0.00     0.031 A 
ATOM     38  C   UNL A   1      41.988  28.304  28.508  1.00  0.00     0.074 A 
ATOM     39  C   UNL A   1      40.023  28.092  29.994  1.00  0.00     0.049 A 
ATOM     40  N   UNL A   1      43.213  28.382  28.920  1.00  0.00    -0.248 NA
ATOM     41  C   UNL A   1      41.787  28.849  27.151  1.00  0.00     0.031 C 
ATOM     42  C   UNL A   1      38.742  27.604  30.503  1.00  0.00     0.029 A 
ATOM     43  N   UNL A   1      40.107  29.335  30.569  1.00  0.00    -0.354 N 
ATOM     44  C   UNL A   1      43.856  29.158  27.963  1.00  0.00     0.074 A 
ATOM     45  C   UNL A   1      43.048  29.072  26.785  1.00  0.00     0.031 C 
ATOM     46  C   UNL A   1      38.086  28.609  31.145  1.00  0.00     0.029 A 
ATOM     47  C   UNL A   1      38.947  29.776  31.211  1.00  0.00     0.049 A 
ATOM     48  H   UNL A   1      40.928  29.877  30.531  1.00  0.00     0.167 HD
ATOM     49  C   UNL A   1      44.754  30.120  28.319  1.00  0.00     0.037 A 
ATOM     50  C   UNL A   1      38.732  31.013  31.745  1.00  0.00     0.037 A 
ATOM     51  C   UNL A   1      45.169  29.932  29.691  1.00  0.00     0.049 A 
ATOM     52  C   UNL A   1      40.061  31.623  31.987  1.00  0.00     0.074 A 
ATOM     53  C   UNL A   1      45.759  28.908  30.407  1.00  0.00     0.029 A 
ATOM     54  N   UNL A   1      44.612  30.763  30.632  1.00  0.00    -0.354 N 
ATOM     55  N   UNL A   1      40.902  31.167  32.872  1.00  0.00    -0.248 NA
ATOM     56  C   UNL A   1      40.636  32.422  30.920  1.00  0.00     0.031 C 
ATOM     57  C   UNL A   1      45.121  28.927  31.684  1.00  0.00     0.029 A 
ATOM     58  C   UNL A   1      44.237  30.006  31.710  1.00  0.00     0.049 A 
ATOM     59  H   UNL A   1      44.502  31.738  30.547  1.00  0.00     0.167 HD
ATOM     60  C   UNL A   1      42.132  31.224  32.237  1.00  0.00     0.074 A 
ATOM     61  C   UNL A   1      41.917  32.075  31.066  1.00  0.00     0.031 C 
ATOM     62  C   UNL A   1      43.115  30.333  32.556  1.00  0.00     0.037 A 
BRANCH  49  63
ATOM     63  C   UNL A   1      44.900  31.462  27.612  1.00  0.00     0.064 A 
ATOM     64  C   UNL A   1      46.119  31.734  26.958  1.00  0.00     0.173 A 
ATOM     65  C   UNL A   1      44.055  32.587  27.776  1.00  0.00     0.173 A 
ATOM     66  F   UNL A   1      47.003  30.752  26.728  1.00  0.00    -0.203 F 
ATOM     67  C   UNL A   1      46.507  33.033  26.616  1.00  0.00     0.198 A 
ATOM     68  C   UNL A   1      44.425  33.873  27.389  1.00  0.00     0.198 A 
ATOM     69  F   UNL A   1      42.877  32.540  28.403  1.00  0.00    -0.203 F 
ATOM     70  F   UNL A   1      47.736  33.251  26.130  1.00  0.00    -0.200 F 
ATOM     71  C   UNL A   1      45.667  34.105  26.846  1.00  0.00     0.200 A 
ATOM     72  F   UNL A   1      43.592  34.896  27.632  1.00  0.00    -0.200 F 
ATOM     73  F   UNL A   1      46.063  35.356  26.590  1.00  0.00    -0.200 F 
ENDBRANCH  49  63
BRANCH  50  74
ATOM     74  C   UNL A   1      37.508  31.862  31.740  1.00  0.00     0.064 A 
ATOM     75  C   UNL A   1      36.887  32.294  32.928  1.00  0.00     0.173 A 
ATOM     76  C   UNL A   1      37.136  32.542  30.569  1.00  0.00     0.173 A 
ATOM     77  F   UNL A   1      37.252  31.771  34.107  1.00  0.00    -0.203 F 
ATOM     78  C   UNL A   1      35.938  33.329  32.935  1.00  0.00     0.198 A 
ATOM     79  C   UNL A   1      36.206  33.586  30.580  1.00  0.00     0.198 A 
ATOM     80  F   UNL A   1      37.759  32.281  29.411  1.00  0.00    -0.203 F 
ATOM     81  F   UNL A   1      35.400  33.744  34.092  1.00  0.00    -0.200 F 
ATOM     82  C   UNL A   1      35.599  33.976  31.760  1.00  0.00     0.200 A 
ATOM     83  F   UNL A   1      35.956  34.267  29.454  1.00  0.00    -0.200 F 
ATOM     84  F   UNL A   1      34.736  35.002  31.767  1.00  0.00    -0.200 F 
ENDBRANCH  50  74
BRANCH  62  85
ATOM     85  C   UNL A   1      42.908  29.475  33.775  1.00  0.00     0.064 A 
ATOM     86  C   UNL A   1      43.209  29.878  35.089  1.00  0.00     0.173 A 
ATOM     87  C   UNL A   1      42.251  28.249  33.618  1.00  0.00     0.173 A 
ATOM     88  F   UNL A   1      43.758  31.074  35.334  1.00  0.00    -0.203 F 
ATOM     89  C   UNL A   1      42.897  29.077  36.186  1.00  0.00     0.198 A 
ATOM     90  C   UNL A   1      41.908  27.465  34.716  1.00  0.00     0.198 A 
ATOM     91  F   UNL A   1      41.897  27.833  32.392  1.00  0.00    -0.203 F 
ATOM     92  F   UNL A   1      43.203  29.484  37.427  1.00  0.00    -0.200 F 
ATOM     93  C   UNL A   1      42.237  27.874  35.999  1.00  0.00     0.200 A 
ATOM     94  F   UNL A   1      41.231  26.325  34.532  1.00  0.00    -0.200 F 
ATOM     95  F   UNL A   1      41.897  27.122  37.054  1.00  0.00    -0.200 F 
ENDBRANCH  62  85
ENDBRANCH  36  37
ENDBRANCH  28  31
ENDBRANCH  26  27
ENDBRANCH  25  26
ENDBRANCH  24  25
ENDBRANCH   3  24
TORSDOF 17
ENDMDL
MODEL 2
REMARK VINA RESULT:     -12.1      3.158      8.835
REMARK SMILES CCOC(=O)c1sc(NC(=O)CCC(=O)NCCCNC(=O)c2ccc(-c3c4nc(c(-c5c(F)c(F)c(F)c(F)c5F)c5ccc([nH]5)c(-c5c(F)c(F)c(F)c(F)c5F)c5nc(c(-c6c(F)c(F)c(F)c(F)c6F)c6ccc3[nH]6)C=C5)C=C4)cc2)c(C#N)c1C
REMARK SMILES IDX 14 1 15 2 16 3 13 5 12 6 10 7 9 8 11 10 8 11 6 12 7 13 89 14
REMARK SMILES IDX 86 15 90 16 4 17 5 18 3 19 2 20 1 21 87 22 88 23 17 24 18 25
REMARK SMILES IDX 19 26 20 27 21 28 22 30 23 31 24 32 85 33 25 34 84 35 26 36
REMARK SMILES IDX 27 37 28 38 78 39 29 40 83 41 77 42 79 43 30 44 82 45 76 46
REMARK SMILES IDX 75 47 31 49 63 50 43 51 62 52 44 53 47 54 61 55 80 56 45 57
REMARK SMILES IDX 46 58 60 60 81 61 48 62 32 63 33 64 41 65 34 66 35 67 39 68
REMARK SMILES IDX 42 69 36 70 37 71 40 72 38 73 64 74 65 75 73 76 66 77 67 78
REMARK SMILES IDX 71 79 74 80 68 81 69 82 72 83 70 84 49 85 50 86 58 87 51 88
REMARK SMILES IDX 52 89 56 90 59 91 53 92 54 93 57 94 55 95
REMARK H PARENT 16 4 9 9 20 29 79 48 47 59
REMARK Flexibility Score: inf
ROOT
ATOM      1  C   UNL A   1      31.738  28.303  27.279  1.00  0.00     0.220 C 
ATOM      2  O   UNL A   1      31.063  27.932  28.241  1.00  0.00    -0.275 OA
ATOM      3  N   UNL A   1      32.491  29.433  27.429  1.00  0.00    -0.356 N 
ATOM      4  H   UNL A   1      32.206  30.025  28.161  1.00  0.00     0.163 HD
ENDROOT
BRANCH   1   5
ATOM      5  C   UNL A   1      31.669  27.565  25.958  1.00  0.00     0.110 C 
BRANCH   5   6
ATOM      6  C   UNL A   1      30.682  26.400  25.883  1.00  0.00     0.110 C 
BRANCH   6   7
ATOM      7  C   UNL A   1      30.106  26.103  24.510  1.00  0.00     0.225 C 
ATOM      8  N   UNL A   1      30.501  25.047  23.739  1.00  0.00    -0.317 N 
ATOM      9  H   UNL A   1      29.901  24.834  22.987  1.00  0.00     0.170 HD
ATOM     10  O   UNL A   1      29.157  26.781  24.097  1.00  0.00    -0.275 OA
BRANCH   8  11
ATOM     11  C   UNL A   1      31.609  24.230  23.849  1.00  0.00     0.114 A 
ATOM     12  C   UNL A   1      33.086  22.309  24.231  1.00  0.00     0.118 A 
ATOM     13  S   UNL A   1      31.482  22.726  24.630  1.00  0.00    -0.109 S 
ATOM     14  C   UNL A   1      33.810  23.409  23.821  1.00  0.00    -0.006 A 
ATOM     15  C   UNL A   1      32.907  24.450  23.438  1.00  0.00     0.091 A 
ATOM     16  C   UNL A   1      35.270  23.500  23.540  1.00  0.00     0.048 C 
BRANCH  12  17
ATOM     17  C   UNL A   1      33.497  20.933  24.294  1.00  0.00     0.348 C 
ATOM     18  O   UNL A   1      34.553  20.522  24.756  1.00  0.00    -0.245 OA
BRANCH  17  19
ATOM     19  O   UNL A   1      32.493  20.153  23.820  1.00  0.00    -0.462 OA
BRANCH  19  20
ATOM     20  C   UNL A   1      32.490  18.798  24.262  1.00  0.00     0.230 C 
ATOM     21  C   UNL A   1      32.894  17.874  23.133  1.00  0.00     0.049 C 
ENDBRANCH  19  20
ENDBRANCH  17  19
ENDBRANCH  12  17
BRANCH  15  22
ATOM     22  C   UNL A   1      33.364  25.413  22.486  1.00  0.00     0.103 C 
ATOM     23  N   UNL A   1      33.704  26.028  21.567  1.00  0.00    -0.192 NA
ENDBRANCH  15  22
ENDBRANCH   8  11
ENDBRANCH   6   7
ENDBRANCH   5   6
ENDBRANCH   1   5
BRANCH   3  24
ATOM     24  C   UNL A   1      33.646  29.902  26.679  1.00  0.00     0.117 C 
BRANCH  24  25
ATOM     25  C   UNL A   1      34.873  30.333  27.489  1.00  0.00     0.042 C 
BRANCH  25  26
ATOM     26  C   UNL A   1      35.094  31.815  27.761  1.00  0.00     0.118 C 
BRANCH  26  27
ATOM     27  N   UNL A   1      34.629  32.366  29.020  1.00  0.00    -0.352 N 
ATOM     28  C   UNL A   1      35.075  32.152  30.321  1.00  0.00     0.251 C 
ATOM     29  H   UNL A   1      33.875  32.994  28.942  1.00  0.00     0.163 HD
ATOM     30  O   UNL A   1      34.401  32.620  31.239  1.00  0.00    -0.269 OA
BRANCH  28  31
ATOM     31  C   UNL A   1      36.389  31.506  30.655  1.00  0.00     0.039 A 
ATOM     32  C   UNL A   1      37.567  32.276  30.590  1.00  0.00     0.014 A 
ATOM     33  C   UNL A   1      36.530  30.143  30.849  1.00  0.00     0.014 A 
ATOM     34  C   UNL A   1      38.822  31.660  30.447  1.00  0.00     0.010 A 
ATOM     35  C   UNL A   1      37.742  29.535  30.585  1.00  0.00     0.010 A 
ATOM     36  C   UNL A   1      38.887  30.277  30.308  1.00  0.00    -0.014 A 
BRANCH  36  37
ATOM     37  C   UNL A   1      40.138  29.525  30.141  1.00  0.00     0.031 A 
ATOM     38  C   UNL A   1      40.789  29.268  31.457  1.00  0.00     0.074 A 
ATOM     39  C   UNL A   1      40.569  28.898  29.022  1.00  0.00     0.049 A 
ATOM     40  N   UNL A   1      41.725  29.971  32.010  1.00  0.00    -0.248 NA
ATOM     41  C   UNL A   1      40.163  28.296  32.375  1.00  0.00     0.031 C 
ATOM     42  C   UNL A   1      39.934  28.787  27.710  1.00  0.00     0.029 A 
ATOM     43  N   UNL A   1      41.701  28.139  28.861  1.00  0.00    -0.354 N 
ATOM     44  C   UNL A   1      41.921  29.380  33.253  1.00  0.00     0.074 A 
ATOM     45  C   UNL A   1      40.721  28.653  33.531  1.00  0.00     0.031 C 
ATOM     46  C   UNL A   1      40.584  27.856  26.959  1.00  0.00     0.029 A 
ATOM     47  C   UNL A   1      41.757  27.395  27.680  1.00  0.00     0.049 A 
ATOM     48  H   UNL A   1      42.421  28.120  29.531  1.00  0.00     0.167 HD
ATOM     49  C   UNL A   1      43.173  29.194  33.758  1.00  0.00     0.037 A 
ATOM     50  C   UNL A   1      42.705  26.473  27.342  1.00  0.00     0.037 A 
ATOM     51  C   UNL A   1      44.129  29.998  33.031  1.00  0.00     0.049 A 
ATOM     52  C   UNL A   1      43.902  26.753  28.168  1.00  0.00     0.074 A 
ATOM     53  C   UNL A   1      44.278  31.346  32.764  1.00  0.00     0.029 A 
ATOM     54  N   UNL A   1      44.914  29.352  32.108  1.00  0.00    -0.354 N 
ATOM     55  N   UNL A   1      44.620  27.833  28.039  1.00  0.00    -0.248 NA
ATOM     56  C   UNL A   1      44.008  26.073  29.448  1.00  0.00     0.031 C 
ATOM     57  C   UNL A   1      44.751  31.409  31.418  1.00  0.00     0.029 A 
ATOM     58  C   UNL A   1      44.944  30.105  30.964  1.00  0.00     0.049 A 
ATOM     59  H   UNL A   1      45.377  28.494  32.244  1.00  0.00     0.167 HD
ATOM     60  C   UNL A   1      44.896  28.220  29.340  1.00  0.00     0.074 A 
ATOM     61  C   UNL A   1      44.558  27.058  30.163  1.00  0.00     0.031 C 
ATOM     62  C   UNL A   1      45.080  29.537  29.644  1.00  0.00     0.037 A 
BRANCH  49  63
ATOM     63  C   UNL A   1      43.599  27.977  34.571  1.00  0.00     0.064 A 
ATOM     64  C   UNL A   1      43.453  26.705  33.979  1.00  0.00     0.173 A 
ATOM     65  C   UNL A   1      43.859  27.953  35.963  1.00  0.00     0.173 A 
ATOM     66  F   UNL A   1      43.217  26.588  32.664  1.00  0.00    -0.203 F 
ATOM     67  C   UNL A   1      43.444  25.528  34.735  1.00  0.00     0.198 A 
ATOM     68  C   UNL A   1      43.898  26.774  36.705  1.00  0.00     0.198 A 
ATOM     69  F   UNL A   1      43.991  29.053  36.708  1.00  0.00    -0.203 F 
ATOM     70  F   UNL A   1      43.157  24.363  34.142  1.00  0.00    -0.200 F 
ATOM     71  C   UNL A   1      43.651  25.565  36.100  1.00  0.00     0.200 A 
ATOM     72  F   UNL A   1      44.093  26.841  38.030  1.00  0.00    -0.200 F 
ATOM     73  F   UNL A   1      43.568  24.452  36.837  1.00  0.00    -0.200 F 
ENDBRANCH  49  63
BRANCH  50  74
ATOM     74  C   UNL A   1      42.567  25.166  26.642  1.00  0.00     0.064 A 
ATOM     75  C   UNL A   1      43.302  24.851  25.483  1.00  0.00     0.173 A 
ATOM     76  C   UNL A   1      41.966  24.081  27.303  1.00  0.00     0.173 A 
ATOM     77  F   UNL A   1      43.990  25.806  24.842  1.00  0.00    -0.203 F 
ATOM     78  C   UNL A   1      43.409  23.534  25.007  1.00  0.00     0.198 A 
ATOM     79  C   UNL A   1      42.090  22.768  26.840  1.00  0.00     0.198 A 
ATOM     80  F   UNL A   1      41.347  24.267  28.477  1.00  0.00    -0.203 F 
ATOM     81  F   UNL A   1      44.154  23.266  23.924  1.00  0.00    -0.200 F 
ATOM     82  C   UNL A   1      42.804  22.493  25.688  1.00  0.00     0.200 A 
ATOM     83  F   UNL A   1      41.581  21.759  27.557  1.00  0.00    -0.200 F 
ATOM     84  F   UNL A   1      42.948  21.227  25.271  1.00  0.00    -0.200 F 
ENDBRANCH  50  74
BRANCH  62  85
ATOM     85  C   UNL A   1      45.225  30.502  28.498  1.00  0.00     0.064 A 
ATOM     86  C   UNL A   1      44.171  31.266  27.965  1.00  0.00     0.173 A 
ATOM     87  C   UNL A   1      46.512  30.763  28.013  1.00  0.00     0.173 A 
ATOM     88  F   UNL A   1      42.924  31.140  28.433  1.00  0.00    -0.203 F 
ATOM     89  C   UNL A   1      44.393  32.219  26.972  1.00  0.00     0.198 A 
ATOM     90  C   UNL A   1      46.738  31.740  27.047  1.00  0.00     0.198 A 
ATOM     91  F   UNL A   1      47.564  30.099  28.516  1.00  0.00    -0.203 F 
ATOM     92  F   UNL A   1      43.366  32.927  26.477  1.00  0.00    -0.200 F 
ATOM     93  C   UNL A   1      45.678  32.462  26.520  1.00  0.00     0.200 A 
ATOM     94  F   UNL A   1      47.988  32.001  26.646  1.00  0.00    -0.200 F 
ATOM     95  F   UNL A   1      45.900  33.408  25.597  1.00  0.00    -0.200 F 
ENDBRANCH  62  85
ENDBRANCH  36  37
ENDBRANCH  28  31
ENDBRANCH  26  27
ENDBRANCH  25  26
ENDBRANCH  24  25
ENDBRANCH   3  24
TORSDOF 17
ENDMDL
MODEL 3
REMARK VINA RESULT:     -12.0      1.704      2.507
REMARK SMILES CCOC(=O)c1sc(NC(=O)CCC(=O)NCCCNC(=O)c2ccc(-c3c4nc(c(-c5c(F)c(F)c(F)c(F)c5F)c5ccc([nH]5)c(-c5c(F)c(F)c(F)c(F)c5F)c5nc(c(-c6c(F)c(F)c(F)c(F)c6F)c6ccc3[nH]6)C=C5)C=C4)cc2)c(C#N)c1C
REMARK SMILES IDX 14 1 15 2 16 3 13 5 12 6 10 7 9 8 11 10 8 11 6 12 7 13 89 14
REMARK SMILES IDX 86 15 90 16 4 17 5 18 3 19 2 20 1 21 87 22 88 23 17 24 18 25
REMARK SMILES IDX 19 26 20 27 21 28 22 30 23 31 24 32 85 33 25 34 84 35 26 36
REMARK SMILES IDX 27 37 28 38 78 39 29 40 83 41 77 42 79 43 30 44 82 45 76 46
REMARK SMILES IDX 75 47 31 49 63 50 43 51 62 52 44 53 47 54 61 55 80 56 45 57
REMARK SMILES IDX 46 58 60 60 81 61 48 62 32 63 33 64 41 65 34 66 35 67 39 68
REMARK SMILES IDX 42 69 36 70 37 71 40 72 38 73 64 74 65 75 73 76 66 77 67 78
REMARK SMILES IDX 71 79 74 80 68 81 69 82 72 83 70 84 49 85 50 86 58 87 51 88
REMARK SMILES IDX 52 89 56 90 59 91 53 92 54 93 57 94 55 95
REMARK H PARENT 16 4 9 9 20 29 79 48 47 59
REMARK Flexibility Score: inf
ROOT
ATOM      1  C   UNL A   1      36.748  23.015  24.176  1.00  0.00     0.220 C 
ATOM      2  O   UNL A   1      36.572  23.209  22.972  1.00  0.00    -0.275 OA
ATOM      3  N   UNL A   1      37.726  22.134  24.542  1.00  0.00    -0.356 N 
ATOM      4  H   UNL A   1      37.997  21.502  23.838  1.00  0.00     0.163 HD
ENDROOT
BRANCH   1   5
ATOM      5  C   UNL A   1      35.854  23.679  25.203  1.00  0.00     0.110 C 
BRANCH   5   6
ATOM      6  C   UNL A   1      34.528  22.980  25.501  1.00  0.00     0.110 C 
BRANCH   6   7
ATOM      7  C   UNL A   1      33.526  22.938  24.361  1.00  0.00     0.225 C 
ATOM      8  N   UNL A   1      32.837  24.033  23.922  1.00  0.00    -0.317 N 
ATOM      9  H   UNL A   1      32.399  23.925  23.046  1.00  0.00     0.170 HD
ATOM     10  O   UNL A   1      33.390  21.890  23.719  1.00  0.00    -0.275 OA
BRANCH   8  11
ATOM     11  C   UNL A   1      32.657  25.268  24.514  1.00  0.00     0.114 A 
ATOM     12  C   UNL A   1      32.649  27.678  24.969  1.00  0.00     0.118 A 
ATOM     13  S   UNL A   1      33.450  26.634  23.886  1.00  0.00    -0.109 S 
ATOM     14  C   UNL A   1      32.060  26.982  26.005  1.00  0.00    -0.006 A 
ATOM     15  C   UNL A   1      31.921  25.610  25.629  1.00  0.00     0.091 A 
ATOM     16  C   UNL A   1      31.408  27.527  27.228  1.00  0.00     0.048 C 
BRANCH  12  17
ATOM     17  C   UNL A   1      32.608  29.089  24.694  1.00  0.00     0.348 C 
ATOM     18  O   UNL A   1      33.151  29.963  25.356  1.00  0.00    -0.245 OA
BRANCH  17  19
ATOM     19  O   UNL A   1      31.924  29.291  23.539  1.00  0.00    -0.462 OA
BRANCH  19  20
ATOM     20  C   UNL A   1      30.503  29.325  23.652  1.00  0.00     0.230 C 
ATOM     21  C   UNL A   1      29.865  28.573  22.503  1.00  0.00     0.049 C 
ENDBRANCH  19  20
ENDBRANCH  17  19
ENDBRANCH  12  17
BRANCH  15  22
ATOM     22  C   UNL A   1      30.880  24.851  26.247  1.00  0.00     0.103 C 
ATOM     23  N   UNL A   1      29.996  24.425  26.860  1.00  0.00    -0.192 NA
ENDBRANCH  15  22
ENDBRANCH   8  11
ENDBRANCH   6   7
ENDBRANCH   5   6
ENDBRANCH   1   5
BRANCH   3  24
ATOM     24  C   UNL A   1      38.430  21.979  25.805  1.00  0.00     0.117 C 
BRANCH  24  25
ATOM     25  C   UNL A   1      39.403  20.801  25.920  1.00  0.00     0.042 C 
BRANCH  25  26
ATOM     26  C   UNL A   1      40.700  20.990  26.696  1.00  0.00     0.118 C 
BRANCH  26  27
ATOM     27  N   UNL A   1      41.826  21.614  26.027  1.00  0.00    -0.352 N 
ATOM     28  C   UNL A   1      42.189  22.953  25.924  1.00  0.00     0.251 C 
ATOM     29  H   UNL A   1      42.432  20.987  25.569  1.00  0.00     0.163 HD
ATOM     30  O   UNL A   1      43.108  23.237  25.156  1.00  0.00    -0.269 OA
BRANCH  28  31
ATOM     31  C   UNL A   1      41.618  24.039  26.790  1.00  0.00     0.039 A 
ATOM     32  C   UNL A   1      40.639  24.898  26.252  1.00  0.00     0.014 A 
ATOM     33  C   UNL A   1      42.132  24.360  28.033  1.00  0.00     0.014 A 
ATOM     34  C   UNL A   1      40.401  26.162  26.819  1.00  0.00     0.010 A 
ATOM     35  C   UNL A   1      41.994  25.646  28.522  1.00  0.00     0.010 A 
ATOM     36  C   UNL A   1      41.188  26.586  27.885  1.00  0.00    -0.014 A 
BRANCH  36  37
ATOM     37  C   UNL A   1      41.041  27.888  28.550  1.00  0.00     0.031 A 
ATOM     38  C   UNL A   1      42.084  28.847  28.088  1.00  0.00     0.074 A 
ATOM     39  C   UNL A   1      39.988  28.312  29.287  1.00  0.00     0.049 A 
ATOM     40  N   UNL A   1      43.214  29.102  28.666  1.00  0.00    -0.248 NA
ATOM     41  C   UNL A   1      41.992  29.381  26.715  1.00  0.00     0.031 C 
ATOM     42  C   UNL A   1      38.739  27.626  29.614  1.00  0.00     0.029 A 
ATOM     43  N   UNL A   1      39.802  29.543  29.864  1.00  0.00    -0.354 N 
ATOM     44  C   UNL A   1      43.858  29.985  27.806  1.00  0.00     0.074 A 
ATOM     45  C   UNL A   1      43.242  29.800  26.528  1.00  0.00     0.031 C 
ATOM     46  C   UNL A   1      37.856  28.509  30.155  1.00  0.00     0.029 A 
ATOM     47  C   UNL A   1      38.511  29.792  30.337  1.00  0.00     0.049 A 
ATOM     48  H   UNL A   1      40.528  30.204  29.940  1.00  0.00     0.167 HD
ATOM     49  C   UNL A   1      44.540  31.065  28.282  1.00  0.00     0.037 A 
ATOM     50  C   UNL A   1      38.038  30.972  30.833  1.00  0.00     0.037 A 
ATOM     51  C   UNL A   1      44.785  30.916  29.698  1.00  0.00     0.049 A 
ATOM     52  C   UNL A   1      39.212  31.771  31.256  1.00  0.00     0.074 A 
ATOM     53  C   UNL A   1      45.421  29.980  30.492  1.00  0.00     0.029 A 
ATOM     54  N   UNL A   1      43.984  31.636  30.550  1.00  0.00    -0.354 N 
ATOM     55  N   UNL A   1      39.982  31.431  32.250  1.00  0.00    -0.248 NA
ATOM     56  C   UNL A   1      39.800  32.668  30.277  1.00  0.00     0.031 C 
ATOM     57  C   UNL A   1      44.617  29.879  31.667  1.00  0.00     0.029 A 
ATOM     58  C   UNL A   1      43.584  30.811  31.567  1.00  0.00     0.049 A 
ATOM     59  H   UNL A   1      43.739  32.584  30.447  1.00  0.00     0.167 HD
ATOM     60  C   UNL A   1      41.265  31.685  31.793  1.00  0.00     0.074 A 
ATOM     61  C   UNL A   1      41.087  32.516  30.602  1.00  0.00     0.031 C 
ATOM     62  C   UNL A   1      42.319  30.948  32.248  1.00  0.00     0.037 A 
BRANCH  49  63
ATOM     63  C   UNL A   1      44.575  32.427  27.598  1.00  0.00     0.064 A 
ATOM     64  C   UNL A   1      45.665  32.710  26.750  1.00  0.00     0.173 A 
ATOM     65  C   UNL A   1      43.785  33.551  27.938  1.00  0.00     0.173 A 
ATOM     66  F   UNL A   1      46.485  31.730  26.341  1.00  0.00    -0.203 F 
ATOM     67  C   UNL A   1      46.003  34.017  26.381  1.00  0.00     0.198 A 
ATOM     68  C   UNL A   1      44.096  34.846  27.529  1.00  0.00     0.198 A 
ATOM     69  F   UNL A   1      42.733  33.493  28.759  1.00  0.00    -0.203 F 
ATOM     70  F   UNL A   1      47.130  34.241  25.695  1.00  0.00    -0.200 F 
ATOM     71  C   UNL A   1      45.226  35.086  26.785  1.00  0.00     0.200 A 
ATOM     72  F   UNL A   1      43.329  35.866  27.942  1.00  0.00    -0.200 F 
ATOM     73  F   UNL A   1      45.586  36.342  26.499  1.00  0.00    -0.200 F 
ENDBRANCH  49  63
BRANCH  50  74
ATOM     74  C   UNL A   1      36.711  31.625  30.656  1.00  0.00     0.064 A 
ATOM     75  C   UNL A   1      35.899  31.988  31.747  1.00  0.00     0.173 A 
ATOM     76  C   UNL A   1      36.382  32.211  29.422  1.00  0.00     0.173 A 
ATOM     77  F   UNL A   1      36.196  31.556  32.981  1.00  0.00    -0.203 F 
ATOM     78  C   UNL A   1      34.813  32.867  31.605  1.00  0.00     0.198 A 
ATOM     79  C   UNL A   1      35.313  33.102  29.285  1.00  0.00     0.198 A 
ATOM     80  F   UNL A   1      37.167  32.018  28.354  1.00  0.00    -0.203 F 
ATOM     81  F   UNL A   1      34.089  33.226  32.675  1.00  0.00    -0.200 F 
ATOM     82  C   UNL A   1      34.523  33.426  30.372  1.00  0.00     0.200 A 
ATOM     83  F   UNL A   1      35.100  33.709  28.111  1.00  0.00    -0.200 F 
ATOM     84  F   UNL A   1      33.523  34.309  30.239  1.00  0.00    -0.200 F 
ENDBRANCH  50  74
BRANCH  62  85
ATOM     85  C   UNL A   1      42.079  30.046  33.429  1.00  0.00     0.064 A 
ATOM     86  C   UNL A   1      41.668  28.704  33.332  1.00  0.00     0.173 A 
ATOM     87  C   UNL A   1      42.411  30.523  34.702  1.00  0.00     0.173 A 
ATOM     88  F   UNL A   1      41.414  28.146  32.143  1.00  0.00    -0.203 F 
ATOM     89  C   UNL A   1      41.563  27.892  34.460  1.00  0.00     0.198 A 
ATOM     90  C   UNL A   1      42.340  29.701  35.824  1.00  0.00     0.198 A 
ATOM     91  F   UNL A   1      42.853  31.781  34.852  1.00  0.00    -0.203 F 
ATOM     92  F   UNL A   1      41.162  26.618  34.338  1.00  0.00    -0.200 F 
ATOM     93  C   UNL A   1      41.909  28.389  35.705  1.00  0.00     0.200 A 
ATOM     94  F   UNL A   1      42.719  30.173  37.019  1.00  0.00    -0.200 F 
ATOM     95  F   UNL A   1      41.852  27.598  36.786  1.00  0.00    -0.200 F 
ENDBRANCH  62  85
ENDBRANCH  36  37
ENDBRANCH  28  31
ENDBRANCH  26  27
ENDBRANCH  25  26
ENDBRANCH  24  25
ENDBRANCH   3  24
TORSDOF 17
ENDMDL
