MODEL 1
REMARK VINA RESULT:     -12.1      0.000      0.000
REMARK SMILES [NH3+][C@]1(C(=O)NCCCNC(=O)c2ccc(-c3c4nc(c(-c5c(F)c(F)c(F)c(F)c5F)c5ccc([nH]5)c(-c5c(F)c(F)c(F)c(F)c5F)c5nc(c(-c6c(F)c(F)c(F)c(F)c6F)c6ccc3[nH]6)C=C5)C=C4)cc2)CCC[C@H]1CC[NH+]1CCCCC1
REMARK SMILES IDX 6 1 5 2 3 3 4 4 2 6 75 7 78 8 76 9 77 10 1 11 79 15 80 16
REMARK SMILES IDX 81 17 82 18 86 19 83 21 85 22 84 23 7 24 8 25 9 26 10 27
REMARK SMILES IDX 11 29 12 30 13 31 74 32 14 33 73 34 15 35 16 36 17 37 67 38
REMARK SMILES IDX 18 39 72 40 66 41 68 42 19 43 71 44 65 45 64 46 20 48 52 49
REMARK SMILES IDX 32 50 51 51 33 52 36 53 50 54 69 55 34 56 35 57 49 59 70 60
REMARK SMILES IDX 37 61 21 62 22 63 30 64 23 65 24 66 28 67 31 68 25 69 26 70
REMARK SMILES IDX 29 71 27 72 53 73 54 74 62 75 55 76 56 77 60 78 63 79 57 80
REMARK SMILES IDX 58 81 61 82 59 83 38 84 39 85 47 86 40 87 41 88 45 89 48 90
REMARK SMILES IDX 42 91 43 92 46 93 44 94
REMARK H PARENT 5 5 1 12 1 13 1 14 81 20 9 28 68 47 36 58
REMARK Flexibility Score: inf
ROOT
ATOM      1  C   UNL A   1      36.924  20.328  24.998  1.00  0.00     0.118 C 
ENDROOT
BRANCH   1   2
ATOM      2  N   UNL A   1      36.967  21.464  24.102  1.00  0.00    -0.351 N 
ATOM      3  C   UNL A   1      36.217  22.590  24.029  1.00  0.00     0.281 C 
ATOM      4  O   UNL A   1      36.368  23.258  22.996  1.00  0.00    -0.268 OA
ATOM      5  H   UNL A   1      37.672  21.408  23.418  1.00  0.00     0.163 HD
BRANCH   3   6
ATOM      6  C   UNL A   1      35.252  23.072  25.152  1.00  0.00     0.177 C 
ATOM      7  C   UNL A   1      34.849  24.555  25.046  1.00  0.00     0.079 C 
ATOM      8  C   UNL A   1      33.917  22.283  25.363  1.00  0.00     0.066 C 
ATOM      9  C   UNL A   1      33.564  24.660  25.852  1.00  0.00     0.008 C 
ATOM     10  C   UNL A   1      32.830  23.372  25.514  1.00  0.00     0.011 C 
BRANCH   6  11
ATOM     11  N   UNL A   1      36.008  22.977  26.445  1.00  0.00    -0.345 N 
ATOM     12  H   UNL A   1      36.297  22.012  26.601  1.00  0.00     0.345 HD
ATOM     13  H   UNL A   1      35.408  23.282  27.213  1.00  0.00     0.345 HD
ATOM     14  H   UNL A   1      36.833  23.577  26.401  1.00  0.00     0.345 HD
ENDBRANCH   6  11
BRANCH   8  15
ATOM     15  C   UNL A   1      33.449  21.212  24.351  1.00  0.00     0.072 C 
BRANCH  15  16
ATOM     16  C   UNL A   1      32.523  20.103  24.868  1.00  0.00     0.262 C 
BRANCH  16  17
ATOM     17  N   UNL A   1      33.169  18.788  24.806  1.00  0.00    -0.335 N 
ATOM     18  C   UNL A   1      32.535  17.853  25.748  1.00  0.00     0.262 C 
ATOM     19  C   UNL A   1      33.143  18.250  23.438  1.00  0.00     0.262 C 
ATOM     20  H   UNL A   1      34.145  18.905  25.077  1.00  0.00     0.348 HD
ATOM     21  C   UNL A   1      33.235  16.495  25.742  1.00  0.00     0.062 C 
ATOM     22  C   UNL A   1      33.878  16.915  23.360  1.00  0.00     0.062 C 
ATOM     23  C   UNL A   1      33.290  15.905  24.337  1.00  0.00     0.012 C 
ENDBRANCH  16  17
ENDBRANCH  15  16
ENDBRANCH   8  15
ENDBRANCH   3   6
ENDBRANCH   1   2
BRANCH   1  24
ATOM     24  C   UNL A   1      38.209  19.516  24.883  1.00  0.00     0.042 C 
BRANCH  24  25
ATOM     25  C   UNL A   1      39.287  19.968  25.863  1.00  0.00     0.118 C 
BRANCH  25  26
ATOM     26  N   UNL A   1      40.351  18.984  25.997  1.00  0.00    -0.352 N 
ATOM     27  C   UNL A   1      41.702  19.179  26.128  1.00  0.00     0.251 C 
ATOM     28  H   UNL A   1      40.059  18.044  25.990  1.00  0.00     0.163 HD
ATOM     29  O   UNL A   1      42.473  18.234  26.005  1.00  0.00    -0.269 OA
BRANCH  27  30
ATOM     30  C   UNL A   1      42.228  20.531  26.406  1.00  0.00     0.039 A 
ATOM     31  C   UNL A   1      42.658  21.319  25.336  1.00  0.00     0.014 A 
ATOM     32  C   UNL A   1      42.319  21.011  27.716  1.00  0.00     0.014 A 
ATOM     33  C   UNL A   1      43.131  22.611  25.575  1.00  0.00     0.010 A 
ATOM     34  C   UNL A   1      42.722  22.323  27.946  1.00  0.00     0.010 A 
ATOM     35  C   UNL A   1      43.138  23.132  26.879  1.00  0.00    -0.014 A 
BRANCH  35  36
ATOM     36  C   UNL A   1      43.581  24.524  27.145  1.00  0.00     0.031 A 
ATOM     37  C   UNL A   1      42.605  25.541  27.667  1.00  0.00     0.074 A 
ATOM     38  C   UNL A   1      44.846  24.882  26.855  1.00  0.00     0.049 A 
ATOM     39  N   UNL A   1      42.785  26.816  27.904  1.00  0.00    -0.248 NA
ATOM     40  C   UNL A   1      41.237  25.069  27.934  1.00  0.00     0.031 C 
ATOM     41  C   UNL A   1      45.869  23.995  26.298  1.00  0.00     0.029 A 
ATOM     42  N   UNL A   1      45.485  26.090  26.979  1.00  0.00    -0.354 N 
ATOM     43  C   UNL A   1      41.556  27.298  28.332  1.00  0.00     0.074 A 
ATOM     44  C   UNL A   1      40.624  26.193  28.273  1.00  0.00     0.031 C 
ATOM     45  C   UNL A   1      47.012  24.682  26.148  1.00  0.00     0.029 A 
ATOM     46  C   UNL A   1      46.793  26.064  26.562  1.00  0.00     0.049 A 
ATOM     47  H   UNL A   1      45.048  26.897  27.334  1.00  0.00     0.167 HD
ATOM     48  C   UNL A   1      41.240  28.544  28.759  1.00  0.00     0.037 A 
ATOM     49  C   UNL A   1      47.711  27.049  26.512  1.00  0.00     0.037 A 
ATOM     50  C   UNL A   1      42.179  29.633  28.836  1.00  0.00     0.049 A 
ATOM     51  C   UNL A   1      47.332  28.425  26.988  1.00  0.00     0.074 A 
ATOM     52  C   UNL A   1      41.976  30.916  29.311  1.00  0.00     0.029 A 
ATOM     53  N   UNL A   1      43.501  29.565  28.421  1.00  0.00    -0.354 N 
ATOM     54  N   UNL A   1      46.187  28.852  27.461  1.00  0.00    -0.248 NA
ATOM     55  C   UNL A   1      48.379  29.455  26.931  1.00  0.00     0.031 C 
ATOM     56  C   UNL A   1      43.160  31.640  29.139  1.00  0.00     0.029 A 
ATOM     57  C   UNL A   1      44.119  30.792  28.607  1.00  0.00     0.049 A 
ATOM     58  H   UNL A   1      43.937  28.764  28.049  1.00  0.00     0.167 HD
ATOM     59  C   UNL A   1      46.380  30.188  27.783  1.00  0.00     0.074 A 
ATOM     60  C   UNL A   1      47.759  30.497  27.467  1.00  0.00     0.031 C 
ATOM     61  C   UNL A   1      45.496  31.080  28.293  1.00  0.00     0.037 A 
BRANCH  48  62
ATOM     62  C   UNL A   1      39.820  28.798  29.178  1.00  0.00     0.064 A 
ATOM     63  C   UNL A   1      39.402  28.622  30.505  1.00  0.00     0.173 A 
ATOM     64  C   UNL A   1      38.875  29.258  28.248  1.00  0.00     0.173 A 
ATOM     65  F   UNL A   1      40.262  28.173  31.431  1.00  0.00    -0.203 F 
ATOM     66  C   UNL A   1      38.084  28.868  30.881  1.00  0.00     0.198 A 
ATOM     67  C   UNL A   1      37.565  29.534  28.634  1.00  0.00     0.198 A 
ATOM     68  F   UNL A   1      39.222  29.448  26.966  1.00  0.00    -0.203 F 
ATOM     69  F   UNL A   1      37.695  28.645  32.143  1.00  0.00    -0.200 F 
ATOM     70  C   UNL A   1      37.169  29.330  29.947  1.00  0.00     0.200 A 
ATOM     71  F   UNL A   1      36.686  29.993  27.733  1.00  0.00    -0.200 F 
ATOM     72  F   UNL A   1      35.902  29.576  30.311  1.00  0.00    -0.200 F 
ENDBRANCH  48  62
BRANCH  49  73
ATOM     73  C   UNL A   1      49.082  26.762  26.016  1.00  0.00     0.064 A 
ATOM     74  C   UNL A   1      50.069  26.259  26.876  1.00  0.00     0.173 A 
ATOM     75  C   UNL A   1      49.435  26.984  24.676  1.00  0.00     0.173 A 
ATOM     76  F   UNL A   1      49.784  26.048  28.169  1.00  0.00    -0.203 F 
ATOM     77  C   UNL A   1      51.361  26.009  26.421  1.00  0.00     0.198 A 
ATOM     78  C   UNL A   1      50.720  26.706  24.216  1.00  0.00     0.198 A 
ATOM     79  F   UNL A   1      48.526  27.457  23.811  1.00  0.00    -0.203 F 
ATOM     80  F   UNL A   1      52.297  25.573  27.275  1.00  0.00    -0.200 F 
ATOM     81  C   UNL A   1      51.684  26.227  25.090  1.00  0.00     0.200 A 
ATOM     82  F   UNL A   1      51.023  26.901  22.926  1.00  0.00    -0.200 F 
ATOM     83  F   UNL A   1      52.927  25.983  24.652  1.00  0.00    -0.200 F 
ENDBRANCH  49  73
BRANCH  61  84
ATOM     84  C   UNL A   1      46.001  32.465  28.574  1.00  0.00     0.064 A 
ATOM     85  C   UNL A   1      45.874  33.500  27.636  1.00  0.00     0.173 A 
ATOM     86  C   UNL A   1      46.585  32.769  29.814  1.00  0.00     0.173 A 
ATOM     87  F   UNL A   1      45.337  33.257  26.431  1.00  0.00    -0.203 F 
ATOM     88  C   UNL A   1      46.340  34.781  27.918  1.00  0.00     0.198 A 
ATOM     89  C   UNL A   1      47.021  34.058  30.104  1.00  0.00     0.198 A 
ATOM     90  F   UNL A   1      46.724  31.816  30.748  1.00  0.00    -0.203 F 
ATOM     91  F   UNL A   1      46.256  35.743  26.989  1.00  0.00    -0.200 F 
ATOM     92  C   UNL A   1      46.905  35.061  29.154  1.00  0.00     0.200 A 
ATOM     93  F   UNL A   1      47.552  34.330  31.304  1.00  0.00    -0.200 F 
ATOM     94  F   UNL A   1      47.346  36.297  29.426  1.00  0.00    -0.200 F 
ENDBRANCH  61  84
ENDBRANCH  35  36
ENDBRANCH  27  30
ENDBRANCH  25  26
ENDBRANCH  24  25
ENDBRANCH   1  24
TORSDOF 14
ENDMDL
MODEL 2
REMARK VINA RESULT:     -12.0      0.335      2.070
REMARK SMILES [NH3+][C@]1(C(=O)NCCCNC(=O)c2ccc(-c3c4nc(c(-c5c(F)c(F)c(F)c(F)c5F)c5ccc([nH]5)c(-c5c(F)c(F)c(F)c(F)c5F)c5nc(c(-c6c(F)c(F)c(F)c(F)c6F)c6ccc3[nH]6)C=C5)C=C4)cc2)CCC[C@H]1CC[NH+]1CCCCC1
REMARK SMILES IDX 6 1 5 2 3 3 4 4 2 6 75 7 78 8 76 9 77 10 1 11 79 15 80 16
REMARK SMILES IDX 81 17 82 18 86 19 83 21 85 22 84 23 7 24 8 25 9 26 10 27
REMARK SMILES IDX 11 29 12 30 13 31 74 32 14 33 73 34 15 35 16 36 17 37 67 38
REMARK SMILES IDX 18 39 72 40 66 41 68 42 19 43 71 44 65 45 64 46 20 48 52 49
REMARK SMILES IDX 32 50 51 51 33 52 36 53 50 54 69 55 34 56 35 57 49 59 70 60
REMARK SMILES IDX 37 61 21 62 22 63 30 64 23 65 24 66 28 67 31 68 25 69 26 70
REMARK SMILES IDX 29 71 27 72 53 73 54 74 62 75 55 76 56 77 60 78 63 79 57 80
REMARK SMILES IDX 58 81 61 82 59 83 38 84 39 85 47 86 40 87 41 88 45 89 48 90
REMARK SMILES IDX 42 91 43 92 46 93 44 94
REMARK H PARENT 5 5 1 12 1 13 1 14 81 20 9 28 68 47 36 58
REMARK Flexibility Score: inf
ROOT
ATOM      1  C   UNL A   1      37.176  20.388  25.134  1.00  0.00     0.118 C 
ENDROOT
BRANCH   1   2
ATOM      2  N   UNL A   1      37.114  21.484  24.191  1.00  0.00    -0.351 N 
ATOM      3  C   UNL A   1      36.297  22.562  24.105  1.00  0.00     0.281 C 
ATOM      4  O   UNL A   1      36.364  23.192  23.040  1.00  0.00    -0.268 OA
ATOM      5  H   UNL A   1      37.792  21.439  23.479  1.00  0.00     0.163 HD
BRANCH   3   6
ATOM      6  C   UNL A   1      35.354  23.036  25.250  1.00  0.00     0.177 C 
ATOM      7  C   UNL A   1      34.856  24.486  25.097  1.00  0.00     0.079 C 
ATOM      8  C   UNL A   1      34.081  22.179  25.555  1.00  0.00     0.066 C 
ATOM      9  C   UNL A   1      33.603  24.551  25.957  1.00  0.00     0.008 C 
ATOM     10  C   UNL A   1      32.936  23.208  25.709  1.00  0.00     0.011 C 
BRANCH   6  11
ATOM     11  N   UNL A   1      36.169  23.047  26.509  1.00  0.00    -0.345 N 
ATOM     12  H   UNL A   1      36.876  23.778  26.451  1.00  0.00     0.345 HD
ATOM     13  H   UNL A   1      36.625  22.141  26.626  1.00  0.00     0.345 HD
ATOM     14  H   UNL A   1      35.559  23.225  27.307  1.00  0.00     0.345 HD
ENDBRANCH   6  11
BRANCH   8  15
ATOM     15  C   UNL A   1      33.636  21.037  24.614  1.00  0.00     0.072 C 
BRANCH  15  16
ATOM     16  C   UNL A   1      32.530  20.097  25.111  1.00  0.00     0.262 C 
BRANCH  16  17
ATOM     17  N   UNL A   1      32.806  18.702  24.751  1.00  0.00    -0.335 N 
ATOM     18  C   UNL A   1      34.195  18.549  24.292  1.00  0.00     0.262 C 
ATOM     19  C   UNL A   1      32.524  17.799  25.876  1.00  0.00     0.262 C 
ATOM     20  H   UNL A   1      32.185  18.448  23.984  1.00  0.00     0.348 HD
ATOM     21  C   UNL A   1      34.482  17.113  23.854  1.00  0.00     0.062 C 
ATOM     22  C   UNL A   1      32.742  16.341  25.478  1.00  0.00     0.062 C 
ATOM     23  C   UNL A   1      34.158  16.119  24.962  1.00  0.00     0.012 C 
ENDBRANCH  16  17
ENDBRANCH  15  16
ENDBRANCH   8  15
ENDBRANCH   3   6
ENDBRANCH   1   2
BRANCH   1  24
ATOM     24  C   UNL A   1      38.469  19.602  24.945  1.00  0.00     0.042 C 
BRANCH  24  25
ATOM     25  C   UNL A   1      39.487  19.860  26.052  1.00  0.00     0.118 C 
BRANCH  25  26
ATOM     26  N   UNL A   1      40.581  18.901  26.021  1.00  0.00    -0.352 N 
ATOM     27  C   UNL A   1      41.934  19.127  26.035  1.00  0.00     0.251 C 
ATOM     28  H   UNL A   1      40.312  17.954  25.983  1.00  0.00     0.163 HD
ATOM     29  O   UNL A   1      42.711  18.214  25.779  1.00  0.00    -0.269 OA
BRANCH  27  30
ATOM     30  C   UNL A   1      42.453  20.475  26.346  1.00  0.00     0.039 A 
ATOM     31  C   UNL A   1      42.952  21.261  25.305  1.00  0.00     0.014 A 
ATOM     32  C   UNL A   1      42.469  20.952  27.660  1.00  0.00     0.014 A 
ATOM     33  C   UNL A   1      43.419  22.548  25.575  1.00  0.00     0.010 A 
ATOM     34  C   UNL A   1      42.868  22.260  27.916  1.00  0.00     0.010 A 
ATOM     35  C   UNL A   1      43.353  23.068  26.878  1.00  0.00    -0.014 A 
BRANCH  35  36
ATOM     36  C   UNL A   1      43.790  24.456  27.171  1.00  0.00     0.031 A 
ATOM     37  C   UNL A   1      42.803  25.465  27.689  1.00  0.00     0.074 A 
ATOM     38  C   UNL A   1      45.060  24.818  26.912  1.00  0.00     0.049 A 
ATOM     39  N   UNL A   1      42.978  26.736  27.947  1.00  0.00    -0.248 NA
ATOM     40  C   UNL A   1      41.431  24.988  27.922  1.00  0.00     0.031 C 
ATOM     41  C   UNL A   1      46.094  23.940  26.362  1.00  0.00     0.029 A 
ATOM     42  N   UNL A   1      45.696  26.024  27.066  1.00  0.00    -0.354 N 
ATOM     43  C   UNL A   1      41.740  27.212  28.359  1.00  0.00     0.074 A 
ATOM     44  C   UNL A   1      40.810  26.108  28.265  1.00  0.00     0.031 C 
ATOM     45  C   UNL A   1      47.239  24.629  26.245  1.00  0.00     0.029 A 
ATOM     46  C   UNL A   1      47.012  26.005  26.674  1.00  0.00     0.049 A 
ATOM     47  H   UNL A   1      45.252  26.826  27.423  1.00  0.00     0.167 HD
ATOM     48  C   UNL A   1      41.416  28.452  28.797  1.00  0.00     0.037 A 
ATOM     49  C   UNL A   1      47.930  26.990  26.656  1.00  0.00     0.037 A 
ATOM     50  C   UNL A   1      42.353  29.540  28.908  1.00  0.00     0.049 A 
ATOM     51  C   UNL A   1      47.541  28.360  27.145  1.00  0.00     0.074 A 
ATOM     52  C   UNL A   1      42.139  30.816  29.397  1.00  0.00     0.029 A 
ATOM     53  N   UNL A   1      43.682  29.478  28.518  1.00  0.00    -0.354 N 
ATOM     54  N   UNL A   1      46.387  28.780  27.601  1.00  0.00    -0.248 NA
ATOM     55  C   UNL A   1      48.588  29.391  27.123  1.00  0.00     0.031 C 
ATOM     56  C   UNL A   1      43.326  31.542  29.259  1.00  0.00     0.029 A 
ATOM     57  C   UNL A   1      44.296  30.703  28.734  1.00  0.00     0.049 A 
ATOM     58  H   UNL A   1      44.126  28.683  28.143  1.00  0.00     0.167 HD
ATOM     59  C   UNL A   1      46.573  30.111  27.945  1.00  0.00     0.074 A 
ATOM     60  C   UNL A   1      47.958  30.425  27.661  1.00  0.00     0.031 C 
ATOM     61  C   UNL A   1      45.678  30.995  28.451  1.00  0.00     0.037 A 
BRANCH  48  62
ATOM     62  C   UNL A   1      39.988  28.699  29.191  1.00  0.00     0.064 A 
ATOM     63  C   UNL A   1      39.037  29.158  28.267  1.00  0.00     0.173 A 
ATOM     64  C   UNL A   1      39.555  28.438  30.500  1.00  0.00     0.173 A 
ATOM     65  F   UNL A   1      39.400  29.434  27.005  1.00  0.00    -0.203 F 
ATOM     66  C   UNL A   1      37.715  29.376  28.645  1.00  0.00     0.198 A 
ATOM     67  C   UNL A   1      38.225  28.627  30.868  1.00  0.00     0.198 A 
ATOM     68  F   UNL A   1      40.421  27.993  31.424  1.00  0.00    -0.203 F 
ATOM     69  F   UNL A   1      36.837  29.863  27.758  1.00  0.00    -0.200 F 
ATOM     70  C   UNL A   1      37.309  29.104  29.943  1.00  0.00     0.200 A 
ATOM     71  F   UNL A   1      37.831  28.350  32.118  1.00  0.00    -0.200 F 
ATOM     72  F   UNL A   1      36.033  29.305  30.304  1.00  0.00    -0.200 F 
ENDBRANCH  48  62
BRANCH  49  73
ATOM     73  C   UNL A   1      49.311  26.711  26.183  1.00  0.00     0.064 A 
ATOM     74  C   UNL A   1      49.681  26.962  24.854  1.00  0.00     0.173 A 
ATOM     75  C   UNL A   1      50.287  26.188  27.044  1.00  0.00     0.173 A 
ATOM     76  F   UNL A   1      48.777  27.445  23.988  1.00  0.00    -0.203 F 
ATOM     77  C   UNL A   1      50.967  26.681  24.399  1.00  0.00     0.198 A 
ATOM     78  C   UNL A   1      51.581  25.935  26.596  1.00  0.00     0.198 A 
ATOM     79  F   UNL A   1      49.986  25.936  28.327  1.00  0.00    -0.203 F 
ATOM     80  F   UNL A   1      51.280  26.888  23.113  1.00  0.00    -0.200 F 
ATOM     81  C   UNL A   1      51.918  26.173  25.272  1.00  0.00     0.200 A 
ATOM     82  F   UNL A   1      52.501  25.461  27.446  1.00  0.00    -0.200 F 
ATOM     83  F   UNL A   1      53.156  25.908  24.835  1.00  0.00    -0.200 F 
ENDBRANCH  49  73
BRANCH  61  84
ATOM     84  C   UNL A   1      46.178  32.376  28.762  1.00  0.00     0.064 A 
ATOM     85  C   UNL A   1      46.715  32.700  30.017  1.00  0.00     0.173 A 
ATOM     86  C   UNL A   1      46.154  33.377  27.779  1.00  0.00     0.173 A 
ATOM     87  F   UNL A   1      46.747  31.782  30.995  1.00  0.00    -0.203 F 
ATOM     88  C   UNL A   1      47.183  33.983  30.284  1.00  0.00     0.198 A 
ATOM     89  C   UNL A   1      46.652  34.650  28.040  1.00  0.00     0.198 A 
ATOM     90  F   UNL A   1      45.656  33.116  26.561  1.00  0.00    -0.203 F 
ATOM     91  F   UNL A   1      47.645  34.286  31.505  1.00  0.00    -0.200 F 
ATOM     92  C   UNL A   1      47.158  34.955  29.294  1.00  0.00     0.200 A 
ATOM     93  F   UNL A   1      46.641  35.582  27.077  1.00  0.00    -0.200 F 
ATOM     94  F   UNL A   1      47.617  36.187  29.551  1.00  0.00    -0.200 F 
ENDBRANCH  61  84
ENDBRANCH  35  36
ENDBRANCH  27  30
ENDBRANCH  25  26
ENDBRANCH  24  25
ENDBRANCH   1  24
TORSDOF 14
ENDMDL
MODEL 3
REMARK VINA RESULT:     -12.0      6.512     11.925
REMARK SMILES [NH3+][C@]1(C(=O)NCCCNC(=O)c2ccc(-c3c4nc(c(-c5c(F)c(F)c(F)c(F)c5F)c5ccc([nH]5)c(-c5c(F)c(F)c(F)c(F)c5F)c5nc(c(-c6c(F)c(F)c(F)c(F)c6F)c6ccc3[nH]6)C=C5)C=C4)cc2)CCC[C@H]1CC[NH+]1CCCCC1
REMARK SMILES IDX 6 1 5 2 3 3 4 4 2 6 75 7 78 8 76 9 77 10 1 11 79 15 80 16
REMARK SMILES IDX 81 17 82 18 86 19 83 21 85 22 84 23 7 24 8 25 9 26 10 27
REMARK SMILES IDX 11 29 12 30 13 31 74 32 14 33 73 34 15 35 16 36 17 37 67 38
REMARK SMILES IDX 18 39 72 40 66 41 68 42 19 43 71 44 65 45 64 46 20 48 52 49
REMARK SMILES IDX 32 50 51 51 33 52 36 53 50 54 69 55 34 56 35 57 49 59 70 60
REMARK SMILES IDX 37 61 21 62 22 63 30 64 23 65 24 66 28 67 31 68 25 69 26 70
REMARK SMILES IDX 29 71 27 72 53 73 54 74 62 75 55 76 56 77 60 78 63 79 57 80
REMARK SMILES IDX 58 81 61 82 59 83 38 84 39 85 47 86 40 87 41 88 45 89 48 90
REMARK SMILES IDX 42 91 43 92 46 93 44 94
REMARK H PARENT 5 5 1 12 1 13 1 14 81 20 9 28 68 47 36 58
REMARK Flexibility Score: inf
ROOT
ATOM      1  C   UNL A   1      31.536  30.609  26.786  1.00  0.00     0.118 C 
ENDROOT
BRANCH   1   2
ATOM      2  N   UNL A   1      32.914  30.230  26.558  1.00  0.00    -0.351 N 
ATOM      3  C   UNL A   1      33.496  29.033  26.306  1.00  0.00     0.281 C 
ATOM      4  O   UNL A   1      34.732  29.019  26.388  1.00  0.00    -0.268 OA
ATOM      5  H   UNL A   1      33.547  30.983  26.593  1.00  0.00     0.163 HD
BRANCH   3   6
ATOM      6  C   UNL A   1      32.713  27.750  25.900  1.00  0.00     0.177 C 
ATOM      7  C   UNL A   1      31.583  27.365  26.875  1.00  0.00     0.079 C 
ATOM      8  C   UNL A   1      32.077  27.697  24.471  1.00  0.00     0.066 C 
ATOM      9  C   UNL A   1      30.660  26.476  26.057  1.00  0.00     0.008 C 
ATOM     10  C   UNL A   1      30.650  27.141  24.690  1.00  0.00     0.011 C 
BRANCH   6  11
ATOM     11  N   UNL A   1      33.682  26.606  25.974  1.00  0.00    -0.345 N 
ATOM     12  H   UNL A   1      33.519  26.077  26.830  1.00  0.00     0.345 HD
ATOM     13  H   UNL A   1      34.635  26.969  25.974  1.00  0.00     0.345 HD
ATOM     14  H   UNL A   1      33.550  25.996  25.167  1.00  0.00     0.345 HD
ENDBRANCH   6  11
BRANCH   8  15
ATOM     15  C   UNL A   1      32.017  28.954  23.573  1.00  0.00     0.072 C 
BRANCH  15  16
ATOM     16  C   UNL A   1      31.018  28.946  22.408  1.00  0.00     0.262 C 
BRANCH  16  17
ATOM     17  N   UNL A   1      30.133  30.115  22.448  1.00  0.00    -0.335 N 
ATOM     18  C   UNL A   1      28.932  29.886  21.629  1.00  0.00     0.262 C 
ATOM     19  C   UNL A   1      29.766  30.454  23.831  1.00  0.00     0.262 C 
ATOM     20  H   UNL A   1      30.642  30.907  22.057  1.00  0.00     0.348 HD
ATOM     21  C   UNL A   1      28.028  31.117  21.609  1.00  0.00     0.062 C 
ATOM     22  C   UNL A   1      28.904  31.713  23.876  1.00  0.00     0.062 C 
ATOM     23  C   UNL A   1      27.654  31.555  23.021  1.00  0.00     0.012 C 
ENDBRANCH  16  17
ENDBRANCH  15  16
ENDBRANCH   8  15
ENDBRANCH   3   6
ENDBRANCH   1   2
BRANCH   1  24
ATOM     24  C   UNL A   1      31.405  32.128  26.823  1.00  0.00     0.042 C 
BRANCH  24  25
ATOM     25  C   UNL A   1      32.703  32.825  27.218  1.00  0.00     0.118 C 
BRANCH  25  26
ATOM     26  N   UNL A   1      32.479  34.205  27.625  1.00  0.00    -0.352 N 
ATOM     27  C   UNL A   1      33.034  34.903  28.666  1.00  0.00     0.251 C 
ATOM     28  H   UNL A   1      31.836  34.708  27.074  1.00  0.00     0.163 HD
ATOM     29  O   UNL A   1      32.566  35.987  28.997  1.00  0.00    -0.269 OA
BRANCH  27  30
ATOM     30  C   UNL A   1      34.190  34.343  29.397  1.00  0.00     0.039 A 
ATOM     31  C   UNL A   1      33.960  33.630  30.576  1.00  0.00     0.014 A 
ATOM     32  C   UNL A   1      35.495  34.539  28.935  1.00  0.00     0.014 A 
ATOM     33  C   UNL A   1      35.036  33.068  31.265  1.00  0.00     0.010 A 
ATOM     34  C   UNL A   1      36.559  33.917  29.583  1.00  0.00     0.010 A 
ATOM     35  C   UNL A   1      36.340  33.183  30.757  1.00  0.00    -0.014 A 
BRANCH  35  36
ATOM     36  C   UNL A   1      37.488  32.540  31.444  1.00  0.00     0.031 A 
ATOM     37  C   UNL A   1      38.201  31.383  30.803  1.00  0.00     0.074 A 
ATOM     38  C   UNL A   1      37.845  32.963  32.671  1.00  0.00     0.049 A 
ATOM     39  N   UNL A   1      39.184  30.654  31.270  1.00  0.00    -0.248 NA
ATOM     40  C   UNL A   1      37.730  30.972  29.470  1.00  0.00     0.031 C 
ATOM     41  C   UNL A   1      37.196  34.044  33.414  1.00  0.00     0.029 A 
ATOM     42  N   UNL A   1      38.835  32.527  33.515  1.00  0.00    -0.354 N 
ATOM     43  C   UNL A   1      39.437  29.695  30.298  1.00  0.00     0.074 A 
ATOM     44  C   UNL A   1      38.473  29.899  29.240  1.00  0.00     0.031 C 
ATOM     45  C   UNL A   1      37.817  34.201  34.593  1.00  0.00     0.029 A 
ATOM     46  C   UNL A   1      38.882  33.210  34.706  1.00  0.00     0.049 A 
ATOM     47  H   UNL A   1      39.453  31.795  33.289  1.00  0.00     0.167 HD
ATOM     48  C   UNL A   1      40.403  28.746  30.282  1.00  0.00     0.037 A 
ATOM     49  C   UNL A   1      39.689  33.048  35.772  1.00  0.00     0.037 A 
ATOM     50  C   UNL A   1      41.374  28.564  31.330  1.00  0.00     0.049 A 
ATOM     51  C   UNL A   1      40.751  31.982  35.729  1.00  0.00     0.074 A 
ATOM     52  C   UNL A   1      42.431  27.672  31.382  1.00  0.00     0.029 A 
ATOM     53  N   UNL A   1      41.401  29.285  32.514  1.00  0.00    -0.354 N 
ATOM     54  N   UNL A   1      41.030  31.129  34.774  1.00  0.00    -0.248 NA
ATOM     55  C   UNL A   1      41.616  31.864  36.910  1.00  0.00     0.031 C 
ATOM     56  C   UNL A   1      43.068  27.821  32.618  1.00  0.00     0.029 A 
ATOM     57  C   UNL A   1      42.444  28.843  33.314  1.00  0.00     0.049 A 
ATOM     58  H   UNL A   1      40.774  30.007  32.752  1.00  0.00     0.167 HD
ATOM     59  C   UNL A   1      42.116  30.392  35.225  1.00  0.00     0.074 A 
ATOM     60  C   UNL A   1      42.457  30.911  36.533  1.00  0.00     0.031 C 
ATOM     61  C   UNL A   1      42.772  29.377  34.612  1.00  0.00     0.037 A 
BRANCH  48  62
ATOM     62  C   UNL A   1      40.460  27.831  29.092  1.00  0.00     0.064 A 
ATOM     63  C   UNL A   1      39.688  26.661  29.025  1.00  0.00     0.173 A 
ATOM     64  C   UNL A   1      41.268  28.146  27.990  1.00  0.00     0.173 A 
ATOM     65  F   UNL A   1      38.907  26.307  30.056  1.00  0.00    -0.203 F 
ATOM     66  C   UNL A   1      39.746  25.826  27.912  1.00  0.00     0.198 A 
ATOM     67  C   UNL A   1      41.300  27.326  26.864  1.00  0.00     0.198 A 
ATOM     68  F   UNL A   1      42.024  29.256  27.998  1.00  0.00    -0.203 F 
ATOM     69  F   UNL A   1      39.038  24.689  27.891  1.00  0.00    -0.200 F 
ATOM     70  C   UNL A   1      40.545  26.163  26.830  1.00  0.00     0.200 A 
ATOM     71  F   UNL A   1      42.063  27.660  25.814  1.00  0.00    -0.200 F 
ATOM     72  F   UNL A   1      40.593  25.363  25.755  1.00  0.00    -0.200 F 
ENDBRANCH  48  62
BRANCH  49  73
ATOM     73  C   UNL A   1      39.540  33.931  36.957  1.00  0.00     0.064 A 
ATOM     74  C   UNL A   1      40.185  35.174  37.015  1.00  0.00     0.173 A 
ATOM     75  C   UNL A   1      38.752  33.553  38.055  1.00  0.00     0.173 A 
ATOM     76  F   UNL A   1      40.965  35.570  35.998  1.00  0.00    -0.203 F 
ATOM     77  C   UNL A   1      40.067  35.996  38.133  1.00  0.00     0.198 A 
ATOM     78  C   UNL A   1      38.610  34.389  39.160  1.00  0.00     0.198 A 
ATOM     79  F   UNL A   1      38.107  32.377  38.047  1.00  0.00    -0.203 F 
ATOM     80  F   UNL A   1      40.732  37.158  38.182  1.00  0.00    -0.200 F 
ATOM     81  C   UNL A   1      39.275  35.605  39.203  1.00  0.00     0.200 A 
ATOM     82  F   UNL A   1      37.831  34.016  40.184  1.00  0.00    -0.200 F 
ATOM     83  F   UNL A   1      39.157  36.399  40.276  1.00  0.00    -0.200 F 
ENDBRANCH  49  73
BRANCH  61  84
ATOM     84  C   UNL A   1      43.947  28.783  35.334  1.00  0.00     0.064 A 
ATOM     85  C   UNL A   1      43.791  27.745  36.264  1.00  0.00     0.173 A 
ATOM     86  C   UNL A   1      45.248  29.233  35.061  1.00  0.00     0.173 A 
ATOM     87  F   UNL A   1      42.567  27.290  36.571  1.00  0.00    -0.203 F 
ATOM     88  C   UNL A   1      44.893  27.199  36.917  1.00  0.00     0.198 A 
ATOM     89  C   UNL A   1      46.350  28.663  35.692  1.00  0.00     0.198 A 
ATOM     90  F   UNL A   1      45.450  30.219  34.174  1.00  0.00    -0.203 F 
ATOM     91  F   UNL A   1      44.718  26.244  37.840  1.00  0.00    -0.200 F 
ATOM     92  C   UNL A   1      46.172  27.653  36.625  1.00  0.00     0.200 A 
ATOM     93  F   UNL A   1      47.585  29.092  35.397  1.00  0.00    -0.200 F 
ATOM     94  F   UNL A   1      47.232  27.121  37.248  1.00  0.00    -0.200 F 
ENDBRANCH  61  84
ENDBRANCH  35  36
ENDBRANCH  27  30
ENDBRANCH  25  26
ENDBRANCH  24  25
ENDBRANCH   1  24
TORSDOF 14
ENDMDL
