MODEL 1
REMARK VINA RESULT:     -11.9      0.000      0.000
REMARK SMILES CCc1cc(Oc2cncc(C(=O)NCCCNC(=O)c3ccc(-c4c5nc(c(-c6c(F)c(F)c(F)c(F)c6F)c6ccc([nH]6)c(-c6c(F)c(F)c(F)c(F)c6F)c6nc(c(-c7c(F)c(F)c(F)c(F)c7F)c7ccc4[nH]7)C=C6)C=C5)cc3)n2)ccc1Cl
REMARK SMILES IDX 15 1 14 2 12 3 13 4 11 6 7 7 8 8 84 9 9 10 10 11 6 12 5 13
REMARK SMILES IDX 3 14 4 15 87 16 86 17 88 18 85 19 2 20 1 21 16 22 17 23
REMARK SMILES IDX 18 24 19 25 20 27 21 28 22 29 83 30 23 31 82 32 24 33 25 34
REMARK SMILES IDX 26 35 76 36 27 37 81 38 75 39 77 40 28 41 80 42 74 43 73 44
REMARK SMILES IDX 29 46 61 47 41 48 60 49 42 50 45 51 59 52 78 53 43 54 44 55
REMARK SMILES IDX 58 57 79 58 46 59 30 60 31 61 39 62 32 63 33 64 37 65 40 66
REMARK SMILES IDX 34 67 35 68 38 69 36 70 62 71 63 72 71 73 64 74 65 75 69 76
REMARK SMILES IDX 72 77 66 78 67 79 70 80 68 81 47 82 48 83 56 84 49 85 50 86
REMARK SMILES IDX 54 87 57 88 51 89 52 90 55 91 53 92
REMARK H PARENT 14 5 18 26 77 45 45 56
REMARK Flexibility Score: inf
ROOT
ATOM      1  C   UNL A   1      35.228  34.788  28.510  1.00  0.00     0.118 C 
ENDROOT
BRANCH   1   2
ATOM      2  N   UNL A   1      33.970  35.470  28.248  1.00  0.00    -0.351 N 
ATOM      3  C   UNL A   1      33.052  36.036  29.101  1.00  0.00     0.271 C 
ATOM      4  O   UNL A   1      32.069  36.586  28.598  1.00  0.00    -0.267 OA
ATOM      5  H   UNL A   1      33.736  35.537  27.294  1.00  0.00     0.163 HD
BRANCH   3   6
ATOM      6  C   UNL A   1      33.208  36.046  30.583  1.00  0.00     0.150 A 
ATOM      7  C   UNL A   1      33.432  34.984  32.599  1.00  0.00     0.238 A 
ATOM      8  C   UNL A   1      33.660  36.203  33.226  1.00  0.00     0.179 A 
ATOM      9  N   UNL A   1      33.207  34.877  31.270  1.00  0.00    -0.205 NA
ATOM     10  N   UNL A   1      33.612  37.379  32.558  1.00  0.00    -0.257 NA
ATOM     11  C   UNL A   1      33.383  37.271  31.222  1.00  0.00     0.145 A 
BRANCH   7  12
ATOM     12  O   UNL A   1      33.571  33.802  33.281  1.00  0.00    -0.437 OA
BRANCH  12  13
ATOM     13  C   UNL A   1      34.824  33.241  33.379  1.00  0.00     0.129 A 
ATOM     14  C   UNL A   1      36.897  33.252  34.689  1.00  0.00    -0.026 A 
ATOM     15  C   UNL A   1      35.587  33.711  34.455  1.00  0.00     0.052 A 
ATOM     16  C   UNL A   1      37.422  32.283  33.821  1.00  0.00     0.044 A 
ATOM     17  C   UNL A   1      36.662  31.810  32.746  1.00  0.00     0.024 A 
ATOM     18  Cl  UNL A   1      39.009  31.631  34.010  1.00  0.00    -0.084 Cl
ATOM     19  C   UNL A   1      35.372  32.295  32.515  1.00  0.00     0.049 A 
BRANCH  14  20
ATOM     20  C   UNL A   1      37.666  33.835  35.854  1.00  0.00     0.034 C 
ATOM     21  C   UNL A   1      37.605  32.947  37.091  1.00  0.00     0.009 C 
ENDBRANCH  14  20
ENDBRANCH  12  13
ENDBRANCH   7  12
ENDBRANCH   3   6
ENDBRANCH   1   2
BRANCH   1  22
ATOM     22  C   UNL A   1      35.196  33.338  28.035  1.00  0.00     0.042 C 
BRANCH  22  23
ATOM     23  C   UNL A   1      34.510  32.387  29.018  1.00  0.00     0.118 C 
BRANCH  23  24
ATOM     24  N   UNL A   1      33.974  31.199  28.363  1.00  0.00    -0.352 N 
ATOM     25  C   UNL A   1      34.600  30.062  27.925  1.00  0.00     0.251 C 
ATOM     26  H   UNL A   1      33.002  31.217  28.210  1.00  0.00     0.163 HD
ATOM     27  O   UNL A   1      33.980  29.266  27.218  1.00  0.00    -0.269 OA
BRANCH  25  28
ATOM     28  C   UNL A   1      36.005  29.775  28.278  1.00  0.00     0.039 A 
ATOM     29  C   UNL A   1      36.292  29.302  29.562  1.00  0.00     0.014 A 
ATOM     30  C   UNL A   1      37.047  30.024  27.380  1.00  0.00     0.014 A 
ATOM     31  C   UNL A   1      37.611  29.022  29.927  1.00  0.00     0.010 A 
ATOM     32  C   UNL A   1      38.356  29.685  27.722  1.00  0.00     0.010 A 
ATOM     33  C   UNL A   1      38.651  29.182  28.997  1.00  0.00    -0.014 A 
BRANCH  33  34
ATOM     34  C   UNL A   1      40.051  28.822  29.339  1.00  0.00     0.031 A 
ATOM     35  C   UNL A   1      40.912  29.775  30.120  1.00  0.00     0.074 A 
ATOM     36  C   UNL A   1      40.569  27.667  28.878  1.00  0.00     0.049 A 
ATOM     37  N   UNL A   1      42.182  29.681  30.428  1.00  0.00    -0.248 NA
ATOM     38  C   UNL A   1      40.270  31.011  30.595  1.00  0.00     0.031 C 
ATOM     39  C   UNL A   1      39.851  26.682  28.067  1.00  0.00     0.029 A 
ATOM     40  N   UNL A   1      41.828  27.134  29.007  1.00  0.00    -0.354 N 
ATOM     41  C   UNL A   1      42.494  30.852  31.107  1.00  0.00     0.074 A 
ATOM     42  C   UNL A   1      41.293  31.658  31.137  1.00  0.00     0.031 C 
ATOM     43  C   UNL A   1      40.677  25.665  27.775  1.00  0.00     0.029 A 
ATOM     44  C   UNL A   1      41.992  25.940  28.347  1.00  0.00     0.049 A 
ATOM     45  H   UNL A   1      42.546  27.567  29.523  1.00  0.00     0.167 HD
ATOM     46  C   UNL A   1      43.674  31.213  31.666  1.00  0.00     0.037 A 
ATOM     47  C   UNL A   1      43.081  25.163  28.208  1.00  0.00     0.037 A 
ATOM     48  C   UNL A   1      44.855  30.391  31.673  1.00  0.00     0.049 A 
ATOM     49  C   UNL A   1      44.370  25.577  28.865  1.00  0.00     0.074 A 
ATOM     50  C   UNL A   1      46.071  30.635  32.288  1.00  0.00     0.029 A 
ATOM     51  N   UNL A   1      44.968  29.166  31.035  1.00  0.00    -0.354 N 
ATOM     52  N   UNL A   1      44.631  26.651  29.570  1.00  0.00    -0.248 NA
ATOM     53  C   UNL A   1      45.515  24.666  28.714  1.00  0.00     0.031 C 
ATOM     54  C   UNL A   1      46.934  29.575  31.988  1.00  0.00     0.029 A 
ATOM     55  C   UNL A   1      46.239  28.650  31.224  1.00  0.00     0.049 A 
ATOM     56  H   UNL A   1      44.250  28.727  30.523  1.00  0.00     0.167 HD
ATOM     57  C   UNL A   1      45.956  26.533  29.967  1.00  0.00     0.074 A 
ATOM     58  C   UNL A   1      46.442  25.276  29.439  1.00  0.00     0.031 C 
ATOM     59  C   UNL A   1      46.703  27.392  30.702  1.00  0.00     0.037 A 
BRANCH  46  60
ATOM     60  C   UNL A   1      43.753  32.557  32.329  1.00  0.00     0.064 A 
ATOM     61  C   UNL A   1      43.451  32.726  33.688  1.00  0.00     0.173 A 
ATOM     62  C   UNL A   1      44.204  33.676  31.613  1.00  0.00     0.173 A 
ATOM     63  F   UNL A   1      43.006  31.689  34.415  1.00  0.00    -0.203 F 
ATOM     64  C   UNL A   1      43.581  33.969  34.301  1.00  0.00     0.198 A 
ATOM     65  C   UNL A   1      44.358  34.912  32.235  1.00  0.00     0.198 A 
ATOM     66  F   UNL A   1      44.513  33.567  30.312  1.00  0.00    -0.203 F 
ATOM     67  F   UNL A   1      43.254  34.115  35.593  1.00  0.00    -0.200 F 
ATOM     68  C   UNL A   1      44.042  35.059  33.577  1.00  0.00     0.200 A 
ATOM     69  F   UNL A   1      44.817  35.960  31.537  1.00  0.00    -0.200 F 
ATOM     70  F   UNL A   1      44.181  36.251  34.173  1.00  0.00    -0.200 F 
ENDBRANCH  46  60
BRANCH  47  71
ATOM     71  C   UNL A   1      43.003  23.906  27.419  1.00  0.00     0.064 A 
ATOM     72  C   UNL A   1      42.558  22.713  28.006  1.00  0.00     0.173 A 
ATOM     73  C   UNL A   1      43.387  23.866  26.072  1.00  0.00     0.173 A 
ATOM     74  F   UNL A   1      42.200  22.696  29.299  1.00  0.00    -0.203 F 
ATOM     75  C   UNL A   1      42.526  21.524  27.283  1.00  0.00     0.198 A 
ATOM     76  C   UNL A   1      43.327  22.682  25.340  1.00  0.00     0.198 A 
ATOM     77  F   UNL A   1      43.815  24.981  25.461  1.00  0.00    -0.203 F 
ATOM     78  F   UNL A   1      42.146  20.386  27.883  1.00  0.00    -0.200 F 
ATOM     79  C   UNL A   1      42.906  21.509  25.949  1.00  0.00     0.200 A 
ATOM     80  F   UNL A   1      43.683  22.675  24.049  1.00  0.00    -0.200 F 
ATOM     81  F   UNL A   1      42.876  20.364  25.254  1.00  0.00    -0.200 F 
ENDBRANCH  47  71
BRANCH  59  82
ATOM     82  C   UNL A   1      48.114  26.985  31.009  1.00  0.00     0.064 A 
ATOM     83  C   UNL A   1      48.416  26.129  32.078  1.00  0.00     0.173 A 
ATOM     84  C   UNL A   1      49.172  27.424  30.198  1.00  0.00     0.173 A 
ATOM     85  F   UNL A   1      47.440  25.695  32.891  1.00  0.00    -0.203 F 
ATOM     86  C   UNL A   1      49.729  25.746  32.339  1.00  0.00     0.198 A 
ATOM     87  C   UNL A   1      50.479  27.017  30.445  1.00  0.00     0.198 A 
ATOM     88  F   UNL A   1      48.934  28.239  29.160  1.00  0.00    -0.203 F 
ATOM     89  F   UNL A   1      49.999  24.963  33.392  1.00  0.00    -0.200 F 
ATOM     90  C   UNL A   1      50.758  26.184  31.519  1.00  0.00     0.200 A 
ATOM     91  F   UNL A   1      51.471  27.432  29.645  1.00  0.00    -0.200 F 
ATOM     92  F   UNL A   1      52.020  25.808  31.767  1.00  0.00    -0.200 F 
ENDBRANCH  59  82
ENDBRANCH  33  34
ENDBRANCH  25  28
ENDBRANCH  23  24
ENDBRANCH  22  23
ENDBRANCH   1  22
TORSDOF 13
ENDMDL
MODEL 2
REMARK VINA RESULT:     -11.9      4.227     12.065
REMARK SMILES CCc1cc(Oc2cncc(C(=O)NCCCNC(=O)c3ccc(-c4c5nc(c(-c6c(F)c(F)c(F)c(F)c6F)c6ccc([nH]6)c(-c6c(F)c(F)c(F)c(F)c6F)c6nc(c(-c7c(F)c(F)c(F)c(F)c7F)c7ccc4[nH]7)C=C6)C=C5)cc3)n2)ccc1Cl
REMARK SMILES IDX 15 1 14 2 12 3 13 4 11 6 7 7 8 8 84 9 9 10 10 11 6 12 5 13
REMARK SMILES IDX 3 14 4 15 87 16 86 17 88 18 85 19 2 20 1 21 16 22 17 23
REMARK SMILES IDX 18 24 19 25 20 27 21 28 22 29 83 30 23 31 82 32 24 33 25 34
REMARK SMILES IDX 26 35 76 36 27 37 81 38 75 39 77 40 28 41 80 42 74 43 73 44
REMARK SMILES IDX 29 46 61 47 41 48 60 49 42 50 45 51 59 52 78 53 43 54 44 55
REMARK SMILES IDX 58 57 79 58 46 59 30 60 31 61 39 62 32 63 33 64 37 65 40 66
REMARK SMILES IDX 34 67 35 68 38 69 36 70 62 71 63 72 71 73 64 74 65 75 69 76
REMARK SMILES IDX 72 77 66 78 67 79 70 80 68 81 47 82 48 83 56 84 49 85 50 86
REMARK SMILES IDX 54 87 57 88 51 89 52 90 55 91 53 92
REMARK H PARENT 14 5 18 26 77 45 45 56
REMARK Flexibility Score: inf
ROOT
ATOM      1  C   UNL A   1      42.167  20.432  27.712  1.00  0.00     0.118 C 
ENDROOT
BRANCH   1   2
ATOM      2  N   UNL A   1      41.976  19.153  27.046  1.00  0.00    -0.351 N 
ATOM      3  C   UNL A   1      42.714  18.517  26.074  1.00  0.00     0.271 C 
ATOM      4  O   UNL A   1      42.333  17.404  25.705  1.00  0.00    -0.267 OA
ATOM      5  H   UNL A   1      41.180  18.656  27.343  1.00  0.00     0.163 HD
BRANCH   3   6
ATOM      6  C   UNL A   1      43.956  19.092  25.483  1.00  0.00     0.150 A 
ATOM      7  C   UNL A   1      45.082  20.724  24.340  1.00  0.00     0.238 A 
ATOM      8  C   UNL A   1      46.290  20.096  24.614  1.00  0.00     0.179 A 
ATOM      9  N   UNL A   1      43.894  20.244  24.770  1.00  0.00    -0.205 NA
ATOM     10  N   UNL A   1      46.357  18.919  25.280  1.00  0.00    -0.257 NA
ATOM     11  C   UNL A   1      45.162  18.435  25.710  1.00  0.00     0.145 A 
BRANCH   7  12
ATOM     12  O   UNL A   1      45.048  21.957  23.739  1.00  0.00    -0.437 OA
BRANCH  12  13
ATOM     13  C   UNL A   1      45.433  23.058  24.470  1.00  0.00     0.129 A 
ATOM     14  C   UNL A   1      44.729  24.592  26.250  1.00  0.00    -0.026 A 
ATOM     15  C   UNL A   1      44.499  23.473  25.428  1.00  0.00     0.052 A 
ATOM     16  C   UNL A   1      45.942  25.280  26.103  1.00  0.00     0.044 A 
ATOM     17  C   UNL A   1      46.879  24.867  25.148  1.00  0.00     0.024 A 
ATOM     18  Cl  UNL A   1      46.349  26.658  27.060  1.00  0.00    -0.084 Cl
ATOM     19  C   UNL A   1      46.623  23.769  24.324  1.00  0.00     0.049 A 
BRANCH  14  20
ATOM     20  C   UNL A   1      43.655  24.994  27.236  1.00  0.00     0.034 C 
ATOM     21  C   UNL A   1      43.515  23.996  28.380  1.00  0.00     0.009 C 
ENDBRANCH  14  20
ENDBRANCH  12  13
ENDBRANCH   7  12
ENDBRANCH   3   6
ENDBRANCH   1   2
BRANCH   1  22
ATOM     22  C   UNL A   1      40.938  21.326  27.582  1.00  0.00     0.042 C 
BRANCH  22  23
ATOM     23  C   UNL A   1      40.985  22.260  26.370  1.00  0.00     0.118 C 
BRANCH  23  24
ATOM     24  N   UNL A   1      39.658  22.578  25.858  1.00  0.00    -0.352 N 
ATOM     25  C   UNL A   1      38.811  23.614  26.152  1.00  0.00     0.251 C 
ATOM     26  H   UNL A   1      39.311  21.943  25.190  1.00  0.00     0.163 HD
ATOM     27  O   UNL A   1      37.649  23.579  25.746  1.00  0.00    -0.269 OA
BRANCH  25  28
ATOM     28  C   UNL A   1      39.264  24.770  26.954  1.00  0.00     0.039 A 
ATOM     29  C   UNL A   1      40.034  25.758  26.332  1.00  0.00     0.014 A 
ATOM     30  C   UNL A   1      38.990  24.860  28.321  1.00  0.00     0.014 A 
ATOM     31  C   UNL A   1      40.478  26.863  27.063  1.00  0.00     0.010 A 
ATOM     32  C   UNL A   1      39.379  25.992  29.036  1.00  0.00     0.010 A 
ATOM     33  C   UNL A   1      40.127  27.004  28.415  1.00  0.00    -0.014 A 
BRANCH  33  34
ATOM     34  C   UNL A   1      40.525  28.205  29.192  1.00  0.00     0.031 A 
ATOM     35  C   UNL A   1      41.885  28.282  29.830  1.00  0.00     0.074 A 
ATOM     36  C   UNL A   1      39.632  29.195  29.388  1.00  0.00     0.049 A 
ATOM     37  N   UNL A   1      42.377  29.200  30.624  1.00  0.00    -0.248 NA
ATOM     38  C   UNL A   1      42.805  27.165  29.562  1.00  0.00     0.031 C 
ATOM     39  C   UNL A   1      38.265  29.215  28.864  1.00  0.00     0.029 A 
ATOM     40  N   UNL A   1      39.732  30.366  30.097  1.00  0.00    -0.354 N 
ATOM     41  C   UNL A   1      43.648  28.760  30.970  1.00  0.00     0.074 A 
ATOM     42  C   UNL A   1      43.842  27.478  30.328  1.00  0.00     0.031 C 
ATOM     43  C   UNL A   1      37.656  30.342  29.266  1.00  0.00     0.029 A 
ATOM     44  C   UNL A   1      38.575  31.107  30.103  1.00  0.00     0.049 A 
ATOM     45  H   UNL A   1      40.555  30.648  30.559  1.00  0.00     0.167 HD
ATOM     46  C   UNL A   1      44.574  29.379  31.740  1.00  0.00     0.037 A 
ATOM     47  C   UNL A   1      38.285  32.266  30.723  1.00  0.00     0.037 A 
ATOM     48  C   UNL A   1      44.395  30.675  32.341  1.00  0.00     0.049 A 
ATOM     49  C   UNL A   1      39.344  32.944  31.550  1.00  0.00     0.074 A 
ATOM     50  C   UNL A   1      45.307  31.421  33.068  1.00  0.00     0.029 A 
ATOM     51  N   UNL A   1      43.226  31.417  32.284  1.00  0.00    -0.354 N 
ATOM     52  N   UNL A   1      40.569  32.554  31.805  1.00  0.00    -0.248 NA
ATOM     53  C   UNL A   1      38.981  34.228  32.168  1.00  0.00     0.031 C 
ATOM     54  C   UNL A   1      44.677  32.598  33.485  1.00  0.00     0.029 A 
ATOM     55  C   UNL A   1      43.386  32.604  32.980  1.00  0.00     0.049 A 
ATOM     56  H   UNL A   1      42.403  31.141  31.819  1.00  0.00     0.167 HD
ATOM     57  C   UNL A   1      41.131  33.554  32.589  1.00  0.00     0.074 A 
ATOM     58  C   UNL A   1      40.119  34.575  32.754  1.00  0.00     0.031 C 
ATOM     59  C   UNL A   1      42.373  33.616  33.125  1.00  0.00     0.037 A 
BRANCH  46  60
ATOM     60  C   UNL A   1      45.875  28.671  31.978  1.00  0.00     0.064 A 
ATOM     61  C   UNL A   1      46.980  28.860  31.136  1.00  0.00     0.173 A 
ATOM     62  C   UNL A   1      46.039  27.848  33.103  1.00  0.00     0.173 A 
ATOM     63  F   UNL A   1      46.872  29.629  30.042  1.00  0.00    -0.203 F 
ATOM     64  C   UNL A   1      48.197  28.236  31.401  1.00  0.00     0.198 A 
ATOM     65  C   UNL A   1      47.265  27.247  33.380  1.00  0.00     0.198 A 
ATOM     66  F   UNL A   1      45.015  27.640  33.945  1.00  0.00    -0.203 F 
ATOM     67  F   UNL A   1      49.230  28.403  30.563  1.00  0.00    -0.200 F 
ATOM     68  C   UNL A   1      48.341  27.438  32.527  1.00  0.00     0.200 A 
ATOM     69  F   UNL A   1      47.405  26.488  34.475  1.00  0.00    -0.200 F 
ATOM     70  F   UNL A   1      49.517  26.852  32.788  1.00  0.00    -0.200 F 
ENDBRANCH  46  60
BRANCH  47  71
ATOM     71  C   UNL A   1      36.933  32.867  30.582  1.00  0.00     0.064 A 
ATOM     72  C   UNL A   1      36.580  33.586  29.431  1.00  0.00     0.173 A 
ATOM     73  C   UNL A   1      35.975  32.752  31.599  1.00  0.00     0.173 A 
ATOM     74  F   UNL A   1      37.472  33.741  28.440  1.00  0.00    -0.203 F 
ATOM     75  C   UNL A   1      35.331  34.189  29.314  1.00  0.00     0.198 A 
ATOM     76  C   UNL A   1      34.714  33.331  31.468  1.00  0.00     0.198 A 
ATOM     77  F   UNL A   1      36.260  32.070  32.718  1.00  0.00    -0.203 F 
ATOM     78  F   UNL A   1      35.038  34.915  28.225  1.00  0.00    -0.200 F 
ATOM     79  C   UNL A   1      34.397  34.057  30.331  1.00  0.00     0.200 A 
ATOM     80  F   UNL A   1      33.810  33.191  32.447  1.00  0.00    -0.200 F 
ATOM     81  F   UNL A   1      33.195  34.639  30.218  1.00  0.00    -0.200 F 
ENDBRANCH  47  71
BRANCH  59  82
ATOM     82  C   UNL A   1      42.721  34.846  33.910  1.00  0.00     0.064 A 
ATOM     83  C   UNL A   1      42.615  34.879  35.308  1.00  0.00     0.173 A 
ATOM     84  C   UNL A   1      43.207  35.990  33.259  1.00  0.00     0.173 A 
ATOM     85  F   UNL A   1      42.141  33.815  35.975  1.00  0.00    -0.203 F 
ATOM     86  C   UNL A   1      42.960  36.023  36.024  1.00  0.00     0.198 A 
ATOM     87  C   UNL A   1      43.576  37.121  33.980  1.00  0.00     0.198 A 
ATOM     88  F   UNL A   1      43.333  36.006  31.923  1.00  0.00    -0.203 F 
ATOM     89  F   UNL A   1      42.808  36.048  37.355  1.00  0.00    -0.200 F 
ATOM     90  C   UNL A   1      43.447  37.140  35.361  1.00  0.00     0.200 A 
ATOM     91  F   UNL A   1      44.058  38.195  33.339  1.00  0.00    -0.200 F 
ATOM     92  F   UNL A   1      43.785  38.236  36.053  1.00  0.00    -0.200 F 
ENDBRANCH  59  82
ENDBRANCH  33  34
ENDBRANCH  25  28
ENDBRANCH  23  24
ENDBRANCH  22  23
ENDBRANCH   1  22
TORSDOF 13
ENDMDL
MODEL 3
REMARK VINA RESULT:     -11.8      4.159     11.915
REMARK SMILES CCc1cc(Oc2cncc(C(=O)NCCCNC(=O)c3ccc(-c4c5nc(c(-c6c(F)c(F)c(F)c(F)c6F)c6ccc([nH]6)c(-c6c(F)c(F)c(F)c(F)c6F)c6nc(c(-c7c(F)c(F)c(F)c(F)c7F)c7ccc4[nH]7)C=C6)C=C5)cc3)n2)ccc1Cl
REMARK SMILES IDX 15 1 14 2 12 3 13 4 11 6 7 7 8 8 84 9 9 10 10 11 6 12 5 13
REMARK SMILES IDX 3 14 4 15 87 16 86 17 88 18 85 19 2 20 1 21 16 22 17 23
REMARK SMILES IDX 18 24 19 25 20 27 21 28 22 29 83 30 23 31 82 32 24 33 25 34
REMARK SMILES IDX 26 35 76 36 27 37 81 38 75 39 77 40 28 41 80 42 74 43 73 44
REMARK SMILES IDX 29 46 61 47 41 48 60 49 42 50 45 51 59 52 78 53 43 54 44 55
REMARK SMILES IDX 58 57 79 58 46 59 30 60 31 61 39 62 32 63 33 64 37 65 40 66
REMARK SMILES IDX 34 67 35 68 38 69 36 70 62 71 63 72 71 73 64 74 65 75 69 76
REMARK SMILES IDX 72 77 66 78 67 79 70 80 68 81 47 82 48 83 56 84 49 85 50 86
REMARK SMILES IDX 54 87 57 88 51 89 52 90 55 91 53 92
REMARK H PARENT 14 5 18 26 77 45 45 56
REMARK Flexibility Score: inf
ROOT
ATOM      1  C   UNL A   1      42.281  20.320  27.846  1.00  0.00     0.118 C 
ENDROOT
BRANCH   1   2
ATOM      2  N   UNL A   1      42.030  19.063  27.159  1.00  0.00    -0.351 N 
ATOM      3  C   UNL A   1      42.697  18.446  26.126  1.00  0.00     0.271 C 
ATOM      4  O   UNL A   1      42.279  17.348  25.751  1.00  0.00    -0.267 OA
ATOM      5  H   UNL A   1      41.248  18.568  27.492  1.00  0.00     0.163 HD
BRANCH   3   6
ATOM      6  C   UNL A   1      43.907  19.022  25.473  1.00  0.00     0.150 A 
ATOM      7  C   UNL A   1      44.948  20.591  24.171  1.00  0.00     0.238 A 
ATOM      8  C   UNL A   1      46.186  20.053  24.495  1.00  0.00     0.179 A 
ATOM      9  N   UNL A   1      43.786  20.095  24.653  1.00  0.00    -0.205 NA
ATOM     10  N   UNL A   1      46.314  18.951  25.271  1.00  0.00    -0.257 NA
ATOM     11  C   UNL A   1      45.145  18.451  25.754  1.00  0.00     0.145 A 
BRANCH   7  12
ATOM     12  O   UNL A   1      44.850  21.757  23.453  1.00  0.00    -0.437 OA
BRANCH  12  13
ATOM     13  C   UNL A   1      44.838  22.952  24.137  1.00  0.00     0.129 A 
ATOM     14  C   UNL A   1      46.272  24.725  25.040  1.00  0.00    -0.026 A 
ATOM     15  C   UNL A   1      46.105  23.512  24.345  1.00  0.00     0.052 A 
ATOM     16  C   UNL A   1      45.124  25.380  25.509  1.00  0.00     0.044 A 
ATOM     17  C   UNL A   1      43.857  24.824  25.301  1.00  0.00     0.024 A 
ATOM     18  Cl  UNL A   1      45.195  26.879  26.363  1.00  0.00    -0.084 Cl
ATOM     19  C   UNL A   1      43.712  23.607  24.630  1.00  0.00     0.049 A 
BRANCH  14  20
ATOM     20  C   UNL A   1      47.676  25.245  25.251  1.00  0.00     0.034 C 
ATOM     21  C   UNL A   1      48.070  25.271  26.723  1.00  0.00     0.009 C 
ENDBRANCH  14  20
ENDBRANCH  12  13
ENDBRANCH   7  12
ENDBRANCH   3   6
ENDBRANCH   1   2
BRANCH   1  22
ATOM     22  C   UNL A   1      41.150  21.321  27.623  1.00  0.00     0.042 C 
BRANCH  22  23
ATOM     23  C   UNL A   1      41.052  21.822  26.180  1.00  0.00     0.118 C 
BRANCH  23  24
ATOM     24  N   UNL A   1      39.673  22.024  25.752  1.00  0.00    -0.352 N 
ATOM     25  C   UNL A   1      38.782  23.022  26.047  1.00  0.00     0.251 C 
ATOM     26  H   UNL A   1      39.323  21.327  25.151  1.00  0.00     0.163 HD
ATOM     27  O   UNL A   1      37.599  22.888  25.732  1.00  0.00    -0.269 OA
BRANCH  25  28
ATOM     28  C   UNL A   1      39.213  24.253  26.742  1.00  0.00     0.039 A 
ATOM     29  C   UNL A   1      38.808  24.453  28.066  1.00  0.00     0.014 A 
ATOM     30  C   UNL A   1      39.960  25.236  26.087  1.00  0.00     0.014 A 
ATOM     31  C   UNL A   1      39.199  25.607  28.750  1.00  0.00     0.010 A 
ATOM     32  C   UNL A   1      40.402  26.357  26.789  1.00  0.00     0.010 A 
ATOM     33  C   UNL A   1      40.025  26.554  28.126  1.00  0.00    -0.014 A 
BRANCH  33  34
ATOM     34  C   UNL A   1      40.513  27.751  28.858  1.00  0.00     0.031 A 
ATOM     35  C   UNL A   1      41.910  27.787  29.410  1.00  0.00     0.074 A 
ATOM     36  C   UNL A   1      39.669  28.774  29.092  1.00  0.00     0.049 A 
ATOM     37  N   UNL A   1      42.482  28.697  30.158  1.00  0.00    -0.248 NA
ATOM     38  C   UNL A   1      42.773  26.634  29.105  1.00  0.00     0.031 C 
ATOM     39  C   UNL A   1      38.273  28.836  28.652  1.00  0.00     0.029 A 
ATOM     40  N   UNL A   1      39.853  29.950  29.775  1.00  0.00    -0.354 N 
ATOM     41  C   UNL A   1      43.756  28.217  30.433  1.00  0.00     0.074 A 
ATOM     42  C   UNL A   1      43.865  26.920  29.801  1.00  0.00     0.031 C 
ATOM     43  C   UNL A   1      37.730  29.990  29.072  1.00  0.00     0.029 A 
ATOM     44  C   UNL A   1      38.725  30.733  29.839  1.00  0.00     0.049 A 
ATOM     45  H   UNL A   1      40.712  30.209  30.181  1.00  0.00     0.167 HD
ATOM     46  C   UNL A   1      44.749  28.813  31.136  1.00  0.00     0.037 A 
ATOM     47  C   UNL A   1      38.514  31.910  30.458  1.00  0.00     0.037 A 
ATOM     48  C   UNL A   1      44.653  30.122  31.726  1.00  0.00     0.049 A 
ATOM     49  C   UNL A   1      39.645  32.561  31.207  1.00  0.00     0.074 A 
ATOM     50  C   UNL A   1      45.633  30.845  32.383  1.00  0.00     0.029 A 
ATOM     51  N   UNL A   1      43.509  30.905  31.728  1.00  0.00    -0.354 N 
ATOM     52  N   UNL A   1      40.869  32.131  31.394  1.00  0.00    -0.248 NA
ATOM     53  C   UNL A   1      39.367  33.866  31.826  1.00  0.00     0.031 C 
ATOM     54  C   UNL A   1      45.071  32.050  32.819  1.00  0.00     0.029 A 
ATOM     55  C   UNL A   1      43.753  32.095  32.394  1.00  0.00     0.049 A 
ATOM     56  H   UNL A   1      42.650  30.653  31.318  1.00  0.00     0.167 HD
ATOM     57  C   UNL A   1      41.512  33.120  32.125  1.00  0.00     0.074 A 
ATOM     58  C   UNL A   1      40.549  34.179  32.336  1.00  0.00     0.031 C 
ATOM     59  C   UNL A   1      42.787  33.145  32.584  1.00  0.00     0.037 A 
BRANCH  46  60
ATOM     60  C   UNL A   1      46.036  28.062  31.305  1.00  0.00     0.064 A 
ATOM     61  C   UNL A   1      46.263  27.230  32.412  1.00  0.00     0.173 A 
ATOM     62  C   UNL A   1      47.027  28.119  30.312  1.00  0.00     0.173 A 
ATOM     63  F   UNL A   1      45.351  27.149  33.392  1.00  0.00    -0.203 F 
ATOM     64  C   UNL A   1      47.442  26.498  32.527  1.00  0.00     0.198 A 
ATOM     65  C   UNL A   1      48.193  27.364  30.418  1.00  0.00     0.198 A 
ATOM     66  F   UNL A   1      46.856  28.893  29.230  1.00  0.00    -0.203 F 
ATOM     67  F   UNL A   1      47.652  25.737  33.610  1.00  0.00    -0.200 F 
ATOM     68  C   UNL A   1      48.401  26.559  31.527  1.00  0.00     0.200 A 
ATOM     69  F   UNL A   1      49.112  27.414  29.444  1.00  0.00    -0.200 F 
ATOM     70  F   UNL A   1      49.528  25.841  31.633  1.00  0.00    -0.200 F 
ENDBRANCH  46  60
BRANCH  47  71
ATOM     71  C   UNL A   1      37.178  32.557  30.389  1.00  0.00     0.064 A 
ATOM     72  C   UNL A   1      36.216  32.334  31.384  1.00  0.00     0.173 A 
ATOM     73  C   UNL A   1      36.830  33.396  29.320  1.00  0.00     0.173 A 
ATOM     74  F   UNL A   1      36.496  31.522  32.414  1.00  0.00    -0.203 F 
ATOM     75  C   UNL A   1      34.949  32.903  31.299  1.00  0.00     0.198 A 
ATOM     76  C   UNL A   1      35.571  33.988  29.252  1.00  0.00     0.198 A 
ATOM     77  F   UNL A   1      37.716  33.646  28.345  1.00  0.00    -0.203 F 
ATOM     78  F   UNL A   1      34.030  32.631  32.237  1.00  0.00    -0.200 F 
ATOM     79  C   UNL A   1      34.628  33.734  30.236  1.00  0.00     0.200 A 
ATOM     80  F   UNL A   1      35.269  34.800  28.230  1.00  0.00    -0.200 F 
ATOM     81  F   UNL A   1      33.407  34.280  30.154  1.00  0.00    -0.200 F 
ENDBRANCH  47  71
BRANCH  59  82
ATOM     82  C   UNL A   1      43.226  34.372  33.327  1.00  0.00     0.064 A 
ATOM     83  C   UNL A   1      43.093  34.475  34.719  1.00  0.00     0.173 A 
ATOM     84  C   UNL A   1      43.824  35.441  32.641  1.00  0.00     0.173 A 
ATOM     85  F   UNL A   1      42.512  33.486  35.416  1.00  0.00    -0.203 F 
ATOM     86  C   UNL A   1      43.521  35.614  35.396  1.00  0.00     0.198 A 
ATOM     87  C   UNL A   1      44.277  36.565  33.325  1.00  0.00     0.198 A 
ATOM     88  F   UNL A   1      43.980  35.388  31.310  1.00  0.00    -0.203 F 
ATOM     89  F   UNL A   1      43.344  35.709  36.721  1.00  0.00    -0.200 F 
ATOM     90  C   UNL A   1      44.120  36.654  34.700  1.00  0.00     0.200 A 
ATOM     91  F   UNL A   1      44.866  37.564  32.653  1.00  0.00    -0.200 F 
ATOM     92  F   UNL A   1      44.539  37.745  35.355  1.00  0.00    -0.200 F 
ENDBRANCH  59  82
ENDBRANCH  33  34
ENDBRANCH  25  28
ENDBRANCH  23  24
ENDBRANCH  22  23
ENDBRANCH   1  22
TORSDOF 13
ENDMDL
