MODEL 1
REMARK VINA RESULT:     -13.7      0.000      0.000
REMARK SMILES O=C(COc1ccc(Br)cc1/C=C1\C(=O)Nc2ccc(Br)cc21)NCCCNC(=O)c1ccc(-c2c3nc(c(-c4c(F)c(F)c(F)c(F)c4F)c4ccc([nH]4)c(-c4c(F)c(F)c(F)c(F)c4F)c4nc(c(-c5c(F)c(F)c(F)c(F)c5F)c5ccc2[nH]5)C=C4)C=C3)cc1
REMARK SMILES IDX 25 1 24 2 1 3 2 4 3 6 4 7 5 8 6 9 11 10 7 11 10 12 8 13 9 14
REMARK SMILES IDX 12 15 13 16 14 17 23 18 15 19 16 20 17 21 22 22 18 24 20 25
REMARK SMILES IDX 19 26 21 27 26 28 27 29 28 30 29 31 30 33 31 34 32 35 93 36
REMARK SMILES IDX 33 37 92 38 34 39 35 40 36 41 86 42 37 43 91 44 85 45 87 46
REMARK SMILES IDX 38 47 90 48 84 49 83 50 39 52 71 53 51 54 70 55 52 56 55 57
REMARK SMILES IDX 69 58 88 59 53 60 54 61 68 63 89 64 56 65 40 66 41 67 49 68
REMARK SMILES IDX 42 69 43 70 47 71 50 72 44 73 45 74 48 75 46 76 72 77 73 78
REMARK SMILES IDX 81 79 74 80 75 81 79 82 82 83 76 84 77 85 80 86 78 87 57 88
REMARK SMILES IDX 58 89 66 90 59 91 60 92 64 93 67 94 61 95 62 96 65 97 63 98
REMARK H PARENT 24 5 16 23 28 32 87 51 55 62
REMARK Flexibility Score: inf
ROOT
ATOM      1  C   UNL A   1      32.234  30.066  26.771  1.00  0.00     0.117 C 
ENDROOT
BRANCH   1   2
ATOM      2  N   UNL A   1      33.188  29.722  25.724  1.00  0.00    -0.353 N 
ATOM      3  O   UNL A   1      33.256  27.478  26.202  1.00  0.00    -0.271 OA
ATOM      4  C   UNL A   1      33.452  28.398  25.410  1.00  0.00     0.257 C 
ATOM      5  H   UNL A   1      33.650  30.439  25.233  1.00  0.00     0.163 HD
BRANCH   4   6
ATOM      6  C   UNL A   1      33.942  28.143  23.959  1.00  0.00     0.329 C 
BRANCH   6   7
ATOM      7  O   UNL A   1      33.136  27.437  23.001  1.00  0.00    -0.483 OA
BRANCH   7   8
ATOM      8  C   UNL A   1      31.785  27.721  23.039  1.00  0.00     0.127 A 
ATOM      9  C   UNL A   1      31.360  29.031  22.733  1.00  0.00     0.048 A 
ATOM     10  C   UNL A   1      30.818  26.707  23.265  1.00  0.00     0.018 A 
ATOM     11  C   UNL A   1      30.027  29.415  22.751  1.00  0.00     0.019 A 
ATOM     12  C   UNL A   1      29.475  27.136  23.220  1.00  0.00     0.027 A 
ATOM     13  C   UNL A   1      29.082  28.458  23.012  1.00  0.00     0.018 A 
ATOM     14  Br  UNL A   1      27.254  28.928  23.069  1.00  0.00    -0.051 Br
BRANCH  10  15
ATOM     15  C   UNL A   1      31.154  25.267  23.577  1.00  0.00     0.026 C 
ATOM     16  C   UNL A   1      31.059  24.587  24.751  1.00  0.00     0.050 C 
ATOM     17  C   UNL A   1      30.631  25.134  26.092  1.00  0.00     0.256 C 
ATOM     18  C   UNL A   1      31.851  23.390  25.119  1.00  0.00     0.012 A 
ATOM     19  O   UNL A   1      29.559  25.589  26.432  1.00  0.00    -0.269 OA
ATOM     20  N   UNL A   1      31.643  24.759  26.952  1.00  0.00    -0.321 N 
ATOM     21  C   UNL A   1      32.327  23.675  26.414  1.00  0.00     0.049 A 
ATOM     22  C   UNL A   1      32.014  22.113  24.617  1.00  0.00     0.026 A 
ATOM     23  H   UNL A   1      31.849  25.192  27.812  1.00  0.00     0.170 HD
ATOM     24  C   UNL A   1      33.141  22.838  27.143  1.00  0.00     0.028 A 
ATOM     25  C   UNL A   1      32.744  21.198  25.401  1.00  0.00     0.018 A 
ATOM     26  C   UNL A   1      33.354  21.571  26.616  1.00  0.00     0.018 A 
ATOM     27  Br  UNL A   1      32.814  19.373  24.894  1.00  0.00    -0.051 Br
ENDBRANCH  10  15
ENDBRANCH   7   8
ENDBRANCH   6   7
ENDBRANCH   4   6
ENDBRANCH   1   2
BRANCH   1  28
ATOM     28  C   UNL A   1      31.828  31.527  26.831  1.00  0.00     0.042 C 
BRANCH  28  29
ATOM     29  C   UNL A   1      32.943  32.483  27.220  1.00  0.00     0.118 C 
BRANCH  29  30
ATOM     30  N   UNL A   1      32.499  33.820  27.596  1.00  0.00    -0.352 N 
ATOM     31  C   UNL A   1      33.034  34.697  28.516  1.00  0.00     0.251 C 
ATOM     32  H   UNL A   1      31.699  34.145  27.122  1.00  0.00     0.163 HD
ATOM     33  O   UNL A   1      32.482  35.772  28.730  1.00  0.00    -0.269 OA
BRANCH  31  34
ATOM     34  C   UNL A   1      34.242  34.322  29.289  1.00  0.00     0.039 A 
ATOM     35  C   UNL A   1      35.519  34.581  28.798  1.00  0.00     0.014 A 
ATOM     36  C   UNL A   1      34.090  33.654  30.510  1.00  0.00     0.014 A 
ATOM     37  C   UNL A   1      36.623  33.986  29.400  1.00  0.00     0.010 A 
ATOM     38  C   UNL A   1      35.213  33.148  31.174  1.00  0.00     0.010 A 
ATOM     39  C   UNL A   1      36.483  33.250  30.589  1.00  0.00    -0.014 A 
BRANCH  39  40
ATOM     40  C   UNL A   1      37.681  32.584  31.171  1.00  0.00     0.031 A 
ATOM     41  C   UNL A   1      38.152  32.918  32.563  1.00  0.00     0.074 A 
ATOM     42  C   UNL A   1      38.295  31.608  30.475  1.00  0.00     0.049 A 
ATOM     43  N   UNL A   1      39.133  32.386  33.253  1.00  0.00    -0.248 NA
ATOM     44  C   UNL A   1      37.436  33.986  33.278  1.00  0.00     0.031 C 
ATOM     45  C   UNL A   1      37.929  31.184  29.121  1.00  0.00     0.029 A 
ATOM     46  N   UNL A   1      39.327  30.769  30.816  1.00  0.00    -0.354 N 
ATOM     47  C   UNL A   1      39.157  33.061  34.467  1.00  0.00     0.074 A 
ATOM     48  C   UNL A   1      38.120  34.066  34.412  1.00  0.00     0.031 C 
ATOM     49  C   UNL A   1      38.673  30.125  28.776  1.00  0.00     0.029 A 
ATOM     50  C   UNL A   1      39.615  29.833  29.852  1.00  0.00     0.049 A 
ATOM     51  H   UNL A   1      39.813  30.831  31.671  1.00  0.00     0.167 HD
ATOM     52  C   UNL A   1      39.959  32.847  35.538  1.00  0.00     0.037 A 
ATOM     53  C   UNL A   1      40.538  28.854  29.829  1.00  0.00     0.037 A 
ATOM     54  C   UNL A   1      40.974  31.828  35.605  1.00  0.00     0.049 A 
ATOM     55  C   UNL A   1      41.447  28.672  31.012  1.00  0.00     0.074 A 
ATOM     56  C   UNL A   1      41.817  31.521  36.659  1.00  0.00     0.029 A 
ATOM     57  N   UNL A   1      41.282  30.948  34.578  1.00  0.00    -0.354 N 
ATOM     58  N   UNL A   1      41.446  29.307  32.157  1.00  0.00    -0.248 NA
ATOM     59  C   UNL A   1      42.490  27.644  30.895  1.00  0.00     0.031 C 
ATOM     60  C   UNL A   1      42.668  30.488  36.253  1.00  0.00     0.029 A 
ATOM     61  C   UNL A   1      42.321  30.116  34.965  1.00  0.00     0.049 A 
ATOM     62  H   UNL A   1      40.830  30.919  33.704  1.00  0.00     0.167 HD
ATOM     63  C   UNL A   1      42.478  28.752  32.901  1.00  0.00     0.074 A 
ATOM     64  C   UNL A   1      43.069  27.711  32.086  1.00  0.00     0.031 C 
ATOM     65  C   UNL A   1      42.901  29.084  34.144  1.00  0.00     0.037 A 
BRANCH  52  66
ATOM     66  C   UNL A   1      39.779  33.730  36.740  1.00  0.00     0.064 A 
ATOM     67  C   UNL A   1      40.388  34.991  36.823  1.00  0.00     0.173 A 
ATOM     68  C   UNL A   1      38.920  33.346  37.782  1.00  0.00     0.173 A 
ATOM     69  F   UNL A   1      41.223  35.402  35.857  1.00  0.00    -0.203 F 
ATOM     70  C   UNL A   1      40.156  35.828  37.912  1.00  0.00     0.198 A 
ATOM     71  C   UNL A   1      38.670  34.197  38.856  1.00  0.00     0.198 A 
ATOM     72  F   UNL A   1      38.304  32.155  37.747  1.00  0.00    -0.203 F 
ATOM     73  F   UNL A   1      40.773  37.015  37.986  1.00  0.00    -0.200 F 
ATOM     74  C   UNL A   1      39.290  35.435  38.922  1.00  0.00     0.200 A 
ATOM     75  F   UNL A   1      37.820  33.823  39.823  1.00  0.00    -0.200 F 
ATOM     76  F   UNL A   1      39.055  36.251  39.959  1.00  0.00    -0.200 F 
ENDBRANCH  52  66
BRANCH  53  77
ATOM     77  C   UNL A   1      40.639  27.969  28.639  1.00  0.00     0.064 A 
ATOM     78  C   UNL A   1      39.935  26.759  28.580  1.00  0.00     0.173 A 
ATOM     79  C   UNL A   1      41.412  28.331  27.526  1.00  0.00     0.173 A 
ATOM     80  F   UNL A   1      39.199  26.360  29.628  1.00  0.00    -0.203 F 
ATOM     81  C   UNL A   1      40.004  25.943  27.453  1.00  0.00     0.198 A 
ATOM     82  C   UNL A   1      41.455  27.529  26.388  1.00  0.00     0.198 A 
ATOM     83  F   UNL A   1      42.101  29.482  27.531  1.00  0.00    -0.203 F 
ATOM     84  F   UNL A   1      39.346  24.776  27.432  1.00  0.00    -0.200 F 
ATOM     85  C   UNL A   1      40.755  26.334  26.355  1.00  0.00     0.200 A 
ATOM     86  F   UNL A   1      42.167  27.920  25.322  1.00  0.00    -0.200 F 
ATOM     87  F   UNL A   1      40.806  25.556  25.264  1.00  0.00    -0.200 F 
ENDBRANCH  53  77
BRANCH  65  88
ATOM     88  C   UNL A   1      44.055  28.313  34.714  1.00  0.00     0.064 A 
ATOM     89  C   UNL A   1      45.373  28.781  34.602  1.00  0.00     0.173 A 
ATOM     90  C   UNL A   1      43.836  27.135  35.445  1.00  0.00     0.173 A 
ATOM     91  F   UNL A   1      45.635  29.895  33.901  1.00  0.00    -0.203 F 
ATOM     92  C   UNL A   1      46.429  28.094  35.192  1.00  0.00     0.198 A 
ATOM     93  C   UNL A   1      44.891  26.465  36.057  1.00  0.00     0.198 A 
ATOM     94  F   UNL A   1      42.594  26.650  35.587  1.00  0.00    -0.203 F 
ATOM     95  F   UNL A   1      47.684  28.543  35.046  1.00  0.00    -0.200 F 
ATOM     96  C   UNL A   1      46.187  26.943  35.928  1.00  0.00     0.200 A 
ATOM     97  F   UNL A   1      44.654  25.362  36.781  1.00  0.00    -0.200 F 
ATOM     98  F   UNL A   1      47.204  26.293  36.511  1.00  0.00    -0.200 F 
ENDBRANCH  65  88
ENDBRANCH  39  40
ENDBRANCH  31  34
ENDBRANCH  29  30
ENDBRANCH  28  29
ENDBRANCH   1  28
TORSDOF 13
ENDMDL
MODEL 2
REMARK VINA RESULT:     -13.6      0.160      1.566
REMARK SMILES O=C(COc1ccc(Br)cc1/C=C1\C(=O)Nc2ccc(Br)cc21)NCCCNC(=O)c1ccc(-c2c3nc(c(-c4c(F)c(F)c(F)c(F)c4F)c4ccc([nH]4)c(-c4c(F)c(F)c(F)c(F)c4F)c4nc(c(-c5c(F)c(F)c(F)c(F)c5F)c5ccc2[nH]5)C=C4)C=C3)cc1
REMARK SMILES IDX 25 1 24 2 1 3 2 4 3 6 4 7 5 8 6 9 11 10 7 11 10 12 8 13 9 14
REMARK SMILES IDX 12 15 13 16 14 17 23 18 15 19 16 20 17 21 22 22 18 24 20 25
REMARK SMILES IDX 19 26 21 27 26 28 27 29 28 30 29 31 30 33 31 34 32 35 93 36
REMARK SMILES IDX 33 37 92 38 34 39 35 40 36 41 86 42 37 43 91 44 85 45 87 46
REMARK SMILES IDX 38 47 90 48 84 49 83 50 39 52 71 53 51 54 70 55 52 56 55 57
REMARK SMILES IDX 69 58 88 59 53 60 54 61 68 63 89 64 56 65 40 66 41 67 49 68
REMARK SMILES IDX 42 69 43 70 47 71 50 72 44 73 45 74 48 75 46 76 72 77 73 78
REMARK SMILES IDX 81 79 74 80 75 81 79 82 82 83 76 84 77 85 80 86 78 87 57 88
REMARK SMILES IDX 58 89 66 90 59 91 60 92 64 93 67 94 61 95 62 96 65 97 63 98
REMARK H PARENT 24 5 16 23 28 32 87 51 55 62
REMARK Flexibility Score: inf
ROOT
ATOM      1  C   UNL A   1      32.136  30.102  26.722  1.00  0.00     0.117 C 
ENDROOT
BRANCH   1   2
ATOM      2  N   UNL A   1      33.133  29.747  25.720  1.00  0.00    -0.353 N 
ATOM      3  O   UNL A   1      33.206  27.514  26.245  1.00  0.00    -0.271 OA
ATOM      4  C   UNL A   1      33.422  28.420  25.443  1.00  0.00     0.257 C 
ATOM      5  H   UNL A   1      33.606  30.459  25.232  1.00  0.00     0.163 HD
BRANCH   4   6
ATOM      6  C   UNL A   1      33.971  28.142  24.017  1.00  0.00     0.329 C 
BRANCH   6   7
ATOM      7  O   UNL A   1      33.182  27.471  23.021  1.00  0.00    -0.483 OA
BRANCH   7   8
ATOM      8  C   UNL A   1      31.830  27.752  23.046  1.00  0.00     0.127 A 
ATOM      9  C   UNL A   1      31.405  29.062  22.738  1.00  0.00     0.048 A 
ATOM     10  C   UNL A   1      30.863  26.736  23.263  1.00  0.00     0.018 A 
ATOM     11  C   UNL A   1      30.071  29.443  22.743  1.00  0.00     0.019 A 
ATOM     12  C   UNL A   1      29.520  27.162  23.205  1.00  0.00     0.027 A 
ATOM     13  C   UNL A   1      29.126  28.484  22.995  1.00  0.00     0.018 A 
ATOM     14  Br  UNL A   1      27.297  28.949  23.036  1.00  0.00    -0.051 Br
BRANCH  10  15
ATOM     15  C   UNL A   1      31.200  25.297  23.576  1.00  0.00     0.026 C 
ATOM     16  C   UNL A   1      31.093  24.615  24.748  1.00  0.00     0.050 C 
ATOM     17  C   UNL A   1      30.648  25.159  26.085  1.00  0.00     0.256 C 
ATOM     18  C   UNL A   1      31.884  23.420  25.124  1.00  0.00     0.012 A 
ATOM     19  O   UNL A   1      29.571  25.610  26.414  1.00  0.00    -0.269 OA
ATOM     20  N   UNL A   1      31.651  24.786  26.957  1.00  0.00    -0.321 N 
ATOM     21  C   UNL A   1      32.345  23.704  26.425  1.00  0.00     0.049 A 
ATOM     22  C   UNL A   1      32.056  22.144  24.622  1.00  0.00     0.026 A 
ATOM     23  H   UNL A   1      31.846  25.218  27.819  1.00  0.00     0.170 HD
ATOM     24  C   UNL A   1      33.152  22.868  27.162  1.00  0.00     0.028 A 
ATOM     25  C   UNL A   1      32.780  21.230  25.413  1.00  0.00     0.018 A 
ATOM     26  C   UNL A   1      33.375  21.602  26.636  1.00  0.00     0.018 A 
ATOM     27  Br  UNL A   1      32.861  19.406  24.905  1.00  0.00    -0.051 Br
ENDBRANCH  10  15
ENDBRANCH   7   8
ENDBRANCH   6   7
ENDBRANCH   4   6
ENDBRANCH   1   2
BRANCH   1  28
ATOM     28  C   UNL A   1      31.765  31.572  26.784  1.00  0.00     0.042 C 
BRANCH  28  29
ATOM     29  C   UNL A   1      32.885  32.493  27.236  1.00  0.00     0.118 C 
BRANCH  29  30
ATOM     30  N   UNL A   1      32.460  33.838  27.607  1.00  0.00    -0.352 N 
ATOM     31  C   UNL A   1      33.015  34.716  28.513  1.00  0.00     0.251 C 
ATOM     32  H   UNL A   1      31.657  34.168  27.140  1.00  0.00     0.163 HD
ATOM     33  O   UNL A   1      32.477  35.798  28.726  1.00  0.00    -0.269 OA
BRANCH  31  34
ATOM     34  C   UNL A   1      34.229  34.335  29.275  1.00  0.00     0.039 A 
ATOM     35  C   UNL A   1      35.503  34.601  28.779  1.00  0.00     0.014 A 
ATOM     36  C   UNL A   1      34.085  33.653  30.489  1.00  0.00     0.014 A 
ATOM     37  C   UNL A   1      36.611  34.001  29.367  1.00  0.00     0.010 A 
ATOM     38  C   UNL A   1      35.213  33.142  31.140  1.00  0.00     0.010 A 
ATOM     39  C   UNL A   1      36.480  33.251  30.548  1.00  0.00    -0.014 A 
BRANCH  39  40
ATOM     40  C   UNL A   1      37.682  32.581  31.115  1.00  0.00     0.031 A 
ATOM     41  C   UNL A   1      38.169  32.909  32.504  1.00  0.00     0.074 A 
ATOM     42  C   UNL A   1      38.287  31.605  30.409  1.00  0.00     0.049 A 
ATOM     43  N   UNL A   1      39.156  32.373  33.181  1.00  0.00    -0.248 NA
ATOM     44  C   UNL A   1      37.463  33.976  33.230  1.00  0.00     0.031 C 
ATOM     45  C   UNL A   1      37.905  31.188  29.059  1.00  0.00     0.029 A 
ATOM     46  N   UNL A   1      39.320  30.763  30.737  1.00  0.00    -0.354 N 
ATOM     47  C   UNL A   1      39.194  33.043  34.397  1.00  0.00     0.074 A 
ATOM     48  C   UNL A   1      38.158  34.051  34.356  1.00  0.00     0.031 C 
ATOM     49  C   UNL A   1      38.643  30.127  28.702  1.00  0.00     0.029 A 
ATOM     50  C   UNL A   1      39.596  29.831  29.767  1.00  0.00     0.049 A 
ATOM     51  H   UNL A   1      39.815  30.822  31.586  1.00  0.00     0.167 HD
ATOM     52  C   UNL A   1      40.007  32.824  35.459  1.00  0.00     0.037 A 
ATOM     53  C   UNL A   1      40.517  28.849  29.730  1.00  0.00     0.037 A 
ATOM     54  C   UNL A   1      41.020  31.802  35.512  1.00  0.00     0.049 A 
ATOM     55  C   UNL A   1      41.437  28.661  30.903  1.00  0.00     0.074 A 
ATOM     56  C   UNL A   1      41.874  31.490  36.555  1.00  0.00     0.029 A 
ATOM     57  N   UNL A   1      41.315  30.925  34.479  1.00  0.00    -0.354 N 
ATOM     58  N   UNL A   1      41.450  29.292  32.051  1.00  0.00    -0.248 NA
ATOM     59  C   UNL A   1      42.477  27.631  30.771  1.00  0.00     0.031 C 
ATOM     60  C   UNL A   1      42.718  30.457  36.137  1.00  0.00     0.029 A 
ATOM     61  C   UNL A   1      42.357  30.090  34.852  1.00  0.00     0.049 A 
ATOM     62  H   UNL A   1      40.854  30.900  33.609  1.00  0.00     0.167 HD
ATOM     63  C   UNL A   1      42.489  28.733  32.781  1.00  0.00     0.074 A 
ATOM     64  C   UNL A   1      43.069  27.693  31.957  1.00  0.00     0.031 C 
ATOM     65  C   UNL A   1      42.926  29.059  34.022  1.00  0.00     0.037 A 
BRANCH  52  66
ATOM     66  C   UNL A   1      39.841  33.704  36.666  1.00  0.00     0.064 A 
ATOM     67  C   UNL A   1      40.478  34.949  36.759  1.00  0.00     0.173 A 
ATOM     68  C   UNL A   1      38.970  33.332  37.702  1.00  0.00     0.173 A 
ATOM     69  F   UNL A   1      41.327  35.348  35.800  1.00  0.00    -0.203 F 
ATOM     70  C   UNL A   1      40.261  35.785  37.853  1.00  0.00     0.198 A 
ATOM     71  C   UNL A   1      38.734  34.182  38.780  1.00  0.00     0.198 A 
ATOM     72  F   UNL A   1      38.327  32.156  37.656  1.00  0.00    -0.203 F 
ATOM     73  F   UNL A   1      40.904  36.958  37.937  1.00  0.00    -0.200 F 
ATOM     74  C   UNL A   1      39.381  35.405  38.857  1.00  0.00     0.200 A 
ATOM     75  F   UNL A   1      37.871  33.821  39.741  1.00  0.00    -0.200 F 
ATOM     76  F   UNL A   1      39.160  36.220  39.898  1.00  0.00    -0.200 F 
ENDBRANCH  52  66
BRANCH  53  77
ATOM     77  C   UNL A   1      40.603  27.969  28.537  1.00  0.00     0.064 A 
ATOM     78  C   UNL A   1      41.381  28.331  27.429  1.00  0.00     0.173 A 
ATOM     79  C   UNL A   1      39.938  26.734  28.493  1.00  0.00     0.173 A 
ATOM     80  F   UNL A   1      42.020  29.510  27.415  1.00  0.00    -0.203 F 
ATOM     81  C   UNL A   1      41.488  27.492  26.321  1.00  0.00     0.198 A 
ATOM     82  C   UNL A   1      40.070  25.883  27.398  1.00  0.00     0.198 A 
ATOM     83  F   UNL A   1      39.184  26.340  29.530  1.00  0.00    -0.203 F 
ATOM     84  F   UNL A   1      42.214  27.874  25.262  1.00  0.00    -0.200 F 
ATOM     85  C   UNL A   1      40.841  26.265  26.312  1.00  0.00     0.200 A 
ATOM     86  F   UNL A   1      39.459  24.691  27.401  1.00  0.00    -0.200 F 
ATOM     87  F   UNL A   1      40.960  25.451  25.253  1.00  0.00    -0.200 F 
ENDBRANCH  53  77
BRANCH  65  88
ATOM     88  C   UNL A   1      44.084  28.284  34.577  1.00  0.00     0.064 A 
ATOM     89  C   UNL A   1      43.893  27.076  35.264  1.00  0.00     0.173 A 
ATOM     90  C   UNL A   1      45.402  28.711  34.353  1.00  0.00     0.173 A 
ATOM     91  F   UNL A   1      42.651  26.633  35.515  1.00  0.00    -0.203 F 
ATOM     92  C   UNL A   1      44.977  26.331  35.716  1.00  0.00     0.198 A 
ATOM     93  C   UNL A   1      46.485  27.949  34.782  1.00  0.00     0.198 A 
ATOM     94  F   UNL A   1      45.638  29.856  33.694  1.00  0.00    -0.203 F 
ATOM     95  F   UNL A   1      44.770  25.195  36.398  1.00  0.00    -0.200 F 
ATOM     96  C   UNL A   1      46.272  26.762  35.466  1.00  0.00     0.200 A 
ATOM     97  F   UNL A   1      47.735  28.359  34.526  1.00  0.00    -0.200 F 
ATOM     98  F   UNL A   1      47.314  26.032  35.886  1.00  0.00    -0.200 F 
ENDBRANCH  65  88
ENDBRANCH  39  40
ENDBRANCH  31  34
ENDBRANCH  29  30
ENDBRANCH  28  29
ENDBRANCH   1  28
TORSDOF 13
ENDMDL
MODEL 3
REMARK VINA RESULT:     -13.4      5.431     10.957
REMARK SMILES O=C(COc1ccc(Br)cc1/C=C1\C(=O)Nc2ccc(Br)cc21)NCCCNC(=O)c1ccc(-c2c3nc(c(-c4c(F)c(F)c(F)c(F)c4F)c4ccc([nH]4)c(-c4c(F)c(F)c(F)c(F)c4F)c4nc(c(-c5c(F)c(F)c(F)c(F)c5F)c5ccc2[nH]5)C=C4)C=C3)cc1
REMARK SMILES IDX 25 1 24 2 1 3 2 4 3 6 4 7 5 8 6 9 11 10 7 11 10 12 8 13 9 14
REMARK SMILES IDX 12 15 13 16 14 17 23 18 15 19 16 20 17 21 22 22 18 24 20 25
REMARK SMILES IDX 19 26 21 27 26 28 27 29 28 30 29 31 30 33 31 34 32 35 93 36
REMARK SMILES IDX 33 37 92 38 34 39 35 40 36 41 86 42 37 43 91 44 85 45 87 46
REMARK SMILES IDX 38 47 90 48 84 49 83 50 39 52 71 53 51 54 70 55 52 56 55 57
REMARK SMILES IDX 69 58 88 59 53 60 54 61 68 63 89 64 56 65 40 66 41 67 49 68
REMARK SMILES IDX 42 69 43 70 47 71 50 72 44 73 45 74 48 75 46 76 72 77 73 78
REMARK SMILES IDX 81 79 74 80 75 81 79 82 82 83 76 84 77 85 80 86 78 87 57 88
REMARK SMILES IDX 58 89 66 90 59 91 60 92 64 93 67 94 61 95 62 96 65 97 63 98
REMARK H PARENT 24 5 16 23 28 32 87 51 55 62
REMARK Flexibility Score: inf
ROOT
ATOM      1  C   UNL A   1      37.380  21.709  24.939  1.00  0.00     0.117 C 
ENDROOT
BRANCH   1   2
ATOM      2  N   UNL A   1      36.587  22.032  26.117  1.00  0.00    -0.353 N 
ATOM      3  O   UNL A   1      35.567  23.879  25.214  1.00  0.00    -0.271 OA
ATOM      4  C   UNL A   1      35.586  22.989  26.062  1.00  0.00     0.257 C 
ATOM      5  H   UNL A   1      36.764  21.563  26.965  1.00  0.00     0.163 HD
BRANCH   4   6
ATOM      6  C   UNL A   1      34.443  22.818  27.100  1.00  0.00     0.329 C 
BRANCH   6   7
ATOM      7  O   UNL A   1      33.088  22.562  26.696  1.00  0.00    -0.483 OA
BRANCH   7   8
ATOM      8  C   UNL A   1      32.931  21.592  25.725  1.00  0.00     0.127 A 
ATOM      9  C   UNL A   1      33.423  20.295  25.978  1.00  0.00     0.048 A 
ATOM     10  C   UNL A   1      32.194  21.840  24.538  1.00  0.00     0.018 A 
ATOM     11  C   UNL A   1      33.320  19.256  25.065  1.00  0.00     0.019 A 
ATOM     12  C   UNL A   1      32.070  20.739  23.665  1.00  0.00     0.027 A 
ATOM     13  C   UNL A   1      32.650  19.491  23.893  1.00  0.00     0.018 A 
ATOM     14  Br  UNL A   1      32.496  18.121  22.603  1.00  0.00    -0.051 Br
BRANCH  10  15
ATOM     15  C   UNL A   1      31.599  23.181  24.172  1.00  0.00     0.026 C 
ATOM     16  C   UNL A   1      32.065  24.134  23.321  1.00  0.00     0.050 C 
ATOM     17  C   UNL A   1      33.361  24.114  22.545  1.00  0.00     0.256 C 
ATOM     18  C   UNL A   1      31.741  25.579  23.386  1.00  0.00     0.012 A 
ATOM     19  O   UNL A   1      33.723  23.357  21.669  1.00  0.00    -0.269 OA
ATOM     20  N   UNL A   1      33.960  25.319  22.850  1.00  0.00    -0.321 N 
ATOM     21  C   UNL A   1      32.992  26.219  23.282  1.00  0.00     0.049 A 
ATOM     22  C   UNL A   1      30.593  26.345  23.308  1.00  0.00     0.026 A 
ATOM     23  H   UNL A   1      34.923  25.511  22.775  1.00  0.00     0.170 HD
ATOM     24  C   UNL A   1      33.171  27.583  23.324  1.00  0.00     0.028 A 
ATOM     25  C   UNL A   1      30.753  27.742  23.230  1.00  0.00     0.018 A 
ATOM     26  C   UNL A   1      32.019  28.359  23.301  1.00  0.00     0.018 A 
ATOM     27  Br  UNL A   1      29.248  28.842  22.887  1.00  0.00    -0.051 Br
ENDBRANCH  10  15
ENDBRANCH   7   8
ENDBRANCH   6   7
ENDBRANCH   4   6
ENDBRANCH   1   2
BRANCH   1  28
ATOM     28  C   UNL A   1      38.128  20.390  24.993  1.00  0.00     0.042 C 
BRANCH  28  29
ATOM     29  C   UNL A   1      39.203  20.312  26.064  1.00  0.00     0.118 C 
BRANCH  29  30
ATOM     30  N   UNL A   1      40.154  19.218  25.896  1.00  0.00    -0.352 N 
ATOM     31  C   UNL A   1      41.526  19.219  26.035  1.00  0.00     0.251 C 
ATOM     32  H   UNL A   1      39.757  18.352  25.648  1.00  0.00     0.163 HD
ATOM     33  O   UNL A   1      42.165  18.198  25.802  1.00  0.00    -0.269 OA
BRANCH  31  34
ATOM     34  C   UNL A   1      42.237  20.464  26.411  1.00  0.00     0.039 A 
ATOM     35  C   UNL A   1      42.313  20.877  27.739  1.00  0.00     0.014 A 
ATOM     36  C   UNL A   1      42.799  21.258  25.404  1.00  0.00     0.014 A 
ATOM     37  C   UNL A   1      42.741  22.166  28.036  1.00  0.00     0.010 A 
ATOM     38  C   UNL A   1      43.330  22.514  25.720  1.00  0.00     0.010 A 
ATOM     39  C   UNL A   1      43.242  23.008  27.029  1.00  0.00    -0.014 A 
BRANCH  39  40
ATOM     40  C   UNL A   1      43.639  24.399  27.382  1.00  0.00     0.031 A 
ATOM     41  C   UNL A   1      45.034  24.900  27.107  1.00  0.00     0.074 A 
ATOM     42  C   UNL A   1      42.710  25.245  27.869  1.00  0.00     0.049 A 
ATOM     43  N   UNL A   1      45.530  26.101  27.285  1.00  0.00    -0.248 NA
ATOM     44  C   UNL A   1      46.001  23.933  26.565  1.00  0.00     0.031 C 
ATOM     45  C   UNL A   1      41.323  24.885  28.170  1.00  0.00     0.029 A 
ATOM     46  N   UNL A   1      42.776  26.585  28.163  1.00  0.00    -0.354 N 
ATOM     47  C   UNL A   1      46.860  26.027  26.891  1.00  0.00     0.074 A 
ATOM     48  C   UNL A   1      47.109  24.658  26.499  1.00  0.00     0.031 C 
ATOM     49  C   UNL A   1      40.653  25.987  28.537  1.00  0.00     0.029 A 
ATOM     50  C   UNL A   1      41.575  27.118  28.563  1.00  0.00     0.049 A 
ATOM     51  H   UNL A   1      43.604  27.112  28.092  1.00  0.00     0.167 HD
ATOM     52  C   UNL A   1      47.784  27.017  26.843  1.00  0.00     0.037 A 
ATOM     53  C   UNL A   1      41.249  28.374  28.921  1.00  0.00     0.037 A 
ATOM     54  C   UNL A   1      47.530  28.387  27.207  1.00  0.00     0.049 A 
ATOM     55  C   UNL A   1      42.306  29.441  28.904  1.00  0.00     0.074 A 
ATOM     56  C   UNL A   1      48.399  29.464  27.165  1.00  0.00     0.029 A 
ATOM     57  N   UNL A   1      46.318  28.870  27.676  1.00  0.00    -0.354 N 
ATOM     58  N   UNL A   1      43.554  29.359  28.514  1.00  0.00    -0.248 NA
ATOM     59  C   UNL A   1      41.913  30.772  29.386  1.00  0.00     0.031 C 
ATOM     60  C   UNL A   1      47.727  30.588  27.655  1.00  0.00     0.029 A 
ATOM     61  C   UNL A   1      46.425  30.224  27.953  1.00  0.00     0.049 A 
ATOM     62  H   UNL A   1      45.503  28.331  27.796  1.00  0.00     0.167 HD
ATOM     63  C   UNL A   1      44.093  30.625  28.694  1.00  0.00     0.074 A 
ATOM     64  C   UNL A   1      43.030  31.465  29.205  1.00  0.00     0.031 C 
ATOM     65  C   UNL A   1      45.359  31.049  28.462  1.00  0.00     0.037 A 
BRANCH  52  66
ATOM     66  C   UNL A   1      49.169  26.666  26.376  1.00  0.00     0.064 A 
ATOM     67  C   UNL A   1      49.567  26.860  25.046  1.00  0.00     0.173 A 
ATOM     68  C   UNL A   1      50.132  26.208  27.290  1.00  0.00     0.173 A 
ATOM     69  F   UNL A   1      48.684  27.288  24.132  1.00  0.00    -0.203 F 
ATOM     70  C   UNL A   1      50.875  26.594  24.643  1.00  0.00     0.198 A 
ATOM     71  C   UNL A   1      51.444  25.970  26.890  1.00  0.00     0.198 A 
ATOM     72  F   UNL A   1      49.806  26.016  28.577  1.00  0.00    -0.203 F 
ATOM     73  F   UNL A   1      51.225  26.757  23.360  1.00  0.00    -0.200 F 
ATOM     74  C   UNL A   1      51.814  26.160  25.567  1.00  0.00     0.200 A 
ATOM     75  F   UNL A   1      52.355  25.566  27.787  1.00  0.00    -0.200 F 
ATOM     76  F   UNL A   1      53.075  25.924  25.181  1.00  0.00    -0.200 F 
ENDBRANCH  52  66
BRANCH  53  77
ATOM     77  C   UNL A   1      39.851  28.683  29.320  1.00  0.00     0.064 A 
ATOM     78  C   UNL A   1      38.916  29.133  28.377  1.00  0.00     0.173 A 
ATOM     79  C   UNL A   1      39.414  28.504  30.641  1.00  0.00     0.173 A 
ATOM     80  F   UNL A   1      39.291  29.339  27.107  1.00  0.00    -0.203 F 
ATOM     81  C   UNL A   1      37.597  29.394  28.743  1.00  0.00     0.198 A 
ATOM     82  C   UNL A   1      38.088  28.736  30.998  1.00  0.00     0.198 A 
ATOM     83  F   UNL A   1      40.269  28.072  31.579  1.00  0.00    -0.203 F 
ATOM     84  F   UNL A   1      36.730  29.851  27.830  1.00  0.00    -0.200 F 
ATOM     85  C   UNL A   1      37.182  29.186  30.050  1.00  0.00     0.200 A 
ATOM     86  F   UNL A   1      37.687  28.516  32.257  1.00  0.00    -0.200 F 
ATOM     87  F   UNL A   1      35.909  29.420  30.396  1.00  0.00    -0.200 F 
ENDBRANCH  53  77
BRANCH  65  88
ATOM     88  C   UNL A   1      45.674  32.487  28.750  1.00  0.00     0.064 A 
ATOM     89  C   UNL A   1      46.207  32.885  29.984  1.00  0.00     0.173 A 
ATOM     90  C   UNL A   1      45.513  33.466  27.757  1.00  0.00     0.173 A 
ATOM     91  F   UNL A   1      46.366  31.989  30.971  1.00  0.00    -0.203 F 
ATOM     92  C   UNL A   1      46.559  34.211  30.218  1.00  0.00     0.198 A 
ATOM     93  C   UNL A   1      45.891  34.786  27.984  1.00  0.00     0.198 A 
ATOM     94  F   UNL A   1      45.013  33.134  26.557  1.00  0.00    -0.203 F 
ATOM     95  F   UNL A   1      47.038  34.575  31.416  1.00  0.00    -0.200 F 
ATOM     96  C   UNL A   1      46.411  35.159  29.214  1.00  0.00     0.200 A 
ATOM     97  F   UNL A   1      45.763  35.696  27.009  1.00  0.00    -0.200 F 
ATOM     98  F   UNL A   1      46.767  36.431  29.436  1.00  0.00    -0.200 F 
ENDBRANCH  65  88
ENDBRANCH  39  40
ENDBRANCH  31  34
ENDBRANCH  29  30
ENDBRANCH  28  29
ENDBRANCH   1  28
TORSDOF 13
ENDMDL
