MODEL 1
REMARK VINA RESULT:     -13.7      0.000      0.000
REMARK SMILES Cc1ccc(Nc2c(F)cccc2Cl)c(CC(=O)NCCCNC(=O)c2ccc(-c3c4nc(c(-c5c(F)c(F)c(F)c(F)c5F)c5ccc([nH]5)c(-c5c(F)c(F)c(F)c(F)c5F)c5nc(c(-c6c(F)c(F)c(F)c(F)c6F)c6ccc3[nH]6)C=C5)C=C4)cc2)c1
REMARK SMILES IDX 20 1 19 2 17 3 18 4 16 6 15 7 1 8 2 9 3 10 89 11 4 12 5 13
REMARK SMILES IDX 6 14 7 16 8 17 13 18 9 19 10 20 12 21 14 22 11 23 21 24
REMARK SMILES IDX 22 25 23 26 24 27 25 29 26 30 27 31 88 32 28 33 87 34 29 35
REMARK SMILES IDX 30 36 31 37 81 38 32 39 86 40 80 41 82 42 33 43 85 44 79 45
REMARK SMILES IDX 78 46 34 48 66 49 46 50 65 51 47 52 50 53 64 54 83 55 48 56
REMARK SMILES IDX 49 57 63 59 84 60 51 61 35 62 36 63 44 64 37 65 38 66 42 67
REMARK SMILES IDX 45 68 39 69 40 70 43 71 41 72 67 73 68 74 76 75 69 76 70 77
REMARK SMILES IDX 74 78 77 79 71 80 72 81 75 82 73 83 52 84 53 85 61 86 54 87
REMARK SMILES IDX 55 88 59 89 62 90 56 91 57 92 60 93 58 94
REMARK H PARENT 19 5 6 15 23 28 82 47 50 58
REMARK Flexibility Score: inf
ROOT
ATOM      1  C   UNL A   1      37.175  21.385  25.057  1.00  0.00     0.117 C 
ENDROOT
BRANCH   1   2
ATOM      2  N   UNL A   1      36.200  21.712  26.087  1.00  0.00    -0.356 N 
ATOM      3  C   UNL A   1      35.424  22.829  26.214  1.00  0.00     0.224 C 
ATOM      4  O   UNL A   1      34.732  22.950  27.229  1.00  0.00    -0.275 OA
ATOM      5  H   UNL A   1      36.083  21.033  26.790  1.00  0.00     0.163 HD
BRANCH   3   6
ATOM      6  C   UNL A   1      35.432  23.919  25.154  1.00  0.00     0.137 C 
BRANCH   6   7
ATOM      7  C   UNL A   1      34.174  23.947  24.313  1.00  0.00    -0.015 A 
ATOM      8  C   UNL A   1      32.131  21.339  22.395  1.00  0.00     0.044 C 
ATOM      9  C   UNL A   1      32.588  22.644  22.972  1.00  0.00    -0.051 A 
ATOM     10  C   UNL A   1      31.969  23.830  22.584  1.00  0.00     0.005 A 
ATOM     11  C   UNL A   1      33.658  22.708  23.868  1.00  0.00     0.009 A 
ATOM     12  C   UNL A   1      32.434  25.058  23.065  1.00  0.00     0.026 A 
ATOM     13  C   UNL A   1      33.551  25.151  23.911  1.00  0.00     0.042 A 
BRANCH  13  14
ATOM     14  N   UNL A   1      34.020  26.407  24.354  1.00  0.00    -0.352 N 
ATOM     15  H   UNL A   1      34.950  26.617  24.112  1.00  0.00     0.167 HD
BRANCH  14  16
ATOM     16  C   UNL A   1      33.346  27.407  25.096  1.00  0.00     0.094 A 
ATOM     17  C   UNL A   1      32.796  27.155  26.363  1.00  0.00     0.148 A 
ATOM     18  C   UNL A   1      33.115  28.679  24.539  1.00  0.00     0.067 A 
ATOM     19  F   UNL A   1      32.988  25.969  26.962  1.00  0.00    -0.205 F 
ATOM     20  C   UNL A   1      32.049  28.114  27.049  1.00  0.00     0.041 A 
ATOM     21  C   UNL A   1      32.364  29.646  25.219  1.00  0.00     0.023 A 
ATOM     22  Cl  UNL A   1      33.701  29.082  22.959  1.00  0.00    -0.082 Cl
ATOM     23  C   UNL A   1      31.828  29.362  26.474  1.00  0.00     0.005 A 
ENDBRANCH  14  16
ENDBRANCH  13  14
ENDBRANCH   6   7
ENDBRANCH   3   6
ENDBRANCH   1   2
BRANCH   1  24
ATOM     24  C   UNL A   1      38.606  21.393  25.586  1.00  0.00     0.042 C 
BRANCH  24  25
ATOM     25  C   UNL A   1      39.027  22.694  26.250  1.00  0.00     0.118 C 
BRANCH  25  26
ATOM     26  N   UNL A   1      40.474  22.866  26.355  1.00  0.00    -0.352 N 
ATOM     27  C   UNL A   1      41.191  24.023  26.614  1.00  0.00     0.251 C 
ATOM     28  H   UNL A   1      41.011  22.050  26.224  1.00  0.00     0.163 HD
ATOM     29  O   UNL A   1      42.404  24.006  26.701  1.00  0.00    -0.269 OA
BRANCH  27  30
ATOM     30  C   UNL A   1      40.433  25.261  26.911  1.00  0.00     0.039 A 
ATOM     31  C   UNL A   1      40.788  26.428  26.225  1.00  0.00     0.014 A 
ATOM     32  C   UNL A   1      39.576  25.312  28.006  1.00  0.00     0.014 A 
ATOM     33  C   UNL A   1      40.494  27.662  26.799  1.00  0.00     0.010 A 
ATOM     34  C   UNL A   1      39.375  26.528  28.628  1.00  0.00     0.010 A 
ATOM     35  C   UNL A   1      39.902  27.695  28.063  1.00  0.00    -0.014 A 
BRANCH  35  36
ATOM     36  C   UNL A   1      39.920  28.874  28.919  1.00  0.00     0.031 A 
ATOM     37  C   UNL A   1      38.892  29.925  28.788  1.00  0.00     0.074 A 
ATOM     38  C   UNL A   1      40.833  28.953  29.914  1.00  0.00     0.049 A 
ATOM     39  N   UNL A   1      39.010  31.123  29.254  1.00  0.00    -0.248 NA
ATOM     40  C   UNL A   1      37.645  29.709  28.071  1.00  0.00     0.031 C 
ATOM     41  C   UNL A   1      40.845  29.883  31.041  1.00  0.00     0.029 A 
ATOM     42  N   UNL A   1      42.087  28.319  29.976  1.00  0.00    -0.354 N 
ATOM     43  C   UNL A   1      37.786  31.741  29.151  1.00  0.00     0.074 A 
ATOM     44  C   UNL A   1      36.992  30.842  28.345  1.00  0.00     0.031 C 
ATOM     45  C   UNL A   1      42.107  30.013  31.475  1.00  0.00     0.029 A 
ATOM     46  C   UNL A   1      42.954  29.283  30.550  1.00  0.00     0.049 A 
ATOM     47  H   UNL A   1      42.312  27.406  29.685  1.00  0.00     0.167 HD
ATOM     48  C   UNL A   1      37.561  32.885  29.865  1.00  0.00     0.037 A 
ATOM     49  C   UNL A   1      43.983  29.816  29.830  1.00  0.00     0.037 A 
ATOM     50  C   UNL A   1      38.783  33.360  30.518  1.00  0.00     0.049 A 
ATOM     51  C   UNL A   1      43.926  31.320  29.651  1.00  0.00     0.074 A 
ATOM     52  C   UNL A   1      39.286  33.309  31.809  1.00  0.00     0.029 A 
ATOM     53  N   UNL A   1      39.835  33.772  29.721  1.00  0.00    -0.354 N 
ATOM     54  N   UNL A   1      42.934  32.071  30.042  1.00  0.00    -0.248 NA
ATOM     55  C   UNL A   1      44.939  32.078  28.915  1.00  0.00     0.031 C 
ATOM     56  C   UNL A   1      40.656  33.696  31.771  1.00  0.00     0.029 A 
ATOM     57  C   UNL A   1      40.985  33.976  30.458  1.00  0.00     0.049 A 
ATOM     58  H   UNL A   1      39.773  33.903  28.748  1.00  0.00     0.167 HD
ATOM     59  C   UNL A   1      43.124  33.345  29.582  1.00  0.00     0.074 A 
ATOM     60  C   UNL A   1      44.394  33.305  28.884  1.00  0.00     0.031 C 
ATOM     61  C   UNL A   1      42.206  34.338  29.762  1.00  0.00     0.037 A 
BRANCH  48  62
ATOM     62  C   UNL A   1      36.188  33.455  30.164  1.00  0.00     0.064 A 
ATOM     63  C   UNL A   1      35.400  34.012  29.131  1.00  0.00     0.173 A 
ATOM     64  C   UNL A   1      35.611  33.545  31.444  1.00  0.00     0.173 A 
ATOM     65  F   UNL A   1      35.745  33.898  27.843  1.00  0.00    -0.203 F 
ATOM     66  C   UNL A   1      34.213  34.711  29.380  1.00  0.00     0.198 A 
ATOM     67  C   UNL A   1      34.457  34.293  31.702  1.00  0.00     0.198 A 
ATOM     68  F   UNL A   1      36.095  32.853  32.479  1.00  0.00    -0.203 F 
ATOM     69  F   UNL A   1      33.518  35.223  28.355  1.00  0.00    -0.200 F 
ATOM     70  C   UNL A   1      33.765  34.889  30.670  1.00  0.00     0.200 A 
ATOM     71  F   UNL A   1      34.018  34.422  32.963  1.00  0.00    -0.200 F 
ATOM     72  F   UNL A   1      32.656  35.600  30.915  1.00  0.00    -0.200 F 
ENDBRANCH  48  62
BRANCH  49  73
ATOM     73  C   UNL A   1      44.541  28.866  28.830  1.00  0.00     0.064 A 
ATOM     74  C   UNL A   1      45.335  27.795  29.289  1.00  0.00     0.173 A 
ATOM     75  C   UNL A   1      44.027  28.779  27.532  1.00  0.00     0.173 A 
ATOM     76  F   UNL A   1      45.851  27.823  30.528  1.00  0.00    -0.203 F 
ATOM     77  C   UNL A   1      45.497  26.638  28.531  1.00  0.00     0.198 A 
ATOM     78  C   UNL A   1      44.215  27.629  26.765  1.00  0.00     0.198 A 
ATOM     79  F   UNL A   1      43.244  29.752  27.043  1.00  0.00    -0.203 F 
ATOM     80  F   UNL A   1      46.148  25.586  29.049  1.00  0.00    -0.200 F 
ATOM     81  C   UNL A   1      44.916  26.547  27.278  1.00  0.00     0.200 A 
ATOM     82  F   UNL A   1      43.628  27.529  25.564  1.00  0.00    -0.200 F 
ATOM     83  F   UNL A   1      44.990  25.403  26.585  1.00  0.00    -0.200 F 
ENDBRANCH  49  73
BRANCH  61  84
ATOM     84  C   UNL A   1      42.401  35.741  29.276  1.00  0.00     0.064 A 
ATOM     85  C   UNL A   1      41.870  36.190  28.057  1.00  0.00     0.173 A 
ATOM     86  C   UNL A   1      43.234  36.645  29.966  1.00  0.00     0.173 A 
ATOM     87  F   UNL A   1      41.103  35.384  27.306  1.00  0.00    -0.203 F 
ATOM     88  C   UNL A   1      42.130  37.474  27.575  1.00  0.00     0.198 A 
ATOM     89  C   UNL A   1      43.533  37.908  29.460  1.00  0.00     0.198 A 
ATOM     90  F   UNL A   1      43.757  36.335  31.162  1.00  0.00    -0.203 F 
ATOM     91  F   UNL A   1      41.566  37.883  26.430  1.00  0.00    -0.200 F 
ATOM     92  C   UNL A   1      42.973  38.326  28.269  1.00  0.00     0.200 A 
ATOM     93  F   UNL A   1      44.363  38.715  30.135  1.00  0.00    -0.200 F 
ATOM     94  F   UNL A   1      43.240  39.550  27.793  1.00  0.00    -0.200 F 
ENDBRANCH  61  84
ENDBRANCH  35  36
ENDBRANCH  27  30
ENDBRANCH  25  26
ENDBRANCH  24  25
ENDBRANCH   1  24
TORSDOF 13
ENDMDL
MODEL 2
REMARK VINA RESULT:     -13.6      1.333      2.663
REMARK SMILES Cc1ccc(Nc2c(F)cccc2Cl)c(CC(=O)NCCCNC(=O)c2ccc(-c3c4nc(c(-c5c(F)c(F)c(F)c(F)c5F)c5ccc([nH]5)c(-c5c(F)c(F)c(F)c(F)c5F)c5nc(c(-c6c(F)c(F)c(F)c(F)c6F)c6ccc3[nH]6)C=C5)C=C4)cc2)c1
REMARK SMILES IDX 20 1 19 2 17 3 18 4 16 6 15 7 1 8 2 9 3 10 89 11 4 12 5 13
REMARK SMILES IDX 6 14 7 16 8 17 13 18 9 19 10 20 12 21 14 22 11 23 21 24
REMARK SMILES IDX 22 25 23 26 24 27 25 29 26 30 27 31 88 32 28 33 87 34 29 35
REMARK SMILES IDX 30 36 31 37 81 38 32 39 86 40 80 41 82 42 33 43 85 44 79 45
REMARK SMILES IDX 78 46 34 48 66 49 46 50 65 51 47 52 50 53 64 54 83 55 48 56
REMARK SMILES IDX 49 57 63 59 84 60 51 61 35 62 36 63 44 64 37 65 38 66 42 67
REMARK SMILES IDX 45 68 39 69 40 70 43 71 41 72 67 73 68 74 76 75 69 76 70 77
REMARK SMILES IDX 74 78 77 79 71 80 72 81 75 82 73 83 52 84 53 85 61 86 54 87
REMARK SMILES IDX 55 88 59 89 62 90 56 91 57 92 60 93 58 94
REMARK H PARENT 19 5 6 15 23 28 82 47 50 58
REMARK Flexibility Score: inf
ROOT
ATOM      1  C   UNL A   1      36.772  21.322  25.269  1.00  0.00     0.117 C 
ENDROOT
BRANCH   1   2
ATOM      2  N   UNL A   1      36.173  22.184  24.262  1.00  0.00    -0.356 N 
ATOM      3  C   UNL A   1      35.396  23.295  24.432  1.00  0.00     0.224 C 
ATOM      4  O   UNL A   1      34.901  23.824  23.433  1.00  0.00    -0.275 OA
ATOM      5  H   UNL A   1      36.351  21.931  23.328  1.00  0.00     0.163 HD
BRANCH   3   6
ATOM      6  C   UNL A   1      35.113  23.854  25.818  1.00  0.00     0.137 C 
BRANCH   6   7
ATOM      7  C   UNL A   1      33.969  24.845  25.843  1.00  0.00    -0.015 A 
ATOM      8  C   UNL A   1      33.665  28.650  25.541  1.00  0.00     0.044 C 
ATOM      9  C   UNL A   1      33.310  27.203  25.704  1.00  0.00    -0.051 A 
ATOM     10  C   UNL A   1      32.009  26.840  26.043  1.00  0.00     0.005 A 
ATOM     11  C   UNL A   1      34.271  26.198  25.564  1.00  0.00     0.009 A 
ATOM     12  C   UNL A   1      31.686  25.499  26.263  1.00  0.00     0.026 A 
ATOM     13  C   UNL A   1      32.650  24.480  26.196  1.00  0.00     0.042 A 
BRANCH  13  14
ATOM     14  N   UNL A   1      32.303  23.136  26.458  1.00  0.00    -0.352 N 
ATOM     15  H   UNL A   1      31.899  22.971  27.340  1.00  0.00     0.167 HD
BRANCH  14  16
ATOM     16  C   UNL A   1      32.452  21.993  25.636  1.00  0.00     0.094 A 
ATOM     17  C   UNL A   1      33.153  20.853  26.060  1.00  0.00     0.148 A 
ATOM     18  C   UNL A   1      31.981  21.998  24.310  1.00  0.00     0.067 A 
ATOM     19  F   UNL A   1      33.618  20.772  27.317  1.00  0.00    -0.205 F 
ATOM     20  C   UNL A   1      33.381  19.767  25.213  1.00  0.00     0.041 A 
ATOM     21  C   UNL A   1      32.208  20.915  23.452  1.00  0.00     0.023 A 
ATOM     22  Cl  UNL A   1      31.150  23.374  23.663  1.00  0.00    -0.082 Cl
ATOM     23  C   UNL A   1      32.912  19.799  23.904  1.00  0.00     0.005 A 
ENDBRANCH  14  16
ENDBRANCH  13  14
ENDBRANCH   6   7
ENDBRANCH   3   6
ENDBRANCH   1   2
BRANCH   1  24
ATOM     24  C   UNL A   1      38.284  21.502  25.365  1.00  0.00     0.042 C 
BRANCH  24  25
ATOM     25  C   UNL A   1      38.725  22.775  26.069  1.00  0.00     0.118 C 
BRANCH  25  26
ATOM     26  N   UNL A   1      40.162  22.843  26.326  1.00  0.00    -0.352 N 
ATOM     27  C   UNL A   1      40.923  23.941  26.696  1.00  0.00     0.251 C 
ATOM     28  H   UNL A   1      40.655  21.996  26.222  1.00  0.00     0.163 HD
ATOM     29  O   UNL A   1      42.117  23.838  26.904  1.00  0.00    -0.269 OA
BRANCH  27  30
ATOM     30  C   UNL A   1      40.221  25.220  26.956  1.00  0.00     0.039 A 
ATOM     31  C   UNL A   1      40.675  26.364  26.291  1.00  0.00     0.014 A 
ATOM     32  C   UNL A   1      39.315  25.319  28.007  1.00  0.00     0.014 A 
ATOM     33  C   UNL A   1      40.422  27.613  26.851  1.00  0.00     0.010 A 
ATOM     34  C   UNL A   1      39.151  26.546  28.619  1.00  0.00     0.010 A 
ATOM     35  C   UNL A   1      39.770  27.680  28.083  1.00  0.00    -0.014 A 
BRANCH  35  36
ATOM     36  C   UNL A   1      39.810  28.858  28.942  1.00  0.00     0.031 A 
ATOM     37  C   UNL A   1      38.799  29.925  28.818  1.00  0.00     0.074 A 
ATOM     38  C   UNL A   1      40.730  28.921  29.932  1.00  0.00     0.049 A 
ATOM     39  N   UNL A   1      38.938  31.120  29.285  1.00  0.00    -0.248 NA
ATOM     40  C   UNL A   1      37.545  29.729  28.106  1.00  0.00     0.031 C 
ATOM     41  C   UNL A   1      40.761  29.848  31.061  1.00  0.00     0.029 A 
ATOM     42  N   UNL A   1      41.973  28.267  29.988  1.00  0.00    -0.354 N 
ATOM     43  C   UNL A   1      37.723  31.758  29.189  1.00  0.00     0.074 A 
ATOM     44  C   UNL A   1      36.911  30.872  28.386  1.00  0.00     0.031 C 
ATOM     45  C   UNL A   1      42.028  29.958  31.489  1.00  0.00     0.029 A 
ATOM     46  C   UNL A   1      42.859  29.216  30.559  1.00  0.00     0.049 A 
ATOM     47  H   UNL A   1      42.183  27.352  29.694  1.00  0.00     0.167 HD
ATOM     48  C   UNL A   1      37.519  32.904  29.906  1.00  0.00     0.037 A 
ATOM     49  C   UNL A   1      43.892  29.735  29.834  1.00  0.00     0.037 A 
ATOM     50  C   UNL A   1      38.752  33.358  30.554  1.00  0.00     0.049 A 
ATOM     51  C   UNL A   1      43.857  31.240  29.658  1.00  0.00     0.074 A 
ATOM     52  C   UNL A   1      39.260  33.297  31.842  1.00  0.00     0.029 A 
ATOM     53  N   UNL A   1      39.807  33.755  29.752  1.00  0.00    -0.354 N 
ATOM     54  N   UNL A   1      42.880  32.005  30.055  1.00  0.00    -0.248 NA
ATOM     55  C   UNL A   1      44.879  31.983  28.918  1.00  0.00     0.031 C 
ATOM     56  C   UNL A   1      40.636  33.663  31.798  1.00  0.00     0.029 A 
ATOM     57  C   UNL A   1      40.963  33.940  30.484  1.00  0.00     0.049 A 
ATOM     58  H   UNL A   1      39.741  33.889  28.780  1.00  0.00     0.167 HD
ATOM     59  C   UNL A   1      43.088  33.277  29.596  1.00  0.00     0.074 A 
ATOM     60  C   UNL A   1      44.353  33.218  28.891  1.00  0.00     0.031 C 
ATOM     61  C   UNL A   1      42.186  34.284  29.783  1.00  0.00     0.037 A 
BRANCH  48  62
ATOM     62  C   UNL A   1      36.157  33.495  30.213  1.00  0.00     0.064 A 
ATOM     63  C   UNL A   1      35.371  34.063  29.184  1.00  0.00     0.173 A 
ATOM     64  C   UNL A   1      35.589  33.594  31.496  1.00  0.00     0.173 A 
ATOM     65  F   UNL A   1      35.707  33.943  27.894  1.00  0.00    -0.203 F 
ATOM     66  C   UNL A   1      34.197  34.780  29.439  1.00  0.00     0.198 A 
ATOM     67  C   UNL A   1      34.448  34.359  31.760  1.00  0.00     0.198 A 
ATOM     68  F   UNL A   1      36.068  32.895  32.529  1.00  0.00    -0.203 F 
ATOM     69  F   UNL A   1      33.503  35.302  28.419  1.00  0.00    -0.200 F 
ATOM     70  C   UNL A   1      33.759  34.966  30.732  1.00  0.00     0.200 A 
ATOM     71  F   UNL A   1      34.019  34.496  33.023  1.00  0.00    -0.200 F 
ATOM     72  F   UNL A   1      32.662  35.694  30.983  1.00  0.00    -0.200 F 
ENDBRANCH  48  62
BRANCH  49  73
ATOM     73  C   UNL A   1      44.430  28.778  28.830  1.00  0.00     0.064 A 
ATOM     74  C   UNL A   1      45.174  27.670  29.286  1.00  0.00     0.173 A 
ATOM     75  C   UNL A   1      43.936  28.729  27.522  1.00  0.00     0.173 A 
ATOM     76  F   UNL A   1      45.670  27.661  30.534  1.00  0.00    -0.203 F 
ATOM     77  C   UNL A   1      45.305  26.519  28.515  1.00  0.00     0.198 A 
ATOM     78  C   UNL A   1      44.093  27.584  26.742  1.00  0.00     0.198 A 
ATOM     79  F   UNL A   1      43.200  29.738  27.035  1.00  0.00    -0.203 F 
ATOM     80  F   UNL A   1      45.906  25.435  29.027  1.00  0.00    -0.200 F 
ATOM     81  C   UNL A   1      44.742  26.468  27.251  1.00  0.00     0.200 A 
ATOM     82  F   UNL A   1      43.523  27.523  25.530  1.00  0.00    -0.200 F 
ATOM     83  F   UNL A   1      44.784  25.331  26.543  1.00  0.00    -0.200 F 
ENDBRANCH  49  73
BRANCH  61  84
ATOM     84  C   UNL A   1      42.400  35.685  29.297  1.00  0.00     0.064 A 
ATOM     85  C   UNL A   1      41.845  36.153  28.096  1.00  0.00     0.173 A 
ATOM     86  C   UNL A   1      43.274  36.565  29.968  1.00  0.00     0.173 A 
ATOM     87  F   UNL A   1      41.038  35.369  27.364  1.00  0.00    -0.203 F 
ATOM     88  C   UNL A   1      42.122  37.433  27.614  1.00  0.00     0.198 A 
ATOM     89  C   UNL A   1      43.589  37.823  29.459  1.00  0.00     0.198 A 
ATOM     90  F   UNL A   1      43.825  36.236  31.146  1.00  0.00    -0.203 F 
ATOM     91  F   UNL A   1      41.535  37.861  26.488  1.00  0.00    -0.200 F 
ATOM     92  C   UNL A   1      43.005  38.261  28.287  1.00  0.00     0.200 A 
ATOM     93  F   UNL A   1      44.457  38.606  30.114  1.00  0.00    -0.200 F 
ATOM     94  F   UNL A   1      43.288  39.481  27.809  1.00  0.00    -0.200 F 
ENDBRANCH  61  84
ENDBRANCH  35  36
ENDBRANCH  27  30
ENDBRANCH  25  26
ENDBRANCH  24  25
ENDBRANCH   1  24
TORSDOF 13
ENDMDL
MODEL 3
REMARK VINA RESULT:     -13.6      1.255      1.479
REMARK SMILES Cc1ccc(Nc2c(F)cccc2Cl)c(CC(=O)NCCCNC(=O)c2ccc(-c3c4nc(c(-c5c(F)c(F)c(F)c(F)c5F)c5ccc([nH]5)c(-c5c(F)c(F)c(F)c(F)c5F)c5nc(c(-c6c(F)c(F)c(F)c(F)c6F)c6ccc3[nH]6)C=C5)C=C4)cc2)c1
REMARK SMILES IDX 20 1 19 2 17 3 18 4 16 6 15 7 1 8 2 9 3 10 89 11 4 12 5 13
REMARK SMILES IDX 6 14 7 16 8 17 13 18 9 19 10 20 12 21 14 22 11 23 21 24
REMARK SMILES IDX 22 25 23 26 24 27 25 29 26 30 27 31 88 32 28 33 87 34 29 35
REMARK SMILES IDX 30 36 31 37 81 38 32 39 86 40 80 41 82 42 33 43 85 44 79 45
REMARK SMILES IDX 78 46 34 48 66 49 46 50 65 51 47 52 50 53 64 54 83 55 48 56
REMARK SMILES IDX 49 57 63 59 84 60 51 61 35 62 36 63 44 64 37 65 38 66 42 67
REMARK SMILES IDX 45 68 39 69 40 70 43 71 41 72 67 73 68 74 76 75 69 76 70 77
REMARK SMILES IDX 74 78 77 79 71 80 72 81 75 82 73 83 52 84 53 85 61 86 54 87
REMARK SMILES IDX 55 88 59 89 62 90 56 91 57 92 60 93 58 94
REMARK H PARENT 19 5 6 15 23 28 82 47 50 58
REMARK Flexibility Score: inf
ROOT
ATOM      1  C   UNL A   1      37.467  21.228  25.255  1.00  0.00     0.117 C 
ENDROOT
BRANCH   1   2
ATOM      2  N   UNL A   1      37.470  21.963  23.999  1.00  0.00    -0.356 N 
ATOM      3  C   UNL A   1      36.589  22.907  23.553  1.00  0.00     0.224 C 
ATOM      4  O   UNL A   1      36.720  23.335  22.402  1.00  0.00    -0.275 OA
ATOM      5  H   UNL A   1      38.210  21.750  23.386  1.00  0.00     0.163 HD
BRANCH   3   6
ATOM      6  C   UNL A   1      35.450  23.401  24.431  1.00  0.00     0.137 C 
BRANCH   6   7
ATOM      7  C   UNL A   1      34.102  22.833  24.042  1.00  0.00    -0.015 A 
ATOM      8  C   UNL A   1      32.540  19.338  23.994  1.00  0.00     0.044 C 
ATOM      9  C   UNL A   1      32.718  20.819  23.844  1.00  0.00    -0.051 A 
ATOM     10  C   UNL A   1      31.740  21.576  23.205  1.00  0.00     0.005 A 
ATOM     11  C   UNL A   1      33.874  21.461  24.297  1.00  0.00     0.009 A 
ATOM     12  C   UNL A   1      31.929  22.945  23.000  1.00  0.00     0.026 A 
ATOM     13  C   UNL A   1      33.112  23.598  23.385  1.00  0.00     0.042 A 
BRANCH  13  14
ATOM     14  N   UNL A   1      33.292  24.977  23.135  1.00  0.00    -0.352 N 
ATOM     15  H   UNL A   1      34.162  25.224  22.747  1.00  0.00     0.167 HD
BRANCH  14  16
ATOM     16  C   UNL A   1      32.401  26.054  23.360  1.00  0.00     0.094 A 
ATOM     17  C   UNL A   1      31.594  26.583  22.340  1.00  0.00     0.148 A 
ATOM     18  C   UNL A   1      32.367  26.706  24.607  1.00  0.00     0.067 A 
ATOM     19  F   UNL A   1      31.565  26.003  21.129  1.00  0.00    -0.205 F 
ATOM     20  C   UNL A   1      30.790  27.706  22.541  1.00  0.00     0.041 A 
ATOM     21  C   UNL A   1      31.566  27.836  24.815  1.00  0.00     0.023 A 
ATOM     22  Cl  UNL A   1      33.362  26.173  25.921  1.00  0.00    -0.082 Cl
ATOM     23  C   UNL A   1      30.779  28.338  23.780  1.00  0.00     0.005 A 
ENDBRANCH  14  16
ENDBRANCH  13  14
ENDBRANCH   6   7
ENDBRANCH   3   6
ENDBRANCH   1   2
BRANCH   1  24
ATOM     24  C   UNL A   1      38.775  21.385  26.025  1.00  0.00     0.042 C 
BRANCH  24  25
ATOM     25  C   UNL A   1      39.181  22.825  26.293  1.00  0.00     0.118 C 
BRANCH  25  26
ATOM     26  N   UNL A   1      40.626  23.029  26.367  1.00  0.00    -0.352 N 
ATOM     27  C   UNL A   1      41.321  24.200  26.626  1.00  0.00     0.251 C 
ATOM     28  H   UNL A   1      41.179  22.228  26.213  1.00  0.00     0.163 HD
ATOM     29  O   UNL A   1      42.536  24.211  26.684  1.00  0.00    -0.269 OA
BRANCH  27  30
ATOM     30  C   UNL A   1      40.541  25.415  26.957  1.00  0.00     0.039 A 
ATOM     31  C   UNL A   1      40.823  26.588  26.249  1.00  0.00     0.014 A 
ATOM     32  C   UNL A   1      39.743  25.446  28.096  1.00  0.00     0.014 A 
ATOM     33  C   UNL A   1      40.521  27.816  26.832  1.00  0.00     0.010 A 
ATOM     34  C   UNL A   1      39.536  26.659  28.722  1.00  0.00     0.010 A 
ATOM     35  C   UNL A   1      39.996  27.838  28.125  1.00  0.00    -0.014 A 
BRANCH  35  36
ATOM     36  C   UNL A   1      40.022  29.023  28.975  1.00  0.00     0.031 A 
ATOM     37  C   UNL A   1      38.973  30.055  28.872  1.00  0.00     0.074 A 
ATOM     38  C   UNL A   1      40.965  29.122  29.939  1.00  0.00     0.049 A 
ATOM     39  N   UNL A   1      39.086  31.257  29.327  1.00  0.00    -0.248 NA
ATOM     40  C   UNL A   1      37.707  29.814  28.197  1.00  0.00     0.031 C 
ATOM     41  C   UNL A   1      40.998  30.058  31.060  1.00  0.00     0.029 A 
ATOM     42  N   UNL A   1      42.230  28.509  29.964  1.00  0.00    -0.354 N 
ATOM     43  C   UNL A   1      37.849  31.855  29.262  1.00  0.00     0.074 A 
ATOM     44  C   UNL A   1      37.044  30.938  28.486  1.00  0.00     0.031 C 
ATOM     45  C   UNL A   1      42.271  30.211  31.453  1.00  0.00     0.029 A 
ATOM     46  C   UNL A   1      43.100  29.490  30.504  1.00  0.00     0.049 A 
ATOM     47  H   UNL A   1      42.462  27.599  29.670  1.00  0.00     0.167 HD
ATOM     48  C   UNL A   1      37.628  32.999  29.976  1.00  0.00     0.037 A 
ATOM     49  C   UNL A   1      44.096  30.036  29.748  1.00  0.00     0.037 A 
ATOM     50  C   UNL A   1      38.862  33.497  30.587  1.00  0.00     0.049 A 
ATOM     51  C   UNL A   1      44.008  31.539  29.564  1.00  0.00     0.074 A 
ATOM     52  C   UNL A   1      39.408  33.462  31.861  1.00  0.00     0.029 A 
ATOM     53  N   UNL A   1      39.881  33.922  29.754  1.00  0.00    -0.354 N 
ATOM     54  N   UNL A   1      43.017  32.275  29.983  1.00  0.00    -0.248 NA
ATOM     55  C   UNL A   1      44.984  32.308  28.791  1.00  0.00     0.031 C 
ATOM     56  C   UNL A   1      40.769  33.871  31.777  1.00  0.00     0.029 A 
ATOM     57  C   UNL A   1      41.051  34.149  30.452  1.00  0.00     0.049 A 
ATOM     58  H   UNL A   1      39.785  34.047  28.783  1.00  0.00     0.167 HD
ATOM     59  C   UNL A   1      43.171  33.550  29.510  1.00  0.00     0.074 A 
ATOM     60  C   UNL A   1      44.417  33.526  28.772  1.00  0.00     0.031 C 
ATOM     61  C   UNL A   1      42.242  34.527  29.716  1.00  0.00     0.037 A 
BRANCH  48  62
ATOM     62  C   UNL A   1      36.256  33.548  30.317  1.00  0.00     0.064 A 
ATOM     63  C   UNL A   1      35.423  34.081  29.307  1.00  0.00     0.173 A 
ATOM     64  C   UNL A   1      35.721  33.639  31.615  1.00  0.00     0.173 A 
ATOM     65  F   UNL A   1      35.727  33.962  28.009  1.00  0.00    -0.203 F 
ATOM     66  C   UNL A   1      34.234  34.762  29.590  1.00  0.00     0.198 A 
ATOM     67  C   UNL A   1      34.563  34.369  31.905  1.00  0.00     0.198 A 
ATOM     68  F   UNL A   1      36.251  32.965  32.639  1.00  0.00    -0.203 F 
ATOM     69  F   UNL A   1      33.495  35.253  28.585  1.00  0.00    -0.200 F 
ATOM     70  C   UNL A   1      33.826  34.944  30.893  1.00  0.00     0.200 A 
ATOM     71  F   UNL A   1      34.165  34.502  33.179  1.00  0.00    -0.200 F 
ATOM     72  F   UNL A   1      32.714  35.638  31.169  1.00  0.00    -0.200 F 
ENDBRANCH  48  62
BRANCH  49  73
ATOM     73  C   UNL A   1      44.637  29.090  28.736  1.00  0.00     0.064 A 
ATOM     74  C   UNL A   1      45.488  28.053  29.170  1.00  0.00     0.173 A 
ATOM     75  C   UNL A   1      44.064  28.966  27.465  1.00  0.00     0.173 A 
ATOM     76  F   UNL A   1      46.062  28.118  30.382  1.00  0.00    -0.203 F 
ATOM     77  C   UNL A   1      45.653  26.891  28.421  1.00  0.00     0.198 A 
ATOM     78  C   UNL A   1      44.254  27.812  26.706  1.00  0.00     0.198 A 
ATOM     79  F   UNL A   1      43.226  29.905  27.002  1.00  0.00    -0.203 F 
ATOM     80  F   UNL A   1      46.363  25.869  28.921  1.00  0.00    -0.200 F 
ATOM     81  C   UNL A   1      45.015  26.761  27.200  1.00  0.00     0.200 A 
ATOM     82  F   UNL A   1      43.613  27.674  25.537  1.00  0.00    -0.200 F 
ATOM     83  F   UNL A   1      45.094  25.610  26.519  1.00  0.00    -0.200 F 
ENDBRANCH  49  73
BRANCH  61  84
ATOM     84  C   UNL A   1      42.397  35.931  29.216  1.00  0.00     0.064 A 
ATOM     85  C   UNL A   1      41.841  36.357  28.000  1.00  0.00     0.173 A 
ATOM     86  C   UNL A   1      43.217  36.861  29.889  1.00  0.00     0.173 A 
ATOM     87  F   UNL A   1      41.085  35.527  27.265  1.00  0.00    -0.203 F 
ATOM     88  C   UNL A   1      42.065  37.643  27.505  1.00  0.00     0.198 A 
ATOM     89  C   UNL A   1      43.479  38.126  29.369  1.00  0.00     0.198 A 
ATOM     90  F   UNL A   1      43.762  36.573  31.081  1.00  0.00    -0.203 F 
ATOM     91  F   UNL A   1      41.478  38.029  26.364  1.00  0.00    -0.200 F 
ATOM     92  C   UNL A   1      42.896  38.521  28.183  1.00  0.00     0.200 A 
ATOM     93  F   UNL A   1      44.298  38.958  30.029  1.00  0.00    -0.200 F 
ATOM     94  F   UNL A   1      43.128  39.747  27.694  1.00  0.00    -0.200 F 
ENDBRANCH  61  84
ENDBRANCH  35  36
ENDBRANCH  27  30
ENDBRANCH  25  26
ENDBRANCH  24  25
ENDBRANCH   1  24
TORSDOF 13
ENDMDL
