MODEL 1
REMARK VINA RESULT:     -15.2      0.000      0.000
REMARK SMILES COc1cccc(-c2nn(-c3cc4c(cc3C(N)=O)OCO4)cc2C(=O)NCCCNC(=O)c2ccc(-c3c4nc(c(-c5c(F)c(F)c(F)c(F)c5F)c5ccc([nH]5)c(-c5c(F)c(F)c(F)c(F)c5F)c5nc(c(-c6c(F)c(F)c(F)c(F)c6F)c6ccc3[nH]6)C=C5)C=C4)cc2)c1
REMARK SMILES IDX 29 1 28 2 27 3 25 4 26 5 24 7 8 8 9 9 10 10 23 11 7 12 3 13
REMARK SMILES IDX 4 14 97 15 5 16 6 17 2 18 1 19 11 20 12 21 16 22 13 23 15 24
REMARK SMILES IDX 14 25 22 26 20 27 21 28 17 29 18 30 19 31 30 34 31 35 32 36
REMARK SMILES IDX 33 38 34 39 35 40 96 41 36 42 95 43 37 44 38 45 39 46 89 47
REMARK SMILES IDX 40 48 94 49 88 50 90 51 41 52 93 53 87 54 86 55 42 57 74 58
REMARK SMILES IDX 54 59 73 60 55 61 58 62 72 63 91 64 56 65 57 66 71 68 92 69
REMARK SMILES IDX 59 70 43 71 44 72 52 73 45 74 46 75 50 76 53 77 47 78 48 79
REMARK SMILES IDX 51 80 49 81 75 82 76 83 84 84 77 85 78 86 82 87 85 88 79 89
REMARK SMILES IDX 80 90 83 91 81 92 60 93 61 94 69 95 62 96 63 97 67 98 70 99
REMARK SMILES IDX 64 100 65 101 68 102 66 103
REMARK H PARENT 27 6 18 32 18 33 31 37 90 56 58 67
REMARK Flexibility Score: inf
ROOT
ATOM      1  C   UNL A   1      32.703  29.434  27.227  1.00  0.00     0.042 C 
ENDROOT
BRANCH   1   2
ATOM      2  C   UNL A   1      31.848  29.276  25.966  1.00  0.00     0.118 C 
BRANCH   2   3
ATOM      3  N   UNL A   1      32.632  29.398  24.750  1.00  0.00    -0.352 N 
ATOM      4  C   UNL A   1      32.721  28.620  23.618  1.00  0.00     0.255 C 
ATOM      5  O   UNL A   1      33.443  29.063  22.726  1.00  0.00    -0.269 OA
ATOM      6  H   UNL A   1      33.214  30.193  24.731  1.00  0.00     0.163 HD
BRANCH   4   7
ATOM      7  C   UNL A   1      31.985  27.370  23.483  1.00  0.00     0.086 A 
ATOM      8  C   UNL A   1      30.574  27.172  23.265  1.00  0.00     0.106 A 
ATOM      9  N   UNL A   1      30.246  25.861  23.303  1.00  0.00    -0.167 NA
ATOM     10  N   UNL A   1      31.383  25.263  23.714  1.00  0.00    -0.239 N 
ATOM     11  C   UNL A   1      32.467  26.080  23.517  1.00  0.00     0.129 A 
BRANCH   8  12
ATOM     12  C   UNL A   1      29.554  28.197  23.022  1.00  0.00     0.007 A 
ATOM     13  C   UNL A   1      28.900  30.366  22.144  1.00  0.00     0.119 A 
ATOM     14  C   UNL A   1      27.574  30.099  22.491  1.00  0.00     0.046 A 
ATOM     15  C   UNL A   1      29.893  29.419  22.419  1.00  0.00     0.056 A 
ATOM     16  C   UNL A   1      27.229  28.894  23.100  1.00  0.00     0.005 A 
ATOM     17  C   UNL A   1      28.219  27.951  23.373  1.00  0.00     0.011 A 
BRANCH  13  18
ATOM     18  O   UNL A   1      29.102  31.601  21.589  1.00  0.00    -0.497 OA
ATOM     19  C   UNL A   1      28.705  32.717  22.376  1.00  0.00     0.278 C 
ENDBRANCH  13  18
ENDBRANCH   8  12
BRANCH  10  20
ATOM     20  C   UNL A   1      31.463  23.908  24.119  1.00  0.00     0.081 A 
ATOM     21  C   UNL A   1      31.767  22.943  23.144  1.00  0.00     0.079 A 
ATOM     22  C   UNL A   1      31.348  23.549  25.497  1.00  0.00     0.069 A 
ATOM     23  C   UNL A   1      32.039  21.664  23.586  1.00  0.00     0.167 A 
ATOM     24  C   UNL A   1      31.731  22.261  25.901  1.00  0.00     0.066 A 
ATOM     25  C   UNL A   1      32.051  21.347  24.925  1.00  0.00     0.166 A 
ATOM     26  O   UNL A   1      32.335  20.585  22.812  1.00  0.00    -0.454 OA
ATOM     27  O   UNL A   1      32.356  20.041  25.154  1.00  0.00    -0.454 OA
ATOM     28  C   UNL A   1      32.342  19.535  23.804  1.00  0.00     0.468 C 
BRANCH  22  29
ATOM     29  C   UNL A   1      30.636  24.425  26.491  1.00  0.00     0.251 C 
ATOM     30  N   UNL A   1      29.386  24.063  26.909  1.00  0.00    -0.366 N 
ATOM     31  O   UNL A   1      31.078  25.496  26.892  1.00  0.00    -0.269 OA
ATOM     32  H   UNL A   1      28.996  23.211  26.610  1.00  0.00     0.159 HD
ATOM     33  H   UNL A   1      28.877  24.655  27.510  1.00  0.00     0.159 HD
ENDBRANCH  22  29
ENDBRANCH  10  20
ENDBRANCH   4   7
ENDBRANCH   2   3
ENDBRANCH   1   2
BRANCH   1  34
ATOM     34  C   UNL A   1      33.848  30.412  27.014  1.00  0.00     0.118 C 
BRANCH  34  35
ATOM     35  N   UNL A   1      33.865  31.463  28.031  1.00  0.00    -0.352 N 
ATOM     36  C   UNL A   1      34.781  31.694  29.037  1.00  0.00     0.251 C 
ATOM     37  H   UNL A   1      33.113  32.097  27.993  1.00  0.00     0.163 HD
ATOM     38  O   UNL A   1      34.484  32.389  29.996  1.00  0.00    -0.269 OA
BRANCH  36  39
ATOM     39  C   UNL A   1      36.119  31.084  28.949  1.00  0.00     0.039 A 
ATOM     40  C   UNL A   1      37.265  31.876  29.058  1.00  0.00     0.014 A 
ATOM     41  C   UNL A   1      36.225  29.707  28.762  1.00  0.00     0.014 A 
ATOM     42  C   UNL A   1      38.512  31.259  29.069  1.00  0.00     0.010 A 
ATOM     43  C   UNL A   1      37.440  29.086  28.914  1.00  0.00     0.010 A 
ATOM     44  C   UNL A   1      38.591  29.858  29.025  1.00  0.00    -0.014 A 
BRANCH  44  45
ATOM     45  C   UNL A   1      39.867  29.185  29.249  1.00  0.00     0.031 A 
ATOM     46  C   UNL A   1      40.187  28.969  30.686  1.00  0.00     0.074 A 
ATOM     47  C   UNL A   1      40.591  28.613  28.262  1.00  0.00     0.049 A 
ATOM     48  N   UNL A   1      41.137  29.513  31.368  1.00  0.00    -0.248 NA
ATOM     49  C   UNL A   1      39.254  28.172  31.500  1.00  0.00     0.031 C 
ATOM     50  C   UNL A   1      40.227  28.467  26.849  1.00  0.00     0.029 A 
ATOM     51  N   UNL A   1      41.771  27.935  28.337  1.00  0.00    -0.354 N 
ATOM     52  C   UNL A   1      41.051  28.974  32.650  1.00  0.00     0.074 A 
ATOM     53  C   UNL A   1      39.773  28.316  32.721  1.00  0.00     0.031 C 
ATOM     54  C   UNL A   1      41.037  27.558  26.263  1.00  0.00     0.029 A 
ATOM     55  C   UNL A   1      42.075  27.185  27.205  1.00  0.00     0.049 A 
ATOM     56  H   UNL A   1      42.360  27.974  29.125  1.00  0.00     0.167 HD
ATOM     57  C   UNL A   1      42.157  28.895  33.442  1.00  0.00     0.037 A 
ATOM     58  C   UNL A   1      43.093  26.300  27.062  1.00  0.00     0.037 A 
ATOM     59  C   UNL A   1      43.209  29.732  32.917  1.00  0.00     0.049 A 
ATOM     60  C   UNL A   1      44.085  26.602  28.119  1.00  0.00     0.074 A 
ATOM     61  C   UNL A   1      43.377  31.084  32.695  1.00  0.00     0.029 A 
ATOM     62  N   UNL A   1      44.172  29.099  32.174  1.00  0.00    -0.354 N 
ATOM     63  N   UNL A   1      44.824  27.675  28.142  1.00  0.00    -0.248 NA
ATOM     64  C   UNL A   1      43.979  25.892  29.384  1.00  0.00     0.031 C 
ATOM     65  C   UNL A   1      44.164  31.175  31.507  1.00  0.00     0.029 A 
ATOM     66  C   UNL A   1      44.495  29.881  31.100  1.00  0.00     0.049 A 
ATOM     67  H   UNL A   1      44.567  28.222  32.381  1.00  0.00     0.167 HD
ATOM     68  C   UNL A   1      44.879  28.026  29.479  1.00  0.00     0.074 A 
ATOM     69  C   UNL A   1      44.475  26.824  30.201  1.00  0.00     0.031 C 
ATOM     70  C   UNL A   1      44.956  29.341  29.841  1.00  0.00     0.037 A 
BRANCH  57  71
ATOM     71  C   UNL A   1      42.468  27.758  34.398  1.00  0.00     0.064 A 
ATOM     72  C   UNL A   1      42.993  26.558  33.867  1.00  0.00     0.173 A 
ATOM     73  C   UNL A   1      41.981  27.665  35.719  1.00  0.00     0.173 A 
ATOM     74  F   UNL A   1      43.488  26.519  32.622  1.00  0.00    -0.203 F 
ATOM     75  C   UNL A   1      42.923  25.345  34.559  1.00  0.00     0.198 A 
ATOM     76  C   UNL A   1      41.960  26.462  36.426  1.00  0.00     0.198 A 
ATOM     77  F   UNL A   1      41.401  28.693  36.347  1.00  0.00    -0.203 F 
ATOM     78  F   UNL A   1      43.297  24.210  33.953  1.00  0.00    -0.200 F 
ATOM     79  C   UNL A   1      42.395  25.297  35.835  1.00  0.00     0.200 A 
ATOM     80  F   UNL A   1      41.431  26.434  37.658  1.00  0.00    -0.200 F 
ATOM     81  F   UNL A   1      42.259  24.128  36.474  1.00  0.00    -0.200 F 
ENDBRANCH  57  71
BRANCH  58  82
ATOM     82  C   UNL A   1      43.183  25.069  26.241  1.00  0.00     0.064 A 
ATOM     83  C   UNL A   1      44.192  24.922  25.272  1.00  0.00     0.173 A 
ATOM     84  C   UNL A   1      42.480  23.902  26.592  1.00  0.00     0.173 A 
ATOM     85  F   UNL A   1      44.934  25.977  24.903  1.00  0.00    -0.203 F 
ATOM     86  C   UNL A   1      44.509  23.675  24.724  1.00  0.00     0.198 A 
ATOM     87  C   UNL A   1      42.793  22.659  26.039  1.00  0.00     0.198 A 
ATOM     88  F   UNL A   1      41.546  23.926  27.553  1.00  0.00    -0.203 F 
ATOM     89  F   UNL A   1      45.530  23.564  23.862  1.00  0.00    -0.200 F 
ATOM     90  C   UNL A   1      43.820  22.542  25.120  1.00  0.00     0.200 A 
ATOM     91  F   UNL A   1      42.143  21.563  26.455  1.00  0.00    -0.200 F 
ATOM     92  F   UNL A   1      44.172  21.337  24.651  1.00  0.00    -0.200 F 
ENDBRANCH  58  82
BRANCH  70  93
ATOM     93  C   UNL A   1      45.372  30.327  28.785  1.00  0.00     0.064 A 
ATOM     94  C   UNL A   1      44.495  30.961  27.885  1.00  0.00     0.173 A 
ATOM     95  C   UNL A   1      46.718  30.716  28.751  1.00  0.00     0.173 A 
ATOM     96  F   UNL A   1      43.178  30.723  27.917  1.00  0.00    -0.203 F 
ATOM     97  C   UNL A   1      44.961  31.895  26.961  1.00  0.00     0.198 A 
ATOM     98  C   UNL A   1      47.172  31.681  27.859  1.00  0.00     0.198 A 
ATOM     99  F   UNL A   1      47.593  30.182  29.618  1.00  0.00    -0.203 F 
ATOM    100  F   UNL A   1      44.111  32.464  26.093  1.00  0.00    -0.200 F 
ATOM    101  C   UNL A   1      46.297  32.258  26.953  1.00  0.00     0.200 A 
ATOM    102  F   UNL A   1      48.456  32.064  27.890  1.00  0.00    -0.200 F 
ATOM    103  F   UNL A   1      46.739  33.182  26.088  1.00  0.00    -0.200 F 
ENDBRANCH  70  93
ENDBRANCH  44  45
ENDBRANCH  36  39
ENDBRANCH  34  35
ENDBRANCH   1  34
TORSDOF 14
ENDMDL
MODEL 2
REMARK VINA RESULT:     -15.0      3.197      9.178
REMARK SMILES COc1cccc(-c2nn(-c3cc4c(cc3C(N)=O)OCO4)cc2C(=O)NCCCNC(=O)c2ccc(-c3c4nc(c(-c5c(F)c(F)c(F)c(F)c5F)c5ccc([nH]5)c(-c5c(F)c(F)c(F)c(F)c5F)c5nc(c(-c6c(F)c(F)c(F)c(F)c6F)c6ccc3[nH]6)C=C5)C=C4)cc2)c1
REMARK SMILES IDX 29 1 28 2 27 3 25 4 26 5 24 7 8 8 9 9 10 10 23 11 7 12 3 13
REMARK SMILES IDX 4 14 97 15 5 16 6 17 2 18 1 19 11 20 12 21 16 22 13 23 15 24
REMARK SMILES IDX 14 25 22 26 20 27 21 28 17 29 18 30 19 31 30 34 31 35 32 36
REMARK SMILES IDX 33 38 34 39 35 40 96 41 36 42 95 43 37 44 38 45 39 46 89 47
REMARK SMILES IDX 40 48 94 49 88 50 90 51 41 52 93 53 87 54 86 55 42 57 74 58
REMARK SMILES IDX 54 59 73 60 55 61 58 62 72 63 91 64 56 65 57 66 71 68 92 69
REMARK SMILES IDX 59 70 43 71 44 72 52 73 45 74 46 75 50 76 53 77 47 78 48 79
REMARK SMILES IDX 51 80 49 81 75 82 76 83 84 84 77 85 78 86 82 87 85 88 79 89
REMARK SMILES IDX 80 90 83 91 81 92 60 93 61 94 69 95 62 96 63 97 67 98 70 99
REMARK SMILES IDX 64 100 65 101 68 102 66 103
REMARK H PARENT 27 6 18 32 18 33 31 37 90 56 58 67
REMARK Flexibility Score: inf
ROOT
ATOM      1  C   UNL A   1      39.000  22.352  26.120  1.00  0.00     0.042 C 
ENDROOT
BRANCH   1   2
ATOM      2  C   UNL A   1      37.787  21.604  25.557  1.00  0.00     0.118 C 
BRANCH   2   3
ATOM      3  N   UNL A   1      37.474  22.007  24.197  1.00  0.00    -0.352 N 
ATOM      4  C   UNL A   1      36.417  22.699  23.652  1.00  0.00     0.255 C 
ATOM      5  O   UNL A   1      36.505  22.940  22.449  1.00  0.00    -0.269 OA
ATOM      6  H   UNL A   1      38.151  21.732  23.537  1.00  0.00     0.163 HD
BRANCH   4   7
ATOM      7  C   UNL A   1      35.285  23.137  24.458  1.00  0.00     0.086 A 
ATOM      8  C   UNL A   1      34.047  22.448  24.726  1.00  0.00     0.106 A 
ATOM      9  N   UNL A   1      33.192  23.223  25.430  1.00  0.00    -0.167 NA
ATOM     10  N   UNL A   1      33.798  24.427  25.449  1.00  0.00    -0.239 N 
ATOM     11  C   UNL A   1      35.136  24.308  25.168  1.00  0.00     0.129 A 
BRANCH   8  12
ATOM     12  C   UNL A   1      33.677  21.086  24.328  1.00  0.00     0.007 A 
ATOM     13  C   UNL A   1      34.024  18.684  24.431  1.00  0.00     0.119 A 
ATOM     14  C   UNL A   1      32.898  18.494  23.627  1.00  0.00     0.046 A 
ATOM     15  C   UNL A   1      34.420  19.981  24.774  1.00  0.00     0.056 A 
ATOM     16  C   UNL A   1      32.160  19.584  23.171  1.00  0.00     0.005 A 
ATOM     17  C   UNL A   1      32.555  20.876  23.513  1.00  0.00     0.011 A 
BRANCH  13  18
ATOM     18  O   UNL A   1      34.676  17.530  24.774  1.00  0.00    -0.497 OA
ATOM     19  C   UNL A   1      34.016  16.313  24.446  1.00  0.00     0.278 C 
ENDBRANCH  13  18
ENDBRANCH   8  12
BRANCH  10  20
ATOM     20  C   UNL A   1      33.173  25.622  25.883  1.00  0.00     0.081 A 
ATOM     21  C   UNL A   1      33.984  26.745  26.119  1.00  0.00     0.079 A 
ATOM     22  C   UNL A   1      31.750  25.712  25.970  1.00  0.00     0.069 A 
ATOM     23  C   UNL A   1      33.346  27.948  26.344  1.00  0.00     0.167 A 
ATOM     24  C   UNL A   1      31.153  26.975  26.102  1.00  0.00     0.066 A 
ATOM     25  C   UNL A   1      31.975  28.059  26.303  1.00  0.00     0.166 A 
ATOM     26  O   UNL A   1      33.939  29.142  26.610  1.00  0.00    -0.454 OA
ATOM     27  O   UNL A   1      31.543  29.328  26.535  1.00  0.00    -0.454 OA
ATOM     28  C   UNL A   1      32.785  29.955  26.915  1.00  0.00     0.468 C 
BRANCH  22  29
ATOM     29  C   UNL A   1      30.884  24.494  26.136  1.00  0.00     0.251 C 
ATOM     30  N   UNL A   1      30.348  23.911  25.022  1.00  0.00    -0.366 N 
ATOM     31  O   UNL A   1      30.559  24.034  27.225  1.00  0.00    -0.269 OA
ATOM     32  H   UNL A   1      30.584  24.251  24.128  1.00  0.00     0.159 HD
ATOM     33  H   UNL A   1      29.727  23.153  25.112  1.00  0.00     0.159 HD
ENDBRANCH  22  29
ENDBRANCH  10  20
ENDBRANCH   4   7
ENDBRANCH   2   3
ENDBRANCH   1   2
BRANCH   1  34
ATOM     34  C   UNL A   1      40.059  21.395  26.646  1.00  0.00     0.118 C 
BRANCH  34  35
ATOM     35  N   UNL A   1      41.334  21.553  25.946  1.00  0.00    -0.352 N 
ATOM     36  C   UNL A   1      42.078  22.695  25.728  1.00  0.00     0.251 C 
ATOM     37  H   UNL A   1      41.717  20.724  25.577  1.00  0.00     0.163 HD
ATOM     38  O   UNL A   1      42.927  22.720  24.852  1.00  0.00    -0.269 OA
BRANCH  36  39
ATOM     39  C   UNL A   1      41.827  23.888  26.554  1.00  0.00     0.039 A 
ATOM     40  C   UNL A   1      42.274  23.936  27.877  1.00  0.00     0.014 A 
ATOM     41  C   UNL A   1      41.146  24.968  25.997  1.00  0.00     0.014 A 
ATOM     42  C   UNL A   1      42.109  25.113  28.602  1.00  0.00     0.010 A 
ATOM     43  C   UNL A   1      41.109  26.171  26.658  1.00  0.00     0.010 A 
ATOM     44  C   UNL A   1      41.550  26.238  27.975  1.00  0.00    -0.014 A 
BRANCH  44  45
ATOM     45  C   UNL A   1      41.563  27.536  28.644  1.00  0.00     0.031 A 
ATOM     46  C   UNL A   1      42.688  28.415  28.225  1.00  0.00     0.074 A 
ATOM     47  C   UNL A   1      40.543  27.993  29.401  1.00  0.00     0.049 A 
ATOM     48  N   UNL A   1      43.687  28.805  28.943  1.00  0.00    -0.248 NA
ATOM     49  C   UNL A   1      42.800  28.783  26.804  1.00  0.00     0.031 C 
ATOM     50  C   UNL A   1      39.237  27.365  29.625  1.00  0.00     0.029 A 
ATOM     51  N   UNL A   1      40.415  29.185  30.052  1.00  0.00    -0.354 N 
ATOM     52  C   UNL A   1      44.450  29.635  28.125  1.00  0.00     0.074 A 
ATOM     53  C   UNL A   1      43.969  29.427  26.785  1.00  0.00     0.031 C 
ATOM     54  C   UNL A   1      38.381  28.270  30.150  1.00  0.00     0.029 A 
ATOM     55  C   UNL A   1      39.116  29.483  30.453  1.00  0.00     0.049 A 
ATOM     56  H   UNL A   1      41.177  29.783  30.223  1.00  0.00     0.167 HD
ATOM     57  C   UNL A   1      45.229  30.612  28.668  1.00  0.00     0.037 A 
ATOM     58  C   UNL A   1      38.673  30.654  30.975  1.00  0.00     0.037 A 
ATOM     59  C   UNL A   1      45.397  30.391  30.084  1.00  0.00     0.049 A 
ATOM     60  C   UNL A   1      39.859  31.387  31.474  1.00  0.00     0.074 A 
ATOM     61  C   UNL A   1      45.961  29.406  30.869  1.00  0.00     0.029 A 
ATOM     62  N   UNL A   1      44.581  31.120  30.911  1.00  0.00    -0.354 N 
ATOM     63  N   UNL A   1      40.562  31.021  32.508  1.00  0.00    -0.248 NA
ATOM     64  C   UNL A   1      40.514  32.324  30.576  1.00  0.00     0.031 C 
ATOM     65  C   UNL A   1      45.139  29.336  32.034  1.00  0.00     0.029 A 
ATOM     66  C   UNL A   1      44.155  30.322  31.937  1.00  0.00     0.049 A 
ATOM     67  H   UNL A   1      44.341  32.066  30.786  1.00  0.00     0.167 HD
ATOM     68  C   UNL A   1      41.871  31.296  32.149  1.00  0.00     0.074 A 
ATOM     69  C   UNL A   1      41.766  32.225  31.028  1.00  0.00     0.031 C 
ATOM     70  C   UNL A   1      42.888  30.507  32.605  1.00  0.00     0.037 A 
BRANCH  57  71
ATOM     71  C   UNL A   1      45.460  31.985  28.060  1.00  0.00     0.064 A 
ATOM     72  C   UNL A   1      44.339  32.813  27.825  1.00  0.00     0.173 A 
ATOM     73  C   UNL A   1      46.645  32.383  27.407  1.00  0.00     0.173 A 
ATOM     74  F   UNL A   1      43.154  32.539  28.391  1.00  0.00    -0.203 F 
ATOM     75  C   UNL A   1      44.377  33.876  26.919  1.00  0.00     0.198 A 
ATOM     76  C   UNL A   1      46.692  33.477  26.543  1.00  0.00     0.198 A 
ATOM     77  F   UNL A   1      47.779  31.679  27.479  1.00  0.00    -0.203 F 
ATOM     78  F   UNL A   1      43.250  34.536  26.618  1.00  0.00    -0.200 F 
ATOM     79  C   UNL A   1      45.552  34.201  26.269  1.00  0.00     0.200 A 
ATOM     80  F   UNL A   1      47.840  33.768  25.912  1.00  0.00    -0.200 F 
ATOM     81  F   UNL A   1      45.578  35.171  25.347  1.00  0.00    -0.200 F 
ENDBRANCH  57  71
BRANCH  58  82
ATOM     82  C   UNL A   1      37.343  31.302  30.877  1.00  0.00     0.064 A 
ATOM     83  C   UNL A   1      36.542  31.478  32.021  1.00  0.00     0.173 A 
ATOM     84  C   UNL A   1      36.965  32.028  29.733  1.00  0.00     0.173 A 
ATOM     85  F   UNL A   1      36.851  30.851  33.166  1.00  0.00    -0.203 F 
ATOM     86  C   UNL A   1      35.458  32.361  32.030  1.00  0.00     0.198 A 
ATOM     87  C   UNL A   1      35.877  32.903  29.742  1.00  0.00     0.198 A 
ATOM     88  F   UNL A   1      37.702  31.979  28.615  1.00  0.00    -0.203 F 
ATOM     89  F   UNL A   1      34.768  32.560  33.162  1.00  0.00    -0.200 F 
ATOM     90  C   UNL A   1      35.136  33.085  30.895  1.00  0.00     0.200 A 
ATOM     91  F   UNL A   1      35.596  33.625  28.648  1.00  0.00    -0.200 F 
ATOM     92  F   UNL A   1      34.144  33.986  30.925  1.00  0.00    -0.200 F 
ENDBRANCH  58  82
BRANCH  70  93
ATOM     93  C   UNL A   1      42.599  29.617  33.783  1.00  0.00     0.064 A 
ATOM     94  C   UNL A   1      42.097  28.306  33.698  1.00  0.00     0.173 A 
ATOM     95  C   UNL A   1      42.943  30.093  35.057  1.00  0.00     0.173 A 
ATOM     96  F   UNL A   1      41.839  27.738  32.514  1.00  0.00    -0.203 F 
ATOM     97  C   UNL A   1      41.896  27.535  34.843  1.00  0.00     0.198 A 
ATOM     98  C   UNL A   1      42.784  29.306  36.191  1.00  0.00     0.198 A 
ATOM     99  F   UNL A   1      43.473  31.319  35.195  1.00  0.00    -0.203 F 
ATOM    100  F   UNL A   1      41.388  26.298  34.739  1.00  0.00    -0.200 F 
ATOM    101  C   UNL A   1      42.246  28.033  36.087  1.00  0.00     0.200 A 
ATOM    102  F   UNL A   1      43.170  29.775  37.386  1.00  0.00    -0.200 F 
ATOM    103  F   UNL A   1      42.085  27.280  37.183  1.00  0.00    -0.200 F 
ENDBRANCH  70  93
ENDBRANCH  44  45
ENDBRANCH  36  39
ENDBRANCH  34  35
ENDBRANCH   1  34
TORSDOF 14
ENDMDL
MODEL 3
REMARK VINA RESULT:     -14.9      1.807      2.123
REMARK SMILES COc1cccc(-c2nn(-c3cc4c(cc3C(N)=O)OCO4)cc2C(=O)NCCCNC(=O)c2ccc(-c3c4nc(c(-c5c(F)c(F)c(F)c(F)c5F)c5ccc([nH]5)c(-c5c(F)c(F)c(F)c(F)c5F)c5nc(c(-c6c(F)c(F)c(F)c(F)c6F)c6ccc3[nH]6)C=C5)C=C4)cc2)c1
REMARK SMILES IDX 29 1 28 2 27 3 25 4 26 5 24 7 8 8 9 9 10 10 23 11 7 12 3 13
REMARK SMILES IDX 4 14 97 15 5 16 6 17 2 18 1 19 11 20 12 21 16 22 13 23 15 24
REMARK SMILES IDX 14 25 22 26 20 27 21 28 17 29 18 30 19 31 30 34 31 35 32 36
REMARK SMILES IDX 33 38 34 39 35 40 96 41 36 42 95 43 37 44 38 45 39 46 89 47
REMARK SMILES IDX 40 48 94 49 88 50 90 51 41 52 93 53 87 54 86 55 42 57 74 58
REMARK SMILES IDX 54 59 73 60 55 61 58 62 72 63 91 64 56 65 57 66 71 68 92 69
REMARK SMILES IDX 59 70 43 71 44 72 52 73 45 74 46 75 50 76 53 77 47 78 48 79
REMARK SMILES IDX 51 80 49 81 75 82 76 83 84 84 77 85 78 86 82 87 85 88 79 89
REMARK SMILES IDX 80 90 83 91 81 92 60 93 61 94 69 95 62 96 63 97 67 98 70 99
REMARK SMILES IDX 64 100 65 101 68 102 66 103
REMARK H PARENT 27 6 18 32 18 33 31 37 90 56 58 67
REMARK Flexibility Score: inf
ROOT
ATOM      1  C   UNL A   1      34.673  30.117  27.510  1.00  0.00     0.042 C 
ENDROOT
BRANCH   1   2
ATOM      2  C   UNL A   1      33.415  30.072  26.637  1.00  0.00     0.118 C 
BRANCH   2   3
ATOM      3  N   UNL A   1      32.299  29.432  27.312  1.00  0.00    -0.352 N 
ATOM      4  C   UNL A   1      31.752  28.173  27.214  1.00  0.00     0.255 C 
ATOM      5  O   UNL A   1      30.841  27.928  28.002  1.00  0.00    -0.269 OA
ATOM      6  H   UNL A   1      31.847  30.011  27.967  1.00  0.00     0.163 HD
BRANCH   4   7
ATOM      7  C   UNL A   1      32.243  27.191  26.255  1.00  0.00     0.086 A 
ATOM      8  C   UNL A   1      31.707  26.845  24.963  1.00  0.00     0.106 A 
ATOM      9  N   UNL A   1      32.376  25.807  24.412  1.00  0.00    -0.167 NA
ATOM     10  N   UNL A   1      33.189  25.392  25.404  1.00  0.00    -0.239 N 
ATOM     11  C   UNL A   1      33.345  26.371  26.353  1.00  0.00     0.129 A 
BRANCH   8  12
ATOM     12  C   UNL A   1      30.590  27.481  24.258  1.00  0.00     0.007 A 
ATOM     13  C   UNL A   1      29.699  29.282  22.893  1.00  0.00     0.119 A 
ATOM     14  C   UNL A   1      28.466  28.628  22.848  1.00  0.00     0.046 A 
ATOM     15  C   UNL A   1      30.760  28.713  23.607  1.00  0.00     0.056 A 
ATOM     16  C   UNL A   1      28.284  27.410  23.499  1.00  0.00     0.005 A 
ATOM     17  C   UNL A   1      29.341  26.844  24.210  1.00  0.00     0.011 A 
BRANCH  13  18
ATOM     18  O   UNL A   1      29.726  30.487  22.243  1.00  0.00    -0.497 OA
ATOM     19  C   UNL A   1      28.579  30.807  21.464  1.00  0.00     0.278 C 
ENDBRANCH  13  18
ENDBRANCH   8  12
BRANCH  10  20
ATOM     20  C   UNL A   1      33.925  24.183  25.371  1.00  0.00     0.081 A 
ATOM     21  C   UNL A   1      35.154  24.174  24.689  1.00  0.00     0.079 A 
ATOM     22  C   UNL A   1      33.484  23.038  26.105  1.00  0.00     0.069 A 
ATOM     23  C   UNL A   1      35.948  23.055  24.836  1.00  0.00     0.167 A 
ATOM     24  C   UNL A   1      34.372  21.971  26.303  1.00  0.00     0.066 A 
ATOM     25  C   UNL A   1      35.579  22.004  25.645  1.00  0.00     0.166 A 
ATOM     26  O   UNL A   1      37.157  22.837  24.251  1.00  0.00    -0.454 OA
ATOM     27  O   UNL A   1      36.503  21.007  25.667  1.00  0.00    -0.454 OA
ATOM     28  C   UNL A   1      37.399  21.465  24.633  1.00  0.00     0.468 C 
BRANCH  22  29
ATOM     29  C   UNL A   1      32.043  22.847  26.490  1.00  0.00     0.251 C 
ATOM     30  N   UNL A   1      31.132  22.571  25.509  1.00  0.00    -0.366 N 
ATOM     31  O   UNL A   1      31.616  23.005  27.628  1.00  0.00    -0.269 OA
ATOM     32  H   UNL A   1      31.434  22.438  24.581  1.00  0.00     0.159 HD
ATOM     33  H   UNL A   1      30.174  22.506  25.729  1.00  0.00     0.159 HD
ENDBRANCH  22  29
ENDBRANCH  10  20
ENDBRANCH   4   7
ENDBRANCH   2   3
ENDBRANCH   1   2
BRANCH   1  34
ATOM     34  C   UNL A   1      35.231  31.529  27.625  1.00  0.00     0.118 C 
BRANCH  34  35
ATOM     35  N   UNL A   1      34.810  32.183  28.863  1.00  0.00    -0.352 N 
ATOM     36  C   UNL A   1      35.209  31.942  30.161  1.00  0.00     0.251 C 
ATOM     37  H   UNL A   1      34.143  32.900  28.754  1.00  0.00     0.163 HD
ATOM     38  O   UNL A   1      34.530  32.328  31.099  1.00  0.00    -0.269 OA
BRANCH  36  39
ATOM     39  C   UNL A   1      36.459  31.201  30.406  1.00  0.00     0.039 A 
ATOM     40  C   UNL A   1      36.426  29.827  30.662  1.00  0.00     0.014 A 
ATOM     41  C   UNL A   1      37.671  31.886  30.370  1.00  0.00     0.014 A 
ATOM     42  C   UNL A   1      37.628  29.137  30.792  1.00  0.00     0.010 A 
ATOM     43  C   UNL A   1      38.854  31.188  30.356  1.00  0.00     0.010 A 
ATOM     44  C   UNL A   1      38.841  29.821  30.609  1.00  0.00    -0.014 A 
BRANCH  44  45
ATOM     45  C   UNL A   1      40.097  29.081  30.529  1.00  0.00     0.031 A 
ATOM     46  C   UNL A   1      40.767  28.895  31.845  1.00  0.00     0.074 A 
ATOM     47  C   UNL A   1      40.513  28.436  29.419  1.00  0.00     0.049 A 
ATOM     48  N   UNL A   1      41.886  29.405  32.235  1.00  0.00    -0.248 NA
ATOM     49  C   UNL A   1      40.039  28.182  32.908  1.00  0.00     0.031 C 
ATOM     50  C   UNL A   1      39.790  28.264  28.155  1.00  0.00     0.029 A 
ATOM     51  N   UNL A   1      41.639  27.692  29.221  1.00  0.00    -0.354 N 
ATOM     52  C   UNL A   1      42.108  28.915  33.520  1.00  0.00     0.074 A 
ATOM     53  C   UNL A   1      40.862  28.336  33.947  1.00  0.00     0.031 C 
ATOM     54  C   UNL A   1      40.376  27.290  27.424  1.00  0.00     0.029 A 
ATOM     55  C   UNL A   1      41.603  26.887  28.086  1.00  0.00     0.049 A 
ATOM     56  H   UNL A   1      42.412  27.723  29.829  1.00  0.00     0.167 HD
ATOM     57  C   UNL A   1      43.376  28.798  34.005  1.00  0.00     0.037 A 
ATOM     58  C   UNL A   1      42.505  25.940  27.729  1.00  0.00     0.037 A 
ATOM     59  C   UNL A   1      44.296  29.554  33.189  1.00  0.00     0.049 A 
ATOM     60  C   UNL A   1      43.751  26.218  28.481  1.00  0.00     0.074 A 
ATOM     61  C   UNL A   1      44.465  30.886  32.867  1.00  0.00     0.029 A 
ATOM     62  N   UNL A   1      45.002  28.841  32.255  1.00  0.00    -0.354 N 
ATOM     63  N   UNL A   1      44.521  27.246  28.262  1.00  0.00    -0.248 NA
ATOM     64  C   UNL A   1      43.940  25.559  29.763  1.00  0.00     0.031 C 
ATOM     65  C   UNL A   1      44.922  30.890  31.514  1.00  0.00     0.029 A 
ATOM     66  C   UNL A   1      45.074  29.566  31.098  1.00  0.00     0.049 A 
ATOM     67  H   UNL A   1      45.395  27.949  32.395  1.00  0.00     0.167 HD
ATOM     68  C   UNL A   1      44.937  27.638  29.523  1.00  0.00     0.074 A 
ATOM     69  C   UNL A   1      44.675  26.486  30.380  1.00  0.00     0.031 C 
ATOM     70  C   UNL A   1      45.168  28.958  29.790  1.00  0.00     0.037 A 
BRANCH  57  71
ATOM     71  C   UNL A   1      43.869  27.677  34.902  1.00  0.00     0.064 A 
ATOM     72  C   UNL A   1      43.676  26.343  34.479  1.00  0.00     0.173 A 
ATOM     73  C   UNL A   1      44.206  27.830  36.264  1.00  0.00     0.173 A 
ATOM     74  F   UNL A   1      43.353  26.068  33.207  1.00  0.00    -0.203 F 
ATOM     75  C   UNL A   1      43.701  25.268  35.372  1.00  0.00     0.198 A 
ATOM     76  C   UNL A   1      44.281  26.749  37.142  1.00  0.00     0.198 A 
ATOM     77  F   UNL A   1      44.367  29.027  36.836  1.00  0.00    -0.203 F 
ATOM     78  F   UNL A   1      43.363  24.043  34.949  1.00  0.00    -0.200 F 
ATOM     79  C   UNL A   1      43.992  25.474  36.707  1.00  0.00     0.200 A 
ATOM     80  F   UNL A   1      44.552  26.971  38.437  1.00  0.00    -0.200 F 
ATOM     81  F   UNL A   1      43.946  24.460  37.580  1.00  0.00    -0.200 F 
ENDBRANCH  57  71
BRANCH  58  82
ATOM     82  C   UNL A   1      42.320  24.679  26.972  1.00  0.00     0.064 A 
ATOM     83  C   UNL A   1      43.000  24.461  25.759  1.00  0.00     0.173 A 
ATOM     84  C   UNL A   1      41.720  23.552  27.562  1.00  0.00     0.173 A 
ATOM     85  F   UNL A   1      43.630  25.474  25.146  1.00  0.00    -0.203 F 
ATOM     86  C   UNL A   1      43.112  23.185  25.199  1.00  0.00     0.198 A 
ATOM     87  C   UNL A   1      41.826  22.280  26.997  1.00  0.00     0.198 A 
ATOM     88  F   UNL A   1      41.107  23.644  28.750  1.00  0.00    -0.203 F 
ATOM     89  F   UNL A   1      43.834  23.006  24.084  1.00  0.00    -0.200 F 
ATOM     90  C   UNL A   1      42.538  22.093  25.826  1.00  0.00     0.200 A 
ATOM     91  F   UNL A   1      41.297  21.224  27.631  1.00  0.00    -0.200 F 
ATOM     92  F   UNL A   1      42.707  20.860  25.329  1.00  0.00    -0.200 F 
ENDBRANCH  58  82
BRANCH  70  93
ATOM     93  C   UNL A   1      45.343  29.881  28.617  1.00  0.00     0.064 A 
ATOM     94  C   UNL A   1      44.296  30.542  27.948  1.00  0.00     0.173 A 
ATOM     95  C   UNL A   1      46.653  30.182  28.216  1.00  0.00     0.173 A 
ATOM     96  F   UNL A   1      43.023  30.390  28.333  1.00  0.00    -0.203 F 
ATOM     97  C   UNL A   1      44.553  31.414  26.891  1.00  0.00     0.198 A 
ATOM     98  C   UNL A   1      46.907  31.087  27.192  1.00  0.00     0.198 A 
ATOM     99  F   UNL A   1      47.695  29.620  28.849  1.00  0.00    -0.203 F 
ATOM    100  F   UNL A   1      43.536  32.009  26.249  1.00  0.00    -0.200 F 
ATOM    101  C   UNL A   1      45.857  31.691  26.519  1.00  0.00     0.200 A 
ATOM    102  F   UNL A   1      48.173  31.389  26.869  1.00  0.00    -0.200 F 
ATOM    103  F   UNL A   1      46.105  32.557  25.526  1.00  0.00    -0.200 F 
ENDBRANCH  70  93
ENDBRANCH  44  45
ENDBRANCH  36  39
ENDBRANCH  34  35
ENDBRANCH   1  34
TORSDOF 14
ENDMDL
