MODEL 1
REMARK VINA RESULT:     -12.4      0.000      0.000
REMARK SMILES CN(C(=O)N[C@@H]1C=C[C@@H](C(=O)NCCCNC(=O)c2ccc(-c3c4nc(c(-c5c(F)c(F)c(F)c(F)c5F)c5ccc([nH]5)c(-c5c(F)c(F)c(F)c(F)c5F)c5nc(c(-c6c(F)c(F)c(F)c(F)c6F)c6ccc3[nH]6)C=C5)C=C4)cc2)C1)[C@H]1CCS(=O)(=O)C1
REMARK SMILES IDX 13 1 12 2 10 3 11 4 9 6 6 7 7 8 82 9 8 10 5 11 3 12 4 13
REMARK SMILES IDX 2 15 1 16 83 17 84 18 89 19 85 20 86 21 87 22 88 23 14 24
REMARK SMILES IDX 15 25 16 26 17 27 18 29 19 30 20 31 81 32 21 33 80 34 22 35
REMARK SMILES IDX 23 36 24 37 74 38 25 39 79 40 73 41 75 42 26 43 78 44 72 45
REMARK SMILES IDX 71 46 27 48 59 49 39 50 58 51 40 52 43 53 57 54 76 55 41 56
REMARK SMILES IDX 42 57 56 59 77 60 44 61 28 62 29 63 37 64 30 65 31 66 35 67
REMARK SMILES IDX 38 68 32 69 33 70 36 71 34 72 60 73 61 74 69 75 62 76 63 77
REMARK SMILES IDX 67 78 70 79 64 80 65 81 68 82 66 83 45 84 46 85 54 86 47 87
REMARK SMILES IDX 48 88 52 89 55 90 49 91 50 92 53 93 51 94
REMARK H PARENT 12 5 5 14 16 28 75 47 43 58
REMARK Flexibility Score: inf
ROOT
ATOM      1  C   UNL A   1      31.162  31.237  26.534  1.00  0.00     0.117 C 
ENDROOT
BRANCH   1   2
ATOM      2  N   UNL A   1      31.448  30.581  25.274  1.00  0.00    -0.356 N 
ATOM      3  C   UNL A   1      31.841  29.311  24.985  1.00  0.00     0.227 C 
ATOM      4  O   UNL A   1      31.899  29.013  23.787  1.00  0.00    -0.274 OA
ATOM      5  H   UNL A   1      31.340  31.159  24.485  1.00  0.00     0.163 HD
BRANCH   3   6
ATOM      6  C   UNL A   1      32.260  28.291  26.049  1.00  0.00     0.103 C 
ATOM      7  C   UNL A   1      32.239  25.840  25.799  1.00  0.00     0.107 C 
ATOM      8  C   UNL A   1      33.630  26.391  25.871  1.00  0.00    -0.006 C 
ATOM      9  C   UNL A   1      31.355  27.060  26.088  1.00  0.00     0.047 C 
ATOM     10  C   UNL A   1      33.641  27.728  25.946  1.00  0.00    -0.016 C 
BRANCH   7  11
ATOM     11  N   UNL A   1      32.085  24.764  26.745  1.00  0.00    -0.332 N 
ATOM     12  C   UNL A   1      32.223  23.425  26.657  1.00  0.00     0.317 C 
ATOM     13  O   UNL A   1      31.868  22.778  27.643  1.00  0.00    -0.249 OA
ATOM     14  H   UNL A   1      31.824  25.070  27.644  1.00  0.00     0.165 HD
BRANCH  12  15
ATOM     15  N   UNL A   1      32.671  22.811  25.514  1.00  0.00    -0.324 N 
ATOM     16  C   UNL A   1      31.849  22.450  24.367  1.00  0.00     0.149 C 
BRANCH  15  17
ATOM     17  C   UNL A   1      34.116  22.726  25.250  1.00  0.00     0.102 C 
ATOM     18  C   UNL A   1      34.594  21.295  24.970  1.00  0.00     0.042 C 
ATOM     19  C   UNL A   1      34.682  23.588  24.118  1.00  0.00     0.162 C 
ATOM     20  C   UNL A   1      36.094  21.395  24.722  1.00  0.00     0.139 C 
ATOM     21  S   UNL A   1      36.366  23.005  23.993  1.00  0.00     0.152 S 
ATOM     22  O   UNL A   1      37.179  23.777  24.914  1.00  0.00    -0.229 OA
ATOM     23  O   UNL A   1      36.724  22.843  22.601  1.00  0.00    -0.229 OA
ENDBRANCH  15  17
ENDBRANCH  12  15
ENDBRANCH   7  11
ENDBRANCH   3   6
ENDBRANCH   1   2
BRANCH   1  24
ATOM     24  C   UNL A   1      31.405  32.741  26.482  1.00  0.00     0.042 C 
BRANCH  24  25
ATOM     25  C   UNL A   1      32.630  33.200  27.264  1.00  0.00     0.118 C 
BRANCH  25  26
ATOM     26  N   UNL A   1      32.482  34.546  27.796  1.00  0.00    -0.352 N 
ATOM     27  C   UNL A   1      33.060  35.149  28.883  1.00  0.00     0.251 C 
ATOM     28  H   UNL A   1      31.863  35.121  27.290  1.00  0.00     0.163 HD
ATOM     29  O   UNL A   1      32.631  36.233  29.266  1.00  0.00    -0.269 OA
BRANCH  27  30
ATOM     30  C   UNL A   1      34.185  34.511  29.602  1.00  0.00     0.039 A 
ATOM     31  C   UNL A   1      35.467  34.601  29.050  1.00  0.00     0.014 A 
ATOM     32  C   UNL A   1      33.982  33.773  30.770  1.00  0.00     0.014 A 
ATOM     33  C   UNL A   1      36.544  33.978  29.685  1.00  0.00     0.010 A 
ATOM     34  C   UNL A   1      35.070  33.234  31.452  1.00  0.00     0.010 A 
ATOM     35  C   UNL A   1      36.358  33.305  30.903  1.00  0.00    -0.014 A 
BRANCH  35  36
ATOM     36  C   UNL A   1      37.489  32.625  31.582  1.00  0.00     0.031 A 
ATOM     37  C   UNL A   1      38.188  31.470  30.913  1.00  0.00     0.074 A 
ATOM     38  C   UNL A   1      37.868  33.020  32.813  1.00  0.00     0.049 A 
ATOM     39  N   UNL A   1      39.171  30.727  31.353  1.00  0.00    -0.248 NA
ATOM     40  C   UNL A   1      37.695  31.079  29.582  1.00  0.00     0.031 C 
ATOM     41  C   UNL A   1      37.243  34.094  33.585  1.00  0.00     0.029 A 
ATOM     42  N   UNL A   1      38.868  32.561  33.631  1.00  0.00    -0.354 N 
ATOM     43  C   UNL A   1      39.402  29.779  30.364  1.00  0.00     0.074 A 
ATOM     44  C   UNL A   1      38.413  29.996  29.332  1.00  0.00     0.031 C 
ATOM     45  C   UNL A   1      37.892  34.232  34.752  1.00  0.00     0.029 A 
ATOM     46  C   UNL A   1      38.955  33.234  34.826  1.00  0.00     0.049 A 
ATOM     47  H   UNL A   1      39.468  31.819  33.386  1.00  0.00     0.167 HD
ATOM     48  C   UNL A   1      40.369  28.832  30.305  1.00  0.00     0.037 A 
ATOM     49  C   UNL A   1      39.796  33.062  35.863  1.00  0.00     0.037 A 
ATOM     50  C   UNL A   1      41.366  28.633  31.324  1.00  0.00     0.049 A 
ATOM     51  C   UNL A   1      40.862  32.002  35.772  1.00  0.00     0.074 A 
ATOM     52  C   UNL A   1      42.416  27.733  31.342  1.00  0.00     0.029 A 
ATOM     53  N   UNL A   1      41.434  29.349  32.511  1.00  0.00    -0.354 N 
ATOM     54  N   UNL A   1      41.110  31.154  34.804  1.00  0.00    -0.248 NA
ATOM     55  C   UNL A   1      41.776  31.890  36.916  1.00  0.00     0.031 C 
ATOM     56  C   UNL A   1      43.087  27.865  32.563  1.00  0.00     0.029 A 
ATOM     57  C   UNL A   1      42.498  28.898  33.276  1.00  0.00     0.049 A 
ATOM     58  H   UNL A   1      40.817  30.070  32.771  1.00  0.00     0.167 HD
ATOM     59  C   UNL A   1      42.233  30.438  35.201  1.00  0.00     0.074 A 
ATOM     60  C   UNL A   1      42.623  30.962  36.493  1.00  0.00     0.031 C 
ATOM     61  C   UNL A   1      42.884  29.439  34.555  1.00  0.00     0.037 A 
BRANCH  48  62
ATOM     62  C   UNL A   1      40.393  27.937  29.096  1.00  0.00     0.064 A 
ATOM     63  C   UNL A   1      39.632  26.759  29.034  1.00  0.00     0.173 A 
ATOM     64  C   UNL A   1      41.164  28.276  27.974  1.00  0.00     0.173 A 
ATOM     65  F   UNL A   1      38.885  26.380  30.082  1.00  0.00    -0.203 F 
ATOM     66  C   UNL A   1      39.671  25.936  27.910  1.00  0.00     0.198 A 
ATOM     67  C   UNL A   1      41.173  27.470  26.838  1.00  0.00     0.198 A 
ATOM     68  F   UNL A   1      41.907  29.393  27.975  1.00  0.00    -0.203 F 
ATOM     69  F   UNL A   1      38.985  24.785  27.901  1.00  0.00    -0.200 F 
ATOM     70  C   UNL A   1      40.435  26.296  26.811  1.00  0.00     0.200 A 
ATOM     71  F   UNL A   1      41.900  27.827  25.770  1.00  0.00    -0.200 F 
ATOM     72  F   UNL A   1      40.467  25.506  25.728  1.00  0.00    -0.200 F 
ENDBRANCH  48  62
BRANCH  49  73
ATOM     73  C   UNL A   1      39.690  33.935  37.062  1.00  0.00     0.064 A 
ATOM     74  C   UNL A   1      38.929  33.545  38.174  1.00  0.00     0.173 A 
ATOM     75  C   UNL A   1      40.331  35.181  37.116  1.00  0.00     0.173 A 
ATOM     76  F   UNL A   1      38.284  32.370  38.165  1.00  0.00    -0.203 F 
ATOM     77  C   UNL A   1      38.789  34.381  39.280  1.00  0.00     0.198 A 
ATOM     78  C   UNL A   1      40.216  36.002  38.236  1.00  0.00     0.198 A 
ATOM     79  F   UNL A   1      41.078  35.599  36.083  1.00  0.00    -0.203 F 
ATOM     80  F   UNL A   1      38.010  34.008  40.305  1.00  0.00    -0.200 F 
ATOM     81  C   UNL A   1      39.436  35.607  39.313  1.00  0.00     0.200 A 
ATOM     82  F   UNL A   1      40.860  37.176  38.272  1.00  0.00    -0.200 F 
ATOM     83  F   UNL A   1      39.302  36.410  40.376  1.00  0.00    -0.200 F 
ENDBRANCH  49  73
BRANCH  61  84
ATOM     84  C   UNL A   1      44.126  28.895  35.204  1.00  0.00     0.064 A 
ATOM     85  C   UNL A   1      45.396  29.437  34.954  1.00  0.00     0.173 A 
ATOM     86  C   UNL A   1      44.039  27.816  36.098  1.00  0.00     0.173 A 
ATOM     87  F   UNL A   1      45.538  30.461  34.101  1.00  0.00    -0.203 F 
ATOM     88  C   UNL A   1      46.536  28.889  35.539  1.00  0.00     0.198 A 
ATOM     89  C   UNL A   1      45.175  27.297  36.710  1.00  0.00     0.198 A 
ATOM     90  F   UNL A   1      42.849  27.265  36.380  1.00  0.00    -0.203 F 
ATOM     91  F   UNL A   1      47.745  29.377  35.229  1.00  0.00    -0.200 F 
ATOM     92  C   UNL A   1      46.423  27.824  36.420  1.00  0.00     0.200 A 
ATOM     93  F   UNL A   1      45.062  26.280  37.577  1.00  0.00    -0.200 F 
ATOM     94  F   UNL A   1      47.521  27.298  36.981  1.00  0.00    -0.200 F 
ENDBRANCH  61  84
ENDBRANCH  35  36
ENDBRANCH  27  30
ENDBRANCH  25  26
ENDBRANCH  24  25
ENDBRANCH   1  24
TORSDOF 13
ENDMDL
MODEL 2
REMARK VINA RESULT:     -12.4      0.086      1.595
REMARK SMILES CN(C(=O)N[C@@H]1C=C[C@@H](C(=O)NCCCNC(=O)c2ccc(-c3c4nc(c(-c5c(F)c(F)c(F)c(F)c5F)c5ccc([nH]5)c(-c5c(F)c(F)c(F)c(F)c5F)c5nc(c(-c6c(F)c(F)c(F)c(F)c6F)c6ccc3[nH]6)C=C5)C=C4)cc2)C1)[C@H]1CCS(=O)(=O)C1
REMARK SMILES IDX 13 1 12 2 10 3 11 4 9 6 6 7 7 8 82 9 8 10 5 11 3 12 4 13
REMARK SMILES IDX 2 15 1 16 83 17 84 18 89 19 85 20 86 21 87 22 88 23 14 24
REMARK SMILES IDX 15 25 16 26 17 27 18 29 19 30 20 31 81 32 21 33 80 34 22 35
REMARK SMILES IDX 23 36 24 37 74 38 25 39 79 40 73 41 75 42 26 43 78 44 72 45
REMARK SMILES IDX 71 46 27 48 59 49 39 50 58 51 40 52 43 53 57 54 76 55 41 56
REMARK SMILES IDX 42 57 56 59 77 60 44 61 28 62 29 63 37 64 30 65 31 66 35 67
REMARK SMILES IDX 38 68 32 69 33 70 36 71 34 72 60 73 61 74 69 75 62 76 63 77
REMARK SMILES IDX 67 78 70 79 64 80 65 81 68 82 66 83 45 84 46 85 54 86 47 87
REMARK SMILES IDX 48 88 52 89 55 90 49 91 50 92 53 93 51 94
REMARK H PARENT 12 5 5 14 16 28 75 47 43 58
REMARK Flexibility Score: inf
ROOT
ATOM      1  C   UNL A   1      31.018  31.302  26.418  1.00  0.00     0.117 C 
ENDROOT
BRANCH   1   2
ATOM      2  N   UNL A   1      31.344  30.616  25.184  1.00  0.00    -0.356 N 
ATOM      3  C   UNL A   1      31.761  29.346  24.938  1.00  0.00     0.227 C 
ATOM      4  O   UNL A   1      31.854  29.017  23.750  1.00  0.00    -0.274 OA
ATOM      5  H   UNL A   1      31.247  31.172  24.378  1.00  0.00     0.163 HD
BRANCH   3   6
ATOM      6  C   UNL A   1      32.169  28.360  26.039  1.00  0.00     0.103 C 
ATOM      7  C   UNL A   1      32.217  25.905  25.844  1.00  0.00     0.107 C 
ATOM      8  C   UNL A   1      33.591  26.492  25.950  1.00  0.00    -0.006 C 
ATOM      9  C   UNL A   1      31.294  27.107  26.076  1.00  0.00     0.047 C 
ATOM     10  C   UNL A   1      33.566  27.830  25.995  1.00  0.00    -0.016 C 
BRANCH   7  11
ATOM     11  N   UNL A   1      32.057  24.846  26.808  1.00  0.00    -0.332 N 
ATOM     12  C   UNL A   1      32.180  23.504  26.741  1.00  0.00     0.317 C 
ATOM     13  O   UNL A   1      31.824  22.878  27.740  1.00  0.00    -0.249 OA
ATOM     14  H   UNL A   1      31.807  25.170  27.704  1.00  0.00     0.165 HD
BRANCH  12  15
ATOM     15  N   UNL A   1      32.612  22.866  25.605  1.00  0.00    -0.324 N 
ATOM     16  C   UNL A   1      31.776  22.487  24.475  1.00  0.00     0.149 C 
BRANCH  15  17
ATOM     17  C   UNL A   1      34.053  22.770  25.327  1.00  0.00     0.102 C 
ATOM     18  C   UNL A   1      34.515  21.337  25.031  1.00  0.00     0.042 C 
ATOM     19  C   UNL A   1      34.617  23.637  24.198  1.00  0.00     0.162 C 
ATOM     20  C   UNL A   1      36.013  21.424  24.770  1.00  0.00     0.139 C 
ATOM     21  S   UNL A   1      36.294  23.038  24.052  1.00  0.00     0.152 S 
ATOM     22  O   UNL A   1      37.123  23.795  24.971  1.00  0.00    -0.229 OA
ATOM     23  O   UNL A   1      36.637  22.885  22.655  1.00  0.00    -0.229 OA
ENDBRANCH  15  17
ENDBRANCH  12  15
ENDBRANCH   7  11
ENDBRANCH   3   6
ENDBRANCH   1   2
BRANCH   1  24
ATOM     24  C   UNL A   1      31.388  32.780  26.386  1.00  0.00     0.042 C 
BRANCH  24  25
ATOM     25  C   UNL A   1      32.527  33.156  27.327  1.00  0.00     0.118 C 
BRANCH  25  26
ATOM     26  N   UNL A   1      32.439  34.533  27.788  1.00  0.00    -0.352 N 
ATOM     27  C   UNL A   1      33.065  35.171  28.827  1.00  0.00     0.251 C 
ATOM     28  H   UNL A   1      31.827  35.102  27.267  1.00  0.00     0.163 HD
ATOM     29  O   UNL A   1      32.684  36.290  29.161  1.00  0.00    -0.269 OA
BRANCH  27  30
ATOM     30  C   UNL A   1      34.185  34.533  29.553  1.00  0.00     0.039 A 
ATOM     31  C   UNL A   1      35.464  34.590  28.991  1.00  0.00     0.014 A 
ATOM     32  C   UNL A   1      33.979  33.825  30.740  1.00  0.00     0.014 A 
ATOM     33  C   UNL A   1      36.535  33.965  29.633  1.00  0.00     0.010 A 
ATOM     34  C   UNL A   1      35.063  33.285  31.427  1.00  0.00     0.010 A 
ATOM     35  C   UNL A   1      36.348  33.323  30.867  1.00  0.00    -0.014 A 
BRANCH  35  36
ATOM     36  C   UNL A   1      37.473  32.641  31.554  1.00  0.00     0.031 A 
ATOM     37  C   UNL A   1      38.171  31.481  30.892  1.00  0.00     0.074 A 
ATOM     38  C   UNL A   1      37.847  33.039  32.785  1.00  0.00     0.049 A 
ATOM     39  N   UNL A   1      39.149  30.736  31.340  1.00  0.00    -0.248 NA
ATOM     40  C   UNL A   1      37.682  31.087  29.561  1.00  0.00     0.031 C 
ATOM     41  C   UNL A   1      37.223  34.119  33.550  1.00  0.00     0.029 A 
ATOM     42  N   UNL A   1      38.842  32.579  33.610  1.00  0.00    -0.354 N 
ATOM     43  C   UNL A   1      39.380  29.783  30.355  1.00  0.00     0.074 A 
ATOM     44  C   UNL A   1      38.397  30.000  29.318  1.00  0.00     0.031 C 
ATOM     45  C   UNL A   1      37.868  34.258  34.720  1.00  0.00     0.029 A 
ATOM     46  C   UNL A   1      38.926  33.256  34.803  1.00  0.00     0.049 A 
ATOM     47  H   UNL A   1      39.440  31.834  33.370  1.00  0.00     0.167 HD
ATOM     48  C   UNL A   1      40.344  28.832  30.304  1.00  0.00     0.037 A 
ATOM     49  C   UNL A   1      39.761  33.085  35.844  1.00  0.00     0.037 A 
ATOM     50  C   UNL A   1      41.335  28.633  31.329  1.00  0.00     0.049 A 
ATOM     51  C   UNL A   1      40.823  32.021  35.763  1.00  0.00     0.074 A 
ATOM     52  C   UNL A   1      42.382  27.729  31.355  1.00  0.00     0.029 A 
ATOM     53  N   UNL A   1      41.401  29.353  32.514  1.00  0.00    -0.354 N 
ATOM     54  N   UNL A   1      41.073  31.167  34.799  1.00  0.00    -0.248 NA
ATOM     55  C   UNL A   1      41.732  31.909  36.911  1.00  0.00     0.031 C 
ATOM     56  C   UNL A   1      43.047  27.863  32.579  1.00  0.00     0.029 A 
ATOM     57  C   UNL A   1      42.459  28.901  33.285  1.00  0.00     0.049 A 
ATOM     58  H   UNL A   1      40.785  30.077  32.769  1.00  0.00     0.167 HD
ATOM     59  C   UNL A   1      42.191  30.449  35.204  1.00  0.00     0.074 A 
ATOM     60  C   UNL A   1      42.577  30.976  36.496  1.00  0.00     0.031 C 
ATOM     61  C   UNL A   1      42.841  29.445  34.564  1.00  0.00     0.037 A 
BRANCH  48  62
ATOM     62  C   UNL A   1      40.370  27.933  29.099  1.00  0.00     0.064 A 
ATOM     63  C   UNL A   1      41.157  28.226  27.974  1.00  0.00     0.173 A 
ATOM     64  C   UNL A   1      39.619  26.747  29.079  1.00  0.00     0.173 A 
ATOM     65  F   UNL A   1      41.885  29.352  27.934  1.00  0.00    -0.203 F 
ATOM     66  C   UNL A   1      41.163  27.387  26.862  1.00  0.00     0.198 A 
ATOM     67  C   UNL A   1      39.655  25.892  27.980  1.00  0.00     0.198 A 
ATOM     68  F   UNL A   1      38.852  26.413  30.127  1.00  0.00    -0.203 F 
ATOM     69  F   UNL A   1      41.874  27.722  25.777  1.00  0.00    -0.200 F 
ATOM     70  C   UNL A   1      40.418  26.218  26.869  1.00  0.00     0.200 A 
ATOM     71  F   UNL A   1      38.947  24.755  27.994  1.00  0.00    -0.200 F 
ATOM     72  F   UNL A   1      40.430  25.409  25.800  1.00  0.00    -0.200 F 
ENDBRANCH  48  62
BRANCH  49  73
ATOM     73  C   UNL A   1      39.653  33.963  37.039  1.00  0.00     0.064 A 
ATOM     74  C   UNL A   1      40.317  35.198  37.091  1.00  0.00     0.173 A 
ATOM     75  C   UNL A   1      38.900  33.582  38.159  1.00  0.00     0.173 A 
ATOM     76  F   UNL A   1      41.065  35.600  36.053  1.00  0.00    -0.203 F 
ATOM     77  C   UNL A   1      40.258  36.001  38.228  1.00  0.00     0.198 A 
ATOM     78  C   UNL A   1      38.814  34.402  39.282  1.00  0.00     0.198 A 
ATOM     79  F   UNL A   1      38.237  32.416  38.158  1.00  0.00    -0.203 F 
ATOM     80  F   UNL A   1      40.948  37.148  38.272  1.00  0.00    -0.200 F 
ATOM     81  C   UNL A   1      39.502  35.605  39.321  1.00  0.00     0.200 A 
ATOM     82  F   UNL A   1      38.066  34.025  40.327  1.00  0.00    -0.200 F 
ATOM     83  F   UNL A   1      39.443  36.378  40.413  1.00  0.00    -0.200 F 
ENDBRANCH  49  73
BRANCH  61  84
ATOM     84  C   UNL A   1      44.078  28.898  35.221  1.00  0.00     0.064 A 
ATOM     85  C   UNL A   1      45.358  29.393  34.928  1.00  0.00     0.173 A 
ATOM     86  C   UNL A   1      43.976  27.865  36.166  1.00  0.00     0.173 A 
ATOM     87  F   UNL A   1      45.514  30.372  34.026  1.00  0.00    -0.203 F 
ATOM     88  C   UNL A   1      46.491  28.842  35.523  1.00  0.00     0.198 A 
ATOM     89  C   UNL A   1      45.107  27.344  36.787  1.00  0.00     0.198 A 
ATOM     90  F   UNL A   1      42.776  27.361  36.491  1.00  0.00    -0.203 F 
ATOM     91  F   UNL A   1      47.708  29.282  35.174  1.00  0.00    -0.200 F 
ATOM     92  C   UNL A   1      46.364  27.824  36.455  1.00  0.00     0.200 A 
ATOM     93  F   UNL A   1      44.980  26.372  37.702  1.00  0.00    -0.200 F 
ATOM     94  F   UNL A   1      47.456  27.295  37.025  1.00  0.00    -0.200 F 
ENDBRANCH  61  84
ENDBRANCH  35  36
ENDBRANCH  27  30
ENDBRANCH  25  26
ENDBRANCH  24  25
ENDBRANCH   1  24
TORSDOF 13
ENDMDL
MODEL 3
REMARK VINA RESULT:     -12.4      0.918      7.282
REMARK SMILES CN(C(=O)N[C@@H]1C=C[C@@H](C(=O)NCCCNC(=O)c2ccc(-c3c4nc(c(-c5c(F)c(F)c(F)c(F)c5F)c5ccc([nH]5)c(-c5c(F)c(F)c(F)c(F)c5F)c5nc(c(-c6c(F)c(F)c(F)c(F)c6F)c6ccc3[nH]6)C=C5)C=C4)cc2)C1)[C@H]1CCS(=O)(=O)C1
REMARK SMILES IDX 13 1 12 2 10 3 11 4 9 6 6 7 7 8 82 9 8 10 5 11 3 12 4 13
REMARK SMILES IDX 2 15 1 16 83 17 84 18 89 19 85 20 86 21 87 22 88 23 14 24
REMARK SMILES IDX 15 25 16 26 17 27 18 29 19 30 20 31 81 32 21 33 80 34 22 35
REMARK SMILES IDX 23 36 24 37 74 38 25 39 79 40 73 41 75 42 26 43 78 44 72 45
REMARK SMILES IDX 71 46 27 48 59 49 39 50 58 51 40 52 43 53 57 54 76 55 41 56
REMARK SMILES IDX 42 57 56 59 77 60 44 61 28 62 29 63 37 64 30 65 31 66 35 67
REMARK SMILES IDX 38 68 32 69 33 70 36 71 34 72 60 73 61 74 69 75 62 76 63 77
REMARK SMILES IDX 67 78 70 79 64 80 65 81 68 82 66 83 45 84 46 85 54 86 47 87
REMARK SMILES IDX 48 88 52 89 55 90 49 91 50 92 53 93 51 94
REMARK H PARENT 12 5 5 14 16 28 75 47 43 58
REMARK Flexibility Score: inf
ROOT
ATOM      1  C   UNL A   1      31.006  31.362  26.464  1.00  0.00     0.117 C 
ENDROOT
BRANCH   1   2
ATOM      2  N   UNL A   1      31.267  30.672  25.217  1.00  0.00    -0.356 N 
ATOM      3  C   UNL A   1      31.629  29.388  24.952  1.00  0.00     0.227 C 
ATOM      4  O   UNL A   1      31.671  29.063  23.761  1.00  0.00    -0.274 OA
ATOM      5  H   UNL A   1      31.164  31.235  24.416  1.00  0.00     0.163 HD
BRANCH   3   6
ATOM      6  C   UNL A   1      32.036  28.383  26.035  1.00  0.00     0.103 C 
ATOM      7  C   UNL A   1      32.108  25.933  25.788  1.00  0.00     0.107 C 
ATOM      8  C   UNL A   1      33.475  26.530  25.919  1.00  0.00    -0.006 C 
ATOM      9  C   UNL A   1      31.171  27.122  26.037  1.00  0.00     0.047 C 
ATOM     10  C   UNL A   1      33.438  27.866  25.993  1.00  0.00    -0.016 C 
BRANCH   7  11
ATOM     11  N   UNL A   1      31.949  24.852  26.727  1.00  0.00    -0.332 N 
ATOM     12  C   UNL A   1      32.092  23.513  26.635  1.00  0.00     0.317 C 
ATOM     13  O   UNL A   1      31.730  22.862  27.615  1.00  0.00    -0.249 OA
ATOM     14  H   UNL A   1      31.680  25.153  27.625  1.00  0.00     0.165 HD
BRANCH  12  15
ATOM     15  N   UNL A   1      32.551  22.905  25.493  1.00  0.00    -0.324 N 
ATOM     16  C   UNL A   1      31.752  22.598  24.315  1.00  0.00     0.149 C 
BRANCH  15  17
ATOM     17  C   UNL A   1      33.999  22.772  25.271  1.00  0.00     0.102 C 
ATOM     18  C   UNL A   1      34.426  21.339  24.926  1.00  0.00     0.042 C 
ATOM     19  C   UNL A   1      34.640  23.669  24.208  1.00  0.00     0.162 C 
ATOM     20  C   UNL A   1      35.936  21.385  24.732  1.00  0.00     0.139 C 
ATOM     21  S   UNL A   1      36.301  23.019  24.103  1.00  0.00     0.152 S 
ATOM     22  O   UNL A   1      37.114  23.704  25.091  1.00  0.00    -0.229 OA
ATOM     23  O   UNL A   1      36.698  22.919  22.716  1.00  0.00    -0.229 OA
ENDBRANCH  15  17
ENDBRANCH  12  15
ENDBRANCH   7  11
ENDBRANCH   3   6
ENDBRANCH   1   2
BRANCH   1  24
ATOM     24  C   UNL A   1      31.440  32.823  26.430  1.00  0.00     0.042 C 
BRANCH  24  25
ATOM     25  C   UNL A   1      32.686  33.120  27.255  1.00  0.00     0.118 C 
BRANCH  25  26
ATOM     26  N   UNL A   1      32.673  34.459  27.825  1.00  0.00    -0.352 N 
ATOM     27  C   UNL A   1      33.368  34.990  28.880  1.00  0.00     0.251 C 
ATOM     28  H   UNL A   1      32.062  35.089  27.378  1.00  0.00     0.163 HD
ATOM     29  O   UNL A   1      33.046  36.091  29.317  1.00  0.00    -0.269 OA
BRANCH  27  30
ATOM     30  C   UNL A   1      34.492  34.256  29.502  1.00  0.00     0.039 A 
ATOM     31  C   UNL A   1      35.793  34.536  29.070  1.00  0.00     0.014 A 
ATOM     32  C   UNL A   1      34.276  33.254  30.451  1.00  0.00     0.014 A 
ATOM     33  C   UNL A   1      36.872  33.834  29.610  1.00  0.00     0.010 A 
ATOM     34  C   UNL A   1      35.359  32.623  31.058  1.00  0.00     0.010 A 
ATOM     35  C   UNL A   1      36.667  32.884  30.623  1.00  0.00    -0.014 A 
BRANCH  35  36
ATOM     36  C   UNL A   1      37.802  32.118  31.197  1.00  0.00     0.031 A 
ATOM     37  C   UNL A   1      38.283  32.415  32.594  1.00  0.00     0.074 A 
ATOM     38  C   UNL A   1      38.422  31.181  30.455  1.00  0.00     0.049 A 
ATOM     39  N   UNL A   1      39.275  31.882  33.261  1.00  0.00    -0.248 NA
ATOM     40  C   UNL A   1      37.573  33.474  33.328  1.00  0.00     0.031 C 
ATOM     41  C   UNL A   1      38.079  30.833  29.076  1.00  0.00     0.029 A 
ATOM     42  N   UNL A   1      39.472  30.353  30.757  1.00  0.00    -0.354 N 
ATOM     43  C   UNL A   1      39.314  32.548  34.479  1.00  0.00     0.074 A 
ATOM     44  C   UNL A   1      38.292  33.570  34.435  1.00  0.00     0.031 C 
ATOM     45  C   UNL A   1      38.884  29.841  28.661  1.00  0.00     0.029 A 
ATOM     46  C   UNL A   1      39.822  29.510  29.729  1.00  0.00     0.049 A 
ATOM     47  H   UNL A   1      39.933  30.360  31.628  1.00  0.00     0.167 HD
ATOM     48  C   UNL A   1      40.109  32.311  35.551  1.00  0.00     0.037 A 
ATOM     49  C   UNL A   1      40.790  28.577  29.659  1.00  0.00     0.037 A 
ATOM     50  C   UNL A   1      41.110  31.278  35.600  1.00  0.00     0.049 A 
ATOM     51  C   UNL A   1      41.660  28.334  30.864  1.00  0.00     0.074 A 
ATOM     52  C   UNL A   1      41.937  30.925  36.650  1.00  0.00     0.029 A 
ATOM     53  N   UNL A   1      41.421  30.430  34.545  1.00  0.00    -0.354 N 
ATOM     54  N   UNL A   1      41.645  28.927  32.033  1.00  0.00    -0.248 NA
ATOM     55  C   UNL A   1      42.671  27.276  30.743  1.00  0.00     0.031 C 
ATOM     56  C   UNL A   1      42.786  29.901  36.216  1.00  0.00     0.029 A 
ATOM     57  C   UNL A   1      42.440  29.567  34.916  1.00  0.00     0.049 A 
ATOM     58  H   UNL A   1      40.983  30.442  33.664  1.00  0.00     0.167 HD
ATOM     59  C   UNL A   1      42.612  28.287  32.799  1.00  0.00     0.074 A 
ATOM     60  C   UNL A   1      43.184  27.252  31.964  1.00  0.00     0.031 C 
ATOM     61  C   UNL A   1      42.990  28.531  34.078  1.00  0.00     0.037 A 
BRANCH  48  62
ATOM     62  C   UNL A   1      39.926  33.188  36.759  1.00  0.00     0.064 A 
ATOM     63  C   UNL A   1      38.940  32.924  37.722  1.00  0.00     0.173 A 
ATOM     64  C   UNL A   1      40.765  34.293  36.970  1.00  0.00     0.173 A 
ATOM     65  F   UNL A   1      38.102  31.888  37.565  1.00  0.00    -0.203 F 
ATOM     66  C   UNL A   1      38.777  33.751  38.831  1.00  0.00     0.198 A 
ATOM     67  C   UNL A   1      40.624  35.097  38.098  1.00  0.00     0.198 A 
ATOM     68  F   UNL A   1      41.728  34.591  36.085  1.00  0.00    -0.203 F 
ATOM     69  F   UNL A   1      37.789  33.513  39.703  1.00  0.00    -0.200 F 
ATOM     70  C   UNL A   1      39.624  34.832  39.022  1.00  0.00     0.200 A 
ATOM     71  F   UNL A   1      41.452  36.133  38.290  1.00  0.00    -0.200 F 
ATOM     72  F   UNL A   1      39.470  35.624  40.093  1.00  0.00    -0.200 F 
ENDBRANCH  48  62
BRANCH  49  73
ATOM     73  C   UNL A   1      40.968  27.779  28.418  1.00  0.00     0.064 A 
ATOM     74  C   UNL A   1      40.260  26.584  28.220  1.00  0.00     0.173 A 
ATOM     75  C   UNL A   1      41.859  28.182  27.412  1.00  0.00     0.173 A 
ATOM     76  F   UNL A   1      39.408  26.147  29.159  1.00  0.00    -0.203 F 
ATOM     77  C   UNL A   1      40.460  25.808  27.079  1.00  0.00     0.198 A 
ATOM     78  C   UNL A   1      42.033  27.422  26.257  1.00  0.00     0.198 A 
ATOM     79  F   UNL A   1      42.554  29.321  27.547  1.00  0.00    -0.203 F 
ATOM     80  F   UNL A   1      39.813  24.643  26.943  1.00  0.00    -0.200 F 
ATOM     81  C   UNL A   1      41.342  26.230  26.097  1.00  0.00     0.200 A 
ATOM     82  F   UNL A   1      42.871  27.844  25.301  1.00  0.00    -0.200 F 
ATOM     83  F   UNL A   1      41.533  25.485  25.000  1.00  0.00    -0.200 F 
ENDBRANCH  49  73
BRANCH  61  84
ATOM     84  C   UNL A   1      44.026  27.620  34.676  1.00  0.00     0.064 A 
ATOM     85  C   UNL A   1      45.397  27.909  34.616  1.00  0.00     0.173 A 
ATOM     86  C   UNL A   1      43.633  26.440  35.328  1.00  0.00     0.173 A 
ATOM     87  F   UNL A   1      45.828  29.017  33.997  1.00  0.00    -0.203 F 
ATOM     88  C   UNL A   1      46.338  27.028  35.145  1.00  0.00     0.198 A 
ATOM     89  C   UNL A   1      44.574  25.582  35.890  1.00  0.00     0.198 A 
ATOM     90  F   UNL A   1      42.334  26.119  35.424  1.00  0.00    -0.203 F 
ATOM     91  F   UNL A   1      47.646  27.290  35.012  1.00  0.00    -0.200 F 
ATOM     92  C   UNL A   1      45.926  25.870  35.785  1.00  0.00     0.200 A 
ATOM     93  F   UNL A   1      44.171  24.472  36.525  1.00  0.00    -0.200 F 
ATOM     94  F   UNL A   1      46.833  25.023  36.292  1.00  0.00    -0.200 F 
ENDBRANCH  61  84
ENDBRANCH  35  36
ENDBRANCH  27  30
ENDBRANCH  25  26
ENDBRANCH  24  25
ENDBRANCH   1  24
TORSDOF 13
ENDMDL
