MODEL 1
REMARK VINA RESULT:     -13.1      0.000      0.000
REMARK SMILES C=CCN1C(=O)/C(=C/c2ccc(OCc3cccc(C(=O)NCCCNC(=O)c4ccc(-c5c6nc(c(-c7c(F)c(F)c(F)c(F)c7F)c7ccc([nH]7)c(-c7c(F)c(F)c(F)c(F)c7F)c7nc(c(-c8c(F)c(F)c(F)c(F)c8F)c8ccc5[nH]8)C=C7)C=C6)cc4)c3)cc2)C(=O)NC1=S
REMARK SMILES IDX 20 1 21 2 22 3 19 5 15 6 16 7 92 8 17 9 18 10 14 11 13 12
REMARK SMILES IDX 12 13 9 14 10 15 94 16 11 17 93 18 8 19 4 20 5 21 98 22 6 23
REMARK SMILES IDX 7 24 97 25 99 26 95 27 96 29 3 30 2 31 1 32 23 33 24 34
REMARK SMILES IDX 25 35 26 36 27 37 28 39 29 40 30 41 91 42 31 43 90 44 32 45
REMARK SMILES IDX 33 46 34 47 84 48 35 49 89 50 83 51 85 52 36 53 88 54 82 55
REMARK SMILES IDX 81 56 37 58 69 59 49 60 68 61 50 62 53 63 67 64 86 65 51 66
REMARK SMILES IDX 52 67 66 69 87 70 54 71 38 72 39 73 47 74 40 75 41 76 45 77
REMARK SMILES IDX 48 78 42 79 43 80 46 81 44 82 70 83 71 84 79 85 72 86 73 87
REMARK SMILES IDX 77 88 80 89 74 90 75 91 78 92 76 93 55 94 56 95 64 96 57 97
REMARK SMILES IDX 58 98 62 99 65 100 59 101 60 102 63 103 61 104
REMARK H PARENT 22 4 97 28 26 38 85 57 53 68
REMARK Flexibility Score: inf
ROOT
ATOM      1  C   UNL A   1      34.958  21.415  25.968  1.00  0.00     0.251 C 
ATOM      2  O   UNL A   1      34.542  21.640  27.105  1.00  0.00    -0.269 OA
ATOM      3  N   UNL A   1      36.252  20.972  25.843  1.00  0.00    -0.352 N 
ATOM      4  H   UNL A   1      36.698  20.835  26.709  1.00  0.00     0.163 HD
ENDROOT
BRANCH   1   5
ATOM      5  C   UNL A   1      34.075  21.691  24.806  1.00  0.00     0.040 A 
ATOM      6  C   UNL A   1      33.003  23.232  23.243  1.00  0.00    -0.010 A 
ATOM      7  C   UNL A   1      32.209  22.173  22.788  1.00  0.00     0.007 A 
ATOM      8  C   UNL A   1      34.012  22.931  24.168  1.00  0.00     0.021 A 
ATOM      9  C   UNL A   1      32.370  20.882  23.296  1.00  0.00     0.001 A 
ATOM     10  C   UNL A   1      33.275  20.648  24.327  1.00  0.00     0.014 A 
BRANCH   6  11
ATOM     11  C   UNL A   1      32.876  24.674  22.776  1.00  0.00     0.265 C 
BRANCH  11  12
ATOM     12  O   UNL A   1      33.685  25.635  23.465  1.00  0.00    -0.489 OA
BRANCH  12  13
ATOM     13  C   UNL A   1      33.060  26.774  23.886  1.00  0.00     0.119 A 
ATOM     14  C   UNL A   1      32.243  29.182  25.008  1.00  0.00    -0.024 A 
ATOM     15  C   UNL A   1      33.274  29.168  24.063  1.00  0.00     0.012 A 
ATOM     16  C   UNL A   1      31.547  28.010  25.304  1.00  0.00     0.012 A 
ATOM     17  C   UNL A   1      33.677  27.962  23.497  1.00  0.00     0.047 A 
ATOM     18  C   UNL A   1      31.948  26.805  24.730  1.00  0.00     0.047 A 
BRANCH  14  19
ATOM     19  C   UNL A   1      31.982  30.419  25.736  1.00  0.00     0.027 C 
ATOM     20  N   UNL A   1      33.453  32.846  27.968  1.00  0.00    -0.281 N 
ATOM     21  C   UNL A   1      32.420  32.222  27.251  1.00  0.00     0.265 C 
ATOM     22  C   UNL A   1      34.402  32.106  28.667  1.00  0.00     0.183 C 
ATOM     23  O   UNL A   1      31.366  32.788  26.957  1.00  0.00    -0.268 OA
ATOM     24  C   UNL A   1      32.663  30.826  26.827  1.00  0.00     0.106 C 
ATOM     25  N   UNL A   1      34.431  30.756  28.415  1.00  0.00    -0.298 N 
ATOM     26  S   UNL A   1      35.528  32.600  29.804  1.00  0.00    -0.040 S 
ATOM     27  C   UNL A   1      33.674  30.027  27.543  1.00  0.00     0.263 C 
ATOM     28  H   UNL A   1      35.089  30.243  28.937  1.00  0.00     0.172 HD
ATOM     29  O   UNL A   1      33.843  28.825  27.430  1.00  0.00    -0.269 OA
BRANCH  20  30
ATOM     30  C   UNL A   1      33.254  34.308  27.982  1.00  0.00     0.155 C 
BRANCH  30  31
ATOM     31  C   UNL A   1      32.963  34.977  29.283  1.00  0.00    -0.013 C 
ATOM     32  C   UNL A   1      33.207  36.261  29.576  1.00  0.00     0.006 C 
ENDBRANCH  30  31
ENDBRANCH  20  30
ENDBRANCH  14  19
ENDBRANCH  12  13
ENDBRANCH  11  12
ENDBRANCH   6  11
ENDBRANCH   1   5
BRANCH   3  33
ATOM     33  C   UNL A   1      37.107  20.660  24.705  1.00  0.00     0.118 C 
BRANCH  33  34
ATOM     34  C   UNL A   1      38.129  19.571  24.985  1.00  0.00     0.042 C 
BRANCH  34  35
ATOM     35  C   UNL A   1      39.239  19.994  25.931  1.00  0.00     0.118 C 
BRANCH  35  36
ATOM     36  N   UNL A   1      40.346  19.044  25.959  1.00  0.00    -0.352 N 
ATOM     37  C   UNL A   1      41.704  19.234  26.015  1.00  0.00     0.251 C 
ATOM     38  H   UNL A   1      40.069  18.100  25.934  1.00  0.00     0.163 HD
ATOM     39  O   UNL A   1      42.453  18.285  25.798  1.00  0.00    -0.269 OA
BRANCH  37  40
ATOM     40  C   UNL A   1      42.279  20.562  26.318  1.00  0.00     0.039 A 
ATOM     41  C   UNL A   1      42.545  21.444  25.263  1.00  0.00     0.014 A 
ATOM     42  C   UNL A   1      42.605  20.930  27.623  1.00  0.00     0.014 A 
ATOM     43  C   UNL A   1      43.069  22.710  25.529  1.00  0.00     0.010 A 
ATOM     44  C   UNL A   1      43.023  22.226  27.899  1.00  0.00     0.010 A 
ATOM     45  C   UNL A   1      43.275  23.126  26.854  1.00  0.00    -0.014 A 
BRANCH  45  46
ATOM     46  C   UNL A   1      43.777  24.486  27.178  1.00  0.00     0.031 A 
ATOM     47  C   UNL A   1      42.844  25.510  27.766  1.00  0.00     0.074 A 
ATOM     48  C   UNL A   1      45.039  24.824  26.857  1.00  0.00     0.049 A 
ATOM     49  N   UNL A   1      43.052  26.779  28.008  1.00  0.00    -0.248 NA
ATOM     50  C   UNL A   1      41.481  25.056  28.086  1.00  0.00     0.031 C 
ATOM     51  C   UNL A   1      46.018  23.940  26.223  1.00  0.00     0.029 A 
ATOM     52  N   UNL A   1      45.711  26.013  27.001  1.00  0.00    -0.354 N 
ATOM     53  C   UNL A   1      41.842  27.278  28.476  1.00  0.00     0.074 A 
ATOM     54  C   UNL A   1      40.891  26.190  28.433  1.00  0.00     0.031 C 
ATOM     55  C   UNL A   1      47.169  24.610  26.049  1.00  0.00     0.029 A 
ATOM     56  C   UNL A   1      46.998  25.979  26.523  1.00  0.00     0.049 A 
ATOM     57  H   UNL A   1      45.308  26.814  27.409  1.00  0.00     0.167 HD
ATOM     58  C   UNL A   1      41.559  28.523  28.925  1.00  0.00     0.037 A 
ATOM     59  C   UNL A   1      47.931  26.948  26.467  1.00  0.00     0.037 A 
ATOM     60  C   UNL A   1      42.523  29.588  29.009  1.00  0.00     0.049 A 
ATOM     61  C   UNL A   1      47.603  28.313  27.006  1.00  0.00     0.074 A 
ATOM     62  C   UNL A   1      42.361  30.860  29.529  1.00  0.00     0.029 A 
ATOM     63  N   UNL A   1      43.834  29.500  28.564  1.00  0.00    -0.354 N 
ATOM     64  N   UNL A   1      46.479  28.752  27.518  1.00  0.00    -0.248 NA
ATOM     65  C   UNL A   1      48.678  29.315  26.970  1.00  0.00     0.031 C 
ATOM     66  C   UNL A   1      43.562  31.557  29.360  1.00  0.00     0.029 A 
ATOM     67  C   UNL A   1      44.488  30.702  28.778  1.00  0.00     0.049 A 
ATOM     68  H   UNL A   1      44.240  28.701  28.155  1.00  0.00     0.167 HD
ATOM     69  C   UNL A   1      46.714  30.069  27.884  1.00  0.00     0.074 A 
ATOM     70  C   UNL A   1      48.095  30.353  27.552  1.00  0.00     0.031 C 
ATOM     71  C   UNL A   1      45.864  30.963  28.444  1.00  0.00     0.037 A 
BRANCH  58  72
ATOM     72  C   UNL A   1      40.149  28.798  29.365  1.00  0.00     0.064 A 
ATOM     73  C   UNL A   1      39.153  29.179  28.452  1.00  0.00     0.173 A 
ATOM     74  C   UNL A   1      39.782  28.658  30.712  1.00  0.00     0.173 A 
ATOM     75  F   UNL A   1      39.454  29.340  27.154  1.00  0.00    -0.203 F 
ATOM     76  C   UNL A   1      37.854  29.443  28.876  1.00  0.00     0.198 A 
ATOM     77  C   UNL A   1      38.474  28.891  31.127  1.00  0.00     0.198 A 
ATOM     78  F   UNL A   1      40.693  28.290  31.626  1.00  0.00    -0.203 F 
ATOM     79  F   UNL A   1      36.935  29.860  27.994  1.00  0.00    -0.200 F 
ATOM     80  C   UNL A   1      37.513  29.292  30.211  1.00  0.00     0.200 A 
ATOM     81  F   UNL A   1      38.144  28.733  32.417  1.00  0.00    -0.200 F 
ATOM     82  F   UNL A   1      36.261  29.543  30.618  1.00  0.00    -0.200 F 
ENDBRANCH  58  72
BRANCH  59  83
ATOM     83  C   UNL A   1      49.272  26.647  25.902  1.00  0.00     0.064 A 
ATOM     84  C   UNL A   1      49.586  26.986  24.579  1.00  0.00     0.173 A 
ATOM     85  C   UNL A   1      50.268  26.030  26.672  1.00  0.00     0.173 A 
ATOM     86  F   UNL A   1      48.660  27.562  23.798  1.00  0.00    -0.203 F 
ATOM     87  C   UNL A   1      50.840  26.703  24.041  1.00  0.00     0.198 A 
ATOM     88  C   UNL A   1      51.530  25.772  26.141  1.00  0.00     0.198 A 
ATOM     89  F   UNL A   1      50.020  25.693  27.946  1.00  0.00    -0.203 F 
ATOM     90  F   UNL A   1      51.100  27.002  22.761  1.00  0.00    -0.200 F 
ATOM     91  C   UNL A   1      51.813  26.102  24.825  1.00  0.00     0.200 A 
ATOM     92  F   UNL A   1      52.473  25.204  26.907  1.00  0.00    -0.200 F 
ATOM     93  F   UNL A   1      53.021  25.836  24.310  1.00  0.00    -0.200 F 
ENDBRANCH  59  83
BRANCH  71  94
ATOM     94  C   UNL A   1      46.411  32.325  28.759  1.00  0.00     0.064 A 
ATOM     95  C   UNL A   1      46.312  33.385  27.846  1.00  0.00     0.173 A 
ATOM     96  C   UNL A   1      47.003  32.581  30.004  1.00  0.00     0.173 A 
ATOM     97  F   UNL A   1      45.768  33.186  26.635  1.00  0.00    -0.203 F 
ATOM     98  C   UNL A   1      46.807  34.647  28.160  1.00  0.00     0.198 A 
ATOM     99  C   UNL A   1      47.471  33.852  30.327  1.00  0.00     0.198 A 
ATOM    100  F   UNL A   1      47.115  31.601  30.914  1.00  0.00    -0.203 F 
ATOM    101  F   UNL A   1      46.744  35.634  27.257  1.00  0.00    -0.200 F 
ATOM    102  C   UNL A   1      47.379  34.881  29.403  1.00  0.00     0.200 A 
ATOM    103  F   UNL A   1      48.012  34.078  31.532  1.00  0.00    -0.200 F 
ATOM    104  F   UNL A   1      47.850  36.098  29.707  1.00  0.00    -0.200 F 
ENDBRANCH  71  94
ENDBRANCH  45  46
ENDBRANCH  37  40
ENDBRANCH  35  36
ENDBRANCH  34  35
ENDBRANCH  33  34
ENDBRANCH   3  33
TORSDOF 16
ENDMDL
MODEL 2
REMARK VINA RESULT:     -12.9      4.646      9.595
REMARK SMILES C=CCN1C(=O)/C(=C/c2ccc(OCc3cccc(C(=O)NCCCNC(=O)c4ccc(-c5c6nc(c(-c7c(F)c(F)c(F)c(F)c7F)c7ccc([nH]7)c(-c7c(F)c(F)c(F)c(F)c7F)c7nc(c(-c8c(F)c(F)c(F)c(F)c8F)c8ccc5[nH]8)C=C7)C=C6)cc4)c3)cc2)C(=O)NC1=S
REMARK SMILES IDX 20 1 21 2 22 3 19 5 15 6 16 7 92 8 17 9 18 10 14 11 13 12
REMARK SMILES IDX 12 13 9 14 10 15 94 16 11 17 93 18 8 19 4 20 5 21 98 22 6 23
REMARK SMILES IDX 7 24 97 25 99 26 95 27 96 29 3 30 2 31 1 32 23 33 24 34
REMARK SMILES IDX 25 35 26 36 27 37 28 39 29 40 30 41 91 42 31 43 90 44 32 45
REMARK SMILES IDX 33 46 34 47 84 48 35 49 89 50 83 51 85 52 36 53 88 54 82 55
REMARK SMILES IDX 81 56 37 58 69 59 49 60 68 61 50 62 53 63 67 64 86 65 51 66
REMARK SMILES IDX 52 67 66 69 87 70 54 71 38 72 39 73 47 74 40 75 41 76 45 77
REMARK SMILES IDX 48 78 42 79 43 80 46 81 44 82 70 83 71 84 79 85 72 86 73 87
REMARK SMILES IDX 77 88 80 89 74 90 75 91 78 92 76 93 55 94 56 95 64 96 57 97
REMARK SMILES IDX 58 98 62 99 65 100 59 101 60 102 63 103 61 104
REMARK H PARENT 22 4 97 28 26 38 85 57 53 68
REMARK Flexibility Score: inf
ROOT
ATOM      1  C   UNL A   1      42.181  22.415  28.046  1.00  0.00     0.251 C 
ATOM      2  O   UNL A   1      42.510  22.773  29.177  1.00  0.00    -0.269 OA
ATOM      3  N   UNL A   1      43.087  21.672  27.327  1.00  0.00    -0.352 N 
ATOM      4  H   UNL A   1      43.904  21.464  27.835  1.00  0.00     0.163 HD
ENDROOT
BRANCH   1   5
ATOM      5  C   UNL A   1      40.870  22.851  27.501  1.00  0.00     0.040 A 
ATOM      6  C   UNL A   1      38.860  22.456  26.171  1.00  0.00    -0.010 A 
ATOM      7  C   UNL A   1      38.545  23.813  26.296  1.00  0.00     0.007 A 
ATOM      8  C   UNL A   1      39.967  21.981  26.888  1.00  0.00     0.021 A 
ATOM      9  C   UNL A   1      39.349  24.673  27.048  1.00  0.00     0.001 A 
ATOM     10  C   UNL A   1      40.527  24.202  27.619  1.00  0.00     0.014 A 
BRANCH   6  11
ATOM     11  C   UNL A   1      38.066  21.454  25.346  1.00  0.00     0.265 C 
BRANCH  11  12
ATOM     12  O   UNL A   1      36.708  21.238  25.750  1.00  0.00    -0.489 OA
BRANCH  12  13
ATOM     13  C   UNL A   1      35.786  22.143  25.307  1.00  0.00     0.119 A 
ATOM     14  C   UNL A   1      34.333  24.240  24.203  1.00  0.00    -0.024 A 
ATOM     15  C   UNL A   1      34.994  23.333  23.367  1.00  0.00     0.012 A 
ATOM     16  C   UNL A   1      34.305  24.029  25.581  1.00  0.00     0.012 A 
ATOM     17  C   UNL A   1      35.715  22.280  23.922  1.00  0.00     0.047 A 
ATOM     18  C   UNL A   1      35.022  22.969  26.133  1.00  0.00     0.047 A 
BRANCH  14  19
ATOM     19  C   UNL A   1      33.762  25.445  23.612  1.00  0.00     0.027 C 
ATOM     20  N   UNL A   1      30.785  27.481  23.464  1.00  0.00    -0.281 N 
ATOM     21  C   UNL A   1      32.070  27.057  23.090  1.00  0.00     0.265 C 
ATOM     22  C   UNL A   1      29.761  26.571  23.705  1.00  0.00     0.183 C 
ATOM     23  O   UNL A   1      32.874  27.781  22.500  1.00  0.00    -0.268 OA
ATOM     24  C   UNL A   1      32.441  25.675  23.465  1.00  0.00     0.106 C 
ATOM     25  N   UNL A   1      30.128  25.251  23.808  1.00  0.00    -0.298 N 
ATOM     26  S   UNL A   1      28.114  26.824  23.876  1.00  0.00    -0.040 S 
ATOM     27  C   UNL A   1      31.374  24.697  23.739  1.00  0.00     0.263 C 
ATOM     28  H   UNL A   1      29.388  24.617  23.952  1.00  0.00     0.172 HD
ATOM     29  O   UNL A   1      31.525  23.495  23.871  1.00  0.00    -0.269 OA
BRANCH  20  30
ATOM     30  C   UNL A   1      30.690  28.952  23.388  1.00  0.00     0.155 C 
BRANCH  30  31
ATOM     31  C   UNL A   1      30.942  29.749  24.624  1.00  0.00    -0.013 C 
ATOM     32  C   UNL A   1      31.802  29.429  25.600  1.00  0.00     0.006 C 
ENDBRANCH  30  31
ENDBRANCH  20  30
ENDBRANCH  14  19
ENDBRANCH  12  13
ENDBRANCH  11  12
ENDBRANCH   6  11
ENDBRANCH   1   5
BRANCH   3  33
ATOM     33  C   UNL A   1      43.100  21.126  25.977  1.00  0.00     0.118 C 
BRANCH  33  34
ATOM     34  C   UNL A   1      44.055  21.837  25.035  1.00  0.00     0.042 C 
BRANCH  34  35
ATOM     35  C   UNL A   1      43.806  23.331  24.915  1.00  0.00     0.118 C 
BRANCH  35  36
ATOM     36  N   UNL A   1      45.023  24.083  24.627  1.00  0.00    -0.352 N 
ATOM     37  C   UNL A   1      45.441  25.325  25.033  1.00  0.00     0.251 C 
ATOM     38  H   UNL A   1      45.656  23.615  24.036  1.00  0.00     0.163 HD
ATOM     39  O   UNL A   1      46.404  25.847  24.478  1.00  0.00    -0.269 OA
BRANCH  37  40
ATOM     40  C   UNL A   1      44.743  26.049  26.117  1.00  0.00     0.039 A 
ATOM     41  C   UNL A   1      44.173  25.318  27.166  1.00  0.00     0.014 A 
ATOM     42  C   UNL A   1      44.601  27.437  26.087  1.00  0.00     0.014 A 
ATOM     43  C   UNL A   1      43.527  25.983  28.209  1.00  0.00     0.010 A 
ATOM     44  C   UNL A   1      44.054  28.105  27.175  1.00  0.00     0.010 A 
ATOM     45  C   UNL A   1      43.497  27.386  28.242  1.00  0.00    -0.014 A 
BRANCH  45  46
ATOM     46  C   UNL A   1      42.870  28.130  29.364  1.00  0.00     0.031 A 
ATOM     47  C   UNL A   1      43.540  28.164  30.711  1.00  0.00     0.074 A 
ATOM     48  C   UNL A   1      41.658  28.690  29.196  1.00  0.00     0.049 A 
ATOM     49  N   UNL A   1      43.103  28.653  31.843  1.00  0.00    -0.248 NA
ATOM     50  C   UNL A   1      44.863  27.525  30.807  1.00  0.00     0.031 C 
ATOM     51  C   UNL A   1      40.878  28.667  27.958  1.00  0.00     0.029 A 
ATOM     52  N   UNL A   1      40.858  29.372  30.079  1.00  0.00    -0.354 N 
ATOM     53  C   UNL A   1      44.079  28.353  32.786  1.00  0.00     0.074 A 
ATOM     54  C   UNL A   1      45.105  27.594  32.107  1.00  0.00     0.031 C 
ATOM     55  C   UNL A   1      39.721  29.321  28.154  1.00  0.00     0.029 A 
ATOM     56  C   UNL A   1      39.661  29.775  29.539  1.00  0.00     0.049 A 
ATOM     57  H   UNL A   1      41.118  29.557  31.011  1.00  0.00     0.167 HD
ATOM     58  C   UNL A   1      44.126  28.703  34.093  1.00  0.00     0.037 A 
ATOM     59  C   UNL A   1      38.628  30.429  30.103  1.00  0.00     0.037 A 
ATOM     60  C   UNL A   1      43.124  29.498  34.751  1.00  0.00     0.049 A 
ATOM     61  C   UNL A   1      38.721  30.838  31.547  1.00  0.00     0.074 A 
ATOM     62  C   UNL A   1      43.118  29.980  36.048  1.00  0.00     0.029 A 
ATOM     63  N   UNL A   1      41.948  29.933  34.156  1.00  0.00    -0.354 N 
ATOM     64  N   UNL A   1      39.683  30.617  32.409  1.00  0.00    -0.248 NA
ATOM     65  C   UNL A   1      37.588  31.598  32.093  1.00  0.00     0.031 C 
ATOM     66  C   UNL A   1      41.919  30.672  36.251  1.00  0.00     0.029 A 
ATOM     67  C   UNL A   1      41.199  30.662  35.066  1.00  0.00     0.049 A 
ATOM     68  H   UNL A   1      41.685  29.751  33.225  1.00  0.00     0.167 HD
ATOM     69  C   UNL A   1      39.285  31.225  33.590  1.00  0.00     0.074 A 
ATOM     70  C   UNL A   1      38.001  31.842  33.329  1.00  0.00     0.031 C 
ATOM     71  C   UNL A   1      39.924  31.270  34.784  1.00  0.00     0.037 A 
BRANCH  58  72
ATOM     72  C   UNL A   1      45.304  28.229  34.896  1.00  0.00     0.064 A 
ATOM     73  C   UNL A   1      45.289  26.999  35.571  1.00  0.00     0.173 A 
ATOM     74  C   UNL A   1      46.471  29.003  34.974  1.00  0.00     0.173 A 
ATOM     75  F   UNL A   1      44.192  26.225  35.540  1.00  0.00    -0.203 F 
ATOM     76  C   UNL A   1      46.383  26.579  36.322  1.00  0.00     0.198 A 
ATOM     77  C   UNL A   1      47.576  28.565  35.699  1.00  0.00     0.198 A 
ATOM     78  F   UNL A   1      46.543  30.185  34.341  1.00  0.00    -0.203 F 
ATOM     79  F   UNL A   1      46.323  25.427  37.005  1.00  0.00    -0.200 F 
ATOM     80  C   UNL A   1      47.528  27.358  36.380  1.00  0.00     0.200 A 
ATOM     81  F   UNL A   1      48.687  29.314  35.743  1.00  0.00    -0.200 F 
ATOM     82  F   UNL A   1      48.583  26.951  37.100  1.00  0.00    -0.200 F 
ENDBRANCH  58  72
BRANCH  59  83
ATOM     83  C   UNL A   1      37.431  30.759  29.286  1.00  0.00     0.064 A 
ATOM     84  C   UNL A   1      37.234  32.056  28.794  1.00  0.00     0.173 A 
ATOM     85  C   UNL A   1      36.471  29.788  28.970  1.00  0.00     0.173 A 
ATOM     86  F   UNL A   1      38.116  33.024  29.085  1.00  0.00    -0.203 F 
ATOM     87  C   UNL A   1      36.112  32.375  28.032  1.00  0.00     0.198 A 
ATOM     88  C   UNL A   1      35.363  30.101  28.186  1.00  0.00     0.198 A 
ATOM     89  F   UNL A   1      36.618  28.529  29.410  1.00  0.00    -0.203 F 
ATOM     90  F   UNL A   1      35.928  33.632  27.608  1.00  0.00    -0.200 F 
ATOM     91  C   UNL A   1      35.181  31.394  27.723  1.00  0.00     0.200 A 
ATOM     92  F   UNL A   1      34.473  29.147  27.876  1.00  0.00    -0.200 F 
ATOM     93  F   UNL A   1      34.106  31.699  26.984  1.00  0.00    -0.200 F 
ENDBRANCH  59  83
BRANCH  71  94
ATOM     94  C   UNL A   1      39.258  32.034  35.891  1.00  0.00     0.064 A 
ATOM     95  C   UNL A   1      38.370  31.413  36.780  1.00  0.00     0.173 A 
ATOM     96  C   UNL A   1      39.545  33.393  36.087  1.00  0.00     0.173 A 
ATOM     97  F   UNL A   1      38.052  30.119  36.625  1.00  0.00    -0.203 F 
ATOM     98  C   UNL A   1      37.775  32.131  37.813  1.00  0.00     0.198 A 
ATOM     99  C   UNL A   1      38.970  34.101  37.139  1.00  0.00     0.198 A 
ATOM    100  F   UNL A   1      40.394  34.031  35.267  1.00  0.00    -0.203 F 
ATOM    101  F   UNL A   1      36.894  31.530  38.624  1.00  0.00    -0.200 F 
ATOM    102  C   UNL A   1      38.081  33.472  37.996  1.00  0.00     0.200 A 
ATOM    103  F   UNL A   1      39.277  35.393  37.321  1.00  0.00    -0.200 F 
ATOM    104  F   UNL A   1      37.512  34.160  38.995  1.00  0.00    -0.200 F 
ENDBRANCH  71  94
ENDBRANCH  45  46
ENDBRANCH  37  40
ENDBRANCH  35  36
ENDBRANCH  34  35
ENDBRANCH  33  34
ENDBRANCH   3  33
TORSDOF 16
ENDMDL
MODEL 3
REMARK VINA RESULT:     -12.7      4.551      8.320
REMARK SMILES C=CCN1C(=O)/C(=C/c2ccc(OCc3cccc(C(=O)NCCCNC(=O)c4ccc(-c5c6nc(c(-c7c(F)c(F)c(F)c(F)c7F)c7ccc([nH]7)c(-c7c(F)c(F)c(F)c(F)c7F)c7nc(c(-c8c(F)c(F)c(F)c(F)c8F)c8ccc5[nH]8)C=C7)C=C6)cc4)c3)cc2)C(=O)NC1=S
REMARK SMILES IDX 20 1 21 2 22 3 19 5 15 6 16 7 92 8 17 9 18 10 14 11 13 12
REMARK SMILES IDX 12 13 9 14 10 15 94 16 11 17 93 18 8 19 4 20 5 21 98 22 6 23
REMARK SMILES IDX 7 24 97 25 99 26 95 27 96 29 3 30 2 31 1 32 23 33 24 34
REMARK SMILES IDX 25 35 26 36 27 37 28 39 29 40 30 41 91 42 31 43 90 44 32 45
REMARK SMILES IDX 33 46 34 47 84 48 35 49 89 50 83 51 85 52 36 53 88 54 82 55
REMARK SMILES IDX 81 56 37 58 69 59 49 60 68 61 50 62 53 63 67 64 86 65 51 66
REMARK SMILES IDX 52 67 66 69 87 70 54 71 38 72 39 73 47 74 40 75 41 76 45 77
REMARK SMILES IDX 48 78 42 79 43 80 46 81 44 82 70 83 71 84 79 85 72 86 73 87
REMARK SMILES IDX 77 88 80 89 74 90 75 91 78 92 76 93 55 94 56 95 64 96 57 97
REMARK SMILES IDX 58 98 62 99 65 100 59 101 60 102 63 103 61 104
REMARK H PARENT 22 4 97 28 26 38 85 57 53 68
REMARK Flexibility Score: inf
ROOT
ATOM      1  C   UNL A   1      42.337  22.635  27.938  1.00  0.00     0.251 C 
ATOM      2  O   UNL A   1      42.693  22.909  29.085  1.00  0.00    -0.269 OA
ATOM      3  N   UNL A   1      43.257  22.033  27.115  1.00  0.00    -0.352 N 
ATOM      4  H   UNL A   1      44.110  21.839  27.567  1.00  0.00     0.163 HD
ENDROOT
BRANCH   1   5
ATOM      5  C   UNL A   1      40.974  23.022  27.491  1.00  0.00     0.040 A 
ATOM      6  C   UNL A   1      38.864  22.528  26.364  1.00  0.00    -0.010 A 
ATOM      7  C   UNL A   1      38.533  23.884  26.452  1.00  0.00     0.007 A 
ATOM      8  C   UNL A   1      40.040  22.108  27.002  1.00  0.00     0.021 A 
ATOM      9  C   UNL A   1      39.381  24.794  27.088  1.00  0.00     0.001 A 
ATOM     10  C   UNL A   1      40.615  24.371  27.575  1.00  0.00     0.014 A 
BRANCH   6  11
ATOM     11  C   UNL A   1      38.022  21.474  25.661  1.00  0.00     0.265 C 
BRANCH  11  12
ATOM     12  O   UNL A   1      37.586  21.795  24.335  1.00  0.00    -0.489 OA
BRANCH  12  13
ATOM     13  C   UNL A   1      36.262  22.092  24.180  1.00  0.00     0.119 A 
ATOM     14  C   UNL A   1      33.721  23.200  23.968  1.00  0.00    -0.024 A 
ATOM     15  C   UNL A   1      34.704  23.524  23.027  1.00  0.00     0.012 A 
ATOM     16  C   UNL A   1      33.976  22.236  24.943  1.00  0.00     0.012 A 
ATOM     17  C   UNL A   1      35.974  22.963  23.130  1.00  0.00     0.047 A 
ATOM     18  C   UNL A   1      35.246  21.670  25.039  1.00  0.00     0.047 A 
BRANCH  14  19
ATOM     19  C   UNL A   1      32.473  23.954  23.960  1.00  0.00     0.027 C 
ATOM     20  N   UNL A   1      31.081  27.276  24.205  1.00  0.00    -0.281 N 
ATOM     21  C   UNL A   1      31.054  25.873  24.157  1.00  0.00     0.265 C 
ATOM     22  C   UNL A   1      32.014  27.959  24.980  1.00  0.00     0.183 C 
ATOM     23  O   UNL A   1      30.056  25.229  23.828  1.00  0.00    -0.268 OA
ATOM     24  C   UNL A   1      32.314  25.179  24.502  1.00  0.00     0.106 C 
ATOM     25  N   UNL A   1      33.051  27.214  25.485  1.00  0.00    -0.298 N 
ATOM     26  S   UNL A   1      32.070  29.573  25.422  1.00  0.00    -0.040 S 
ATOM     27  C   UNL A   1      33.322  25.887  25.310  1.00  0.00     0.263 C 
ATOM     28  H   UNL A   1      33.687  27.706  26.054  1.00  0.00     0.172 HD
ATOM     29  O   UNL A   1      34.307  25.383  25.823  1.00  0.00    -0.269 OA
BRANCH  20  30
ATOM     30  C   UNL A   1      29.924  27.835  23.478  1.00  0.00     0.155 C 
BRANCH  30  31
ATOM     31  C   UNL A   1      30.177  28.748  22.326  1.00  0.00    -0.013 C 
ATOM     32  C   UNL A   1      29.565  29.919  22.106  1.00  0.00     0.006 C 
ENDBRANCH  30  31
ENDBRANCH  20  30
ENDBRANCH  14  19
ENDBRANCH  12  13
ENDBRANCH  11  12
ENDBRANCH   6  11
ENDBRANCH   1   5
BRANCH   3  33
ATOM     33  C   UNL A   1      43.245  21.618  25.718  1.00  0.00     0.118 C 
BRANCH  33  34
ATOM     34  C   UNL A   1      43.997  22.558  24.792  1.00  0.00     0.042 C 
BRANCH  34  35
ATOM     35  C   UNL A   1      43.717  24.030  25.043  1.00  0.00     0.118 C 
BRANCH  35  36
ATOM     36  N   UNL A   1      44.872  24.877  24.773  1.00  0.00    -0.352 N 
ATOM     37  C   UNL A   1      45.223  26.115  25.250  1.00  0.00     0.251 C 
ATOM     38  H   UNL A   1      45.515  24.491  24.134  1.00  0.00     0.163 HD
ATOM     39  O   UNL A   1      46.132  26.735  24.704  1.00  0.00    -0.269 OA
BRANCH  37  40
ATOM     40  C   UNL A   1      44.516  26.719  26.400  1.00  0.00     0.039 A 
ATOM     41  C   UNL A   1      44.026  25.884  27.411  1.00  0.00     0.014 A 
ATOM     42  C   UNL A   1      44.286  28.093  26.468  1.00  0.00     0.014 A 
ATOM     43  C   UNL A   1      43.373  26.436  28.515  1.00  0.00     0.010 A 
ATOM     44  C   UNL A   1      43.734  28.651  27.614  1.00  0.00     0.010 A 
ATOM     45  C   UNL A   1      43.257  27.828  28.644  1.00  0.00    -0.014 A 
BRANCH  45  46
ATOM     46  C   UNL A   1      42.620  28.454  29.831  1.00  0.00     0.031 A 
ATOM     47  C   UNL A   1      41.244  29.051  29.717  1.00  0.00     0.074 A 
ATOM     48  C   UNL A   1      43.315  28.567  30.978  1.00  0.00     0.049 A 
ATOM     49  N   UNL A   1      40.565  29.744  30.596  1.00  0.00    -0.248 NA
ATOM     50  C   UNL A   1      40.555  28.883  28.427  1.00  0.00     0.031 C 
ATOM     51  C   UNL A   1      44.682  28.087  31.192  1.00  0.00     0.029 A 
ATOM     52  N   UNL A   1      42.975  29.143  32.177  1.00  0.00    -0.354 N 
ATOM     53  C   UNL A   1      39.390  30.118  29.956  1.00  0.00     0.074 A 
ATOM     54  C   UNL A   1      39.471  29.624  28.599  1.00  0.00     0.031 C 
ATOM     55  C   UNL A   1      45.056  28.371  32.450  1.00  0.00     0.029 A 
ATOM     56  C   UNL A   1      43.974  29.085  33.118  1.00  0.00     0.049 A 
ATOM     57  H   UNL A   1      42.097  29.557  32.347  1.00  0.00     0.167 HD
ATOM     58  C   UNL A   1      38.329  30.790  30.462  1.00  0.00     0.037 A 
ATOM     59  C   UNL A   1      44.013  29.564  34.375  1.00  0.00     0.037 A 
ATOM     60  C   UNL A   1      38.236  31.239  31.826  1.00  0.00     0.049 A 
ATOM     61  C   UNL A   1      42.808  30.275  34.927  1.00  0.00     0.074 A 
ATOM     62  C   UNL A   1      37.171  31.852  32.462  1.00  0.00     0.029 A 
ATOM     63  N   UNL A   1      39.249  31.116  32.766  1.00  0.00    -0.354 N 
ATOM     64  N   UNL A   1      41.672  30.556  34.336  1.00  0.00    -0.248 NA
ATOM     65  C   UNL A   1      42.887  30.727  36.323  1.00  0.00     0.031 C 
ATOM     66  C   UNL A   1      37.555  32.139  33.777  1.00  0.00     0.029 A 
ATOM     67  C   UNL A   1      38.842  31.660  33.973  1.00  0.00     0.049 A 
ATOM     68  H   UNL A   1      40.127  30.703  32.599  1.00  0.00     0.167 HD
ATOM     69  C   UNL A   1      40.893  31.195  35.290  1.00  0.00     0.074 A 
ATOM     70  C   UNL A   1      41.681  31.246  36.505  1.00  0.00     0.031 C 
ATOM     71  C   UNL A   1      39.640  31.697  35.172  1.00  0.00     0.037 A 
BRANCH  58  72
ATOM     72  C   UNL A   1      37.182  31.077  29.535  1.00  0.00     0.064 A 
ATOM     73  C   UNL A   1      36.999  32.344  28.959  1.00  0.00     0.173 A 
ATOM     74  C   UNL A   1      36.268  30.067  29.198  1.00  0.00     0.173 A 
ATOM     75  F   UNL A   1      37.837  33.349  29.257  1.00  0.00    -0.203 F 
ATOM     76  C   UNL A   1      35.924  32.598  28.111  1.00  0.00     0.198 A 
ATOM     77  C   UNL A   1      35.214  30.317  28.325  1.00  0.00     0.198 A 
ATOM     78  F   UNL A   1      36.400  28.836  29.714  1.00  0.00    -0.203 F 
ATOM     79  F   UNL A   1      35.737  33.831  27.620  1.00  0.00    -0.200 F 
ATOM     80  C   UNL A   1      35.036  31.584  27.789  1.00  0.00     0.200 A 
ATOM     81  F   UNL A   1      34.363  29.331  28.005  1.00  0.00    -0.200 F 
ATOM     82  F   UNL A   1      34.004  31.828  26.971  1.00  0.00    -0.200 F 
ENDBRANCH  58  72
BRANCH  59  83
ATOM     83  C   UNL A   1      45.229  29.359  35.204  1.00  0.00     0.064 A 
ATOM     84  C   UNL A   1      46.277  30.290  35.185  1.00  0.00     0.173 A 
ATOM     85  C   UNL A   1      45.365  28.242  36.039  1.00  0.00     0.173 A 
ATOM     86  F   UNL A   1      46.201  31.366  34.388  1.00  0.00    -0.203 F 
ATOM     87  C   UNL A   1      47.422  30.102  35.956  1.00  0.00     0.198 A 
ATOM     88  C   UNL A   1      46.498  28.068  36.830  1.00  0.00     0.198 A 
ATOM     89  F   UNL A   1      44.387  27.325  36.100  1.00  0.00    -0.203 F 
ATOM     90  F   UNL A   1      48.425  30.987  35.887  1.00  0.00    -0.200 F 
ATOM     91  C   UNL A   1      47.529  28.994  36.783  1.00  0.00     0.200 A 
ATOM     92  F   UNL A   1      46.592  27.003  37.640  1.00  0.00    -0.200 F 
ATOM     93  F   UNL A   1      48.627  28.817  37.530  1.00  0.00    -0.200 F 
ENDBRANCH  59  83
BRANCH  71  94
ATOM     94  C   UNL A   1      39.031  32.318  36.394  1.00  0.00     0.064 A 
ATOM     95  C   UNL A   1      39.274  33.656  36.737  1.00  0.00     0.173 A 
ATOM     96  C   UNL A   1      38.163  31.577  37.209  1.00  0.00     0.173 A 
ATOM     97  F   UNL A   1      40.109  34.402  35.997  1.00  0.00    -0.203 F 
ATOM     98  C   UNL A   1      38.687  34.223  37.864  1.00  0.00     0.198 A 
ATOM     99  C   UNL A   1      37.555  32.155  38.320  1.00  0.00     0.198 A 
ATOM    100  F   UNL A   1      37.894  30.294  36.921  1.00  0.00    -0.203 F 
ATOM    101  F   UNL A   1      38.968  35.490  38.198  1.00  0.00    -0.200 F 
ATOM    102  C   UNL A   1      37.822  33.474  38.649  1.00  0.00     0.200 A 
ATOM    103  F   UNL A   1      36.710  31.434  39.070  1.00  0.00    -0.200 F 
ATOM    104  F   UNL A   1      37.253  34.024  39.731  1.00  0.00    -0.200 F 
ENDBRANCH  71  94
ENDBRANCH  45  46
ENDBRANCH  37  40
ENDBRANCH  35  36
ENDBRANCH  34  35
ENDBRANCH  33  34
ENDBRANCH   3  33
TORSDOF 16
ENDMDL
