MODEL 1
REMARK VINA RESULT:     -12.4      0.000      0.000
REMARK SMILES O=C(Cc1c[nH]c(=O)n(Cc2ccccc2)c1=O)NCCCNC(=O)c1ccc(-c2c3nc(c(-c4c(F)c(F)c(F)c(F)c4F)c4ccc([nH]4)c(-c4c(F)c(F)c(F)c(F)c4F)c4nc(c(-c5c(F)c(F)c(F)c(F)c5F)c5ccc2[nH]5)C=C4)C=C3)cc1
REMARK SMILES IDX 20 1 19 2 1 3 2 4 3 6 4 7 5 8 17 9 6 10 9 11 18 12 7 13 8 15
REMARK SMILES IDX 10 16 11 17 12 18 16 19 13 20 15 21 14 22 21 23 22 24 23 25
REMARK SMILES IDX 24 26 25 28 26 29 27 30 88 31 28 32 87 33 29 34 30 35 31 36
REMARK SMILES IDX 81 37 32 38 86 39 80 40 82 41 33 42 85 43 79 44 78 45 34 47
REMARK SMILES IDX 66 48 46 49 65 50 47 51 50 52 64 53 83 54 48 55 49 56 63 58
REMARK SMILES IDX 84 59 51 60 35 61 36 62 44 63 37 64 38 65 42 66 45 67 39 68
REMARK SMILES IDX 40 69 43 70 41 71 67 72 68 73 76 74 69 75 70 76 74 77 77 78
REMARK SMILES IDX 71 79 72 80 75 81 73 82 52 83 53 84 61 85 54 86 55 87 59 88
REMARK SMILES IDX 62 89 56 90 57 91 60 92 58 93
REMARK H PARENT 19 5 6 14 23 27 82 46 50 57
REMARK Flexibility Score: inf
ROOT
ATOM      1  C   UNL A   1      31.958  30.211  26.879  1.00  0.00     0.117 C 
ENDROOT
BRANCH   1   2
ATOM      2  N   UNL A   1      32.927  29.596  25.999  1.00  0.00    -0.356 N 
ATOM      3  O   UNL A   1      31.510  29.135  24.250  1.00  0.00    -0.275 OA
ATOM      4  C   UNL A   1      32.634  29.129  24.740  1.00  0.00     0.224 C 
ATOM      5  H   UNL A   1      33.853  29.506  26.322  1.00  0.00     0.163 HD
BRANCH   4   6
ATOM      6  C   UNL A   1      33.852  28.633  23.970  1.00  0.00     0.142 C 
BRANCH   6   7
ATOM      7  C   UNL A   1      33.592  27.225  23.522  1.00  0.00     0.043 A 
ATOM      8  C   UNL A   1      33.356  26.877  22.254  1.00  0.00     0.097 A 
ATOM      9  C   UNL A   1      33.634  26.146  24.552  1.00  0.00     0.260 A 
ATOM     10  N   UNL A   1      33.224  25.571  21.900  1.00  0.00    -0.314 N 
ATOM     11  N   UNL A   1      33.520  24.844  24.098  1.00  0.00    -0.256 N 
ATOM     12  O   UNL A   1      33.809  26.456  25.733  1.00  0.00    -0.269 OA
ATOM     13  C   UNL A   1      33.340  24.517  22.766  1.00  0.00     0.328 A 
ATOM     14  H   UNL A   1      33.031  25.370  20.957  1.00  0.00     0.171 HD
ATOM     15  O   UNL A   1      33.297  23.371  22.323  1.00  0.00    -0.248 OA
BRANCH  11  16
ATOM     16  C   UNL A   1      33.635  23.761  25.064  1.00  0.00     0.166 C 
BRANCH  16  17
ATOM     17  C   UNL A   1      35.000  23.108  25.054  1.00  0.00    -0.028 A 
ATOM     18  C   UNL A   1      35.122  21.718  24.906  1.00  0.00     0.005 A 
ATOM     19  C   UNL A   1      36.165  23.876  25.192  1.00  0.00     0.005 A 
ATOM     20  C   UNL A   1      36.378  21.109  24.895  1.00  0.00     0.000 A 
ATOM     21  C   UNL A   1      37.422  23.266  25.170  1.00  0.00     0.000 A 
ATOM     22  C   UNL A   1      37.527  21.884  25.023  1.00  0.00     0.000 A 
ENDBRANCH  16  17
ENDBRANCH  11  16
ENDBRANCH   6   7
ENDBRANCH   4   6
ENDBRANCH   1   2
BRANCH   1  23
ATOM     23  C   UNL A   1      31.833  31.707  26.638  1.00  0.00     0.042 C 
BRANCH  23  24
ATOM     24  C   UNL A   1      32.867  32.560  27.367  1.00  0.00     0.118 C 
BRANCH  24  25
ATOM     25  N   UNL A   1      32.427  33.921  27.648  1.00  0.00    -0.352 N 
ATOM     26  C   UNL A   1      32.957  34.836  28.529  1.00  0.00     0.251 C 
ATOM     27  H   UNL A   1      31.642  34.227  27.139  1.00  0.00     0.163 HD
ATOM     28  O   UNL A   1      32.417  35.922  28.705  1.00  0.00    -0.269 OA
BRANCH  26  29
ATOM     29  C   UNL A   1      34.162  34.475  29.306  1.00  0.00     0.039 A 
ATOM     30  C   UNL A   1      35.438  34.648  28.763  1.00  0.00     0.014 A 
ATOM     31  C   UNL A   1      34.003  33.877  30.559  1.00  0.00     0.014 A 
ATOM     32  C   UNL A   1      36.533  34.055  29.383  1.00  0.00     0.010 A 
ATOM     33  C   UNL A   1      35.116  33.346  31.216  1.00  0.00     0.010 A 
ATOM     34  C   UNL A   1      36.378  33.371  30.600  1.00  0.00    -0.014 A 
BRANCH  34  35
ATOM     35  C   UNL A   1      37.526  32.626  31.180  1.00  0.00     0.031 A 
ATOM     36  C   UNL A   1      38.011  32.944  32.570  1.00  0.00     0.074 A 
ATOM     37  C   UNL A   1      38.092  31.621  30.487  1.00  0.00     0.049 A 
ATOM     38  N   UNL A   1      39.013  32.426  33.236  1.00  0.00    -0.248 NA
ATOM     39  C   UNL A   1      37.274  33.981  33.312  1.00  0.00     0.031 C 
ATOM     40  C   UNL A   1      37.690  31.190  29.148  1.00  0.00     0.029 A 
ATOM     41  N   UNL A   1      39.112  30.768  30.823  1.00  0.00    -0.354 N 
ATOM     42  C   UNL A   1      39.041  33.087  34.458  1.00  0.00     0.074 A 
ATOM     43  C   UNL A   1      37.968  34.058  34.438  1.00  0.00     0.031 C 
ATOM     44  C   UNL A   1      38.426  30.126  28.794  1.00  0.00     0.029 A 
ATOM     45  C   UNL A   1      39.388  29.837  29.853  1.00  0.00     0.049 A 
ATOM     46  H   UNL A   1      39.599  30.819  31.677  1.00  0.00     0.167 HD
ATOM     47  C   UNL A   1      39.877  32.893  35.506  1.00  0.00     0.037 A 
ATOM     48  C   UNL A   1      40.321  28.867  29.816  1.00  0.00     0.037 A 
ATOM     49  C   UNL A   1      40.925  31.908  35.542  1.00  0.00     0.049 A 
ATOM     50  C   UNL A   1      41.263  28.702  30.974  1.00  0.00     0.074 A 
ATOM     51  C   UNL A   1      41.823  31.638  36.561  1.00  0.00     0.029 A 
ATOM     52  N   UNL A   1      41.210  31.022  34.514  1.00  0.00    -0.354 N 
ATOM     53  N   UNL A   1      41.302  29.357  32.108  1.00  0.00    -0.248 NA
ATOM     54  C   UNL A   1      42.301  27.670  30.839  1.00  0.00     0.031 C 
ATOM     55  C   UNL A   1      42.669  30.607  36.139  1.00  0.00     0.029 A 
ATOM     56  C   UNL A   1      42.276  30.211  34.871  1.00  0.00     0.049 A 
ATOM     57  H   UNL A   1      40.727  30.976  33.658  1.00  0.00     0.167 HD
ATOM     58  C   UNL A   1      42.362  28.819  32.823  1.00  0.00     0.074 A 
ATOM     59  C   UNL A   1      42.926  27.764  32.005  1.00  0.00     0.031 C 
ATOM     60  C   UNL A   1      42.831  29.172  34.044  1.00  0.00     0.037 A 
BRANCH  47  61
ATOM     61  C   UNL A   1      39.702  33.772  36.709  1.00  0.00     0.064 A 
ATOM     62  C   UNL A   1      40.307  35.033  36.789  1.00  0.00     0.173 A 
ATOM     63  C   UNL A   1      38.871  33.372  37.767  1.00  0.00     0.173 A 
ATOM     64  F   UNL A   1      41.122  35.455  35.810  1.00  0.00    -0.203 F 
ATOM     65  C   UNL A   1      40.096  35.860  37.890  1.00  0.00     0.198 A 
ATOM     66  C   UNL A   1      38.644  34.210  38.855  1.00  0.00     0.198 A 
ATOM     67  F   UNL A   1      38.266  32.176  37.735  1.00  0.00    -0.203 F 
ATOM     68  F   UNL A   1      40.707  37.050  37.960  1.00  0.00    -0.200 F 
ATOM     69  C   UNL A   1      39.260  35.451  38.918  1.00  0.00     0.200 A 
ATOM     70  F   UNL A   1      37.828  33.816  39.843  1.00  0.00    -0.200 F 
ATOM     71  F   UNL A   1      39.048  36.252  39.971  1.00  0.00    -0.200 F 
ENDBRANCH  47  61
BRANCH  48  72
ATOM     72  C   UNL A   1      40.405  27.979  28.630  1.00  0.00     0.064 A 
ATOM     73  C   UNL A   1      41.145  28.358  27.502  1.00  0.00     0.173 A 
ATOM     74  C   UNL A   1      39.767  26.731  28.608  1.00  0.00     0.173 A 
ATOM     75  F   UNL A   1      41.753  29.553  27.469  1.00  0.00    -0.203 F 
ATOM     76  C   UNL A   1      41.242  27.519  26.394  1.00  0.00     0.198 A 
ATOM     77  C   UNL A   1      39.885  25.883  27.510  1.00  0.00     0.198 A 
ATOM     78  F   UNL A   1      39.046  26.327  29.665  1.00  0.00    -0.203 F 
ATOM     79  F   UNL A   1      41.934  27.914  25.316  1.00  0.00    -0.200 F 
ATOM     80  C   UNL A   1      40.619  26.279  26.403  1.00  0.00     0.200 A 
ATOM     81  F   UNL A   1      39.292  24.681  27.527  1.00  0.00    -0.200 F 
ATOM     82  F   UNL A   1      40.724  25.468  25.342  1.00  0.00    -0.200 F 
ENDBRANCH  48  72
BRANCH  60  83
ATOM     83  C   UNL A   1      44.008  28.411  34.572  1.00  0.00     0.064 A 
ATOM     84  C   UNL A   1      45.318  28.868  34.373  1.00  0.00     0.173 A 
ATOM     85  C   UNL A   1      43.823  27.236  35.317  1.00  0.00     0.173 A 
ATOM     86  F   UNL A   1      45.545  29.978  33.655  1.00  0.00    -0.203 F 
ATOM     87  C   UNL A   1      46.405  28.165  34.887  1.00  0.00     0.198 A 
ATOM     88  C   UNL A   1      44.910  26.548  35.847  1.00  0.00     0.198 A 
ATOM     89  F   UNL A   1      42.587  26.763  35.536  1.00  0.00    -0.203 F 
ATOM     90  F   UNL A   1      47.652  28.598  34.655  1.00  0.00    -0.200 F 
ATOM     91  C   UNL A   1      46.200  27.009  35.628  1.00  0.00     0.200 A 
ATOM     92  F   UNL A   1      44.711  25.437  36.570  1.00  0.00    -0.200 F 
ATOM     93  F   UNL A   1      47.247  26.336  36.125  1.00  0.00    -0.200 F 
ENDBRANCH  60  83
ENDBRANCH  34  35
ENDBRANCH  26  29
ENDBRANCH  24  25
ENDBRANCH  23  24
ENDBRANCH   1  23
TORSDOF 13
ENDMDL
MODEL 2
REMARK VINA RESULT:     -12.4      0.064      1.683
REMARK SMILES O=C(Cc1c[nH]c(=O)n(Cc2ccccc2)c1=O)NCCCNC(=O)c1ccc(-c2c3nc(c(-c4c(F)c(F)c(F)c(F)c4F)c4ccc([nH]4)c(-c4c(F)c(F)c(F)c(F)c4F)c4nc(c(-c5c(F)c(F)c(F)c(F)c5F)c5ccc2[nH]5)C=C4)C=C3)cc1
REMARK SMILES IDX 20 1 19 2 1 3 2 4 3 6 4 7 5 8 17 9 6 10 9 11 18 12 7 13 8 15
REMARK SMILES IDX 10 16 11 17 12 18 16 19 13 20 15 21 14 22 21 23 22 24 23 25
REMARK SMILES IDX 24 26 25 28 26 29 27 30 88 31 28 32 87 33 29 34 30 35 31 36
REMARK SMILES IDX 81 37 32 38 86 39 80 40 82 41 33 42 85 43 79 44 78 45 34 47
REMARK SMILES IDX 66 48 46 49 65 50 47 51 50 52 64 53 83 54 48 55 49 56 63 58
REMARK SMILES IDX 84 59 51 60 35 61 36 62 44 63 37 64 38 65 42 66 45 67 39 68
REMARK SMILES IDX 40 69 43 70 41 71 67 72 68 73 76 74 69 75 70 76 74 77 77 78
REMARK SMILES IDX 71 79 72 80 75 81 73 82 52 83 53 84 61 85 54 86 55 87 59 88
REMARK SMILES IDX 62 89 56 90 57 91 60 92 58 93
REMARK H PARENT 19 5 6 14 23 27 82 46 50 57
REMARK Flexibility Score: inf
ROOT
ATOM      1  C   UNL A   1      31.995  30.165  26.880  1.00  0.00     0.117 C 
ENDROOT
BRANCH   1   2
ATOM      2  N   UNL A   1      32.956  29.538  26.000  1.00  0.00    -0.356 N 
ATOM      3  O   UNL A   1      31.580  29.265  24.180  1.00  0.00    -0.275 OA
ATOM      4  C   UNL A   1      32.683  29.159  24.707  1.00  0.00     0.224 C 
ATOM      5  H   UNL A   1      33.862  29.370  26.349  1.00  0.00     0.163 HD
BRANCH   4   6
ATOM      6  C   UNL A   1      33.895  28.629  23.952  1.00  0.00     0.142 C 
BRANCH   6   7
ATOM      7  C   UNL A   1      33.614  27.216  23.530  1.00  0.00     0.043 A 
ATOM      8  C   UNL A   1      33.351  26.852  22.273  1.00  0.00     0.097 A 
ATOM      9  C   UNL A   1      33.666  26.153  24.576  1.00  0.00     0.260 A 
ATOM     10  N   UNL A   1      33.200  25.541  21.942  1.00  0.00    -0.314 N 
ATOM     11  N   UNL A   1      33.532  24.845  24.145  1.00  0.00    -0.256 N 
ATOM     12  O   UNL A   1      33.867  26.479  25.748  1.00  0.00    -0.269 OA
ATOM     13  C   UNL A   1      33.323  24.499  22.821  1.00  0.00     0.328 A 
ATOM     14  H   UNL A   1      32.986  25.328  21.006  1.00  0.00     0.171 HD
ATOM     15  O   UNL A   1      33.261  23.347  22.397  1.00  0.00    -0.248 OA
BRANCH  11  16
ATOM     16  C   UNL A   1      33.655  23.776  25.125  1.00  0.00     0.166 C 
BRANCH  16  17
ATOM     17  C   UNL A   1      35.011  23.103  25.091  1.00  0.00    -0.028 A 
ATOM     18  C   UNL A   1      36.184  23.861  25.235  1.00  0.00     0.005 A 
ATOM     19  C   UNL A   1      35.122  21.717  24.916  1.00  0.00     0.005 A 
ATOM     20  C   UNL A   1      37.437  23.248  25.206  1.00  0.00     0.000 A 
ATOM     21  C   UNL A   1      36.377  21.103  24.897  1.00  0.00     0.000 A 
ATOM     22  C   UNL A   1      37.533  21.869  25.040  1.00  0.00     0.000 A 
ENDBRANCH  16  17
ENDBRANCH  11  16
ENDBRANCH   6   7
ENDBRANCH   4   6
ENDBRANCH   1   2
BRANCH   1  23
ATOM     23  C   UNL A   1      31.882  31.661  26.631  1.00  0.00     0.042 C 
BRANCH  23  24
ATOM     24  C   UNL A   1      32.901  32.512  27.381  1.00  0.00     0.118 C 
BRANCH  24  25
ATOM     25  N   UNL A   1      32.459  33.875  27.646  1.00  0.00    -0.352 N 
ATOM     26  C   UNL A   1      32.982  34.798  28.525  1.00  0.00     0.251 C 
ATOM     27  H   UNL A   1      31.680  34.178  27.128  1.00  0.00     0.163 HD
ATOM     28  O   UNL A   1      32.442  35.886  28.687  1.00  0.00    -0.269 OA
BRANCH  26  29
ATOM     29  C   UNL A   1      34.179  34.442  29.317  1.00  0.00     0.039 A 
ATOM     30  C   UNL A   1      35.461  34.648  28.802  1.00  0.00     0.014 A 
ATOM     31  C   UNL A   1      34.007  33.816  30.555  1.00  0.00     0.014 A 
ATOM     32  C   UNL A   1      36.555  34.062  29.430  1.00  0.00     0.010 A 
ATOM     33  C   UNL A   1      35.117  33.291  31.222  1.00  0.00     0.010 A 
ATOM     34  C   UNL A   1      36.389  33.351  30.630  1.00  0.00    -0.014 A 
BRANCH  34  35
ATOM     35  C   UNL A   1      37.540  32.613  31.216  1.00  0.00     0.031 A 
ATOM     36  C   UNL A   1      38.019  32.939  32.606  1.00  0.00     0.074 A 
ATOM     37  C   UNL A   1      38.114  31.609  30.528  1.00  0.00     0.049 A 
ATOM     38  N   UNL A   1      39.022  32.430  33.278  1.00  0.00    -0.248 NA
ATOM     39  C   UNL A   1      37.274  33.975  33.342  1.00  0.00     0.031 C 
ATOM     40  C   UNL A   1      37.718  31.171  29.190  1.00  0.00     0.029 A 
ATOM     41  N   UNL A   1      39.137  30.763  30.871  1.00  0.00    -0.354 N 
ATOM     42  C   UNL A   1      39.042  33.095  34.497  1.00  0.00     0.074 A 
ATOM     43  C   UNL A   1      37.965  34.060  34.471  1.00  0.00     0.031 C 
ATOM     44  C   UNL A   1      38.461  30.110  28.842  1.00  0.00     0.029 A 
ATOM     45  C   UNL A   1      39.421  29.830  29.905  1.00  0.00     0.049 A 
ATOM     46  H   UNL A   1      39.622  30.820  31.726  1.00  0.00     0.167 HD
ATOM     47  C   UNL A   1      39.876  32.909  35.549  1.00  0.00     0.037 A 
ATOM     48  C   UNL A   1      40.360  28.865  29.874  1.00  0.00     0.037 A 
ATOM     49  C   UNL A   1      40.930  31.930  35.591  1.00  0.00     0.049 A 
ATOM     50  C   UNL A   1      41.299  28.709  31.036  1.00  0.00     0.074 A 
ATOM     51  C   UNL A   1      41.826  31.669  36.614  1.00  0.00     0.029 A 
ATOM     52  N   UNL A   1      41.223  31.042  34.567  1.00  0.00    -0.354 N 
ATOM     53  N   UNL A   1      41.331  29.369  32.168  1.00  0.00    -0.248 NA
ATOM     54  C   UNL A   1      42.343  27.683  30.908  1.00  0.00     0.031 C 
ATOM     55  C   UNL A   1      42.679  30.640  36.198  1.00  0.00     0.029 A 
ATOM     56  C   UNL A   1      42.292  30.239  34.931  1.00  0.00     0.049 A 
ATOM     57  H   UNL A   1      40.743  30.990  33.710  1.00  0.00     0.167 HD
ATOM     58  C   UNL A   1      42.392  28.839  32.888  1.00  0.00     0.074 A 
ATOM     59  C   UNL A   1      42.964  27.784  32.075  1.00  0.00     0.031 C 
ATOM     60  C   UNL A   1      42.855  29.199  34.109  1.00  0.00     0.037 A 
BRANCH  47  61
ATOM     61  C   UNL A   1      39.693  33.792  36.747  1.00  0.00     0.064 A 
ATOM     62  C   UNL A   1      40.292  35.056  36.825  1.00  0.00     0.173 A 
ATOM     63  C   UNL A   1      38.859  33.392  37.803  1.00  0.00     0.173 A 
ATOM     64  F   UNL A   1      41.109  35.477  35.849  1.00  0.00    -0.203 F 
ATOM     65  C   UNL A   1      40.073  35.885  37.923  1.00  0.00     0.198 A 
ATOM     66  C   UNL A   1      38.625  34.232  38.888  1.00  0.00     0.198 A 
ATOM     67  F   UNL A   1      38.259  32.193  37.773  1.00  0.00    -0.203 F 
ATOM     68  F   UNL A   1      40.679  37.078  37.991  1.00  0.00    -0.200 F 
ATOM     69  C   UNL A   1      39.234  35.476  38.949  1.00  0.00     0.200 A 
ATOM     70  F   UNL A   1      37.806  33.839  39.874  1.00  0.00    -0.200 F 
ATOM     71  F   UNL A   1      39.015  36.280  39.999  1.00  0.00    -0.200 F 
ENDBRANCH  47  61
BRANCH  48  72
ATOM     72  C   UNL A   1      40.452  27.974  28.692  1.00  0.00     0.064 A 
ATOM     73  C   UNL A   1      39.777  26.747  28.665  1.00  0.00     0.173 A 
ATOM     74  C   UNL A   1      41.197  28.338  27.562  1.00  0.00     0.173 A 
ATOM     75  F   UNL A   1      39.071  26.346  29.732  1.00  0.00    -0.203 F 
ATOM     76  C   UNL A   1      39.845  25.915  27.549  1.00  0.00     0.198 A 
ATOM     77  C   UNL A   1      41.245  27.518  26.438  1.00  0.00     0.198 A 
ATOM     78  F   UNL A   1      41.861  29.504  27.542  1.00  0.00    -0.203 F 
ATOM     79  F   UNL A   1      39.213  24.734  27.557  1.00  0.00    -0.200 F 
ATOM     80  C   UNL A   1      40.572  26.306  26.433  1.00  0.00     0.200 A 
ATOM     81  F   UNL A   1      41.938  27.904  25.357  1.00  0.00    -0.200 F 
ATOM     82  F   UNL A   1      40.626  25.511  25.356  1.00  0.00    -0.200 F 
ENDBRANCH  48  72
BRANCH  60  83
ATOM     83  C   UNL A   1      44.034  28.446  34.643  1.00  0.00     0.064 A 
ATOM     84  C   UNL A   1      43.870  27.259  35.372  1.00  0.00     0.173 A 
ATOM     85  C   UNL A   1      45.340  28.892  34.391  1.00  0.00     0.173 A 
ATOM     86  F   UNL A   1      42.640  26.802  35.650  1.00  0.00    -0.203 F 
ATOM     87  C   UNL A   1      44.974  26.555  35.846  1.00  0.00     0.198 A 
ATOM     88  C   UNL A   1      46.441  28.173  34.848  1.00  0.00     0.198 A 
ATOM     89  F   UNL A   1      45.547  30.020  33.695  1.00  0.00    -0.203 F 
ATOM     90  F   UNL A   1      44.795  25.443  36.573  1.00  0.00    -0.200 F 
ATOM     91  C   UNL A   1      46.257  27.009  35.579  1.00  0.00     0.200 A 
ATOM     92  F   UNL A   1      47.681  28.608  34.582  1.00  0.00    -0.200 F 
ATOM     93  F   UNL A   1      47.318  26.326  36.033  1.00  0.00    -0.200 F 
ENDBRANCH  60  83
ENDBRANCH  34  35
ENDBRANCH  26  29
ENDBRANCH  24  25
ENDBRANCH  23  24
ENDBRANCH   1  23
TORSDOF 13
ENDMDL
MODEL 3
REMARK VINA RESULT:     -12.3      1.899      7.773
REMARK SMILES O=C(Cc1c[nH]c(=O)n(Cc2ccccc2)c1=O)NCCCNC(=O)c1ccc(-c2c3nc(c(-c4c(F)c(F)c(F)c(F)c4F)c4ccc([nH]4)c(-c4c(F)c(F)c(F)c(F)c4F)c4nc(c(-c5c(F)c(F)c(F)c(F)c5F)c5ccc2[nH]5)C=C4)C=C3)cc1
REMARK SMILES IDX 20 1 19 2 1 3 2 4 3 6 4 7 5 8 17 9 6 10 9 11 18 12 7 13 8 15
REMARK SMILES IDX 10 16 11 17 12 18 16 19 13 20 15 21 14 22 21 23 22 24 23 25
REMARK SMILES IDX 24 26 25 28 26 29 27 30 88 31 28 32 87 33 29 34 30 35 31 36
REMARK SMILES IDX 81 37 32 38 86 39 80 40 82 41 33 42 85 43 79 44 78 45 34 47
REMARK SMILES IDX 66 48 46 49 65 50 47 51 50 52 64 53 83 54 48 55 49 56 63 58
REMARK SMILES IDX 84 59 51 60 35 61 36 62 44 63 37 64 38 65 42 66 45 67 39 68
REMARK SMILES IDX 40 69 43 70 41 71 67 72 68 73 76 74 69 75 70 76 74 77 77 78
REMARK SMILES IDX 71 79 72 80 75 81 73 82 52 83 53 84 61 85 54 86 55 87 59 88
REMARK SMILES IDX 62 89 56 90 57 91 60 92 58 93
REMARK H PARENT 19 5 6 14 23 27 82 46 50 57
REMARK Flexibility Score: inf
ROOT
ATOM      1  C   UNL A   1      32.982  28.468  25.411  1.00  0.00     0.117 C 
ENDROOT
BRANCH   1   2
ATOM      2  N   UNL A   1      31.990  27.466  25.091  1.00  0.00    -0.356 N 
ATOM      3  O   UNL A   1      31.388  26.926  27.243  1.00  0.00    -0.275 OA
ATOM      4  C   UNL A   1      31.248  26.789  26.032  1.00  0.00     0.224 C 
ATOM      5  H   UNL A   1      31.836  27.253  24.142  1.00  0.00     0.163 HD
BRANCH   4   6
ATOM      6  C   UNL A   1      30.189  25.871  25.435  1.00  0.00     0.142 C 
BRANCH   6   7
ATOM      7  C   UNL A   1      30.690  24.458  25.502  1.00  0.00     0.043 A 
ATOM      8  C   UNL A   1      30.283  23.565  26.406  1.00  0.00     0.097 A 
ATOM      9  C   UNL A   1      31.677  24.019  24.472  1.00  0.00     0.260 A 
ATOM     10  N   UNL A   1      30.704  22.273  26.352  1.00  0.00    -0.314 N 
ATOM     11  N   UNL A   1      32.027  22.681  24.473  1.00  0.00    -0.256 N 
ATOM     12  O   UNL A   1      32.094  24.844  23.656  1.00  0.00    -0.269 OA
ATOM     13  C   UNL A   1      31.535  21.767  25.389  1.00  0.00     0.328 A 
ATOM     14  H   UNL A   1      30.391  21.660  27.055  1.00  0.00     0.171 HD
ATOM     15  O   UNL A   1      31.778  20.562  25.379  1.00  0.00    -0.248 OA
BRANCH  11  16
ATOM     16  C   UNL A   1      32.927  22.199  23.435  1.00  0.00     0.166 C 
BRANCH  16  17
ATOM     17  C   UNL A   1      34.381  22.233  23.857  1.00  0.00    -0.028 A 
ATOM     18  C   UNL A   1      34.922  21.191  24.626  1.00  0.00     0.005 A 
ATOM     19  C   UNL A   1      35.211  23.302  23.492  1.00  0.00     0.005 A 
ATOM     20  C   UNL A   1      36.261  21.215  25.018  1.00  0.00     0.000 A 
ATOM     21  C   UNL A   1      36.553  23.320  23.877  1.00  0.00     0.000 A 
ATOM     22  C   UNL A   1      37.076  22.278  24.640  1.00  0.00     0.000 A 
ENDBRANCH  16  17
ENDBRANCH  11  16
ENDBRANCH   6   7
ENDBRANCH   4   6
ENDBRANCH   1   2
BRANCH   1  23
ATOM     23  C   UNL A   1      32.372  29.855  25.542  1.00  0.00     0.042 C 
BRANCH  23  24
ATOM     24  C   UNL A   1      32.292  30.385  26.971  1.00  0.00     0.118 C 
BRANCH  24  25
ATOM     25  N   UNL A   1      32.355  31.838  27.072  1.00  0.00    -0.352 N 
ATOM     26  C   UNL A   1      33.384  32.628  27.532  1.00  0.00     0.251 C 
ATOM     27  H   UNL A   1      31.552  32.320  26.771  1.00  0.00     0.163 HD
ATOM     28  O   UNL A   1      33.249  33.843  27.625  1.00  0.00    -0.269 OA
BRANCH  26  29
ATOM     29  C   UNL A   1      34.645  31.989  27.968  1.00  0.00     0.039 A 
ATOM     30  C   UNL A   1      34.676  30.635  28.307  1.00  0.00     0.014 A 
ATOM     31  C   UNL A   1      35.787  32.781  28.116  1.00  0.00     0.014 A 
ATOM     32  C   UNL A   1      35.785  30.120  28.971  1.00  0.00     0.010 A 
ATOM     33  C   UNL A   1      36.927  32.242  28.717  1.00  0.00     0.010 A 
ATOM     34  C   UNL A   1      36.909  30.927  29.210  1.00  0.00    -0.014 A 
BRANCH  34  35
ATOM     35  C   UNL A   1      38.028  30.407  30.040  1.00  0.00     0.031 A 
ATOM     36  C   UNL A   1      39.046  29.473  29.439  1.00  0.00     0.074 A 
ATOM     37  C   UNL A   1      38.169  30.822  31.312  1.00  0.00     0.049 A 
ATOM     38  N   UNL A   1      40.073  28.891  30.007  1.00  0.00    -0.248 NA
ATOM     39  C   UNL A   1      38.891  29.148  28.011  1.00  0.00     0.031 C 
ATOM     40  C   UNL A   1      37.274  31.752  31.999  1.00  0.00     0.029 A 
ATOM     41  N   UNL A   1      39.130  30.529  32.246  1.00  0.00    -0.354 N 
ATOM     42  C   UNL A   1      40.669  28.118  29.018  1.00  0.00     0.074 A 
ATOM     43  C   UNL A   1      39.880  28.287  27.817  1.00  0.00     0.031 C 
ATOM     44  C   UNL A   1      37.751  31.989  33.230  1.00  0.00     0.029 A 
ATOM     45  C   UNL A   1      38.951  31.184  33.439  1.00  0.00     0.049 A 
ATOM     46  H   UNL A   1      39.876  29.910  32.077  1.00  0.00     0.167 HD
ATOM     47  C   UNL A   1      41.779  27.347  29.101  1.00  0.00     0.037 A 
ATOM     48  C   UNL A   1      39.665  31.131  34.579  1.00  0.00     0.037 A 
ATOM     49  C   UNL A   1      42.584  27.200  30.285  1.00  0.00     0.049 A 
ATOM     50  C   UNL A   1      40.869  30.235  34.656  1.00  0.00     0.074 A 
ATOM     51  C   UNL A   1      43.728  26.441  30.464  1.00  0.00     0.029 A 
ATOM     52  N   UNL A   1      42.334  27.835  31.492  1.00  0.00    -0.354 N 
ATOM     53  N   UNL A   1      41.400  29.481  33.725  1.00  0.00    -0.248 NA
ATOM     54  C   UNL A   1      41.563  30.172  35.950  1.00  0.00     0.031 C 
ATOM     55  C   UNL A   1      44.155  26.596  31.787  1.00  0.00     0.029 A 
ATOM     56  C   UNL A   1      43.297  27.477  32.422  1.00  0.00     0.049 A 
ATOM     57  H   UNL A   1      41.585  28.450  31.663  1.00  0.00     0.167 HD
ATOM     58  C   UNL A   1      42.489  28.858  34.315  1.00  0.00     0.074 A 
ATOM     59  C   UNL A   1      42.559  29.340  35.680  1.00  0.00     0.031 C 
ATOM     60  C   UNL A   1      43.349  27.959  33.778  1.00  0.00     0.037 A 
BRANCH  47  61
ATOM     61  C   UNL A   1      42.194  26.589  27.875  1.00  0.00     0.064 A 
ATOM     62  C   UNL A   1      43.133  27.108  26.975  1.00  0.00     0.173 A 
ATOM     63  C   UNL A   1      41.689  25.301  27.632  1.00  0.00     0.173 A 
ATOM     64  F   UNL A   1      43.633  28.339  27.156  1.00  0.00    -0.203 F 
ATOM     65  C   UNL A   1      43.546  26.372  25.867  1.00  0.00     0.198 A 
ATOM     66  C   UNL A   1      42.120  24.560  26.536  1.00  0.00     0.198 A 
ATOM     67  F   UNL A   1      40.791  24.759  28.467  1.00  0.00    -0.203 F 
ATOM     68  F   UNL A   1      44.423  26.898  25.002  1.00  0.00    -0.200 F 
ATOM     69  C   UNL A   1      43.045  25.096  25.652  1.00  0.00     0.200 A 
ATOM     70  F   UNL A   1      41.642  23.323  26.336  1.00  0.00    -0.200 F 
ATOM     71  F   UNL A   1      43.451  24.383  24.593  1.00  0.00    -0.200 F 
ENDBRANCH  47  61
BRANCH  48  72
ATOM     72  C   UNL A   1      39.251  31.957  35.740  1.00  0.00     0.064 A 
ATOM     73  C   UNL A   1      38.330  31.467  36.675  1.00  0.00     0.173 A 
ATOM     74  C   UNL A   1      39.781  33.238  35.948  1.00  0.00     0.173 A 
ATOM     75  F   UNL A   1      37.779  30.257  36.503  1.00  0.00    -0.203 F 
ATOM     76  C   UNL A   1      37.953  32.231  37.777  1.00  0.00     0.198 A 
ATOM     77  C   UNL A   1      39.422  33.990  37.063  1.00  0.00     0.198 A 
ATOM     78  F   UNL A   1      40.666  33.748  35.079  1.00  0.00    -0.203 F 
ATOM     79  F   UNL A   1      37.049  31.753  38.643  1.00  0.00    -0.200 F 
ATOM     80  C   UNL A   1      38.506  33.489  37.974  1.00  0.00     0.200 A 
ATOM     81  F   UNL A   1      39.968  35.199  37.257  1.00  0.00    -0.200 F 
ATOM     82  F   UNL A   1      38.152  34.217  39.042  1.00  0.00    -0.200 F 
ENDBRANCH  48  72
BRANCH  60  83
ATOM     83  C   UNL A   1      44.441  27.443  34.662  1.00  0.00     0.064 A 
ATOM     84  C   UNL A   1      44.283  26.260  35.399  1.00  0.00     0.173 A 
ATOM     85  C   UNL A   1      45.671  28.113  34.744  1.00  0.00     0.173 A 
ATOM     86  F   UNL A   1      43.120  25.593  35.364  1.00  0.00    -0.203 F 
ATOM     87  C   UNL A   1      45.313  25.776  36.202  1.00  0.00     0.198 A 
ATOM     88  C   UNL A   1      46.706  27.614  35.531  1.00  0.00     0.198 A 
ATOM     89  F   UNL A   1      45.871  29.246  34.054  1.00  0.00    -0.203 F 
ATOM     90  F   UNL A   1      45.128  24.664  36.927  1.00  0.00    -0.200 F 
ATOM     91  C   UNL A   1      46.524  26.450  36.263  1.00  0.00     0.200 A 
ATOM     92  F   UNL A   1      47.879  28.261  35.582  1.00  0.00    -0.200 F 
ATOM     93  F   UNL A   1      47.515  25.980  37.033  1.00  0.00    -0.200 F 
ENDBRANCH  60  83
ENDBRANCH  34  35
ENDBRANCH  26  29
ENDBRANCH  24  25
ENDBRANCH  23  24
ENDBRANCH   1  23
TORSDOF 13
ENDMDL
