MODEL 1
REMARK VINA RESULT:     -13.4      0.000      0.000
REMARK SMILES O=C(NCCCNC(=O)c1cnc2c(C(F)(F)F)cccc2c1NCc1cccnc1)c1ccc(-c2c3nc(c(-c4c(F)c(F)c(F)c(F)c4F)c4ccc([nH]4)c(-c4c(F)c(F)c(F)c(F)c4F)c4nc(c(-c5c(F)c(F)c(F)c(F)c5F)c5ccc2[nH]5)C=C4)C=C3)cc1
REMARK SMILES IDX 5 1 4 2 3 3 1 4 2 5 32 7 33 8 94 9 34 10 93 11 35 12 36 13
REMARK SMILES IDX 37 14 87 15 38 16 92 17 86 18 88 19 39 20 91 21 85 22 84 23
REMARK SMILES IDX 40 25 72 26 52 27 71 28 53 29 56 30 70 31 89 32 54 33 55 34
REMARK SMILES IDX 69 36 90 37 57 38 41 39 42 40 50 41 43 42 44 43 48 44 51 45
REMARK SMILES IDX 45 46 46 47 49 48 47 49 73 50 74 51 82 52 75 53 76 54 80 55
REMARK SMILES IDX 83 56 77 57 78 58 81 59 79 60 58 61 59 62 67 63 60 64 61 65
REMARK SMILES IDX 65 66 68 67 62 68 63 69 66 70 64 71 6 72 7 73 8 74 9 76
REMARK SMILES IDX 10 77 11 78 23 79 12 80 22 81 13 82 21 83 14 84 20 85 19 86
REMARK SMILES IDX 24 87 25 89 26 90 27 91 31 92 28 93 30 94 29 95 15 96 16 97
REMARK SMILES IDX 17 98 18 99
REMARK H PARENT 3 6 88 24 56 35 7 75 24 88
REMARK Flexibility Score: inf
ROOT
ATOM      1  C   UNL A   1      33.462  28.899  23.383  1.00  0.00     0.042 C 
ENDROOT
BRANCH   1   2
ATOM      2  C   UNL A   1      33.617  28.979  24.897  1.00  0.00     0.118 C 
BRANCH   2   3
ATOM      3  N   UNL A   1      32.926  30.118  25.485  1.00  0.00    -0.352 N 
ATOM      4  O   UNL A   1      32.371  31.677  27.003  1.00  0.00    -0.269 OA
ATOM      5  C   UNL A   1      33.196  30.853  26.611  1.00  0.00     0.251 C 
ATOM      6  H   UNL A   1      32.127  30.409  24.990  1.00  0.00     0.163 HD
BRANCH   5   7
ATOM      7  C   UNL A   1      34.446  30.658  27.376  1.00  0.00     0.039 A 
ATOM      8  C   UNL A   1      35.323  31.714  27.632  1.00  0.00     0.014 A 
ATOM      9  C   UNL A   1      34.715  29.390  27.903  1.00  0.00     0.014 A 
ATOM     10  C   UNL A   1      36.529  31.477  28.289  1.00  0.00     0.010 A 
ATOM     11  C   UNL A   1      35.884  29.171  28.636  1.00  0.00     0.010 A 
ATOM     12  C   UNL A   1      36.815  30.207  28.808  1.00  0.00    -0.014 A 
BRANCH  12  13
ATOM     13  C   UNL A   1      38.064  29.972  29.577  1.00  0.00     0.031 A 
ATOM     14  C   UNL A   1      39.120  29.042  29.056  1.00  0.00     0.074 A 
ATOM     15  C   UNL A   1      38.222  30.573  30.771  1.00  0.00     0.049 A 
ATOM     16  N   UNL A   1      40.228  28.642  29.629  1.00  0.00    -0.248 NA
ATOM     17  C   UNL A   1      38.897  28.476  27.717  1.00  0.00     0.031 C 
ATOM     18  C   UNL A   1      37.262  31.491  31.384  1.00  0.00     0.029 A 
ATOM     19  N   UNL A   1      39.237  30.487  31.690  1.00  0.00    -0.354 N 
ATOM     20  C   UNL A   1      40.819  27.759  28.735  1.00  0.00     0.074 A 
ATOM     21  C   UNL A   1      39.936  27.664  27.591  1.00  0.00     0.031 C 
ATOM     22  C   UNL A   1      37.732  31.886  32.576  1.00  0.00     0.029 A 
ATOM     23  C   UNL A   1      38.995  31.201  32.837  1.00  0.00     0.049 A 
ATOM     24  H   UNL A   1      40.059  29.966  31.541  1.00  0.00     0.167 HD
ATOM     25  C   UNL A   1      41.994  27.094  28.860  1.00  0.00     0.037 A 
ATOM     26  C   UNL A   1      39.687  31.268  33.989  1.00  0.00     0.037 A 
ATOM     27  C   UNL A   1      42.866  27.203  30.001  1.00  0.00     0.049 A 
ATOM     28  C   UNL A   1      40.967  30.495  34.122  1.00  0.00     0.074 A 
ATOM     29  C   UNL A   1      44.102  26.613  30.202  1.00  0.00     0.029 A 
ATOM     30  N   UNL A   1      42.587  27.940  31.144  1.00  0.00    -0.354 N 
ATOM     31  N   UNL A   1      41.543  29.700  33.254  1.00  0.00    -0.248 NA
ATOM     32  C   UNL A   1      41.694  30.626  35.392  1.00  0.00     0.031 C 
ATOM     33  C   UNL A   1      44.542  26.943  31.487  1.00  0.00     0.029 A 
ATOM     34  C   UNL A   1      43.612  27.793  32.065  1.00  0.00     0.049 A 
ATOM     35  H   UNL A   1      41.780  28.487  31.279  1.00  0.00     0.167 HD
ATOM     36  C   UNL A   1      42.711  29.256  33.858  1.00  0.00     0.074 A 
ATOM     37  C   UNL A   1      42.762  29.871  35.169  1.00  0.00     0.031 C 
ATOM     38  C   UNL A   1      43.655  28.418  33.365  1.00  0.00     0.037 A 
BRANCH  25  39
ATOM     39  C   UNL A   1      42.384  26.161  27.748  1.00  0.00     0.064 A 
ATOM     40  C   UNL A   1      43.287  26.540  26.743  1.00  0.00     0.173 A 
ATOM     41  C   UNL A   1      41.855  24.863  27.696  1.00  0.00     0.173 A 
ATOM     42  F   UNL A   1      43.817  27.772  26.739  1.00  0.00    -0.203 F 
ATOM     43  C   UNL A   1      43.611  25.668  25.705  1.00  0.00     0.198 A 
ATOM     44  C   UNL A   1      42.207  23.983  26.676  1.00  0.00     0.198 A 
ATOM     45  F   UNL A   1      40.994  24.444  28.637  1.00  0.00    -0.203 F 
ATOM     46  F   UNL A   1      44.428  26.075  24.722  1.00  0.00    -0.200 F 
ATOM     47  C   UNL A   1      43.075  24.390  25.675  1.00  0.00     0.200 A 
ATOM     48  F   UNL A   1      41.699  22.743  26.657  1.00  0.00    -0.200 F 
ATOM     49  F   UNL A   1      43.386  23.554  24.675  1.00  0.00    -0.200 F 
ENDBRANCH  25  39
BRANCH  26  50
ATOM     50  C   UNL A   1      39.155  32.094  35.102  1.00  0.00     0.064 A 
ATOM     51  C   UNL A   1      38.416  31.516  36.142  1.00  0.00     0.173 A 
ATOM     52  C   UNL A   1      39.432  33.468  35.179  1.00  0.00     0.173 A 
ATOM     53  F   UNL A   1      38.114  30.211  36.104  1.00  0.00    -0.203 F 
ATOM     54  C   UNL A   1      37.973  32.282  37.219  1.00  0.00     0.198 A 
ATOM     55  C   UNL A   1      39.013  34.226  36.269  1.00  0.00     0.198 A 
ATOM     56  F   UNL A   1      40.144  34.064  34.212  1.00  0.00    -0.203 F 
ATOM     57  F   UNL A   1      37.252  31.711  38.192  1.00  0.00    -0.200 F 
ATOM     58  C   UNL A   1      38.282  33.633  37.287  1.00  0.00     0.200 A 
ATOM     59  F   UNL A   1      39.331  35.526  36.341  1.00  0.00    -0.200 F 
ATOM     60  F   UNL A   1      37.876  34.363  38.334  1.00  0.00    -0.200 F 
ENDBRANCH  26  50
BRANCH  38  61
ATOM     61  C   UNL A   1      44.855  28.143  34.222  1.00  0.00     0.064 A 
ATOM     62  C   UNL A   1      45.981  28.979  34.207  1.00  0.00     0.173 A 
ATOM     63  C   UNL A   1      44.842  27.071  35.128  1.00  0.00     0.173 A 
ATOM     64  F   UNL A   1      46.048  30.005  33.346  1.00  0.00    -0.203 F 
ATOM     65  C   UNL A   1      47.054  28.746  35.064  1.00  0.00     0.198 A 
ATOM     66  C   UNL A   1      45.904  26.858  36.002  1.00  0.00     0.198 A 
ATOM     67  F   UNL A   1      43.786  26.246  35.183  1.00  0.00    -0.203 F 
ATOM     68  F   UNL A   1      48.133  29.540  35.014  1.00  0.00    -0.200 F 
ATOM     69  C   UNL A   1      47.009  27.694  35.968  1.00  0.00     0.200 A 
ATOM     70  F   UNL A   1      45.853  25.851  36.884  1.00  0.00    -0.200 F 
ATOM     71  F   UNL A   1      48.034  27.486  36.806  1.00  0.00    -0.200 F 
ENDBRANCH  38  61
ENDBRANCH  12  13
ENDBRANCH   5   7
ENDBRANCH   2   3
ENDBRANCH   1   2
BRANCH   1  72
ATOM     72  C   UNL A   1      33.936  27.595  22.757  1.00  0.00     0.118 C 
BRANCH  72  73
ATOM     73  N   UNL A   1      33.179  27.213  21.572  1.00  0.00    -0.352 N 
ATOM     74  C   UNL A   1      32.318  26.158  21.382  1.00  0.00     0.254 C 
ATOM     75  H   UNL A   1      33.303  27.798  20.790  1.00  0.00     0.163 HD
ATOM     76  O   UNL A   1      31.697  26.058  20.325  1.00  0.00    -0.269 OA
BRANCH  74  77
ATOM     77  C   UNL A   1      32.108  25.177  22.452  1.00  0.00     0.081 A 
ATOM     78  C   UNL A   1      32.766  23.974  22.246  1.00  0.00     0.127 A 
ATOM     79  C   UNL A   1      31.379  25.372  23.640  1.00  0.00     0.058 A 
ATOM     80  N   UNL A   1      32.692  22.916  23.069  1.00  0.00    -0.255 NA
ATOM     81  C   UNL A   1      31.385  24.270  24.582  1.00  0.00     0.025 A 
ATOM     82  C   UNL A   1      32.026  23.051  24.217  1.00  0.00     0.085 A 
ATOM     83  C   UNL A   1      30.789  24.315  25.871  1.00  0.00     0.012 A 
ATOM     84  C   UNL A   1      31.984  21.947  25.066  1.00  0.00     0.082 A 
ATOM     85  C   UNL A   1      30.798  23.222  26.737  1.00  0.00     0.001 A 
ATOM     86  C   UNL A   1      31.379  22.035  26.328  1.00  0.00     0.015 A 
BRANCH  79  87
ATOM     87  N   UNL A   1      30.606  26.493  23.941  1.00  0.00    -0.380 N 
ATOM     88  H   UNL A   1      31.105  27.247  24.328  1.00  0.00     0.160 HD
BRANCH  87  89
ATOM     89  C   UNL A   1      29.180  26.726  23.776  1.00  0.00     0.150 C 
BRANCH  89  90
ATOM     90  C   UNL A   1      28.943  28.063  23.118  1.00  0.00    -0.011 A 
ATOM     91  C   UNL A   1      27.678  28.660  23.109  1.00  0.00     0.009 A 
ATOM     92  C   UNL A   1      29.947  28.689  22.387  1.00  0.00     0.116 A 
ATOM     93  C   UNL A   1      27.469  29.835  22.393  1.00  0.00     0.020 A 
ATOM     94  N   UNL A   1      29.774  29.833  21.686  1.00  0.00    -0.264 NA
ATOM     95  C   UNL A   1      28.538  30.378  21.703  1.00  0.00     0.111 A 
ENDBRANCH  89  90
ENDBRANCH  87  89
ENDBRANCH  79  87
BRANCH  84  96
ATOM     96  C   UNL A   1      32.571  20.638  24.602  1.00  0.00     0.418 C 
ATOM     97  F   UNL A   1      32.022  20.191  23.435  1.00  0.00    -0.166 F 
ATOM     98  F   UNL A   1      33.920  20.661  24.417  1.00  0.00    -0.166 F 
ATOM     99  F   UNL A   1      32.357  19.624  25.495  1.00  0.00    -0.166 F 
ENDBRANCH  84  96
ENDBRANCH  74  77
ENDBRANCH  72  73
ENDBRANCH   1  72
TORSDOF 14
ENDMDL
MODEL 2
REMARK VINA RESULT:     -13.3      4.961     10.112
REMARK SMILES O=C(NCCCNC(=O)c1cnc2c(C(F)(F)F)cccc2c1NCc1cccnc1)c1ccc(-c2c3nc(c(-c4c(F)c(F)c(F)c(F)c4F)c4ccc([nH]4)c(-c4c(F)c(F)c(F)c(F)c4F)c4nc(c(-c5c(F)c(F)c(F)c(F)c5F)c5ccc2[nH]5)C=C4)C=C3)cc1
REMARK SMILES IDX 5 1 4 2 3 3 1 4 2 5 32 7 33 8 94 9 34 10 93 11 35 12 36 13
REMARK SMILES IDX 37 14 87 15 38 16 92 17 86 18 88 19 39 20 91 21 85 22 84 23
REMARK SMILES IDX 40 25 72 26 52 27 71 28 53 29 56 30 70 31 89 32 54 33 55 34
REMARK SMILES IDX 69 36 90 37 57 38 41 39 42 40 50 41 43 42 44 43 48 44 51 45
REMARK SMILES IDX 45 46 46 47 49 48 47 49 73 50 74 51 82 52 75 53 76 54 80 55
REMARK SMILES IDX 83 56 77 57 78 58 81 59 79 60 58 61 59 62 67 63 60 64 61 65
REMARK SMILES IDX 65 66 68 67 62 68 63 69 66 70 64 71 6 72 7 73 8 74 9 76
REMARK SMILES IDX 10 77 11 78 23 79 12 80 22 81 13 82 21 83 14 84 20 85 19 86
REMARK SMILES IDX 24 87 25 89 26 90 27 91 31 92 28 93 30 94 29 95 15 96 16 97
REMARK SMILES IDX 17 98 18 99
REMARK H PARENT 3 6 88 24 56 35 7 75 24 88
REMARK Flexibility Score: inf
ROOT
ATOM      1  C   UNL A   1      38.084  20.086  24.879  1.00  0.00     0.042 C 
ENDROOT
BRANCH   1   2
ATOM      2  C   UNL A   1      38.960  20.077  26.126  1.00  0.00     0.118 C 
BRANCH   2   3
ATOM      3  N   UNL A   1      40.131  19.222  25.998  1.00  0.00    -0.352 N 
ATOM      4  O   UNL A   1      42.287  18.643  25.751  1.00  0.00    -0.269 OA
ATOM      5  C   UNL A   1      41.471  19.513  26.049  1.00  0.00     0.251 C 
ATOM      6  H   UNL A   1      39.926  18.271  25.848  1.00  0.00     0.163 HD
BRANCH   5   7
ATOM      7  C   UNL A   1      41.951  20.858  26.433  1.00  0.00     0.039 A 
ATOM      8  C   UNL A   1      42.278  21.172  27.753  1.00  0.00     0.014 A 
ATOM      9  C   UNL A   1      42.136  21.812  25.427  1.00  0.00     0.014 A 
ATOM     10  C   UNL A   1      42.654  22.471  28.090  1.00  0.00     0.010 A 
ATOM     11  C   UNL A   1      42.594  23.091  25.752  1.00  0.00     0.010 A 
ATOM     12  C   UNL A   1      42.828  23.440  27.091  1.00  0.00    -0.014 A 
BRANCH  12  13
ATOM     13  C   UNL A   1      43.304  24.802  27.440  1.00  0.00     0.031 A 
ATOM     14  C   UNL A   1      42.361  25.819  28.015  1.00  0.00     0.074 A 
ATOM     15  C   UNL A   1      44.586  25.133  27.195  1.00  0.00     0.049 A 
ATOM     16  N   UNL A   1      42.571  27.081  28.291  1.00  0.00    -0.248 NA
ATOM     17  C   UNL A   1      40.995  25.358  28.308  1.00  0.00     0.031 C 
ATOM     18  C   UNL A   1      45.592  24.233  26.632  1.00  0.00     0.029 A 
ATOM     19  N   UNL A   1      45.255  26.317  27.370  1.00  0.00    -0.354 N 
ATOM     20  C   UNL A   1      41.362  27.572  28.764  1.00  0.00     0.074 A 
ATOM     21  C   UNL A   1      40.415  26.477  28.716  1.00  0.00     0.031 C 
ATOM     22  C   UNL A   1      46.752  24.894  26.509  1.00  0.00     0.029 A 
ATOM     23  C   UNL A   1      46.553  26.280  26.926  1.00  0.00     0.049 A 
ATOM     24  H   UNL A   1      44.846  27.115  27.777  1.00  0.00     0.167 HD
ATOM     25  C   UNL A   1      41.073  28.822  29.202  1.00  0.00     0.037 A 
ATOM     26  C   UNL A   1      47.472  27.258  26.823  1.00  0.00     0.037 A 
ATOM     27  C   UNL A   1      42.026  29.901  29.251  1.00  0.00     0.049 A 
ATOM     28  C   UNL A   1      47.121  28.644  27.278  1.00  0.00     0.074 A 
ATOM     29  C   UNL A   1      41.848  31.189  29.726  1.00  0.00     0.029 A 
ATOM     30  N   UNL A   1      43.334  29.823  28.793  1.00  0.00    -0.354 N 
ATOM     31  N   UNL A   1      45.990  29.089  27.769  1.00  0.00    -0.248 NA
ATOM     32  C   UNL A   1      48.171  29.666  27.167  1.00  0.00     0.031 C 
ATOM     33  C   UNL A   1      43.027  31.906  29.501  1.00  0.00     0.029 A 
ATOM     34  C   UNL A   1      43.963  31.049  28.945  1.00  0.00     0.049 A 
ATOM     35  H   UNL A   1      43.754  29.016  28.417  1.00  0.00     0.167 HD
ATOM     36  C   UNL A   1      46.196  30.433  28.049  1.00  0.00     0.074 A 
ATOM     37  C   UNL A   1      47.563  30.731  27.674  1.00  0.00     0.031 C 
ATOM     38  C   UNL A   1      45.329  31.332  28.575  1.00  0.00     0.037 A 
BRANCH  25  39
ATOM     39  C   UNL A   1      39.658  29.098  29.628  1.00  0.00     0.064 A 
ATOM     40  C   UNL A   1      38.676  29.516  28.717  1.00  0.00     0.173 A 
ATOM     41  C   UNL A   1      39.277  28.928  30.968  1.00  0.00     0.173 A 
ATOM     42  F   UNL A   1      38.988  29.703  27.426  1.00  0.00    -0.203 F 
ATOM     43  C   UNL A   1      37.378  29.795  29.140  1.00  0.00     0.198 A 
ATOM     44  C   UNL A   1      37.971  29.175  31.380  1.00  0.00     0.198 A 
ATOM     45  F   UNL A   1      40.173  28.519  31.880  1.00  0.00    -0.203 F 
ATOM     46  F   UNL A   1      36.474  30.254  28.263  1.00  0.00    -0.200 F 
ATOM     47  C   UNL A   1      37.025  29.620  30.469  1.00  0.00     0.200 A 
ATOM     48  F   UNL A   1      37.628  28.991  32.663  1.00  0.00    -0.200 F 
ATOM     49  F   UNL A   1      35.777  29.891  30.875  1.00  0.00    -0.200 F 
ENDBRANCH  25  39
BRANCH  26  50
ATOM     50  C   UNL A   1      48.802  26.938  26.247  1.00  0.00     0.064 A 
ATOM     51  C   UNL A   1      49.828  26.413  27.044  1.00  0.00     0.173 A 
ATOM     52  C   UNL A   1      49.051  27.090  24.875  1.00  0.00     0.173 A 
ATOM     53  F   UNL A   1      49.641  26.265  28.363  1.00  0.00    -0.203 F 
ATOM     54  C   UNL A   1      51.054  26.052  26.489  1.00  0.00     0.198 A 
ATOM     55  C   UNL A   1      50.267  26.703  24.316  1.00  0.00     0.198 A 
ATOM     56  F   UNL A   1      48.097  27.579  24.069  1.00  0.00    -0.203 F 
ATOM     57  F   UNL A   1      52.026  25.571  27.275  1.00  0.00    -0.200 F 
ATOM     58  C   UNL A   1      51.268  26.187  25.125  1.00  0.00     0.200 A 
ATOM     59  F   UNL A   1      50.462  26.816  22.996  1.00  0.00    -0.200 F 
ATOM     60  F   UNL A   1      52.439  25.818  24.589  1.00  0.00    -0.200 F 
ENDBRANCH  26  50
BRANCH  38  61
ATOM     61  C   UNL A   1      45.836  32.721  28.823  1.00  0.00     0.064 A 
ATOM     62  C   UNL A   1      45.666  33.748  27.882  1.00  0.00     0.173 A 
ATOM     63  C   UNL A   1      46.430  33.046  30.052  1.00  0.00     0.173 A 
ATOM     64  F   UNL A   1      45.120  33.484  26.685  1.00  0.00    -0.203 F 
ATOM     65  C   UNL A   1      46.079  35.049  28.163  1.00  0.00     0.198 A 
ATOM     66  C   UNL A   1      46.816  34.352  30.339  1.00  0.00     0.198 A 
ATOM     67  F   UNL A   1      46.611  32.100  30.985  1.00  0.00    -0.203 F 
ATOM     68  F   UNL A   1      45.933  36.010  27.240  1.00  0.00    -0.200 F 
ATOM     69  C   UNL A   1      46.642  35.352  29.394  1.00  0.00     0.200 A 
ATOM     70  F   UNL A   1      47.346  34.645  31.535  1.00  0.00    -0.200 F 
ATOM     71  F   UNL A   1      47.018  36.607  29.669  1.00  0.00    -0.200 F 
ENDBRANCH  38  61
ENDBRANCH  12  13
ENDBRANCH   5   7
ENDBRANCH   2   3
ENDBRANCH   1   2
BRANCH   1  72
ATOM     72  C   UNL A   1      36.983  21.138  24.875  1.00  0.00     0.118 C 
BRANCH  72  73
ATOM     73  N   UNL A   1      36.120  21.078  26.047  1.00  0.00    -0.352 N 
ATOM     74  C   UNL A   1      34.987  21.798  26.341  1.00  0.00     0.254 C 
ATOM     75  H   UNL A   1      36.389  20.423  26.731  1.00  0.00     0.163 HD
ATOM     76  O   UNL A   1      34.338  21.533  27.352  1.00  0.00    -0.269 OA
BRANCH  74  77
ATOM     77  C   UNL A   1      34.528  22.853  25.431  1.00  0.00     0.081 A 
ATOM     78  C   UNL A   1      34.771  24.137  25.894  1.00  0.00     0.127 A 
ATOM     79  C   UNL A   1      33.945  22.675  24.162  1.00  0.00     0.058 A 
ATOM     80  N   UNL A   1      34.406  25.259  25.253  1.00  0.00    -0.255 NA
ATOM     81  C   UNL A   1      33.649  23.884  23.419  1.00  0.00     0.025 A 
ATOM     82  C   UNL A   1      33.865  25.148  24.039  1.00  0.00     0.085 A 
ATOM     83  C   UNL A   1      33.151  23.904  22.088  1.00  0.00     0.012 A 
ATOM     84  C   UNL A   1      33.518  26.328  23.383  1.00  0.00     0.082 A 
ATOM     85  C   UNL A   1      32.857  25.091  21.418  1.00  0.00     0.001 A 
ATOM     86  C   UNL A   1      33.023  26.300  22.071  1.00  0.00     0.015 A 
BRANCH  79  87
ATOM     87  N   UNL A   1      33.572  21.451  23.607  1.00  0.00    -0.380 N 
ATOM     88  H   UNL A   1      34.098  21.175  22.823  1.00  0.00     0.160 HD
BRANCH  87  89
ATOM     89  C   UNL A   1      32.528  20.518  24.001  1.00  0.00     0.150 C 
BRANCH  89  90
ATOM     90  C   UNL A   1      33.031  19.099  23.896  1.00  0.00    -0.011 A 
ATOM     91  C   UNL A   1      34.141  18.660  24.626  1.00  0.00     0.009 A 
ATOM     92  C   UNL A   1      32.486  18.213  22.973  1.00  0.00     0.116 A 
ATOM     93  C   UNL A   1      34.648  17.381  24.417  1.00  0.00     0.020 A 
ATOM     94  N   UNL A   1      32.956  16.964  22.751  1.00  0.00    -0.264 NA
ATOM     95  C   UNL A   1      34.028  16.578  23.476  1.00  0.00     0.111 A 
ENDBRANCH  89  90
ENDBRANCH  87  89
ENDBRANCH  79  87
BRANCH  84  96
ATOM     96  C   UNL A   1      33.650  27.641  24.110  1.00  0.00     0.418 C 
ATOM     97  F   UNL A   1      32.500  28.376  24.098  1.00  0.00    -0.166 F 
ATOM     98  F   UNL A   1      34.028  27.526  25.413  1.00  0.00    -0.166 F 
ATOM     99  F   UNL A   1      34.589  28.460  23.544  1.00  0.00    -0.166 F 
ENDBRANCH  84  96
ENDBRANCH  74  77
ENDBRANCH  72  73
ENDBRANCH   1  72
TORSDOF 14
ENDMDL
MODEL 3
REMARK VINA RESULT:     -13.3      3.529      8.459
REMARK SMILES O=C(NCCCNC(=O)c1cnc2c(C(F)(F)F)cccc2c1NCc1cccnc1)c1ccc(-c2c3nc(c(-c4c(F)c(F)c(F)c(F)c4F)c4ccc([nH]4)c(-c4c(F)c(F)c(F)c(F)c4F)c4nc(c(-c5c(F)c(F)c(F)c(F)c5F)c5ccc2[nH]5)C=C4)C=C3)cc1
REMARK SMILES IDX 5 1 4 2 3 3 1 4 2 5 32 7 33 8 94 9 34 10 93 11 35 12 36 13
REMARK SMILES IDX 37 14 87 15 38 16 92 17 86 18 88 19 39 20 91 21 85 22 84 23
REMARK SMILES IDX 40 25 72 26 52 27 71 28 53 29 56 30 70 31 89 32 54 33 55 34
REMARK SMILES IDX 69 36 90 37 57 38 41 39 42 40 50 41 43 42 44 43 48 44 51 45
REMARK SMILES IDX 45 46 46 47 49 48 47 49 73 50 74 51 82 52 75 53 76 54 80 55
REMARK SMILES IDX 83 56 77 57 78 58 81 59 79 60 58 61 59 62 67 63 60 64 61 65
REMARK SMILES IDX 65 66 68 67 62 68 63 69 66 70 64 71 6 72 7 73 8 74 9 76
REMARK SMILES IDX 10 77 11 78 23 79 12 80 22 81 13 82 21 83 14 84 20 85 19 86
REMARK SMILES IDX 24 87 25 89 26 90 27 91 31 92 28 93 30 94 29 95 15 96 16 97
REMARK SMILES IDX 17 98 18 99
REMARK H PARENT 3 6 88 24 56 35 7 75 24 88
REMARK Flexibility Score: inf
ROOT
ATOM      1  C   UNL A   1      34.005  27.898  25.524  1.00  0.00     0.042 C 
ENDROOT
BRANCH   1   2
ATOM      2  C   UNL A   1      33.848  28.168  27.015  1.00  0.00     0.118 C 
BRANCH   2   3
ATOM      3  N   UNL A   1      33.705  29.583  27.330  1.00  0.00    -0.352 N 
ATOM      4  O   UNL A   1      34.145  31.577  28.264  1.00  0.00    -0.269 OA
ATOM      5  C   UNL A   1      34.552  30.455  27.964  1.00  0.00     0.251 C 
ATOM      6  H   UNL A   1      32.853  29.980  27.038  1.00  0.00     0.163 HD
BRANCH   5   7
ATOM      7  C   UNL A   1      35.935  30.067  28.315  1.00  0.00     0.039 A 
ATOM      8  C   UNL A   1      36.990  30.209  27.412  1.00  0.00     0.014 A 
ATOM      9  C   UNL A   1      36.189  29.604  29.611  1.00  0.00     0.014 A 
ATOM     10  C   UNL A   1      38.265  29.762  27.750  1.00  0.00     0.010 A 
ATOM     11  C   UNL A   1      37.485  29.233  29.979  1.00  0.00     0.010 A 
ATOM     12  C   UNL A   1      38.527  29.282  29.041  1.00  0.00    -0.014 A 
BRANCH  12  13
ATOM     13  C   UNL A   1      39.903  28.878  29.428  1.00  0.00     0.031 A 
ATOM     14  C   UNL A   1      40.771  29.796  30.239  1.00  0.00     0.074 A 
ATOM     15  C   UNL A   1      40.382  27.693  29.007  1.00  0.00     0.049 A 
ATOM     16  N   UNL A   1      42.025  29.656  30.589  1.00  0.00    -0.248 NA
ATOM     17  C   UNL A   1      40.151  31.043  30.710  1.00  0.00     0.031 C 
ATOM     18  C   UNL A   1      39.636  26.721  28.208  1.00  0.00     0.029 A 
ATOM     19  N   UNL A   1      41.614  27.113  29.175  1.00  0.00    -0.354 N 
ATOM     20  C   UNL A   1      42.352  30.805  31.296  1.00  0.00     0.074 A 
ATOM     21  C   UNL A   1      41.170  31.643  31.306  1.00  0.00     0.031 C 
ATOM     22  C   UNL A   1      40.422  25.665  27.955  1.00  0.00     0.029 A 
ATOM     23  C   UNL A   1      41.745  25.913  28.522  1.00  0.00     0.049 A 
ATOM     24  H   UNL A   1      42.333  27.516  29.713  1.00  0.00     0.167 HD
ATOM     25  C   UNL A   1      43.529  31.126  31.886  1.00  0.00     0.037 A 
ATOM     26  C   UNL A   1      42.818  25.118  28.358  1.00  0.00     0.037 A 
ATOM     27  C   UNL A   1      44.695  30.280  31.874  1.00  0.00     0.049 A 
ATOM     28  C   UNL A   1      44.124  25.508  28.987  1.00  0.00     0.074 A 
ATOM     29  C   UNL A   1      45.919  30.489  32.485  1.00  0.00     0.029 A 
ATOM     30  N   UNL A   1      44.788  29.069  31.202  1.00  0.00    -0.354 N 
ATOM     31  N   UNL A   1      44.411  26.574  29.694  1.00  0.00    -0.248 NA
ATOM     32  C   UNL A   1      45.254  24.590  28.797  1.00  0.00     0.031 C 
ATOM     33  C   UNL A   1      46.770  29.437  32.135  1.00  0.00     0.029 A 
ATOM     34  C   UNL A   1      46.058  28.536  31.358  1.00  0.00     0.049 A 
ATOM     35  H   UNL A   1      44.058  28.649  30.692  1.00  0.00     0.167 HD
ATOM     36  C   UNL A   1      45.745  26.444  30.056  1.00  0.00     0.074 A 
ATOM     37  C   UNL A   1      46.210  25.195  29.490  1.00  0.00     0.031 C 
ATOM     38  C   UNL A   1      46.507  27.286  30.795  1.00  0.00     0.037 A 
BRANCH  25  39
ATOM     39  C   UNL A   1      43.624  32.465  32.561  1.00  0.00     0.064 A 
ATOM     40  C   UNL A   1      44.042  33.616  31.874  1.00  0.00     0.173 A 
ATOM     41  C   UNL A   1      43.279  32.601  33.914  1.00  0.00     0.173 A 
ATOM     42  F   UNL A   1      44.392  33.541  30.582  1.00  0.00    -0.203 F 
ATOM     43  C   UNL A   1      44.151  34.841  32.529  1.00  0.00     0.198 A 
ATOM     44  C   UNL A   1      43.357  33.834  34.556  1.00  0.00     0.198 A 
ATOM     45  F   UNL A   1      42.863  31.536  34.617  1.00  0.00    -0.203 F 
ATOM     46  F   UNL A   1      44.612  35.913  31.868  1.00  0.00    -0.200 F 
ATOM     47  C   UNL A   1      43.805  34.950  33.867  1.00  0.00     0.200 A 
ATOM     48  F   UNL A   1      43.008  33.940  35.846  1.00  0.00    -0.200 F 
ATOM     49  F   UNL A   1      43.912  36.129  34.495  1.00  0.00    -0.200 F 
ENDBRANCH  25  39
BRANCH  26  50
ATOM     50  C   UNL A   1      42.681  23.883  27.545  1.00  0.00     0.064 A 
ATOM     51  C   UNL A   1      42.969  23.884  26.174  1.00  0.00     0.173 A 
ATOM     52  C   UNL A   1      42.325  22.663  28.138  1.00  0.00     0.173 A 
ATOM     53  F   UNL A   1      43.299  25.030  25.560  1.00  0.00    -0.203 F 
ATOM     54  C   UNL A   1      42.904  22.710  25.426  1.00  0.00     0.198 A 
ATOM     55  C   UNL A   1      42.287  21.485  27.396  1.00  0.00     0.198 A 
ATOM     56  F   UNL A   1      42.050  22.609  29.450  1.00  0.00    -0.203 F 
ATOM     57  F   UNL A   1      43.164  22.741  24.112  1.00  0.00    -0.200 F 
ATOM     58  C   UNL A   1      42.574  21.510  26.040  1.00  0.00     0.200 A 
ATOM     59  F   UNL A   1      41.989  20.325  27.997  1.00  0.00    -0.200 F 
ATOM     60  F   UNL A   1      42.535  20.379  25.324  1.00  0.00    -0.200 F 
ENDBRANCH  26  50
BRANCH  38  61
ATOM     61  C   UNL A   1      47.921  26.871  31.080  1.00  0.00     0.064 A 
ATOM     62  C   UNL A   1      48.240  26.022  32.149  1.00  0.00     0.173 A 
ATOM     63  C   UNL A   1      48.958  27.269  30.222  1.00  0.00     0.173 A 
ATOM     64  F   UNL A   1      47.288  25.629  33.008  1.00  0.00    -0.203 F 
ATOM     65  C   UNL A   1      49.550  25.591  32.351  1.00  0.00     0.198 A 
ATOM     66  C   UNL A   1      50.259  26.814  30.411  1.00  0.00     0.198 A 
ATOM     67  F   UNL A   1      48.701  28.078  29.183  1.00  0.00    -0.203 F 
ATOM     68  F   UNL A   1      49.839  24.801  33.395  1.00  0.00    -0.200 F 
ATOM     69  C   UNL A   1      50.555  25.977  31.476  1.00  0.00     0.200 A 
ATOM     70  F   UNL A   1      51.225  27.176  29.556  1.00  0.00    -0.200 F 
ATOM     71  F   UNL A   1      51.809  25.544  31.661  1.00  0.00    -0.200 F 
ENDBRANCH  38  61
ENDBRANCH  12  13
ENDBRANCH   5   7
ENDBRANCH   2   3
ENDBRANCH   1   2
BRANCH   1  72
ATOM     72  C   UNL A   1      33.684  26.474  25.092  1.00  0.00     0.118 C 
BRANCH  72  73
ATOM     73  N   UNL A   1      33.890  26.240  23.669  1.00  0.00    -0.352 N 
ATOM     74  C   UNL A   1      33.101  26.589  22.598  1.00  0.00     0.254 C 
ATOM     75  H   UNL A   1      34.717  25.759  23.439  1.00  0.00     0.163 HD
ATOM     76  O   UNL A   1      33.498  26.382  21.452  1.00  0.00    -0.269 OA
BRANCH  74  77
ATOM     77  C   UNL A   1      31.808  27.246  22.819  1.00  0.00     0.081 A 
ATOM     78  C   UNL A   1      31.823  28.610  22.569  1.00  0.00     0.127 A 
ATOM     79  C   UNL A   1      30.601  26.624  23.186  1.00  0.00     0.058 A 
ATOM     80  N   UNL A   1      30.771  29.426  22.739  1.00  0.00    -0.255 NA
ATOM     81  C   UNL A   1      29.436  27.484  23.265  1.00  0.00     0.025 A 
ATOM     82  C   UNL A   1      29.597  28.886  23.070  1.00  0.00     0.085 A 
ATOM     83  C   UNL A   1      28.117  27.024  23.525  1.00  0.00     0.012 A 
ATOM     84  C   UNL A   1      28.513  29.750  23.216  1.00  0.00     0.082 A 
ATOM     85  C   UNL A   1      27.028  27.890  23.615  1.00  0.00     0.001 A 
ATOM     86  C   UNL A   1      27.229  29.252  23.479  1.00  0.00     0.015 A 
BRANCH  79  87
ATOM     87  N   UNL A   1      30.456  25.284  23.544  1.00  0.00    -0.380 N 
ATOM     88  H   UNL A   1      30.127  24.697  22.826  1.00  0.00     0.160 HD
BRANCH  87  89
ATOM     89  C   UNL A   1      30.715  24.613  24.808  1.00  0.00     0.150 C 
BRANCH  89  90
ATOM     90  C   UNL A   1      31.372  23.277  24.565  1.00  0.00    -0.011 A 
ATOM     91  C   UNL A   1      31.935  22.953  23.326  1.00  0.00     0.009 A 
ATOM     92  C   UNL A   1      31.330  22.273  25.526  1.00  0.00     0.116 A 
ATOM     93  C   UNL A   1      32.428  21.672  23.100  1.00  0.00     0.020 A 
ATOM     94  N   UNL A   1      31.805  21.020  25.336  1.00  0.00    -0.264 NA
ATOM     95  C   UNL A   1      32.340  20.748  24.126  1.00  0.00     0.111 A 
ENDBRANCH  89  90
ENDBRANCH  87  89
ENDBRANCH  79  87
BRANCH  84  96
ATOM     96  C   UNL A   1      28.739  31.237  23.119  1.00  0.00     0.418 C 
ATOM     97  F   UNL A   1      29.351  31.610  21.958  1.00  0.00    -0.166 F 
ATOM     98  F   UNL A   1      27.606  31.985  23.224  1.00  0.00    -0.166 F 
ATOM     99  F   UNL A   1      29.561  31.706  24.109  1.00  0.00    -0.166 F 
ENDBRANCH  84  96
ENDBRANCH  74  77
ENDBRANCH  72  73
ENDBRANCH   1  72
TORSDOF 14
ENDMDL
