MODEL 1
REMARK VINA RESULT:     -13.3      0.000      0.000
REMARK SMILES O=C(NCCCNC(=O)c1cc(OC[C@@H]2Cc3cc(F)ccc3O2)cs1)c1ccc(-c2c3nc(c(-c4c(F)c(F)c(F)c(F)c4F)c4ccc([nH]4)c(-c4c(F)c(F)c(F)c(F)c4F)c4nc(c(-c5c(F)c(F)c(F)c(F)c5F)c5ccc2[nH]5)C=C4)C=C3)cc1
REMARK SMILES IDX 5 1 4 2 3 3 1 4 2 5 27 7 28 8 89 9 29 10 88 11 30 12 31 13
REMARK SMILES IDX 32 14 82 15 33 16 87 17 81 18 83 19 34 20 86 21 80 22 79 23
REMARK SMILES IDX 35 25 67 26 47 27 66 28 48 29 51 30 65 31 84 32 49 33 50 34
REMARK SMILES IDX 64 36 85 37 52 38 36 39 37 40 45 41 38 42 39 43 43 44 46 45
REMARK SMILES IDX 40 46 41 47 44 48 42 49 68 50 69 51 77 52 70 53 71 54 75 55
REMARK SMILES IDX 78 56 72 57 73 58 76 59 74 60 53 61 54 62 62 63 55 64 56 65
REMARK SMILES IDX 60 66 63 67 57 68 58 69 61 70 59 71 6 72 7 73 8 74 9 76
REMARK SMILES IDX 10 77 11 78 26 79 12 80 25 81 13 82 14 83 15 84 16 85 24 86
REMARK SMILES IDX 17 87 23 88 18 89 22 90 19 91 21 92 20 93
REMARK H PARENT 3 6 83 24 51 35 7 75
REMARK Flexibility Score: inf
ROOT
ATOM      1  C   UNL A   1      31.781  28.582  26.446  1.00  0.00     0.042 C 
ENDROOT
BRANCH   1   2
ATOM      2  C   UNL A   1      32.572  29.699  25.779  1.00  0.00     0.118 C 
BRANCH   2   3
ATOM      3  N   UNL A   1      32.441  30.993  26.433  1.00  0.00    -0.352 N 
ATOM      4  O   UNL A   1      32.804  32.832  27.631  1.00  0.00    -0.269 OA
ATOM      5  C   UNL A   1      33.251  31.756  27.234  1.00  0.00     0.251 C 
ATOM      6  H   UNL A   1      31.571  31.419  26.257  1.00  0.00     0.163 HD
BRANCH   5   7
ATOM      7  C   UNL A   1      34.613  31.366  27.679  1.00  0.00     0.039 A 
ATOM      8  C   UNL A   1      34.836  30.009  27.975  1.00  0.00     0.014 A 
ATOM      9  C   UNL A   1      35.623  32.282  27.953  1.00  0.00     0.014 A 
ATOM     10  C   UNL A   1      36.031  29.591  28.576  1.00  0.00     0.010 A 
ATOM     11  C   UNL A   1      36.853  31.856  28.452  1.00  0.00     0.010 A 
ATOM     12  C   UNL A   1      37.041  30.522  28.840  1.00  0.00    -0.014 A 
BRANCH  12  13
ATOM     13  C   UNL A   1      38.215  30.194  29.691  1.00  0.00     0.031 A 
ATOM     14  C   UNL A   1      39.259  29.252  29.145  1.00  0.00     0.074 A 
ATOM     15  C   UNL A   1      38.332  30.679  30.940  1.00  0.00     0.049 A 
ATOM     16  N   UNL A   1      40.268  28.679  29.752  1.00  0.00    -0.248 NA
ATOM     17  C   UNL A   1      39.118  28.864  27.731  1.00  0.00     0.031 C 
ATOM     18  C   UNL A   1      37.395  31.595  31.583  1.00  0.00     0.029 A 
ATOM     19  N   UNL A   1      39.293  30.453  31.894  1.00  0.00    -0.354 N 
ATOM     20  C   UNL A   1      40.842  27.834  28.810  1.00  0.00     0.074 A 
ATOM     21  C   UNL A   1      40.034  27.917  27.614  1.00  0.00     0.031 C 
ATOM     22  C   UNL A   1      37.837  31.872  32.821  1.00  0.00     0.029 A 
ATOM     23  C   UNL A   1      39.065  31.120  33.071  1.00  0.00     0.049 A 
ATOM     24  H   UNL A   1      40.071  29.868  31.747  1.00  0.00     0.167 HD
ATOM     25  C   UNL A   1      41.963  27.083  28.917  1.00  0.00     0.037 A 
ATOM     26  C   UNL A   1      39.766  31.115  34.222  1.00  0.00     0.037 A 
ATOM     27  C   UNL A   1      42.806  27.069  30.078  1.00  0.00     0.049 A 
ATOM     28  C   UNL A   1      41.008  30.269  34.327  1.00  0.00     0.074 A 
ATOM     29  C   UNL A   1      44.010  26.414  30.261  1.00  0.00     0.029 A 
ATOM     30  N   UNL A   1      42.538  27.758  31.252  1.00  0.00    -0.354 N 
ATOM     31  N   UNL A   1      41.561  29.498  33.422  1.00  0.00    -0.248 NA
ATOM     32  C   UNL A   1      41.718  30.286  35.614  1.00  0.00     0.031 C 
ATOM     33  C   UNL A   1      44.453  26.676  31.562  1.00  0.00     0.029 A 
ATOM     34  C   UNL A   1      43.543  27.525  32.174  1.00  0.00     0.049 A 
ATOM     35  H   UNL A   1      41.751  28.330  31.405  1.00  0.00     0.167 HD
ATOM     36  C   UNL A   1      42.686  28.948  34.022  1.00  0.00     0.074 A 
ATOM     37  C   UNL A   1      42.748  29.487  35.365  1.00  0.00     0.031 C 
ATOM     38  C   UNL A   1      43.582  28.071  33.508  1.00  0.00     0.037 A 
BRANCH  25  39
ATOM     39  C   UNL A   1      42.347  26.231  27.740  1.00  0.00     0.064 A 
ATOM     40  C   UNL A   1      41.766  24.973  27.517  1.00  0.00     0.173 A 
ATOM     41  C   UNL A   1      43.293  26.688  26.809  1.00  0.00     0.173 A 
ATOM     42  F   UNL A   1      40.864  24.484  28.381  1.00  0.00    -0.203 F 
ATOM     43  C   UNL A   1      42.149  24.187  26.433  1.00  0.00     0.198 A 
ATOM     44  C   UNL A   1      43.647  25.915  25.707  1.00  0.00     0.198 A 
ATOM     45  F   UNL A   1      43.875  27.887  26.968  1.00  0.00    -0.203 F 
ATOM     46  F   UNL A   1      41.625  22.964  26.279  1.00  0.00    -0.200 F 
ATOM     47  C   UNL A   1      43.083  24.661  25.525  1.00  0.00     0.200 A 
ATOM     48  F   UNL A   1      44.540  26.380  24.822  1.00  0.00    -0.200 F 
ATOM     49  F   UNL A   1      43.446  23.905  24.480  1.00  0.00    -0.200 F 
ENDBRANCH  25  39
BRANCH  26  50
ATOM     50  C   UNL A   1      39.320  31.975  35.348  1.00  0.00     0.064 A 
ATOM     51  C   UNL A   1      39.672  33.331  35.389  1.00  0.00     0.173 A 
ATOM     52  C   UNL A   1      38.494  31.483  36.370  1.00  0.00     0.173 A 
ATOM     53  F   UNL A   1      40.477  33.841  34.447  1.00  0.00    -0.203 F 
ATOM     54  C   UNL A   1      39.209  34.164  36.405  1.00  0.00     0.198 A 
ATOM     55  C   UNL A   1      38.014  32.323  37.372  1.00  0.00     0.198 A 
ATOM     56  F   UNL A   1      38.127  30.193  36.374  1.00  0.00    -0.203 F 
ATOM     57  F   UNL A   1      39.574  35.453  36.428  1.00  0.00    -0.200 F 
ATOM     58  C   UNL A   1      38.372  33.662  37.389  1.00  0.00     0.200 A 
ATOM     59  F   UNL A   1      37.193  31.838  38.314  1.00  0.00    -0.200 F 
ATOM     60  F   UNL A   1      37.909  34.470  38.354  1.00  0.00    -0.200 F 
ENDBRANCH  26  50
BRANCH  38  61
ATOM     61  C   UNL A   1      44.708  27.621  34.391  1.00  0.00     0.064 A 
ATOM     62  C   UNL A   1      45.885  28.375  34.501  1.00  0.00     0.173 A 
ATOM     63  C   UNL A   1      44.563  26.499  35.220  1.00  0.00     0.173 A 
ATOM     64  F   UNL A   1      46.074  29.449  33.720  1.00  0.00    -0.203 F 
ATOM     65  C   UNL A   1      46.876  28.021  35.412  1.00  0.00     0.198 A 
ATOM     66  C   UNL A   1      45.543  26.163  36.148  1.00  0.00     0.198 A 
ATOM     67  F   UNL A   1      43.449  25.753  35.159  1.00  0.00    -0.203 F 
ATOM     68  F   UNL A   1      48.000  28.746  35.491  1.00  0.00    -0.200 F 
ATOM     69  C   UNL A   1      46.699  26.925  36.244  1.00  0.00     0.200 A 
ATOM     70  F   UNL A   1      45.363  25.116  36.964  1.00  0.00    -0.200 F 
ATOM     71  F   UNL A   1      47.641  26.605  37.141  1.00  0.00    -0.200 F 
ENDBRANCH  38  61
ENDBRANCH  12  13
ENDBRANCH   5   7
ENDBRANCH   2   3
ENDBRANCH   1   2
BRANCH   1  72
ATOM     72  C   UNL A   1      31.376  27.448  25.509  1.00  0.00     0.118 C 
BRANCH  72  73
ATOM     73  N   UNL A   1      30.917  27.904  24.210  1.00  0.00    -0.351 N 
ATOM     74  C   UNL A   1      30.954  27.254  22.995  1.00  0.00     0.261 C 
ATOM     75  H   UNL A   1      30.522  28.805  24.194  1.00  0.00     0.163 HD
ATOM     76  O   UNL A   1      30.537  27.876  22.018  1.00  0.00    -0.268 OA
BRANCH  74  77
ATOM     77  C   UNL A   1      31.480  25.902  22.927  1.00  0.00     0.096 A 
ATOM     78  C   UNL A   1      30.854  24.692  23.167  1.00  0.00     0.072 A 
ATOM     79  S   UNL A   1      33.112  25.671  22.464  1.00  0.00    -0.135 S 
ATOM     80  C   UNL A   1      31.742  23.581  23.054  1.00  0.00     0.131 A 
ATOM     81  C   UNL A   1      33.010  23.981  22.702  1.00  0.00     0.112 A 
BRANCH  80  82
ATOM     82  O   UNL A   1      31.498  22.262  23.274  1.00  0.00    -0.489 OA
BRANCH  82  83
ATOM     83  C   UNL A   1      32.662  21.440  23.302  1.00  0.00     0.275 C 
BRANCH  83  84
ATOM     84  C   UNL A   1      32.984  20.891  24.706  1.00  0.00     0.215 C 
ATOM     85  C   UNL A   1      34.430  20.365  24.757  1.00  0.00     0.088 C 
ATOM     86  O   UNL A   1      32.083  19.827  25.116  1.00  0.00    -0.486 OA
ATOM     87  C   UNL A   1      34.162  18.908  24.739  1.00  0.00     0.001 A 
ATOM     88  C   UNL A   1      32.833  18.686  25.059  1.00  0.00     0.123 A 
ATOM     89  C   UNL A   1      35.029  17.851  24.545  1.00  0.00     0.047 A 
ATOM     90  C   UNL A   1      32.335  17.422  25.296  1.00  0.00     0.050 A 
ATOM     91  C   UNL A   1      34.531  16.565  24.738  1.00  0.00     0.123 A 
ATOM     92  C   UNL A   1      33.210  16.346  25.146  1.00  0.00     0.043 A 
ATOM     93  F   UNL A   1      35.338  15.518  24.530  1.00  0.00    -0.207 F 
ENDBRANCH  83  84
ENDBRANCH  82  83
ENDBRANCH  80  82
ENDBRANCH  74  77
ENDBRANCH  72  73
ENDBRANCH   1  72
TORSDOF 13
ENDMDL
MODEL 2
REMARK VINA RESULT:     -13.2      1.756      2.121
REMARK SMILES O=C(NCCCNC(=O)c1cc(OC[C@@H]2Cc3cc(F)ccc3O2)cs1)c1ccc(-c2c3nc(c(-c4c(F)c(F)c(F)c(F)c4F)c4ccc([nH]4)c(-c4c(F)c(F)c(F)c(F)c4F)c4nc(c(-c5c(F)c(F)c(F)c(F)c5F)c5ccc2[nH]5)C=C4)C=C3)cc1
REMARK SMILES IDX 5 1 4 2 3 3 1 4 2 5 27 7 28 8 89 9 29 10 88 11 30 12 31 13
REMARK SMILES IDX 32 14 82 15 33 16 87 17 81 18 83 19 34 20 86 21 80 22 79 23
REMARK SMILES IDX 35 25 67 26 47 27 66 28 48 29 51 30 65 31 84 32 49 33 50 34
REMARK SMILES IDX 64 36 85 37 52 38 36 39 37 40 45 41 38 42 39 43 43 44 46 45
REMARK SMILES IDX 40 46 41 47 44 48 42 49 68 50 69 51 77 52 70 53 71 54 75 55
REMARK SMILES IDX 78 56 72 57 73 58 76 59 74 60 53 61 54 62 62 63 55 64 56 65
REMARK SMILES IDX 60 66 63 67 57 68 58 69 61 70 59 71 6 72 7 73 8 74 9 76
REMARK SMILES IDX 10 77 11 78 26 79 12 80 25 81 13 82 14 83 15 84 16 85 24 86
REMARK SMILES IDX 17 87 23 88 18 89 22 90 19 91 21 92 20 93
REMARK H PARENT 3 6 83 24 51 35 7 75
REMARK Flexibility Score: inf
ROOT
ATOM      1  C   UNL A   1      32.288  29.607  25.354  1.00  0.00     0.042 C 
ENDROOT
BRANCH   1   2
ATOM      2  C   UNL A   1      32.152  30.017  26.813  1.00  0.00     0.118 C 
BRANCH   2   3
ATOM      3  N   UNL A   1      32.298  31.447  27.047  1.00  0.00    -0.352 N 
ATOM      4  O   UNL A   1      33.078  33.459  27.585  1.00  0.00    -0.269 OA
ATOM      5  C   UNL A   1      33.310  32.253  27.500  1.00  0.00     0.251 C 
ATOM      6  H   UNL A   1      31.480  31.950  26.828  1.00  0.00     0.163 HD
BRANCH   5   7
ATOM      7  C   UNL A   1      34.651  31.774  27.920  1.00  0.00     0.039 A 
ATOM      8  C   UNL A   1      34.783  30.412  28.245  1.00  0.00     0.014 A 
ATOM      9  C   UNL A   1      35.733  32.620  28.145  1.00  0.00     0.014 A 
ATOM     10  C   UNL A   1      35.959  29.921  28.826  1.00  0.00     0.010 A 
ATOM     11  C   UNL A   1      36.942  32.116  28.623  1.00  0.00     0.010 A 
ATOM     12  C   UNL A   1      37.042  30.781  29.041  1.00  0.00    -0.014 A 
BRANCH  12  13
ATOM     13  C   UNL A   1      38.211  30.388  29.870  1.00  0.00     0.031 A 
ATOM     14  C   UNL A   1      39.207  29.412  29.292  1.00  0.00     0.074 A 
ATOM     15  C   UNL A   1      38.365  30.844  31.125  1.00  0.00     0.049 A 
ATOM     16  N   UNL A   1      40.198  28.786  29.875  1.00  0.00    -0.248 NA
ATOM     17  C   UNL A   1      39.032  29.057  27.874  1.00  0.00     0.031 C 
ATOM     18  C   UNL A   1      37.476  31.787  31.797  1.00  0.00     0.029 A 
ATOM     19  N   UNL A   1      39.327  30.560  32.062  1.00  0.00    -0.354 N 
ATOM     20  C   UNL A   1      40.723  27.935  28.910  1.00  0.00     0.074 A 
ATOM     21  C   UNL A   1      39.905  28.074  27.727  1.00  0.00     0.031 C 
ATOM     22  C   UNL A   1      37.946  32.022  33.034  1.00  0.00     0.029 A 
ATOM     23  C   UNL A   1      39.143  31.213  33.254  1.00  0.00     0.049 A 
ATOM     24  H   UNL A   1      40.077  29.944  31.894  1.00  0.00     0.167 HD
ATOM     25  C   UNL A   1      41.813  27.135  28.988  1.00  0.00     0.037 A 
ATOM     26  C   UNL A   1      39.858  31.157  34.394  1.00  0.00     0.037 A 
ATOM     27  C   UNL A   1      42.669  27.063  30.138  1.00  0.00     0.049 A 
ATOM     28  C   UNL A   1      41.063  30.258  34.468  1.00  0.00     0.074 A 
ATOM     29  C   UNL A   1      43.846  26.355  30.293  1.00  0.00     0.029 A 
ATOM     30  N   UNL A   1      42.446  27.742  31.327  1.00  0.00    -0.354 N 
ATOM     31  N   UNL A   1      41.572  29.481  33.542  1.00  0.00    -0.248 NA
ATOM     32  C   UNL A   1      41.791  30.220  35.745  1.00  0.00     0.031 C 
ATOM     33  C   UNL A   1      44.317  26.574  31.592  1.00  0.00     0.029 A 
ATOM     34  C   UNL A   1      43.451  27.449  32.231  1.00  0.00     0.049 A 
ATOM     35  H   UNL A   1      41.686  28.343  31.502  1.00  0.00     0.167 HD
ATOM     36  C   UNL A   1      42.680  28.872  34.116  1.00  0.00     0.074 A 
ATOM     37  C   UNL A   1      42.781  29.383  35.468  1.00  0.00     0.031 C 
ATOM     38  C   UNL A   1      43.531  27.968  33.575  1.00  0.00     0.037 A 
BRANCH  25  39
ATOM     39  C   UNL A   1      42.145  26.290  27.791  1.00  0.00     0.064 A 
ATOM     40  C   UNL A   1      41.494  25.072  27.543  1.00  0.00     0.173 A 
ATOM     41  C   UNL A   1      43.112  26.714  26.867  1.00  0.00     0.173 A 
ATOM     42  F   UNL A   1      40.568  24.614  28.400  1.00  0.00    -0.203 F 
ATOM     43  C   UNL A   1      41.828  24.290  26.440  1.00  0.00     0.198 A 
ATOM     44  C   UNL A   1      43.419  25.947  25.746  1.00  0.00     0.198 A 
ATOM     45  F   UNL A   1      43.760  27.874  27.050  1.00  0.00    -0.203 F 
ATOM     46  F   UNL A   1      41.237  23.101  26.261  1.00  0.00    -0.200 F 
ATOM     47  C   UNL A   1      42.785  24.731  25.539  1.00  0.00     0.200 A 
ATOM     48  F   UNL A   1      44.334  26.381  24.868  1.00  0.00    -0.200 F 
ATOM     49  F   UNL A   1      43.103  23.979  24.476  1.00  0.00    -0.200 F 
ENDBRANCH  25  39
BRANCH  26  50
ATOM     50  C   UNL A   1      39.464  32.014  35.542  1.00  0.00     0.064 A 
ATOM     51  C   UNL A   1      39.952  33.323  35.652  1.00  0.00     0.173 A 
ATOM     52  C   UNL A   1      38.554  31.572  36.515  1.00  0.00     0.173 A 
ATOM     53  F   UNL A   1      40.840  33.782  34.759  1.00  0.00    -0.203 F 
ATOM     54  C   UNL A   1      39.543  34.160  36.689  1.00  0.00     0.198 A 
ATOM     55  C   UNL A   1      38.128  32.418  37.537  1.00  0.00     0.198 A 
ATOM     56  F   UNL A   1      38.056  30.329  36.452  1.00  0.00    -0.203 F 
ATOM     57  F   UNL A   1      40.038  35.401  36.779  1.00  0.00    -0.200 F 
ATOM     58  C   UNL A   1      38.623  33.711  37.623  1.00  0.00     0.200 A 
ATOM     59  F   UNL A   1      37.228  31.986  38.431  1.00  0.00    -0.200 F 
ATOM     60  F   UNL A   1      38.212  34.524  38.606  1.00  0.00    -0.200 F 
ENDBRANCH  26  50
BRANCH  38  61
ATOM     61  C   UNL A   1      44.647  27.454  34.434  1.00  0.00     0.064 A 
ATOM     62  C   UNL A   1      45.850  28.165  34.558  1.00  0.00     0.173 A 
ATOM     63  C   UNL A   1      44.472  26.311  35.228  1.00  0.00     0.173 A 
ATOM     64  F   UNL A   1      46.067  29.258  33.810  1.00  0.00    -0.203 F 
ATOM     65  C   UNL A   1      46.834  27.752  35.450  1.00  0.00     0.198 A 
ATOM     66  C   UNL A   1      45.447  25.915  36.138  1.00  0.00     0.198 A 
ATOM     67  F   UNL A   1      43.334  25.604  35.152  1.00  0.00    -0.203 F 
ATOM     68  F   UNL A   1      47.981  28.437  35.543  1.00  0.00    -0.200 F 
ATOM     69  C   UNL A   1      46.628  26.636  36.248  1.00  0.00     0.200 A 
ATOM     70  F   UNL A   1      45.239  24.848  36.921  1.00  0.00    -0.200 F 
ATOM     71  F   UNL A   1      47.565  26.257  37.127  1.00  0.00    -0.200 F 
ENDBRANCH  38  61
ENDBRANCH  12  13
ENDBRANCH   5   7
ENDBRANCH   2   3
ENDBRANCH   1   2
BRANCH   1  72
ATOM     72  C   UNL A   1      33.507  28.741  25.051  1.00  0.00     0.118 C 
BRANCH  72  73
ATOM     73  N   UNL A   1      33.969  28.846  23.679  1.00  0.00    -0.351 N 
ATOM     74  C   UNL A   1      33.828  27.950  22.641  1.00  0.00     0.261 C 
ATOM     75  H   UNL A   1      34.451  29.676  23.458  1.00  0.00     0.163 HD
ATOM     76  O   UNL A   1      34.352  28.254  21.570  1.00  0.00    -0.268 OA
BRANCH  74  77
ATOM     77  C   UNL A   1      33.094  26.717  22.860  1.00  0.00     0.096 A 
ATOM     78  C   UNL A   1      33.550  25.467  23.236  1.00  0.00     0.072 A 
ATOM     79  S   UNL A   1      31.392  26.722  22.670  1.00  0.00    -0.135 S 
ATOM     80  C   UNL A   1      32.509  24.492  23.283  1.00  0.00     0.131 A 
ATOM     81  C   UNL A   1      31.288  25.041  22.969  1.00  0.00     0.112 A 
BRANCH  80  82
ATOM     82  O   UNL A   1      32.590  23.162  23.552  1.00  0.00    -0.489 OA
BRANCH  82  83
ATOM     83  C   UNL A   1      31.987  22.768  24.782  1.00  0.00     0.275 C 
BRANCH  83  84
ATOM     84  C   UNL A   1      32.950  22.004  25.713  1.00  0.00     0.215 C 
ATOM     85  C   UNL A   1      33.689  22.985  26.642  1.00  0.00     0.088 C 
ATOM     86  O   UNL A   1      33.931  21.217  24.985  1.00  0.00    -0.486 OA
ATOM     87  C   UNL A   1      35.022  22.977  25.996  1.00  0.00     0.001 A 
ATOM     88  C   UNL A   1      35.113  21.880  25.155  1.00  0.00     0.123 A 
ATOM     89  C   UNL A   1      36.105  23.811  26.191  1.00  0.00     0.047 A 
ATOM     90  C   UNL A   1      36.300  21.511  24.556  1.00  0.00     0.050 A 
ATOM     91  C   UNL A   1      37.299  23.476  25.558  1.00  0.00     0.123 A 
ATOM     92  C   UNL A   1      37.414  22.319  24.778  1.00  0.00     0.043 A 
ATOM     93  F   UNL A   1      38.359  24.279  25.705  1.00  0.00    -0.207 F 
ENDBRANCH  83  84
ENDBRANCH  82  83
ENDBRANCH  80  82
ENDBRANCH  74  77
ENDBRANCH  72  73
ENDBRANCH   1  72
TORSDOF 13
ENDMDL
MODEL 3
REMARK VINA RESULT:     -13.2      0.243      1.965
REMARK SMILES O=C(NCCCNC(=O)c1cc(OC[C@@H]2Cc3cc(F)ccc3O2)cs1)c1ccc(-c2c3nc(c(-c4c(F)c(F)c(F)c(F)c4F)c4ccc([nH]4)c(-c4c(F)c(F)c(F)c(F)c4F)c4nc(c(-c5c(F)c(F)c(F)c(F)c5F)c5ccc2[nH]5)C=C4)C=C3)cc1
REMARK SMILES IDX 5 1 4 2 3 3 1 4 2 5 27 7 28 8 89 9 29 10 88 11 30 12 31 13
REMARK SMILES IDX 32 14 82 15 33 16 87 17 81 18 83 19 34 20 86 21 80 22 79 23
REMARK SMILES IDX 35 25 67 26 47 27 66 28 48 29 51 30 65 31 84 32 49 33 50 34
REMARK SMILES IDX 64 36 85 37 52 38 36 39 37 40 45 41 38 42 39 43 43 44 46 45
REMARK SMILES IDX 40 46 41 47 44 48 42 49 68 50 69 51 77 52 70 53 71 54 75 55
REMARK SMILES IDX 78 56 72 57 73 58 76 59 74 60 53 61 54 62 62 63 55 64 56 65
REMARK SMILES IDX 60 66 63 67 57 68 58 69 61 70 59 71 6 72 7 73 8 74 9 76
REMARK SMILES IDX 10 77 11 78 26 79 12 80 25 81 13 82 14 83 15 84 16 85 24 86
REMARK SMILES IDX 17 87 23 88 18 89 22 90 19 91 21 92 20 93
REMARK H PARENT 3 6 83 24 51 35 7 75
REMARK Flexibility Score: inf
ROOT
ATOM      1  C   UNL A   1      32.233  28.244  26.219  1.00  0.00     0.042 C 
ENDROOT
BRANCH   1   2
ATOM      2  C   UNL A   1      32.672  29.500  25.480  1.00  0.00     0.118 C 
BRANCH   2   3
ATOM      3  N   UNL A   1      32.437  30.736  26.214  1.00  0.00    -0.352 N 
ATOM      4  O   UNL A   1      32.641  32.507  27.544  1.00  0.00    -0.269 OA
ATOM      5  C   UNL A   1      33.170  31.492  27.092  1.00  0.00     0.251 C 
ATOM      6  H   UNL A   1      31.546  31.116  26.037  1.00  0.00     0.163 HD
BRANCH   5   7
ATOM      7  C   UNL A   1      34.539  31.158  27.558  1.00  0.00     0.039 A 
ATOM      8  C   UNL A   1      34.807  29.817  27.885  1.00  0.00     0.014 A 
ATOM      9  C   UNL A   1      35.514  32.115  27.823  1.00  0.00     0.014 A 
ATOM     10  C   UNL A   1      36.010  29.453  28.505  1.00  0.00     0.010 A 
ATOM     11  C   UNL A   1      36.754  31.743  28.342  1.00  0.00     0.010 A 
ATOM     12  C   UNL A   1      36.984  30.424  28.759  1.00  0.00    -0.014 A 
BRANCH  12  13
ATOM     13  C   UNL A   1      38.160  30.155  29.628  1.00  0.00     0.031 A 
ATOM     14  C   UNL A   1      39.252  29.256  29.103  1.00  0.00     0.074 A 
ATOM     15  C   UNL A   1      38.239  30.654  30.874  1.00  0.00     0.049 A 
ATOM     16  N   UNL A   1      40.277  28.734  29.727  1.00  0.00    -0.248 NA
ATOM     17  C   UNL A   1      39.147  28.852  27.690  1.00  0.00     0.031 C 
ATOM     18  C   UNL A   1      37.253  31.532  31.498  1.00  0.00     0.029 A 
ATOM     19  N   UNL A   1      39.196  30.478  31.842  1.00  0.00    -0.354 N 
ATOM     20  C   UNL A   1      40.900  27.908  28.799  1.00  0.00     0.074 A 
ATOM     21  C   UNL A   1      40.106  27.946  27.593  1.00  0.00     0.031 C 
ATOM     22  C   UNL A   1      37.667  31.838  32.740  1.00  0.00     0.029 A 
ATOM     23  C   UNL A   1      38.923  31.142  33.011  1.00  0.00     0.049 A 
ATOM     24  H   UNL A   1      40.001  29.927  31.710  1.00  0.00     0.167 HD
ATOM     25  C   UNL A   1      42.053  27.208  28.926  1.00  0.00     0.037 A 
ATOM     26  C   UNL A   1      39.609  31.177  34.171  1.00  0.00     0.037 A 
ATOM     27  C   UNL A   1      42.880  27.240  30.099  1.00  0.00     0.049 A 
ATOM     28  C   UNL A   1      40.885  30.389  34.298  1.00  0.00     0.074 A 
ATOM     29  C   UNL A   1      44.110  26.641  30.302  1.00  0.00     0.029 A 
ATOM     30  N   UNL A   1      42.566  27.926  31.263  1.00  0.00    -0.354 N 
ATOM     31  N   UNL A   1      41.484  29.637  33.407  1.00  0.00    -0.248 NA
ATOM     32  C   UNL A   1      41.577  30.446  35.594  1.00  0.00     0.031 C 
ATOM     33  C   UNL A   1      44.523  26.933  31.607  1.00  0.00     0.029 A 
ATOM     34  C   UNL A   1      43.568  27.745  32.200  1.00  0.00     0.049 A 
ATOM     35  H   UNL A   1      41.753  28.463  31.402  1.00  0.00     0.167 HD
ATOM     36  C   UNL A   1      42.625  29.141  34.025  1.00  0.00     0.074 A 
ATOM     37  C   UNL A   1      42.644  29.693  35.365  1.00  0.00     0.031 C 
ATOM     38  C   UNL A   1      43.566  28.301  33.531  1.00  0.00     0.037 A 
BRANCH  25  39
ATOM     39  C   UNL A   1      42.490  26.366  27.761  1.00  0.00     0.064 A 
ATOM     40  C   UNL A   1      43.431  26.828  26.828  1.00  0.00     0.173 A 
ATOM     41  C   UNL A   1      41.977  25.072  27.585  1.00  0.00     0.173 A 
ATOM     42  F   UNL A   1      43.946  28.062  26.943  1.00  0.00    -0.203 F 
ATOM     43  C   UNL A   1      43.810  26.044  25.742  1.00  0.00     0.198 A 
ATOM     44  C   UNL A   1      42.384  24.277  26.518  1.00  0.00     0.198 A 
ATOM     45  F   UNL A   1      41.080  24.577  28.452  1.00  0.00    -0.203 F 
ATOM     46  F   UNL A   1      44.662  26.533  24.831  1.00  0.00    -0.200 F 
ATOM     47  C   UNL A   1      43.292  24.767  25.592  1.00  0.00     0.200 A 
ATOM     48  F   UNL A   1      41.894  23.037  26.381  1.00  0.00    -0.200 F 
ATOM     49  F   UNL A   1      43.662  24.012  24.547  1.00  0.00    -0.200 F 
ENDBRANCH  25  39
BRANCH  26  50
ATOM     50  C   UNL A   1      39.110  32.025  35.284  1.00  0.00     0.064 A 
ATOM     51  C   UNL A   1      38.351  31.463  36.320  1.00  0.00     0.173 A 
ATOM     52  C   UNL A   1      39.424  33.390  35.370  1.00  0.00     0.173 A 
ATOM     53  F   UNL A   1      38.008  30.168  36.270  1.00  0.00    -0.203 F 
ATOM     54  C   UNL A   1      37.930  32.232  37.403  1.00  0.00     0.198 A 
ATOM     55  C   UNL A   1      39.021  34.152  36.465  1.00  0.00     0.198 A 
ATOM     56  F   UNL A   1      40.150  33.974  34.406  1.00  0.00    -0.203 F 
ATOM     57  F   UNL A   1      37.192  31.673  38.371  1.00  0.00    -0.200 F 
ATOM     58  C   UNL A   1      38.275  33.573  37.480  1.00  0.00     0.200 A 
ATOM     59  F   UNL A   1      39.368  35.444  36.544  1.00  0.00    -0.200 F 
ATOM     60  F   UNL A   1      37.888  34.306  38.533  1.00  0.00    -0.200 F 
ENDBRANCH  26  50
BRANCH  38  61
ATOM     61  C   UNL A   1      44.698  27.909  34.431  1.00  0.00     0.064 A 
ATOM     62  C   UNL A   1      44.638  26.735  35.197  1.00  0.00     0.173 A 
ATOM     63  C   UNL A   1      45.895  28.641  34.437  1.00  0.00     0.173 A 
ATOM     64  F   UNL A   1      43.511  26.009  35.231  1.00  0.00    -0.203 F 
ATOM     65  C   UNL A   1      45.738  26.309  35.936  1.00  0.00     0.198 A 
ATOM     66  C   UNL A   1      47.001  28.198  35.156  1.00  0.00     0.198 A 
ATOM     67  F   UNL A   1      46.004  29.764  33.711  1.00  0.00    -0.203 F 
ATOM     68  F   UNL A   1      45.655  25.194  36.673  1.00  0.00    -0.200 F 
ATOM     69  C   UNL A   1      46.921  27.032  35.905  1.00  0.00     0.200 A 
ATOM     70  F   UNL A   1      48.149  28.886  35.111  1.00  0.00    -0.200 F 
ATOM     71  F   UNL A   1      47.988  26.603  36.593  1.00  0.00    -0.200 F 
ENDBRANCH  38  61
ENDBRANCH  12  13
ENDBRANCH   5   7
ENDBRANCH   2   3
ENDBRANCH   1   2
BRANCH   1  72
ATOM     72  C   UNL A   1      31.057  27.513  25.579  1.00  0.00     0.118 C 
BRANCH  72  73
ATOM     73  N   UNL A   1      30.709  28.013  24.261  1.00  0.00    -0.351 N 
ATOM     74  C   UNL A   1      30.869  27.411  23.031  1.00  0.00     0.261 C 
ATOM     75  H   UNL A   1      30.301  28.908  24.243  1.00  0.00     0.163 HD
ATOM     76  O   UNL A   1      30.532  28.065  22.045  1.00  0.00    -0.268 OA
BRANCH  74  77
ATOM     77  C   UNL A   1      31.424  26.071  22.961  1.00  0.00     0.096 A 
ATOM     78  C   UNL A   1      30.816  24.846  23.171  1.00  0.00     0.072 A 
ATOM     79  S   UNL A   1      33.071  25.878  22.536  1.00  0.00    -0.135 S 
ATOM     80  C   UNL A   1      31.728  23.754  23.068  1.00  0.00     0.131 A 
ATOM     81  C   UNL A   1      32.997  24.183  22.752  1.00  0.00     0.112 A 
BRANCH  80  82
ATOM     82  O   UNL A   1      31.506  22.428  23.267  1.00  0.00    -0.489 OA
BRANCH  82  83
ATOM     83  C   UNL A   1      32.684  21.627  23.300  1.00  0.00     0.275 C 
BRANCH  83  84
ATOM     84  C   UNL A   1      32.986  21.050  24.697  1.00  0.00     0.215 C 
ATOM     85  C   UNL A   1      34.423  20.498  24.750  1.00  0.00     0.088 C 
ATOM     86  O   UNL A   1      32.064  19.995  25.084  1.00  0.00    -0.486 OA
ATOM     87  C   UNL A   1      34.130  19.047  24.706  1.00  0.00     0.001 A 
ATOM     88  C   UNL A   1      32.795  18.843  25.014  1.00  0.00     0.123 A 
ATOM     89  C   UNL A   1      34.980  17.977  24.501  1.00  0.00     0.047 A 
ATOM     90  C   UNL A   1      32.274  17.584  25.228  1.00  0.00     0.050 A 
ATOM     91  C   UNL A   1      34.458  16.698  24.671  1.00  0.00     0.123 A 
ATOM     92  C   UNL A   1      33.130  16.496  25.067  1.00  0.00     0.043 A 
ATOM     93  F   UNL A   1      35.248  15.641  24.452  1.00  0.00    -0.207 F 
ENDBRANCH  83  84
ENDBRANCH  82  83
ENDBRANCH  80  82
ENDBRANCH  74  77
ENDBRANCH  72  73
ENDBRANCH   1  72
TORSDOF 13
ENDMDL
