MODEL 1
REMARK VINA RESULT:     -11.9      0.000      0.000
REMARK SMILES CC[C@@](C)([NH2+]CC(=O)N[C@@H](C)c1ccc(F)cc1)C(=O)NCCCNC(=O)c1ccc(-c2c3nc(c(-c4c(F)c(F)c(F)c(F)c4F)c4ccc([nH]4)c(-c4c(F)c(F)c(F)c(F)c4F)c4nc(c(-c5c(F)c(F)c(F)c(F)c5F)c5ccc2[nH]5)C=C4)C=C3)cc1
REMARK SMILES IDX 19 1 20 2 21 3 3 5 4 6 2 7 1 8 5 9 6 12 7 13 8 14 9 15 10 17
REMARK SMILES IDX 11 18 12 19 13 20 18 21 14 22 17 23 15 24 16 25 22 26 23 27
REMARK SMILES IDX 24 28 25 29 26 30 27 32 28 33 29 34 90 35 30 36 89 37 31 38
REMARK SMILES IDX 32 39 33 40 83 41 34 42 88 43 82 44 84 45 35 46 87 47 81 48
REMARK SMILES IDX 80 49 36 51 68 52 48 53 67 54 49 55 52 56 66 57 85 58 50 59
REMARK SMILES IDX 51 60 65 62 86 63 53 64 37 65 38 66 46 67 39 68 40 69 44 70
REMARK SMILES IDX 47 71 41 72 42 73 45 74 43 75 69 76 70 77 78 78 71 79 72 80
REMARK SMILES IDX 76 81 79 82 73 83 74 84 77 85 75 86 54 87 55 88 63 89 56 90
REMARK SMILES IDX 57 91 61 92 64 93 58 94 59 95 62 96 60 97
REMARK H PARENT 21 4 5 10 5 11 9 16 25 31 84 50 52 61
REMARK Flexibility Score: inf
ROOT
ATOM      1  C   UNL A   1      34.702  21.094  24.970  1.00  0.00     0.281 C 
ATOM      2  O   UNL A   1      34.164  20.028  24.654  1.00  0.00    -0.268 OA
ATOM      3  N   UNL A   1      35.949  21.004  25.567  1.00  0.00    -0.351 N 
ATOM      4  H   UNL A   1      36.009  20.928  26.547  1.00  0.00     0.163 HD
ENDROOT
BRANCH   1   5
ATOM      5  C   UNL A   1      33.931  22.492  24.860  1.00  0.00     0.172 C 
ATOM      6  C   UNL A   1      34.272  23.658  25.809  1.00  0.00     0.090 C 
BRANCH   5   7
ATOM      7  C   UNL A   1      34.374  23.030  23.444  1.00  0.00     0.075 C 
ATOM      8  C   UNL A   1      34.022  24.517  23.199  1.00  0.00     0.011 C 
ENDBRANCH   5   7
BRANCH   5   9
ATOM      9  N   UNL A   1      32.472  22.338  24.923  1.00  0.00    -0.326 N 
ATOM     10  H   UNL A   1      32.260  21.448  24.470  1.00  0.00     0.347 HD
ATOM     11  H   UNL A   1      32.149  23.205  24.495  1.00  0.00     0.347 HD
BRANCH   9  12
ATOM     12  C   UNL A   1      31.736  22.334  26.203  1.00  0.00     0.362 C 
BRANCH  12  13
ATOM     13  C   UNL A   1      30.770  23.435  26.727  1.00  0.00     0.275 C 
ATOM     14  O   UNL A   1      29.902  23.077  27.545  1.00  0.00    -0.268 OA
ATOM     15  N   UNL A   1      30.831  24.794  26.583  1.00  0.00    -0.345 N 
ATOM     16  H   UNL A   1      30.471  25.262  27.370  1.00  0.00     0.164 HD
BRANCH  15  17
ATOM     17  C   UNL A   1      31.297  25.736  25.554  1.00  0.00     0.109 C 
ATOM     18  C   UNL A   1      30.148  26.102  24.603  1.00  0.00     0.036 C 
BRANCH  17  19
ATOM     19  C   UNL A   1      31.969  27.011  26.039  1.00  0.00    -0.026 A 
ATOM     20  C   UNL A   1      33.214  27.373  25.468  1.00  0.00     0.009 A 
ATOM     21  C   UNL A   1      31.420  27.844  27.021  1.00  0.00     0.009 A 
ATOM     22  C   UNL A   1      33.872  28.540  25.848  1.00  0.00     0.039 A 
ATOM     23  C   UNL A   1      32.089  29.012  27.408  1.00  0.00     0.039 A 
ATOM     24  C   UNL A   1      33.299  29.354  26.813  1.00  0.00     0.123 A 
ATOM     25  F   UNL A   1      33.925  30.479  27.181  1.00  0.00    -0.207 F 
ENDBRANCH  17  19
ENDBRANCH  15  17
ENDBRANCH  12  13
ENDBRANCH   9  12
ENDBRANCH   5   9
ENDBRANCH   1   5
BRANCH   3  26
ATOM     26  C   UNL A   1      37.178  21.021  24.772  1.00  0.00     0.118 C 
BRANCH  26  27
ATOM     27  C   UNL A   1      38.100  19.834  25.022  1.00  0.00     0.042 C 
BRANCH  27  28
ATOM     28  C   UNL A   1      39.302  20.189  25.880  1.00  0.00     0.118 C 
BRANCH  28  29
ATOM     29  N   UNL A   1      40.316  19.136  25.920  1.00  0.00    -0.352 N 
ATOM     30  C   UNL A   1      41.675  19.218  26.118  1.00  0.00     0.251 C 
ATOM     31  H   UNL A   1      39.970  18.224  25.782  1.00  0.00     0.163 HD
ATOM     32  O   UNL A   1      42.377  18.216  25.981  1.00  0.00    -0.269 OA
BRANCH  30  33
ATOM     33  C   UNL A   1      42.304  20.516  26.450  1.00  0.00     0.039 A 
ATOM     34  C   UNL A   1      42.795  21.327  25.420  1.00  0.00     0.014 A 
ATOM     35  C   UNL A   1      42.371  20.958  27.771  1.00  0.00     0.014 A 
ATOM     36  C   UNL A   1      43.239  22.621  25.709  1.00  0.00     0.010 A 
ATOM     37  C   UNL A   1      42.698  22.280  28.040  1.00  0.00     0.010 A 
ATOM     38  C   UNL A   1      43.131  23.131  27.013  1.00  0.00    -0.014 A 
BRANCH  38  39
ATOM     39  C   UNL A   1      43.455  24.545  27.340  1.00  0.00     0.031 A 
ATOM     40  C   UNL A   1      44.891  24.989  27.396  1.00  0.00     0.074 A 
ATOM     41  C   UNL A   1      42.469  25.397  27.686  1.00  0.00     0.049 A 
ATOM     42  N   UNL A   1      45.390  26.129  27.803  1.00  0.00    -0.248 NA
ATOM     43  C   UNL A   1      45.906  24.008  26.977  1.00  0.00     0.031 C 
ATOM     44  C   UNL A   1      41.042  25.072  27.724  1.00  0.00     0.029 A 
ATOM     45  N   UNL A   1      42.518  26.711  28.085  1.00  0.00    -0.354 N 
ATOM     46  C   UNL A   1      46.768  25.989  27.714  1.00  0.00     0.074 A 
ATOM     47  C   UNL A   1      47.033  24.637  27.273  1.00  0.00     0.031 C 
ATOM     48  C   UNL A   1      40.350  26.162  28.090  1.00  0.00     0.029 A 
ATOM     49  C   UNL A   1      41.284  27.251  28.362  1.00  0.00     0.049 A 
ATOM     50  H   UNL A   1      43.358  27.217  28.166  1.00  0.00     0.167 HD
ATOM     51  C   UNL A   1      47.727  26.915  27.948  1.00  0.00     0.037 A 
ATOM     52  C   UNL A   1      40.944  28.481  28.793  1.00  0.00     0.037 A 
ATOM     53  C   UNL A   1      47.456  28.272  28.336  1.00  0.00     0.049 A 
ATOM     54  C   UNL A   1      42.027  29.495  29.040  1.00  0.00     0.074 A 
ATOM     55  C   UNL A   1      48.354  29.307  28.528  1.00  0.00     0.029 A 
ATOM     56  N   UNL A   1      46.190  28.786  28.582  1.00  0.00    -0.354 N 
ATOM     57  N   UNL A   1      43.325  29.366  28.902  1.00  0.00    -0.248 NA
ATOM     58  C   UNL A   1      41.604  30.825  29.502  1.00  0.00     0.031 C 
ATOM     59  C   UNL A   1      47.637  30.436  28.931  1.00  0.00     0.029 A 
ATOM     60  C   UNL A   1      46.287  30.119  28.941  1.00  0.00     0.049 A 
ATOM     61  H   UNL A   1      45.351  28.277  28.510  1.00  0.00     0.167 HD
ATOM     62  C   UNL A   1      43.870  30.598  29.237  1.00  0.00     0.074 A 
ATOM     63  C   UNL A   1      42.763  31.467  29.576  1.00  0.00     0.031 C 
ATOM     64  C   UNL A   1      45.171  30.972  29.262  1.00  0.00     0.037 A 
BRANCH  51  65
ATOM     65  C   UNL A   1      49.158  26.504  27.766  1.00  0.00     0.064 A 
ATOM     66  C   UNL A   1      49.978  26.262  28.879  1.00  0.00     0.173 A 
ATOM     67  C   UNL A   1      49.738  26.413  26.492  1.00  0.00     0.173 A 
ATOM     68  F   UNL A   1      49.476  26.342  30.120  1.00  0.00    -0.203 F 
ATOM     69  C   UNL A   1      51.328  25.957  28.722  1.00  0.00     0.198 A 
ATOM     70  C   UNL A   1      51.080  26.077  26.338  1.00  0.00     0.198 A 
ATOM     71  F   UNL A   1      48.995  26.623  25.396  1.00  0.00    -0.203 F 
ATOM     72  F   UNL A   1      52.099  25.761  29.800  1.00  0.00    -0.200 F 
ATOM     73  C   UNL A   1      51.876  25.859  27.452  1.00  0.00     0.200 A 
ATOM     74  F   UNL A   1      51.601  25.956  25.109  1.00  0.00    -0.200 F 
ATOM     75  F   UNL A   1      53.171  25.551  27.302  1.00  0.00    -0.200 F 
ENDBRANCH  51  65
BRANCH  52  76
ATOM     76  C   UNL A   1      39.511  28.826  28.978  1.00  0.00     0.064 A 
ATOM     77  C   UNL A   1      38.732  29.324  27.922  1.00  0.00     0.173 A 
ATOM     78  C   UNL A   1      38.901  28.698  30.233  1.00  0.00     0.173 A 
ATOM     79  F   UNL A   1      39.270  29.470  26.702  1.00  0.00    -0.203 F 
ATOM     80  C   UNL A   1      37.404  29.698  28.122  1.00  0.00     0.198 A 
ATOM     81  C   UNL A   1      37.566  29.048  30.425  1.00  0.00     0.198 A 
ATOM     82  F   UNL A   1      39.598  28.208  31.268  1.00  0.00    -0.203 F 
ATOM     83  F   UNL A   1      36.692  30.203  27.105  1.00  0.00    -0.200 F 
ATOM     84  C   UNL A   1      36.822  29.557  29.372  1.00  0.00     0.200 A 
ATOM     85  F   UNL A   1      37.000  28.888  31.629  1.00  0.00    -0.200 F 
ATOM     86  F   UNL A   1      35.542  29.908  29.561  1.00  0.00    -0.200 F 
ENDBRANCH  52  76
BRANCH  64  87
ATOM     87  C   UNL A   1      45.486  32.388  29.641  1.00  0.00     0.064 A 
ATOM     88  C   UNL A   1      45.596  33.378  28.653  1.00  0.00     0.173 A 
ATOM     89  C   UNL A   1      45.789  32.739  30.964  1.00  0.00     0.173 A 
ATOM     90  F   UNL A   1      45.327  33.088  27.371  1.00  0.00    -0.203 F 
ATOM     91  C   UNL A   1      46.022  34.664  28.973  1.00  0.00     0.198 A 
ATOM     92  C   UNL A   1      46.188  34.033  31.284  1.00  0.00     0.198 A 
ATOM     93  F   UNL A   1      45.686  31.829  31.945  1.00  0.00    -0.203 F 
ATOM     94  F   UNL A   1      46.164  35.581  28.007  1.00  0.00    -0.200 F 
ATOM     95  C   UNL A   1      46.318  34.990  30.288  1.00  0.00     0.200 A 
ATOM     96  F   UNL A   1      46.454  34.354  32.558  1.00  0.00    -0.200 F 
ATOM     97  F   UNL A   1      46.730  36.228  30.595  1.00  0.00    -0.200 F 
ENDBRANCH  64  87
ENDBRANCH  38  39
ENDBRANCH  30  33
ENDBRANCH  28  29
ENDBRANCH  27  28
ENDBRANCH  26  27
ENDBRANCH   3  26
TORSDOF 16
ENDMDL
MODEL 2
REMARK VINA RESULT:     -11.8      2.599      8.187
REMARK SMILES CC[C@@](C)([NH2+]CC(=O)N[C@@H](C)c1ccc(F)cc1)C(=O)NCCCNC(=O)c1ccc(-c2c3nc(c(-c4c(F)c(F)c(F)c(F)c4F)c4ccc([nH]4)c(-c4c(F)c(F)c(F)c(F)c4F)c4nc(c(-c5c(F)c(F)c(F)c(F)c5F)c5ccc2[nH]5)C=C4)C=C3)cc1
REMARK SMILES IDX 19 1 20 2 21 3 3 5 4 6 2 7 1 8 5 9 6 12 7 13 8 14 9 15 10 17
REMARK SMILES IDX 11 18 12 19 13 20 18 21 14 22 17 23 15 24 16 25 22 26 23 27
REMARK SMILES IDX 24 28 25 29 26 30 27 32 28 33 29 34 90 35 30 36 89 37 31 38
REMARK SMILES IDX 32 39 33 40 83 41 34 42 88 43 82 44 84 45 35 46 87 47 81 48
REMARK SMILES IDX 80 49 36 51 68 52 48 53 67 54 49 55 52 56 66 57 85 58 50 59
REMARK SMILES IDX 51 60 65 62 86 63 53 64 37 65 38 66 46 67 39 68 40 69 44 70
REMARK SMILES IDX 47 71 41 72 42 73 45 74 43 75 69 76 70 77 78 78 71 79 72 80
REMARK SMILES IDX 76 81 79 82 73 83 74 84 77 85 75 86 54 87 55 88 63 89 56 90
REMARK SMILES IDX 57 91 61 92 64 93 58 94 59 95 62 96 60 97
REMARK H PARENT 21 4 5 10 5 11 9 16 25 31 84 50 52 61
REMARK Flexibility Score: inf
ROOT
ATOM      1  C   UNL A   1      34.032  24.728  23.084  1.00  0.00     0.281 C 
ATOM      2  O   UNL A   1      34.037  25.330  22.006  1.00  0.00    -0.268 OA
ATOM      3  N   UNL A   1      34.745  23.541  23.135  1.00  0.00    -0.351 N 
ATOM      4  H   UNL A   1      34.293  22.698  22.905  1.00  0.00     0.163 HD
ENDROOT
BRANCH   1   5
ATOM      5  C   UNL A   1      33.112  25.197  24.307  1.00  0.00     0.172 C 
ATOM      6  C   UNL A   1      33.626  25.117  25.758  1.00  0.00     0.090 C 
BRANCH   5   7
ATOM      7  C   UNL A   1      32.955  26.748  24.059  1.00  0.00     0.075 C 
ATOM      8  C   UNL A   1      33.623  27.627  25.142  1.00  0.00     0.011 C 
ENDBRANCH   5   7
BRANCH   5   9
ATOM      9  N   UNL A   1      31.800  24.537  24.310  1.00  0.00    -0.326 N 
ATOM     10  H   UNL A   1      31.883  23.737  23.682  1.00  0.00     0.347 HD
ATOM     11  H   UNL A   1      31.177  25.304  24.061  1.00  0.00     0.347 HD
BRANCH   9  12
ATOM     12  C   UNL A   1      31.179  24.026  25.548  1.00  0.00     0.362 C 
BRANCH  12  13
ATOM     13  C   UNL A   1      30.953  22.534  25.931  1.00  0.00     0.275 C 
ATOM     14  O   UNL A   1      29.859  22.250  26.453  1.00  0.00    -0.268 OA
ATOM     15  N   UNL A   1      31.692  21.428  25.615  1.00  0.00    -0.345 N 
ATOM     16  H   UNL A   1      31.127  20.630  25.506  1.00  0.00     0.164 HD
BRANCH  15  17
ATOM     17  C   UNL A   1      33.114  21.124  25.395  1.00  0.00     0.109 C 
ATOM     18  C   UNL A   1      33.897  21.240  26.712  1.00  0.00     0.036 C 
BRANCH  17  19
ATOM     19  C   UNL A   1      33.441  19.793  24.736  1.00  0.00    -0.026 A 
ATOM     20  C   UNL A   1      32.477  19.218  23.872  1.00  0.00     0.009 A 
ATOM     21  C   UNL A   1      34.645  19.108  24.940  1.00  0.00     0.009 A 
ATOM     22  C   UNL A   1      32.721  18.013  23.216  1.00  0.00     0.039 A 
ATOM     23  C   UNL A   1      34.883  17.893  24.287  1.00  0.00     0.039 A 
ATOM     24  C   UNL A   1      33.927  17.364  23.425  1.00  0.00     0.123 A 
ATOM     25  F   UNL A   1      34.170  16.207  22.795  1.00  0.00    -0.207 F 
ENDBRANCH  17  19
ENDBRANCH  15  17
ENDBRANCH  12  13
ENDBRANCH   9  12
ENDBRANCH   5   9
ENDBRANCH   1   5
BRANCH   3  26
ATOM     26  C   UNL A   1      36.156  23.516  23.523  1.00  0.00     0.118 C 
BRANCH  26  27
ATOM     27  C   UNL A   1      36.679  22.132  23.889  1.00  0.00     0.042 C 
BRANCH  27  28
ATOM     28  C   UNL A   1      37.088  22.020  25.347  1.00  0.00     0.118 C 
BRANCH  28  29
ATOM     29  N   UNL A   1      38.068  20.963  25.594  1.00  0.00    -0.352 N 
ATOM     30  C   UNL A   1      39.327  21.030  26.146  1.00  0.00     0.251 C 
ATOM     31  H   UNL A   1      37.781  20.062  25.321  1.00  0.00     0.163 HD
ATOM     32  O   UNL A   1      40.052  20.035  26.144  1.00  0.00    -0.269 OA
BRANCH  30  33
ATOM     33  C   UNL A   1      39.832  22.306  26.702  1.00  0.00     0.039 A 
ATOM     34  C   UNL A   1      40.833  22.283  27.679  1.00  0.00     0.014 A 
ATOM     35  C   UNL A   1      39.352  23.527  26.231  1.00  0.00     0.014 A 
ATOM     36  C   UNL A   1      41.428  23.480  28.090  1.00  0.00     0.010 A 
ATOM     37  C   UNL A   1      40.023  24.701  26.549  1.00  0.00     0.010 A 
ATOM     38  C   UNL A   1      41.073  24.692  27.478  1.00  0.00    -0.014 A 
BRANCH  38  39
ATOM     39  C   UNL A   1      41.777  25.967  27.777  1.00  0.00     0.031 A 
ATOM     40  C   UNL A   1      41.069  27.051  28.542  1.00  0.00     0.074 A 
ATOM     41  C   UNL A   1      43.009  26.189  27.273  1.00  0.00     0.049 A 
ATOM     42  N   UNL A   1      41.447  28.282  28.778  1.00  0.00    -0.248 NA
ATOM     43  C   UNL A   1      39.740  26.721  29.083  1.00  0.00     0.031 C 
ATOM     44  C   UNL A   1      43.778  25.238  26.469  1.00  0.00     0.029 A 
ATOM     45  N   UNL A   1      43.825  27.291  27.352  1.00  0.00    -0.354 N 
ATOM     46  C   UNL A   1      40.396  28.874  29.464  1.00  0.00     0.074 A 
ATOM     47  C   UNL A   1      39.340  27.891  29.557  1.00  0.00     0.031 C 
ATOM     48  C   UNL A   1      44.965  25.783  26.158  1.00  0.00     0.029 A 
ATOM     49  C   UNL A   1      45.024  27.138  26.696  1.00  0.00     0.049 A 
ATOM     50  H   UNL A   1      43.574  28.112  27.833  1.00  0.00     0.167 HD
ATOM     51  C   UNL A   1      40.330  30.115  29.998  1.00  0.00     0.037 A 
ATOM     52  C   UNL A   1      46.050  27.996  26.540  1.00  0.00     0.037 A 
ATOM     53  C   UNL A   1      41.404  31.070  29.947  1.00  0.00     0.049 A 
ATOM     54  C   UNL A   1      45.956  29.369  27.148  1.00  0.00     0.074 A 
ATOM     55  C   UNL A   1      41.462  32.329  30.519  1.00  0.00     0.029 A 
ATOM     56  N   UNL A   1      42.611  30.867  29.294  1.00  0.00    -0.354 N 
ATOM     57  N   UNL A   1      44.977  29.899  27.840  1.00  0.00    -0.248 NA
ATOM     58  C   UNL A   1      47.106  30.264  26.955  1.00  0.00     0.031 C 
ATOM     59  C   UNL A   1      42.688  32.905  30.177  1.00  0.00     0.029 A 
ATOM     60  C   UNL A   1      43.414  31.986  29.434  1.00  0.00     0.049 A 
ATOM     61  H   UNL A   1      42.858  30.050  28.805  1.00  0.00     0.167 HD
ATOM     62  C   UNL A   1      45.399  31.176  28.183  1.00  0.00     0.074 A 
ATOM     63  C   UNL A   1      46.727  31.340  27.633  1.00  0.00     0.031 C 
ATOM     64  C   UNL A   1      44.741  32.126  28.891  1.00  0.00     0.037 A 
BRANCH  51  65
ATOM     65  C   UNL A   1      39.068  30.508  30.707  1.00  0.00     0.064 A 
ATOM     66  C   UNL A   1      38.043  31.177  30.021  1.00  0.00     0.173 A 
ATOM     67  C   UNL A   1      38.899  30.282  32.081  1.00  0.00     0.173 A 
ATOM     68  F   UNL A   1      38.156  31.424  28.707  1.00  0.00    -0.203 F 
ATOM     69  C   UNL A   1      36.901  31.614  30.687  1.00  0.00     0.198 A 
ATOM     70  C   UNL A   1      37.743  30.693  32.738  1.00  0.00     0.198 A 
ATOM     71  F   UNL A   1      39.844  29.637  32.780  1.00  0.00    -0.203 F 
ATOM     72  F   UNL A   1      35.948  32.278  30.019  1.00  0.00    -0.200 F 
ATOM     73  C   UNL A   1      36.749  31.367  32.044  1.00  0.00     0.200 A 
ATOM     74  F   UNL A   1      37.586  30.430  34.043  1.00  0.00    -0.200 F 
ATOM     75  F   UNL A   1      35.644  31.777  32.681  1.00  0.00    -0.200 F 
ENDBRANCH  51  65
BRANCH  52  76
ATOM     76  C   UNL A   1      47.268  27.561  25.808  1.00  0.00     0.064 A 
ATOM     77  C   UNL A   1      48.377  27.024  26.479  1.00  0.00     0.173 A 
ATOM     78  C   UNL A   1      47.358  27.711  24.417  1.00  0.00     0.173 A 
ATOM     79  F   UNL A   1      48.343  26.864  27.810  1.00  0.00    -0.203 F 
ATOM     80  C   UNL A   1      49.536  26.673  25.788  1.00  0.00     0.198 A 
ATOM     81  C   UNL A   1      48.507  27.335  23.725  1.00  0.00     0.198 A 
ATOM     82  F   UNL A   1      46.317  28.200  23.729  1.00  0.00    -0.203 F 
ATOM     83  F   UNL A   1      50.594  26.194  26.458  1.00  0.00    -0.200 F 
ATOM     84  C   UNL A   1      49.599  26.825  24.412  1.00  0.00     0.200 A 
ATOM     85  F   UNL A   1      48.556  27.462  22.391  1.00  0.00    -0.200 F 
ATOM     86  F   UNL A   1      50.710  26.478  23.747  1.00  0.00    -0.200 F 
ENDBRANCH  52  76
BRANCH  64  87
ATOM     87  C   UNL A   1      45.445  33.426  29.142  1.00  0.00     0.064 A 
ATOM     88  C   UNL A   1      45.324  34.484  28.229  1.00  0.00     0.173 A 
ATOM     89  C   UNL A   1      46.323  33.582  30.223  1.00  0.00     0.173 A 
ATOM     90  F   UNL A   1      44.504  34.377  27.173  1.00  0.00    -0.203 F 
ATOM     91  C   UNL A   1      46.078  35.644  28.376  1.00  0.00     0.198 A 
ATOM     92  C   UNL A   1      47.056  34.755  30.381  1.00  0.00     0.198 A 
ATOM     93  F   UNL A   1      46.462  32.602  31.129  1.00  0.00    -0.203 F 
ATOM     94  F   UNL A   1      45.981  36.624  27.467  1.00  0.00    -0.200 F 
ATOM     95  C   UNL A   1      46.943  35.778  29.452  1.00  0.00     0.200 A 
ATOM     96  F   UNL A   1      47.876  34.893  31.432  1.00  0.00    -0.200 F 
ATOM     97  F   UNL A   1      47.671  36.896  29.591  1.00  0.00    -0.200 F 
ENDBRANCH  64  87
ENDBRANCH  38  39
ENDBRANCH  30  33
ENDBRANCH  28  29
ENDBRANCH  27  28
ENDBRANCH  26  27
ENDBRANCH   3  26
TORSDOF 16
ENDMDL
MODEL 3
REMARK VINA RESULT:     -11.8      5.499      9.949
REMARK SMILES CC[C@@](C)([NH2+]CC(=O)N[C@@H](C)c1ccc(F)cc1)C(=O)NCCCNC(=O)c1ccc(-c2c3nc(c(-c4c(F)c(F)c(F)c(F)c4F)c4ccc([nH]4)c(-c4c(F)c(F)c(F)c(F)c4F)c4nc(c(-c5c(F)c(F)c(F)c(F)c5F)c5ccc2[nH]5)C=C4)C=C3)cc1
REMARK SMILES IDX 19 1 20 2 21 3 3 5 4 6 2 7 1 8 5 9 6 12 7 13 8 14 9 15 10 17
REMARK SMILES IDX 11 18 12 19 13 20 18 21 14 22 17 23 15 24 16 25 22 26 23 27
REMARK SMILES IDX 24 28 25 29 26 30 27 32 28 33 29 34 90 35 30 36 89 37 31 38
REMARK SMILES IDX 32 39 33 40 83 41 34 42 88 43 82 44 84 45 35 46 87 47 81 48
REMARK SMILES IDX 80 49 36 51 68 52 48 53 67 54 49 55 52 56 66 57 85 58 50 59
REMARK SMILES IDX 51 60 65 62 86 63 53 64 37 65 38 66 46 67 39 68 40 69 44 70
REMARK SMILES IDX 47 71 41 72 42 73 45 74 43 75 69 76 70 77 78 78 71 79 72 80
REMARK SMILES IDX 76 81 79 82 73 83 74 84 77 85 75 86 54 87 55 88 63 89 56 90
REMARK SMILES IDX 57 91 61 92 64 93 58 94 59 95 62 96 60 97
REMARK H PARENT 21 4 5 10 5 11 9 16 25 31 84 50 52 61
REMARK Flexibility Score: inf
ROOT
ATOM      1  C   UNL A   1      31.340  28.976  24.457  1.00  0.00     0.281 C 
ATOM      2  O   UNL A   1      30.344  29.498  23.948  1.00  0.00    -0.268 OA
ATOM      3  N   UNL A   1      32.260  29.833  25.039  1.00  0.00    -0.351 N 
ATOM      4  H   UNL A   1      32.992  30.197  24.491  1.00  0.00     0.163 HD
ENDROOT
BRANCH   1   5
ATOM      5  C   UNL A   1      31.644  27.412  24.302  1.00  0.00     0.172 C 
ATOM      6  C   UNL A   1      31.116  26.621  23.090  1.00  0.00     0.090 C 
BRANCH   5   7
ATOM      7  C   UNL A   1      33.210  27.373  24.111  1.00  0.00     0.075 C 
ATOM      8  C   UNL A   1      33.968  26.688  25.272  1.00  0.00     0.011 C 
ENDBRANCH   5   7
BRANCH   5   9
ATOM      9  N   UNL A   1      31.247  26.641  25.487  1.00  0.00    -0.326 N 
ATOM     10  H   UNL A   1      30.744  27.290  26.094  1.00  0.00     0.347 HD
ATOM     11  H   UNL A   1      32.139  26.257  25.799  1.00  0.00     0.347 HD
BRANCH   9  12
ATOM     12  C   UNL A   1      30.407  25.431  25.394  1.00  0.00     0.362 C 
BRANCH  12  13
ATOM     13  C   UNL A   1      30.662  24.061  26.087  1.00  0.00     0.275 C 
ATOM     14  O   UNL A   1      30.230  23.931  27.248  1.00  0.00    -0.268 OA
ATOM     15  N   UNL A   1      31.125  22.887  25.561  1.00  0.00    -0.345 N 
ATOM     16  H   UNL A   1      30.725  22.105  26.005  1.00  0.00     0.164 HD
BRANCH  15  17
ATOM     17  C   UNL A   1      32.067  22.492  24.503  1.00  0.00     0.109 C 
ATOM     18  C   UNL A   1      31.564  22.966  23.132  1.00  0.00     0.036 C 
BRANCH  17  19
ATOM     19  C   UNL A   1      33.518  22.917  24.677  1.00  0.00    -0.026 A 
ATOM     20  C   UNL A   1      34.037  23.009  25.992  1.00  0.00     0.009 A 
ATOM     21  C   UNL A   1      34.364  23.221  23.605  1.00  0.00     0.009 A 
ATOM     22  C   UNL A   1      35.363  23.368  26.222  1.00  0.00     0.039 A 
ATOM     23  C   UNL A   1      35.693  23.592  23.840  1.00  0.00     0.039 A 
ATOM     24  C   UNL A   1      36.182  23.651  25.141  1.00  0.00     0.123 A 
ATOM     25  F   UNL A   1      37.459  23.994  25.355  1.00  0.00    -0.207 F 
ENDBRANCH  17  19
ENDBRANCH  15  17
ENDBRANCH  12  13
ENDBRANCH   9  12
ENDBRANCH   5   9
ENDBRANCH   1   5
BRANCH   3  26
ATOM     26  C   UNL A   1      32.164  30.210  26.451  1.00  0.00     0.118 C 
BRANCH  26  27
ATOM     27  C   UNL A   1      31.798  31.670  26.685  1.00  0.00     0.042 C 
BRANCH  27  28
ATOM     28  C   UNL A   1      32.891  32.448  27.396  1.00  0.00     0.118 C 
BRANCH  28  29
ATOM     29  N   UNL A   1      32.542  33.847  27.638  1.00  0.00    -0.352 N 
ATOM     30  C   UNL A   1      33.054  34.747  28.545  1.00  0.00     0.251 C 
ATOM     31  H   UNL A   1      31.826  34.200  27.062  1.00  0.00     0.163 HD
ATOM     32  O   UNL A   1      32.526  35.851  28.680  1.00  0.00    -0.269 OA
BRANCH  30  33
ATOM     33  C   UNL A   1      34.212  34.377  29.391  1.00  0.00     0.039 A 
ATOM     34  C   UNL A   1      33.991  33.749  30.622  1.00  0.00     0.014 A 
ATOM     35  C   UNL A   1      35.515  34.607  28.954  1.00  0.00     0.014 A 
ATOM     36  C   UNL A   1      35.077  33.250  31.349  1.00  0.00     0.010 A 
ATOM     37  C   UNL A   1      36.580  34.008  29.615  1.00  0.00     0.010 A 
ATOM     38  C   UNL A   1      36.375  33.317  30.818  1.00  0.00    -0.014 A 
BRANCH  38  39
ATOM     39  C   UNL A   1      37.538  32.674  31.485  1.00  0.00     0.031 A 
ATOM     40  C   UNL A   1      38.235  31.518  30.821  1.00  0.00     0.074 A 
ATOM     41  C   UNL A   1      37.898  33.059  32.726  1.00  0.00     0.049 A 
ATOM     42  N   UNL A   1      39.166  30.729  31.296  1.00  0.00    -0.248 NA
ATOM     43  C   UNL A   1      37.801  31.178  29.456  1.00  0.00     0.031 C 
ATOM     44  C   UNL A   1      37.265  34.130  33.498  1.00  0.00     0.029 A 
ATOM     45  N   UNL A   1      38.877  32.584  33.564  1.00  0.00    -0.354 N 
ATOM     46  C   UNL A   1      39.405  29.790  30.302  1.00  0.00     0.074 A 
ATOM     47  C   UNL A   1      38.483  30.067  29.223  1.00  0.00     0.031 C 
ATOM     48  C   UNL A   1      37.892  34.253  34.679  1.00  0.00     0.029 A 
ATOM     49  C   UNL A   1      38.938  33.240  34.771  1.00  0.00     0.049 A 
ATOM     50  H   UNL A   1      39.479  31.843  33.322  1.00  0.00     0.167 HD
ATOM     51  C   UNL A   1      40.332  28.805  30.278  1.00  0.00     0.037 A 
ATOM     52  C   UNL A   1      39.740  33.042  35.834  1.00  0.00     0.037 A 
ATOM     53  C   UNL A   1      41.280  28.568  31.333  1.00  0.00     0.049 A 
ATOM     54  C   UNL A   1      40.768  31.944  35.782  1.00  0.00     0.074 A 
ATOM     55  C   UNL A   1      42.306  27.641  31.373  1.00  0.00     0.029 A 
ATOM     56  N   UNL A   1      41.324  29.271  32.528  1.00  0.00    -0.354 N 
ATOM     57  N   UNL A   1      41.019  31.095  34.814  1.00  0.00    -0.248 NA
ATOM     58  C   UNL A   1      41.624  31.774  36.965  1.00  0.00     0.031 C 
ATOM     59  C   UNL A   1      42.944  27.753  32.610  1.00  0.00     0.029 A 
ATOM     60  C   UNL A   1      42.349  28.784  33.321  1.00  0.00     0.049 A 
ATOM     61  H   UNL A   1      40.716  30.005  32.774  1.00  0.00     0.167 HD
ATOM     62  C   UNL A   1      42.072  30.308  35.260  1.00  0.00     0.074 A 
ATOM     63  C   UNL A   1      42.422  30.785  36.581  1.00  0.00     0.031 C 
ATOM     64  C   UNL A   1      42.691  29.282  34.629  1.00  0.00     0.037 A 
BRANCH  51  65
ATOM     65  C   UNL A   1      40.389  27.924  29.066  1.00  0.00     0.064 A 
ATOM     66  C   UNL A   1      41.151  28.296  27.948  1.00  0.00     0.173 A 
ATOM     67  C   UNL A   1      39.636  26.743  28.983  1.00  0.00     0.173 A 
ATOM     68  F   UNL A   1      41.884  29.419  27.971  1.00  0.00    -0.203 F 
ATOM     69  C   UNL A   1      41.148  27.523  26.789  1.00  0.00     0.198 A 
ATOM     70  C   UNL A   1      39.660  25.957  27.834  1.00  0.00     0.198 A 
ATOM     71  F   UNL A   1      38.900  26.337  30.028  1.00  0.00    -0.203 F 
ATOM     72  F   UNL A   1      41.859  27.914  25.722  1.00  0.00    -0.200 F 
ATOM     73  C   UNL A   1      40.407  26.352  26.735  1.00  0.00     0.200 A 
ATOM     74  F   UNL A   1      38.965  24.812  27.794  1.00  0.00    -0.200 F 
ATOM     75  F   UNL A   1      40.416  25.603  25.625  1.00  0.00    -0.200 F 
ENDBRANCH  51  65
BRANCH  52  76
ATOM     76  C   UNL A   1      39.626  33.931  37.019  1.00  0.00     0.064 A 
ATOM     77  C   UNL A   1      38.834  33.585  38.124  1.00  0.00     0.173 A 
ATOM     78  C   UNL A   1      40.283  35.169  37.050  1.00  0.00     0.173 A 
ATOM     79  F   UNL A   1      38.180  32.414  38.141  1.00  0.00    -0.203 F 
ATOM     80  C   UNL A   1      38.688  34.453  39.205  1.00  0.00     0.198 A 
ATOM     81  C   UNL A   1      40.158  36.023  38.144  1.00  0.00     0.198 A 
ATOM     82  F   UNL A   1      41.068  35.534  36.027  1.00  0.00    -0.203 F 
ATOM     83  F   UNL A   1      37.898  34.114  40.233  1.00  0.00    -0.200 F 
ATOM     84  C   UNL A   1      39.353  35.670  39.215  1.00  0.00     0.200 A 
ATOM     85  F   UNL A   1      40.820  37.189  38.160  1.00  0.00    -0.200 F 
ATOM     86  F   UNL A   1      39.220  36.500  40.260  1.00  0.00    -0.200 F 
ENDBRANCH  52  76
BRANCH  64  87
ATOM     87  C   UNL A   1      43.830  28.610  35.335  1.00  0.00     0.064 A 
ATOM     88  C   UNL A   1      43.589  27.534  36.203  1.00  0.00     0.173 A 
ATOM     89  C   UNL A   1      45.139  29.101  35.239  1.00  0.00     0.173 A 
ATOM     90  F   UNL A   1      42.351  27.036  36.336  1.00  0.00    -0.203 F 
ATOM     91  C   UNL A   1      44.616  26.991  36.969  1.00  0.00     0.198 A 
ATOM     92  C   UNL A   1      46.169  28.537  35.987  1.00  0.00     0.198 A 
ATOM     93  F   UNL A   1      45.420  30.120  34.413  1.00  0.00    -0.203 F 
ATOM     94  F   UNL A   1      44.354  25.994  37.826  1.00  0.00    -0.200 F 
ATOM     95  C   UNL A   1      45.904  27.492  36.861  1.00  0.00     0.200 A 
ATOM     96  F   UNL A   1      47.418  29.008  35.867  1.00  0.00    -0.200 F 
ATOM     97  F   UNL A   1      46.892  26.969  37.601  1.00  0.00    -0.200 F 
ENDBRANCH  64  87
ENDBRANCH  38  39
ENDBRANCH  30  33
ENDBRANCH  28  29
ENDBRANCH  27  28
ENDBRANCH  26  27
ENDBRANCH   3  26
TORSDOF 16
ENDMDL
