MODEL 1
REMARK VINA RESULT:     -12.3      0.000      0.000
REMARK SMILES CCCc1cc(OCC(=O)NCCCNC(=O)c2ccc(-c3c4nc(c(-c5c(F)c(F)c(F)c(F)c5F)c5ccc([nH]5)c(-c5c(F)c(F)c(F)c(F)c5F)c5nc(c(-c6c(F)c(F)c(F)c(F)c6F)c6ccc3[nH]6)C=C5)C=C4)cc2)nc(Nc2ccc(C#N)cc2)n1
REMARK SMILES IDX 9 1 10 2 11 3 8 5 7 6 6 7 4 8 5 9 92 10 82 11 81 12 3 13
REMARK SMILES IDX 2 14 1 15 83 16 84 18 85 19 91 20 86 21 90 22 87 23 88 24
REMARK SMILES IDX 89 25 12 26 13 27 14 28 15 29 16 30 17 32 18 33 19 34 80 35
REMARK SMILES IDX 20 36 79 37 21 38 22 39 23 40 73 41 24 42 78 43 72 44 74 45
REMARK SMILES IDX 25 46 77 47 71 48 70 49 26 51 58 52 38 53 57 54 39 55 42 56
REMARK SMILES IDX 56 57 75 58 40 59 41 60 55 62 76 63 43 64 27 65 28 66 36 67
REMARK SMILES IDX 29 68 30 69 34 70 37 71 31 72 32 73 35 74 33 75 59 76 60 77
REMARK SMILES IDX 68 78 61 79 62 80 66 81 69 82 63 83 64 84 67 85 65 86 44 87
REMARK SMILES IDX 45 88 53 89 46 90 47 91 51 92 54 93 48 94 49 95 52 96 50 97
REMARK H PARENT 11 4 83 17 15 31 74 50 42 61
REMARK Flexibility Score: inf
ROOT
ATOM      1  C   UNL A   1      32.777  26.544  21.855  1.00  0.00     0.258 C 
ATOM      2  O   UNL A   1      33.279  25.934  20.911  1.00  0.00    -0.271 OA
ATOM      3  N   UNL A   1      33.077  27.863  22.019  1.00  0.00    -0.353 N 
ATOM      4  H   UNL A   1      33.717  28.242  21.374  1.00  0.00     0.163 HD
ENDROOT
BRANCH   1   5
ATOM      5  C   UNL A   1      31.825  25.852  22.842  1.00  0.00     0.331 C 
BRANCH   5   6
ATOM      6  O   UNL A   1      32.390  25.420  24.069  1.00  0.00    -0.467 OA
BRANCH   6   7
ATOM      7  C   UNL A   1      33.153  24.284  24.058  1.00  0.00     0.218 A 
ATOM      8  C   UNL A   1      35.110  23.021  24.226  1.00  0.00     0.050 A 
ATOM      9  C   UNL A   1      34.523  24.261  24.170  1.00  0.00     0.092 A 
ATOM     10  N   UNL A   1      34.390  21.893  24.147  1.00  0.00    -0.218 NA
ATOM     11  C   UNL A   1      33.067  21.995  23.953  1.00  0.00     0.230 A 
ATOM     12  N   UNL A   1      32.417  23.165  23.919  1.00  0.00    -0.177 NA
BRANCH   8  13
ATOM     13  C   UNL A   1      36.605  22.876  24.289  1.00  0.00     0.056 C 
BRANCH  13  14
ATOM     14  C   UNL A   1      37.110  22.712  25.726  1.00  0.00     0.003 C 
ATOM     15  C   UNL A   1      38.155  23.748  26.121  1.00  0.00     0.004 C 
ENDBRANCH  13  14
ENDBRANCH   8  13
BRANCH  11  16
ATOM     16  N   UNL A   1      32.340  20.838  23.671  1.00  0.00    -0.324 N 
ATOM     17  H   UNL A   1      31.514  20.961  23.148  1.00  0.00     0.170 HD
BRANCH  16  18
ATOM     18  C   UNL A   1      32.646  19.526  24.044  1.00  0.00     0.041 A 
ATOM     19  C   UNL A   1      32.620  19.152  25.393  1.00  0.00     0.027 A 
ATOM     20  C   UNL A   1      32.850  18.526  23.082  1.00  0.00     0.027 A 
ATOM     21  C   UNL A   1      32.780  17.810  25.766  1.00  0.00     0.021 A 
ATOM     22  C   UNL A   1      33.030  17.190  23.447  1.00  0.00     0.021 A 
ATOM     23  C   UNL A   1      32.983  16.827  24.793  1.00  0.00     0.052 A 
BRANCH  23  24
ATOM     24  C   UNL A   1      33.121  15.450  25.166  1.00  0.00     0.099 C 
ATOM     25  N   UNL A   1      33.242  14.334  25.466  1.00  0.00    -0.192 NA
ENDBRANCH  23  24
ENDBRANCH  16  18
ENDBRANCH  11  16
ENDBRANCH   6   7
ENDBRANCH   5   6
ENDBRANCH   1   5
BRANCH   3  26
ATOM     26  C   UNL A   1      32.573  28.779  23.023  1.00  0.00     0.117 C 
BRANCH  26  27
ATOM     27  C   UNL A   1      33.538  28.957  24.188  1.00  0.00     0.042 C 
BRANCH  27  28
ATOM     28  C   UNL A   1      32.869  28.994  25.560  1.00  0.00     0.118 C 
BRANCH  28  29
ATOM     29  N   UNL A   1      32.486  30.339  25.971  1.00  0.00    -0.352 N 
ATOM     30  C   UNL A   1      33.038  31.177  26.906  1.00  0.00     0.251 C 
ATOM     31  H   UNL A   1      31.701  30.704  25.501  1.00  0.00     0.163 HD
ATOM     32  O   UNL A   1      32.444  32.204  27.225  1.00  0.00    -0.269 OA
BRANCH  30  33
ATOM     33  C   UNL A   1      34.329  30.850  27.549  1.00  0.00     0.039 A 
ATOM     34  C   UNL A   1      35.276  31.865  27.707  1.00  0.00     0.014 A 
ATOM     35  C   UNL A   1      34.622  29.553  27.975  1.00  0.00     0.014 A 
ATOM     36  C   UNL A   1      36.483  31.594  28.356  1.00  0.00     0.010 A 
ATOM     37  C   UNL A   1      35.786  29.304  28.699  1.00  0.00     0.010 A 
ATOM     38  C   UNL A   1      36.730  30.322  28.899  1.00  0.00    -0.014 A 
BRANCH  38  39
ATOM     39  C   UNL A   1      37.959  30.052  29.692  1.00  0.00     0.031 A 
ATOM     40  C   UNL A   1      39.010  29.107  29.174  1.00  0.00     0.074 A 
ATOM     41  C   UNL A   1      38.100  30.614  30.910  1.00  0.00     0.049 A 
ATOM     42  N   UNL A   1      40.114  28.703  29.750  1.00  0.00    -0.248 NA
ATOM     43  C   UNL A   1      38.783  28.521  27.842  1.00  0.00     0.031 C 
ATOM     44  C   UNL A   1      37.132  31.511  31.544  1.00  0.00     0.029 A 
ATOM     45  N   UNL A   1      39.106  30.507  31.840  1.00  0.00    -0.354 N 
ATOM     46  C   UNL A   1      40.700  27.808  28.865  1.00  0.00     0.074 A 
ATOM     47  C   UNL A   1      39.813  27.693  27.728  1.00  0.00     0.031 C 
ATOM     48  C   UNL A   1      37.596  31.886  32.746  1.00  0.00     0.029 A 
ATOM     49  C   UNL A   1      38.868  31.215  32.994  1.00  0.00     0.049 A 
ATOM     50  H   UNL A   1      39.919  29.974  31.694  1.00  0.00     0.167 HD
ATOM     51  C   UNL A   1      41.879  27.153  28.985  1.00  0.00     0.037 A 
ATOM     52  C   UNL A   1      39.581  31.296  34.135  1.00  0.00     0.037 A 
ATOM     53  C   UNL A   1      42.773  27.291  30.106  1.00  0.00     0.049 A 
ATOM     54  C   UNL A   1      40.881  30.538  34.241  1.00  0.00     0.074 A 
ATOM     55  C   UNL A   1      44.026  26.730  30.278  1.00  0.00     0.029 A 
ATOM     56  N   UNL A   1      42.504  28.026  31.249  1.00  0.00    -0.354 N 
ATOM     57  N   UNL A   1      41.467  29.769  33.355  1.00  0.00    -0.248 NA
ATOM     58  C   UNL A   1      41.621  30.664  35.504  1.00  0.00     0.031 C 
ATOM     59  C   UNL A   1      44.480  27.057  31.557  1.00  0.00     0.029 A 
ATOM     60  C   UNL A   1      43.549  27.896  32.149  1.00  0.00     0.049 A 
ATOM     61  H   UNL A   1      41.690  28.562  31.399  1.00  0.00     0.167 HD
ATOM     62  C   UNL A   1      42.656  29.354  33.939  1.00  0.00     0.074 A 
ATOM     63  C   UNL A   1      42.720  29.973  35.245  1.00  0.00     0.031 C 
ATOM     64  C   UNL A   1      43.610  28.530  33.440  1.00  0.00     0.037 A 
BRANCH  51  65
ATOM     65  C   UNL A   1      42.288  26.211  27.888  1.00  0.00     0.064 A 
ATOM     66  C   UNL A   1      41.715  24.939  27.752  1.00  0.00     0.173 A 
ATOM     67  C   UNL A   1      43.189  26.635  26.898  1.00  0.00     0.173 A 
ATOM     68  F   UNL A   1      40.855  24.481  28.674  1.00  0.00    -0.203 F 
ATOM     69  C   UNL A   1      42.036  24.121  26.671  1.00  0.00     0.198 A 
ATOM     70  C   UNL A   1      43.481  25.830  25.802  1.00  0.00     0.198 A 
ATOM     71  F   UNL A   1      43.759  27.846  26.977  1.00  0.00    -0.203 F 
ATOM     72  F   UNL A   1      41.499  22.898  26.575  1.00  0.00    -0.200 F 
ATOM     73  C   UNL A   1      42.908  24.573  25.690  1.00  0.00     0.200 A 
ATOM     74  F   UNL A   1      44.308  26.277  24.847  1.00  0.00    -0.200 F 
ATOM     75  F   UNL A   1      43.193  23.797  24.636  1.00  0.00    -0.200 F 
ENDBRANCH  51  65
BRANCH  52  76
ATOM     76  C   UNL A   1      39.082  32.099  35.287  1.00  0.00     0.064 A 
ATOM     77  C   UNL A   1      39.360  33.471  35.392  1.00  0.00     0.173 A 
ATOM     78  C   UNL A   1      38.373  31.500  36.339  1.00  0.00     0.173 A 
ATOM     79  F   UNL A   1      40.048  34.092  34.423  1.00  0.00    -0.203 F 
ATOM     80  C   UNL A   1      38.998  34.195  36.527  1.00  0.00     0.198 A 
ATOM     81  C   UNL A   1      37.973  32.235  37.453  1.00  0.00     0.198 A 
ATOM     82  F   UNL A   1      38.071  30.194  36.289  1.00  0.00    -0.203 F 
ATOM     83  F   UNL A   1      39.354  35.482  36.638  1.00  0.00    -0.200 F 
ATOM     84  C   UNL A   1      38.302  33.577  37.555  1.00  0.00     0.200 A 
ATOM     85  F   UNL A   1      37.282  31.637  38.433  1.00  0.00    -0.200 F 
ATOM     86  F   UNL A   1      37.964  34.271  38.650  1.00  0.00    -0.200 F 
ENDBRANCH  52  76
BRANCH  64  87
ATOM     87  C   UNL A   1      44.834  28.293  34.280  1.00  0.00     0.064 A 
ATOM     88  C   UNL A   1      44.924  27.219  35.179  1.00  0.00     0.173 A 
ATOM     89  C   UNL A   1      45.952  29.134  34.153  1.00  0.00     0.173 A 
ATOM     90  F   UNL A   1      43.881  26.393  35.349  1.00  0.00    -0.203 F 
ATOM     91  C   UNL A   1      46.070  27.019  35.944  1.00  0.00     0.198 A 
ATOM     92  C   UNL A   1      47.111  28.905  34.887  1.00  0.00     0.198 A 
ATOM     93  F   UNL A   1      45.925  30.171  33.301  1.00  0.00    -0.203 F 
ATOM     94  F   UNL A   1      46.109  26.024  36.841  1.00  0.00    -0.200 F 
ATOM     95  C   UNL A   1      47.165  27.855  35.790  1.00  0.00     0.200 A 
ATOM     96  F   UNL A   1      48.176  29.702  34.721  1.00  0.00    -0.200 F 
ATOM     97  F   UNL A   1      48.272  27.654  36.519  1.00  0.00    -0.200 F 
ENDBRANCH  64  87
ENDBRANCH  38  39
ENDBRANCH  30  33
ENDBRANCH  28  29
ENDBRANCH  27  28
ENDBRANCH  26  27
ENDBRANCH   3  26
TORSDOF 17
ENDMDL
MODEL 2
REMARK VINA RESULT:     -12.1      2.790      7.737
REMARK SMILES CCCc1cc(OCC(=O)NCCCNC(=O)c2ccc(-c3c4nc(c(-c5c(F)c(F)c(F)c(F)c5F)c5ccc([nH]5)c(-c5c(F)c(F)c(F)c(F)c5F)c5nc(c(-c6c(F)c(F)c(F)c(F)c6F)c6ccc3[nH]6)C=C5)C=C4)cc2)nc(Nc2ccc(C#N)cc2)n1
REMARK SMILES IDX 9 1 10 2 11 3 8 5 7 6 6 7 4 8 5 9 92 10 82 11 81 12 3 13
REMARK SMILES IDX 2 14 1 15 83 16 84 18 85 19 91 20 86 21 90 22 87 23 88 24
REMARK SMILES IDX 89 25 12 26 13 27 14 28 15 29 16 30 17 32 18 33 19 34 80 35
REMARK SMILES IDX 20 36 79 37 21 38 22 39 23 40 73 41 24 42 78 43 72 44 74 45
REMARK SMILES IDX 25 46 77 47 71 48 70 49 26 51 58 52 38 53 57 54 39 55 42 56
REMARK SMILES IDX 56 57 75 58 40 59 41 60 55 62 76 63 43 64 27 65 28 66 36 67
REMARK SMILES IDX 29 68 30 69 34 70 37 71 31 72 32 73 35 74 33 75 59 76 60 77
REMARK SMILES IDX 68 78 61 79 62 80 66 81 69 82 63 83 64 84 67 85 65 86 44 87
REMARK SMILES IDX 45 88 53 89 46 90 47 91 51 92 54 93 48 94 49 95 52 96 50 97
REMARK H PARENT 11 4 83 17 15 31 74 50 42 61
REMARK Flexibility Score: inf
ROOT
ATOM      1  C   UNL A   1      33.145  27.070  22.702  1.00  0.00     0.258 C 
ATOM      2  O   UNL A   1      33.558  26.754  21.586  1.00  0.00    -0.271 OA
ATOM      3  N   UNL A   1      33.673  28.170  23.309  1.00  0.00    -0.353 N 
ATOM      4  H   UNL A   1      34.390  28.631  22.816  1.00  0.00     0.163 HD
ENDROOT
BRANCH   1   5
ATOM      5  C   UNL A   1      32.056  26.257  23.416  1.00  0.00     0.331 C 
BRANCH   5   6
ATOM      6  O   UNL A   1      32.478  25.447  24.500  1.00  0.00    -0.467 OA
BRANCH   6   7
ATOM      7  C   UNL A   1      33.222  24.333  24.216  1.00  0.00     0.218 A 
ATOM      8  C   UNL A   1      35.170  23.073  23.952  1.00  0.00     0.050 A 
ATOM      9  C   UNL A   1      34.595  24.300  24.169  1.00  0.00     0.092 A 
ATOM     10  N   UNL A   1      34.432  21.969  23.768  1.00  0.00    -0.218 NA
ATOM     11  C   UNL A   1      33.098  22.093  23.743  1.00  0.00     0.230 A 
ATOM     12  N   UNL A   1      32.462  23.248  23.976  1.00  0.00    -0.177 NA
BRANCH   8  13
ATOM     13  C   UNL A   1      36.661  22.929  23.824  1.00  0.00     0.056 C 
BRANCH  13  14
ATOM     14  C   UNL A   1      37.319  22.523  25.146  1.00  0.00     0.003 C 
ATOM     15  C   UNL A   1      37.803  23.710  25.969  1.00  0.00     0.004 C 
ENDBRANCH  13  14
ENDBRANCH   8  13
BRANCH  11  16
ATOM     16  N   UNL A   1      32.330  20.994  23.356  1.00  0.00    -0.324 N 
ATOM     17  H   UNL A   1      31.614  21.173  22.703  1.00  0.00     0.170 HD
BRANCH  16  18
ATOM     18  C   UNL A   1      32.457  19.670  23.788  1.00  0.00     0.041 A 
ATOM     19  C   UNL A   1      32.597  18.635  22.855  1.00  0.00     0.027 A 
ATOM     20  C   UNL A   1      32.586  19.360  25.150  1.00  0.00     0.027 A 
ATOM     21  C   UNL A   1      32.872  17.326  23.276  1.00  0.00     0.021 A 
ATOM     22  C   UNL A   1      32.840  18.054  25.577  1.00  0.00     0.021 A 
ATOM     23  C   UNL A   1      32.996  17.035  24.638  1.00  0.00     0.052 A 
BRANCH  23  24
ATOM     24  C   UNL A   1      33.304  15.705  25.073  1.00  0.00     0.099 C 
ATOM     25  N   UNL A   1      33.559  14.625  25.419  1.00  0.00    -0.192 NA
ENDBRANCH  23  24
ENDBRANCH  16  18
ENDBRANCH  11  16
ENDBRANCH   6   7
ENDBRANCH   5   6
ENDBRANCH   1   5
BRANCH   3  26
ATOM     26  C   UNL A   1      33.313  28.748  24.589  1.00  0.00     0.117 C 
BRANCH  26  27
ATOM     27  C   UNL A   1      34.219  28.276  25.719  1.00  0.00     0.042 C 
BRANCH  27  28
ATOM     28  C   UNL A   1      33.652  28.503  27.117  1.00  0.00     0.118 C 
BRANCH  28  29
ATOM     29  N   UNL A   1      33.639  29.907  27.507  1.00  0.00    -0.352 N 
ATOM     30  C   UNL A   1      34.574  30.655  28.178  1.00  0.00     0.251 C 
ATOM     31  H   UNL A   1      32.827  30.398  27.248  1.00  0.00     0.163 HD
ATOM     32  O   UNL A   1      34.282  31.784  28.565  1.00  0.00    -0.269 OA
BRANCH  30  33
ATOM     33  C   UNL A   1      35.920  30.110  28.458  1.00  0.00     0.039 A 
ATOM     34  C   UNL A   1      36.892  30.175  27.456  1.00  0.00     0.014 A 
ATOM     35  C   UNL A   1      36.226  29.520  29.686  1.00  0.00     0.014 A 
ATOM     36  C   UNL A   1      38.185  29.714  27.711  1.00  0.00     0.010 A 
ATOM     37  C   UNL A   1      37.536  29.142  29.969  1.00  0.00     0.010 A 
ATOM     38  C   UNL A   1      38.532  29.235  28.985  1.00  0.00    -0.014 A 
BRANCH  38  39
ATOM     39  C   UNL A   1      39.933  28.849  29.305  1.00  0.00     0.031 A 
ATOM     40  C   UNL A   1      40.827  29.785  30.072  1.00  0.00     0.074 A 
ATOM     41  C   UNL A   1      40.417  27.675  28.850  1.00  0.00     0.049 A 
ATOM     42  N   UNL A   1      42.090  29.646  30.390  1.00  0.00    -0.248 NA
ATOM     43  C   UNL A   1      40.234  31.053  30.527  1.00  0.00     0.031 C 
ATOM     44  C   UNL A   1      39.665  26.702  28.055  1.00  0.00     0.029 A 
ATOM     45  N   UNL A   1      41.661  27.104  28.976  1.00  0.00    -0.354 N 
ATOM     46  C   UNL A   1      42.444  30.809  31.060  1.00  0.00     0.074 A 
ATOM     47  C   UNL A   1      41.277  31.663  31.072  1.00  0.00     0.031 C 
ATOM     48  C   UNL A   1      40.453  25.650  27.782  1.00  0.00     0.029 A 
ATOM     49  C   UNL A   1      41.781  25.895  28.333  1.00  0.00     0.049 A 
ATOM     50  H   UNL A   1      42.395  27.522  29.480  1.00  0.00     0.167 HD
ATOM     51  C   UNL A   1      43.632  31.126  31.628  1.00  0.00     0.037 A 
ATOM     52  C   UNL A   1      42.849  25.086  28.182  1.00  0.00     0.037 A 
ATOM     53  C   UNL A   1      44.783  30.261  31.638  1.00  0.00     0.049 A 
ATOM     54  C   UNL A   1      44.161  25.481  28.811  1.00  0.00     0.074 A 
ATOM     55  C   UNL A   1      46.004  30.464  32.258  1.00  0.00     0.029 A 
ATOM     56  N   UNL A   1      44.864  29.040  30.987  1.00  0.00    -0.354 N 
ATOM     57  N   UNL A   1      44.453  26.542  29.524  1.00  0.00    -0.248 NA
ATOM     58  C   UNL A   1      45.292  24.562  28.620  1.00  0.00     0.031 C 
ATOM     59  C   UNL A   1      46.849  29.407  31.915  1.00  0.00     0.029 A 
ATOM     60  C   UNL A   1      46.129  28.500  31.155  1.00  0.00     0.049 A 
ATOM     61  H   UNL A   1      44.130  28.618  30.482  1.00  0.00     0.167 HD
ATOM     62  C   UNL A   1      45.784  26.398  29.894  1.00  0.00     0.074 A 
ATOM     63  C   UNL A   1      46.236  25.137  29.348  1.00  0.00     0.031 C 
ATOM     64  C   UNL A   1      46.564  27.236  30.620  1.00  0.00     0.037 A 
BRANCH  51  65
ATOM     65  C   UNL A   1      43.773  32.471  32.284  1.00  0.00     0.064 A 
ATOM     66  C   UNL A   1      44.170  33.608  31.566  1.00  0.00     0.173 A 
ATOM     67  C   UNL A   1      43.401  32.639  33.627  1.00  0.00     0.173 A 
ATOM     68  F   UNL A   1      44.543  33.502  30.282  1.00  0.00    -0.203 F 
ATOM     69  C   UNL A   1      44.198  34.862  32.171  1.00  0.00     0.198 A 
ATOM     70  C   UNL A   1      43.399  33.898  34.219  1.00  0.00     0.198 A 
ATOM     71  F   UNL A   1      43.008  31.584  34.357  1.00  0.00    -0.203 F 
ATOM     72  F   UNL A   1      44.607  35.931  31.475  1.00  0.00    -0.200 F 
ATOM     73  C   UNL A   1      43.799  35.008  33.492  1.00  0.00     0.200 A 
ATOM     74  F   UNL A   1      42.994  34.038  35.489  1.00  0.00    -0.200 F 
ATOM     75  F   UNL A   1      43.800  36.220  34.064  1.00  0.00    -0.200 F 
ENDBRANCH  51  65
BRANCH  52  76
ATOM     76  C   UNL A   1      42.744  23.834  27.382  1.00  0.00     0.064 A 
ATOM     77  C   UNL A   1      42.347  22.624  27.972  1.00  0.00     0.173 A 
ATOM     78  C   UNL A   1      43.103  23.804  26.026  1.00  0.00     0.173 A 
ATOM     79  F   UNL A   1      42.008  22.591  29.270  1.00  0.00    -0.203 F 
ATOM     80  C   UNL A   1      42.365  21.430  27.253  1.00  0.00     0.198 A 
ATOM     81  C   UNL A   1      43.078  22.617  25.296  1.00  0.00     0.198 A 
ATOM     82  F   UNL A   1      43.483  24.931  25.406  1.00  0.00    -0.203 F 
ATOM     83  F   UNL A   1      42.065  20.277  27.868  1.00  0.00    -0.200 F 
ATOM     84  C   UNL A   1      42.729  21.428  25.916  1.00  0.00     0.200 A 
ATOM     85  F   UNL A   1      43.410  22.625  23.998  1.00  0.00    -0.200 F 
ATOM     86  F   UNL A   1      42.757  20.278  25.228  1.00  0.00    -0.200 F 
ENDBRANCH  52  76
BRANCH  64  87
ATOM     87  C   UNL A   1      47.970  26.796  30.918  1.00  0.00     0.064 A 
ATOM     88  C   UNL A   1      49.060  27.207  30.136  1.00  0.00     0.173 A 
ATOM     89  C   UNL A   1      48.233  25.980  32.030  1.00  0.00     0.173 A 
ATOM     90  F   UNL A   1      48.863  27.977  29.055  1.00  0.00    -0.203 F 
ATOM     91  C   UNL A   1      50.354  26.788  30.435  1.00  0.00     0.198 A 
ATOM     92  C   UNL A   1      49.532  25.598  32.350  1.00  0.00     0.198 A 
ATOM     93  F   UNL A   1      47.230  25.565  32.818  1.00  0.00    -0.203 F 
ATOM     94  F   UNL A   1      51.371  27.143  29.638  1.00  0.00    -0.200 F 
ATOM     95  C   UNL A   1      50.590  25.993  31.546  1.00  0.00     0.200 A 
ATOM     96  F   UNL A   1      49.761  24.848  33.437  1.00  0.00    -0.200 F 
ATOM     97  F   UNL A   1      51.838  25.600  31.838  1.00  0.00    -0.200 F 
ENDBRANCH  64  87
ENDBRANCH  38  39
ENDBRANCH  30  33
ENDBRANCH  28  29
ENDBRANCH  27  28
ENDBRANCH  26  27
ENDBRANCH   3  26
TORSDOF 17
ENDMDL
MODEL 3
REMARK VINA RESULT:     -12.1      2.939      5.252
REMARK SMILES CCCc1cc(OCC(=O)NCCCNC(=O)c2ccc(-c3c4nc(c(-c5c(F)c(F)c(F)c(F)c5F)c5ccc([nH]5)c(-c5c(F)c(F)c(F)c(F)c5F)c5nc(c(-c6c(F)c(F)c(F)c(F)c6F)c6ccc3[nH]6)C=C5)C=C4)cc2)nc(Nc2ccc(C#N)cc2)n1
REMARK SMILES IDX 9 1 10 2 11 3 8 5 7 6 6 7 4 8 5 9 92 10 82 11 81 12 3 13
REMARK SMILES IDX 2 14 1 15 83 16 84 18 85 19 91 20 86 21 90 22 87 23 88 24
REMARK SMILES IDX 89 25 12 26 13 27 14 28 15 29 16 30 17 32 18 33 19 34 80 35
REMARK SMILES IDX 20 36 79 37 21 38 22 39 23 40 73 41 24 42 78 43 72 44 74 45
REMARK SMILES IDX 25 46 77 47 71 48 70 49 26 51 58 52 38 53 57 54 39 55 42 56
REMARK SMILES IDX 56 57 75 58 40 59 41 60 55 62 76 63 43 64 27 65 28 66 36 67
REMARK SMILES IDX 29 68 30 69 34 70 37 71 31 72 32 73 35 74 33 75 59 76 60 77
REMARK SMILES IDX 68 78 61 79 62 80 66 81 69 82 63 83 64 84 67 85 65 86 44 87
REMARK SMILES IDX 45 88 53 89 46 90 47 91 51 92 54 93 48 94 49 95 52 96 50 97
REMARK H PARENT 11 4 83 17 15 31 74 50 42 61
REMARK Flexibility Score: inf
ROOT
ATOM      1  C   UNL A   1      33.270  29.020  26.032  1.00  0.00     0.258 C 
ATOM      2  O   UNL A   1      34.181  28.706  25.265  1.00  0.00    -0.271 OA
ATOM      3  N   UNL A   1      32.531  30.130  25.751  1.00  0.00    -0.353 N 
ATOM      4  H   UNL A   1      32.802  30.637  24.952  1.00  0.00     0.163 HD
ENDROOT
BRANCH   1   5
ATOM      5  C   UNL A   1      32.954  28.193  27.286  1.00  0.00     0.331 C 
BRANCH   5   6
ATOM      6  O   UNL A   1      31.827  27.335  27.211  1.00  0.00    -0.467 OA
BRANCH   6   7
ATOM      7  C   UNL A   1      31.650  26.607  26.066  1.00  0.00     0.218 A 
ATOM      8  C   UNL A   1      32.084  24.908  24.525  1.00  0.00     0.050 A 
ATOM      9  C   UNL A   1      32.468  25.580  25.658  1.00  0.00     0.092 A 
ATOM     10  N   UNL A   1      30.986  25.250  23.836  1.00  0.00    -0.218 NA
ATOM     11  C   UNL A   1      30.285  26.316  24.247  1.00  0.00     0.230 A 
ATOM     12  N   UNL A   1      30.576  27.004  25.358  1.00  0.00    -0.177 NA
BRANCH   8  13
ATOM     13  C   UNL A   1      32.933  23.806  23.955  1.00  0.00     0.056 C 
BRANCH  13  14
ATOM     14  C   UNL A   1      34.375  24.257  23.703  1.00  0.00     0.003 C 
ATOM     15  C   UNL A   1      35.340  23.100  23.480  1.00  0.00     0.004 C 
ENDBRANCH  13  14
ENDBRANCH   8  13
BRANCH  11  16
ATOM     16  N   UNL A   1      29.262  26.801  23.431  1.00  0.00    -0.324 N 
ATOM     17  H   UNL A   1      28.650  26.127  23.054  1.00  0.00     0.170 HD
BRANCH  16  18
ATOM     18  C   UNL A   1      29.005  28.132  23.086  1.00  0.00     0.041 A 
ATOM     19  C   UNL A   1      29.992  28.901  22.458  1.00  0.00     0.027 A 
ATOM     20  C   UNL A   1      27.724  28.684  23.230  1.00  0.00     0.027 A 
ATOM     21  C   UNL A   1      29.699  30.184  21.976  1.00  0.00     0.021 A 
ATOM     22  C   UNL A   1      27.431  29.970  22.770  1.00  0.00     0.021 A 
ATOM     23  C   UNL A   1      28.417  30.720  22.130  1.00  0.00     0.052 A 
BRANCH  23  24
ATOM     24  C   UNL A   1      28.104  32.020  21.616  1.00  0.00     0.099 C 
ATOM     25  N   UNL A   1      27.844  33.076  21.205  1.00  0.00    -0.192 NA
ENDBRANCH  23  24
ENDBRANCH  16  18
ENDBRANCH  11  16
ENDBRANCH   6   7
ENDBRANCH   5   6
ENDBRANCH   1   5
BRANCH   3  26
ATOM     26  C   UNL A   1      31.396  30.659  26.482  1.00  0.00     0.117 C 
BRANCH  26  27
ATOM     27  C   UNL A   1      31.387  32.181  26.527  1.00  0.00     0.042 C 
BRANCH  27  28
ATOM     28  C   UNL A   1      32.567  32.796  27.275  1.00  0.00     0.118 C 
BRANCH  28  29
ATOM     29  N   UNL A   1      32.351  34.192  27.632  1.00  0.00    -0.352 N 
ATOM     30  C   UNL A   1      32.950  34.971  28.590  1.00  0.00     0.251 C 
ATOM     31  H   UNL A   1      31.661  34.651  27.100  1.00  0.00     0.163 HD
ATOM     32  O   UNL A   1      32.488  36.080  28.846  1.00  0.00    -0.269 OA
BRANCH  30  33
ATOM     33  C   UNL A   1      34.133  34.483  29.332  1.00  0.00     0.039 A 
ATOM     34  C   UNL A   1      33.948  33.935  30.604  1.00  0.00     0.014 A 
ATOM     35  C   UNL A   1      35.419  34.580  28.797  1.00  0.00     0.014 A 
ATOM     36  C   UNL A   1      35.041  33.421  31.305  1.00  0.00     0.010 A 
ATOM     37  C   UNL A   1      36.494  33.989  29.457  1.00  0.00     0.010 A 
ATOM     38  C   UNL A   1      36.318  33.401  30.719  1.00  0.00    -0.014 A 
BRANCH  38  39
ATOM     39  C   UNL A   1      37.467  32.754  31.406  1.00  0.00     0.031 A 
ATOM     40  C   UNL A   1      38.166  31.577  30.781  1.00  0.00     0.074 A 
ATOM     41  C   UNL A   1      37.844  33.193  32.625  1.00  0.00     0.049 A 
ATOM     42  N   UNL A   1      39.144  30.848  31.258  1.00  0.00    -0.248 NA
ATOM     43  C   UNL A   1      37.694  31.145  29.455  1.00  0.00     0.031 C 
ATOM     44  C   UNL A   1      37.217  34.295  33.357  1.00  0.00     0.029 A 
ATOM     45  N   UNL A   1      38.836  32.758  33.471  1.00  0.00    -0.354 N 
ATOM     46  C   UNL A   1      39.389  29.868  30.306  1.00  0.00     0.074 A 
ATOM     47  C   UNL A   1      38.433  30.067  29.238  1.00  0.00     0.031 C 
ATOM     48  C   UNL A   1      37.848  34.463  34.530  1.00  0.00     0.029 A 
ATOM     49  C   UNL A   1      38.888  33.447  34.660  1.00  0.00     0.049 A 
ATOM     50  H   UNL A   1      39.451  32.024  33.247  1.00  0.00     0.167 HD
ATOM     51  C   UNL A   1      40.336  28.901  30.315  1.00  0.00     0.037 A 
ATOM     52  C   UNL A   1      39.668  33.266  35.744  1.00  0.00     0.037 A 
ATOM     53  C   UNL A   1      41.304  28.724  31.367  1.00  0.00     0.049 A 
ATOM     54  C   UNL A   1      40.700  32.166  35.727  1.00  0.00     0.074 A 
ATOM     55  C   UNL A   1      42.353  27.822  31.425  1.00  0.00     0.029 A 
ATOM     56  N   UNL A   1      41.334  29.448  32.548  1.00  0.00    -0.354 N 
ATOM     57  N   UNL A   1      40.981  31.308  34.777  1.00  0.00    -0.248 NA
ATOM     58  C   UNL A   1      41.528  32.014  36.931  1.00  0.00     0.031 C 
ATOM     59  C   UNL A   1      42.965  27.944  32.674  1.00  0.00     0.029 A 
ATOM     60  C   UNL A   1      42.355  28.982  33.360  1.00  0.00     0.049 A 
ATOM     61  H   UNL A   1      40.720  30.185  32.776  1.00  0.00     0.167 HD
ATOM     62  C   UNL A   1      42.038  30.543  35.255  1.00  0.00     0.074 A 
ATOM     63  C   UNL A   1      42.363  31.053  36.569  1.00  0.00     0.031 C 
ATOM     64  C   UNL A   1      42.681  29.509  34.660  1.00  0.00     0.037 A 
BRANCH  51  65
ATOM     65  C   UNL A   1      40.384  27.937  29.164  1.00  0.00     0.064 A 
ATOM     66  C   UNL A   1      39.613  26.767  29.143  1.00  0.00     0.173 A 
ATOM     67  C   UNL A   1      41.135  28.249  28.018  1.00  0.00     0.173 A 
ATOM     68  F   UNL A   1      38.883  26.418  30.214  1.00  0.00    -0.203 F 
ATOM     69  C   UNL A   1      39.597  25.939  28.024  1.00  0.00     0.198 A 
ATOM     70  C   UNL A   1      41.091  27.437  26.890  1.00  0.00     0.198 A 
ATOM     71  F   UNL A   1      41.885  29.360  27.984  1.00  0.00    -0.203 F 
ATOM     72  F   UNL A   1      38.874  24.811  28.036  1.00  0.00    -0.200 F 
ATOM     73  C   UNL A   1      40.325  26.281  26.893  1.00  0.00     0.200 A 
ATOM     74  F   UNL A   1      41.780  27.781  25.792  1.00  0.00    -0.200 F 
ATOM     75  F   UNL A   1      40.287  25.499  25.806  1.00  0.00    -0.200 F 
ENDBRANCH  51  65
BRANCH  52  76
ATOM     76  C   UNL A   1      39.497  34.120  36.953  1.00  0.00     0.064 A 
ATOM     77  C   UNL A   1      40.117  35.375  37.051  1.00  0.00     0.173 A 
ATOM     78  C   UNL A   1      38.766  33.671  38.063  1.00  0.00     0.173 A 
ATOM     79  F   UNL A   1      40.842  35.847  36.025  1.00  0.00    -0.203 F 
ATOM     80  C   UNL A   1      40.057  36.120  38.227  1.00  0.00     0.198 A 
ATOM     81  C   UNL A   1      38.670  34.437  39.223  1.00  0.00     0.198 A 
ATOM     82  F   UNL A   1      38.145  32.483  38.024  1.00  0.00    -0.203 F 
ATOM     83  F   UNL A   1      40.731  37.274  38.321  1.00  0.00    -0.200 F 
ATOM     84  C   UNL A   1      39.332  35.651  39.312  1.00  0.00     0.200 A 
ATOM     85  F   UNL A   1      37.949  33.988  40.260  1.00  0.00    -0.200 F 
ATOM     86  F   UNL A   1      39.283  36.362  40.447  1.00  0.00    -0.200 F 
ENDBRANCH  52  76
BRANCH  64  87
ATOM     87  C   UNL A   1      43.838  28.893  35.396  1.00  0.00     0.064 A 
ATOM     88  C   UNL A   1      43.664  27.849  36.316  1.00  0.00     0.173 A 
ATOM     89  C   UNL A   1      45.148  29.331  35.143  1.00  0.00     0.173 A 
ATOM     90  F   UNL A   1      42.433  27.400  36.604  1.00  0.00    -0.203 F 
ATOM     91  C   UNL A   1      44.753  27.292  36.983  1.00  0.00     0.198 A 
ATOM     92  C   UNL A   1      46.238  28.744  35.779  1.00  0.00     0.198 A 
ATOM     93  F   UNL A   1      45.374  30.320  34.265  1.00  0.00    -0.203 F 
ATOM     94  F   UNL A   1      44.557  26.339  37.904  1.00  0.00    -0.200 F 
ATOM     95  C   UNL A   1      46.038  27.733  36.706  1.00  0.00     0.200 A 
ATOM     96  F   UNL A   1      47.481  29.156  35.494  1.00  0.00    -0.200 F 
ATOM     97  F   UNL A   1      47.086  27.188  37.341  1.00  0.00    -0.200 F 
ENDBRANCH  64  87
ENDBRANCH  38  39
ENDBRANCH  30  33
ENDBRANCH  28  29
ENDBRANCH  27  28
ENDBRANCH  26  27
ENDBRANCH   3  26
TORSDOF 17
ENDMDL
