MODEL 1
REMARK VINA RESULT:     -12.9      0.000      0.000
REMARK SMILES O=C(CC1CC[NH+](C[C@@H]2Cc3ccccc32)CC1)NCCCNC(=O)c1ccc(-c2c3nc(c(-c4c(F)c(F)c(F)c(F)c4F)c4ccc([nH]4)c(-c4c(F)c(F)c(F)c(F)c4F)c4nc(c(-c5c(F)c(F)c(F)c(F)c5F)c5ccc2[nH]5)C=C4)C=C3)cc1
REMARK SMILES IDX 20 1 19 2 1 3 2 4 3 6 4 7 5 8 18 9 6 10 17 11 7 12 8 14 9 15
REMARK SMILES IDX 10 16 16 17 11 18 15 19 12 20 14 21 13 22 21 23 22 24 23 25
REMARK SMILES IDX 24 26 25 28 26 29 27 30 88 31 28 32 87 33 29 34 30 35 31 36
REMARK SMILES IDX 81 37 32 38 86 39 80 40 82 41 33 42 85 43 79 44 78 45 34 47
REMARK SMILES IDX 66 48 46 49 65 50 47 51 50 52 64 53 83 54 48 55 49 56 63 58
REMARK SMILES IDX 84 59 51 60 35 61 36 62 44 63 37 64 38 65 42 66 45 67 39 68
REMARK SMILES IDX 40 69 43 70 41 71 67 72 68 73 76 74 69 75 70 76 74 77 77 78
REMARK SMILES IDX 71 79 72 80 75 81 73 82 52 83 53 84 61 85 54 86 55 87 59 88
REMARK SMILES IDX 62 89 56 90 57 91 60 92 58 93
REMARK H PARENT 19 5 7 13 23 27 82 46 50 57
REMARK Flexibility Score: inf
ROOT
ATOM      1  C   UNL A   1      31.775  30.432  26.336  1.00  0.00     0.117 C 
ENDROOT
BRANCH   1   2
ATOM      2  N   UNL A   1      31.740  30.091  24.928  1.00  0.00    -0.356 N 
ATOM      3  O   UNL A   1      33.507  28.629  24.990  1.00  0.00    -0.275 OA
ATOM      4  C   UNL A   1      32.551  29.110  24.396  1.00  0.00     0.220 C 
ATOM      5  H   UNL A   1      31.119  30.572  24.334  1.00  0.00     0.163 HD
BRANCH   4   6
ATOM      6  C   UNL A   1      32.190  28.700  22.980  1.00  0.00     0.104 C 
BRANCH   6   7
ATOM      7  C   UNL A   1      31.198  27.534  22.767  1.00  0.00     0.009 C 
ATOM      8  C   UNL A   1      30.464  27.010  24.010  1.00  0.00     0.066 C 
ATOM      9  C   UNL A   1      31.786  26.349  21.989  1.00  0.00     0.066 C 
ATOM     10  C   UNL A   1      31.251  25.971  24.825  1.00  0.00     0.262 C 
ATOM     11  C   UNL A   1      32.579  25.387  22.870  1.00  0.00     0.262 C 
ATOM     12  N   UNL A   1      31.784  24.902  23.994  1.00  0.00    -0.334 N 
ATOM     13  H   UNL A   1      30.964  24.482  23.557  1.00  0.00     0.348 HD
BRANCH  12  14
ATOM     14  C   UNL A   1      32.350  23.752  24.728  1.00  0.00     0.270 C 
BRANCH  14  15
ATOM     15  C   UNL A   1      32.970  22.531  24.014  1.00  0.00     0.079 C 
ATOM     16  C   UNL A   1      33.073  21.108  24.670  1.00  0.00     0.050 C 
ATOM     17  C   UNL A   1      34.474  22.472  23.905  1.00  0.00    -0.036 A 
ATOM     18  C   UNL A   1      34.560  21.279  24.582  1.00  0.00    -0.043 A 
ATOM     19  C   UNL A   1      35.590  23.158  23.485  1.00  0.00     0.004 A 
ATOM     20  C   UNL A   1      35.771  20.726  24.928  1.00  0.00     0.004 A 
ATOM     21  C   UNL A   1      36.834  22.625  23.827  1.00  0.00     0.000 A 
ATOM     22  C   UNL A   1      36.923  21.423  24.555  1.00  0.00     0.000 A 
ENDBRANCH  14  15
ENDBRANCH  12  14
ENDBRANCH   6   7
ENDBRANCH   4   6
ENDBRANCH   1   2
BRANCH   1  23
ATOM     23  C   UNL A   1      31.474  31.891  26.630  1.00  0.00     0.042 C 
BRANCH  23  24
ATOM     24  C   UNL A   1      32.626  32.683  27.234  1.00  0.00     0.118 C 
BRANCH  24  25
ATOM     25  N   UNL A   1      32.304  34.050  27.620  1.00  0.00    -0.352 N 
ATOM     26  C   UNL A   1      32.946  34.872  28.518  1.00  0.00     0.251 C 
ATOM     27  H   UNL A   1      31.518  34.441  27.175  1.00  0.00     0.163 HD
ATOM     28  O   UNL A   1      32.500  35.994  28.748  1.00  0.00    -0.269 OA
BRANCH  26  29
ATOM     29  C   UNL A   1      34.141  34.391  29.252  1.00  0.00     0.039 A 
ATOM     30  C   UNL A   1      33.957  33.709  30.459  1.00  0.00     0.014 A 
ATOM     31  C   UNL A   1      35.429  34.568  28.743  1.00  0.00     0.014 A 
ATOM     32  C   UNL A   1      35.053  33.124  31.100  1.00  0.00     0.010 A 
ATOM     33  C   UNL A   1      36.504  33.908  29.332  1.00  0.00     0.010 A 
ATOM     34  C   UNL A   1      36.328  33.174  30.513  1.00  0.00    -0.014 A 
BRANCH  34  35
ATOM     35  C   UNL A   1      37.479  32.449  31.114  1.00  0.00     0.031 A 
ATOM     36  C   UNL A   1      37.973  32.803  32.488  1.00  0.00     0.074 A 
ATOM     37  C   UNL A   1      38.125  31.516  30.387  1.00  0.00     0.049 A 
ATOM     38  N   UNL A   1      38.979  32.302  33.161  1.00  0.00    -0.248 NA
ATOM     39  C   UNL A   1      37.270  33.890  33.187  1.00  0.00     0.031 C 
ATOM     40  C   UNL A   1      37.802  31.139  29.009  1.00  0.00     0.029 A 
ATOM     41  N   UNL A   1      39.193  30.714  30.706  1.00  0.00    -0.354 N 
ATOM     42  C   UNL A   1      39.039  33.023  34.346  1.00  0.00     0.074 A 
ATOM     43  C   UNL A   1      38.007  34.035  34.278  1.00  0.00     0.031 C 
ATOM     44  C   UNL A   1      38.627  30.156  28.616  1.00  0.00     0.029 A 
ATOM     45  C   UNL A   1      39.552  29.849  29.701  1.00  0.00     0.049 A 
ATOM     46  H   UNL A   1      39.659  30.756  31.572  1.00  0.00     0.167 HD
ATOM     47  C   UNL A   1      39.860  32.841  35.408  1.00  0.00     0.037 A 
ATOM     48  C   UNL A   1      40.509  28.903  29.666  1.00  0.00     0.037 A 
ATOM     49  C   UNL A   1      40.859  31.808  35.494  1.00  0.00     0.049 A 
ATOM     50  C   UNL A   1      41.362  28.676  30.884  1.00  0.00     0.074 A 
ATOM     51  C   UNL A   1      41.693  31.498  36.553  1.00  0.00     0.029 A 
ATOM     52  N   UNL A   1      41.151  30.910  34.478  1.00  0.00    -0.354 N 
ATOM     53  N   UNL A   1      41.354  29.310  32.030  1.00  0.00    -0.248 NA
ATOM     54  C   UNL A   1      42.346  27.587  30.807  1.00  0.00     0.031 C 
ATOM     55  C   UNL A   1      42.511  30.428  36.169  1.00  0.00     0.029 A 
ATOM     56  C   UNL A   1      42.159  30.050  34.884  1.00  0.00     0.049 A 
ATOM     57  H   UNL A   1      40.710  30.889  33.599  1.00  0.00     0.167 HD
ATOM     58  C   UNL A   1      42.310  28.685  32.819  1.00  0.00     0.074 A 
ATOM     59  C   UNL A   1      42.865  27.608  32.026  1.00  0.00     0.031 C 
ATOM     60  C   UNL A   1      42.695  28.978  34.085  1.00  0.00     0.037 A 
BRANCH  47  61
ATOM     61  C   UNL A   1      39.696  33.772  36.574  1.00  0.00     0.064 A 
ATOM     62  C   UNL A   1      38.881  33.441  37.667  1.00  0.00     0.173 A 
ATOM     63  C   UNL A   1      40.378  34.997  36.612  1.00  0.00     0.173 A 
ATOM     64  F   UNL A   1      38.196  32.287  37.673  1.00  0.00    -0.203 F 
ATOM     65  C   UNL A   1      38.731  34.314  38.740  1.00  0.00     0.198 A 
ATOM     66  C   UNL A   1      40.248  35.855  37.700  1.00  0.00     0.198 A 
ATOM     67  F   UNL A   1      41.174  35.360  35.594  1.00  0.00    -0.203 F 
ATOM     68  F   UNL A   1      37.905  34.000  39.748  1.00  0.00    -0.200 F 
ATOM     69  C   UNL A   1      39.419  35.518  38.759  1.00  0.00     0.200 A 
ATOM     70  F   UNL A   1      40.922  37.014  37.722  1.00  0.00    -0.200 F 
ATOM     71  F   UNL A   1      39.275  36.357  39.794  1.00  0.00    -0.200 F 
ENDBRANCH  47  61
BRANCH  48  72
ATOM     72  C   UNL A   1      40.669  28.055  28.458  1.00  0.00     0.064 A 
ATOM     73  C   UNL A   1      41.472  28.480  27.389  1.00  0.00     0.173 A 
ATOM     74  C   UNL A   1      40.029  26.814  28.342  1.00  0.00     0.173 A 
ATOM     75  F   UNL A   1      42.088  29.670  27.448  1.00  0.00    -0.203 F 
ATOM     76  C   UNL A   1      41.612  27.704  26.241  1.00  0.00     0.198 A 
ATOM     77  C   UNL A   1      40.189  26.027  27.203  1.00  0.00     0.198 A 
ATOM     78  F   UNL A   1      39.257  26.362  29.340  1.00  0.00    -0.203 F 
ATOM     79  F   UNL A   1      42.349  28.153  25.217  1.00  0.00    -0.200 F 
ATOM     80  C   UNL A   1      40.973  26.476  26.150  1.00  0.00     0.200 A 
ATOM     81  F   UNL A   1      39.581  24.835  27.124  1.00  0.00    -0.200 F 
ATOM     82  F   UNL A   1      41.109  25.729  25.047  1.00  0.00    -0.200 F 
ENDBRANCH  48  72
BRANCH  60  83
ATOM     83  C   UNL A   1      43.743  28.100  34.699  1.00  0.00     0.064 A 
ATOM     84  C   UNL A   1      45.103  28.439  34.655  1.00  0.00     0.173 A 
ATOM     85  C   UNL A   1      43.380  26.913  35.353  1.00  0.00     0.173 A 
ATOM     86  F   UNL A   1      45.500  29.556  34.027  1.00  0.00    -0.203 F 
ATOM     87  C   UNL A   1      46.067  27.605  35.216  1.00  0.00     0.198 A 
ATOM     88  C   UNL A   1      44.344  26.094  35.936  1.00  0.00     0.198 A 
ATOM     89  F   UNL A   1      42.093  26.548  35.427  1.00  0.00    -0.203 F 
ATOM     90  F   UNL A   1      47.365  27.922  35.117  1.00  0.00    -0.200 F 
ATOM     91  C   UNL A   1      45.686  26.436  35.859  1.00  0.00     0.200 A 
ATOM     92  F   UNL A   1      43.974  24.971  36.566  1.00  0.00    -0.200 F 
ATOM     93  F   UNL A   1      46.614  25.634  36.398  1.00  0.00    -0.200 F 
ENDBRANCH  60  83
ENDBRANCH  34  35
ENDBRANCH  26  29
ENDBRANCH  24  25
ENDBRANCH  23  24
ENDBRANCH   1  23
TORSDOF 13
ENDMDL
MODEL 2
REMARK VINA RESULT:     -12.9      0.094      1.963
REMARK SMILES O=C(CC1CC[NH+](C[C@@H]2Cc3ccccc32)CC1)NCCCNC(=O)c1ccc(-c2c3nc(c(-c4c(F)c(F)c(F)c(F)c4F)c4ccc([nH]4)c(-c4c(F)c(F)c(F)c(F)c4F)c4nc(c(-c5c(F)c(F)c(F)c(F)c5F)c5ccc2[nH]5)C=C4)C=C3)cc1
REMARK SMILES IDX 20 1 19 2 1 3 2 4 3 6 4 7 5 8 18 9 6 10 17 11 7 12 8 14 9 15
REMARK SMILES IDX 10 16 16 17 11 18 15 19 12 20 14 21 13 22 21 23 22 24 23 25
REMARK SMILES IDX 24 26 25 28 26 29 27 30 88 31 28 32 87 33 29 34 30 35 31 36
REMARK SMILES IDX 81 37 32 38 86 39 80 40 82 41 33 42 85 43 79 44 78 45 34 47
REMARK SMILES IDX 66 48 46 49 65 50 47 51 50 52 64 53 83 54 48 55 49 56 63 58
REMARK SMILES IDX 84 59 51 60 35 61 36 62 44 63 37 64 38 65 42 66 45 67 39 68
REMARK SMILES IDX 40 69 43 70 41 71 67 72 68 73 76 74 69 75 70 76 74 77 77 78
REMARK SMILES IDX 71 79 72 80 75 81 73 82 52 83 53 84 61 85 54 86 55 87 59 88
REMARK SMILES IDX 62 89 56 90 57 91 60 92 58 93
REMARK H PARENT 19 5 7 13 23 27 82 46 50 57
REMARK Flexibility Score: inf
ROOT
ATOM      1  C   UNL A   1      31.796  30.463  26.229  1.00  0.00     0.117 C 
ENDROOT
BRANCH   1   2
ATOM      2  N   UNL A   1      31.640  30.110  24.832  1.00  0.00    -0.356 N 
ATOM      3  O   UNL A   1      33.416  28.659  24.751  1.00  0.00    -0.275 OA
ATOM      4  C   UNL A   1      32.408  29.130  24.239  1.00  0.00     0.220 C 
ATOM      5  H   UNL A   1      30.968  30.584  24.291  1.00  0.00     0.163 HD
BRANCH   4   6
ATOM      6  C   UNL A   1      31.929  28.707  22.863  1.00  0.00     0.104 C 
BRANCH   6   7
ATOM      7  C   UNL A   1      30.965  27.504  22.743  1.00  0.00     0.009 C 
ATOM      8  C   UNL A   1      30.318  26.998  24.041  1.00  0.00     0.066 C 
ATOM      9  C   UNL A   1      31.547  26.313  21.970  1.00  0.00     0.066 C 
ATOM     10  C   UNL A   1      31.183  26.011  24.842  1.00  0.00     0.262 C 
ATOM     11  C   UNL A   1      32.418  25.406  22.834  1.00  0.00     0.262 C 
ATOM     12  N   UNL A   1      31.704  24.933  24.015  1.00  0.00    -0.334 N 
ATOM     13  H   UNL A   1      30.875  24.474  23.639  1.00  0.00     0.348 HD
BRANCH  12  14
ATOM     14  C   UNL A   1      32.347  23.825  24.752  1.00  0.00     0.270 C 
BRANCH  14  15
ATOM     15  C   UNL A   1      32.933  22.584  24.045  1.00  0.00     0.079 C 
ATOM     16  C   UNL A   1      33.018  21.168  24.717  1.00  0.00     0.050 C 
ATOM     17  C   UNL A   1      34.433  22.494  23.914  1.00  0.00    -0.036 A 
ATOM     18  C   UNL A   1      34.507  21.309  24.605  1.00  0.00    -0.043 A 
ATOM     19  C   UNL A   1      35.556  23.154  23.468  1.00  0.00     0.004 A 
ATOM     20  C   UNL A   1      35.712  20.737  24.940  1.00  0.00     0.004 A 
ATOM     21  C   UNL A   1      36.795  22.601  23.799  1.00  0.00     0.000 A 
ATOM     22  C   UNL A   1      36.872  21.406  24.541  1.00  0.00     0.000 A 
ENDBRANCH  14  15
ENDBRANCH  12  14
ENDBRANCH   6   7
ENDBRANCH   4   6
ENDBRANCH   1   2
BRANCH   1  23
ATOM     23  C   UNL A   1      31.500  31.920  26.539  1.00  0.00     0.042 C 
BRANCH  23  24
ATOM     24  C   UNL A   1      32.606  32.665  27.273  1.00  0.00     0.118 C 
BRANCH  24  25
ATOM     25  N   UNL A   1      32.286  34.035  27.653  1.00  0.00    -0.352 N 
ATOM     26  C   UNL A   1      32.931  34.862  28.545  1.00  0.00     0.251 C 
ATOM     27  H   UNL A   1      31.498  34.423  27.209  1.00  0.00     0.163 HD
ATOM     28  O   UNL A   1      32.486  35.985  28.770  1.00  0.00    -0.269 OA
BRANCH  26  29
ATOM     29  C   UNL A   1      34.128  34.384  29.277  1.00  0.00     0.039 A 
ATOM     30  C   UNL A   1      33.946  33.673  30.468  1.00  0.00     0.014 A 
ATOM     31  C   UNL A   1      35.417  34.593  28.782  1.00  0.00     0.014 A 
ATOM     32  C   UNL A   1      35.047  33.093  31.104  1.00  0.00     0.010 A 
ATOM     33  C   UNL A   1      36.499  33.938  29.364  1.00  0.00     0.010 A 
ATOM     34  C   UNL A   1      36.326  33.177  30.529  1.00  0.00    -0.014 A 
BRANCH  34  35
ATOM     35  C   UNL A   1      37.484  32.458  31.122  1.00  0.00     0.031 A 
ATOM     36  C   UNL A   1      37.981  32.811  32.496  1.00  0.00     0.074 A 
ATOM     37  C   UNL A   1      38.134  31.532  30.390  1.00  0.00     0.049 A 
ATOM     38  N   UNL A   1      38.992  32.314  33.164  1.00  0.00    -0.248 NA
ATOM     39  C   UNL A   1      37.272  33.890  33.201  1.00  0.00     0.031 C 
ATOM     40  C   UNL A   1      37.809  31.158  29.012  1.00  0.00     0.029 A 
ATOM     41  N   UNL A   1      39.209  30.736  30.702  1.00  0.00    -0.354 N 
ATOM     42  C   UNL A   1      39.052  33.031  34.351  1.00  0.00     0.074 A 
ATOM     43  C   UNL A   1      38.012  34.036  34.290  1.00  0.00     0.031 C 
ATOM     44  C   UNL A   1      38.639  30.182  28.612  1.00  0.00     0.029 A 
ATOM     45  C   UNL A   1      39.571  29.877  29.693  1.00  0.00     0.049 A 
ATOM     46  H   UNL A   1      39.678  30.779  31.567  1.00  0.00     0.167 HD
ATOM     47  C   UNL A   1      39.878  32.851  35.410  1.00  0.00     0.037 A 
ATOM     48  C   UNL A   1      40.534  28.938  29.651  1.00  0.00     0.037 A 
ATOM     49  C   UNL A   1      40.884  31.825  35.488  1.00  0.00     0.049 A 
ATOM     50  C   UNL A   1      41.393  28.713  30.865  1.00  0.00     0.074 A 
ATOM     51  C   UNL A   1      41.725  31.518  36.543  1.00  0.00     0.029 A 
ATOM     52  N   UNL A   1      41.179  30.933  34.468  1.00  0.00    -0.354 N 
ATOM     53  N   UNL A   1      41.385  29.344  32.014  1.00  0.00    -0.248 NA
ATOM     54  C   UNL A   1      42.385  27.632  30.780  1.00  0.00     0.031 C 
ATOM     55  C   UNL A   1      42.549  30.455  36.152  1.00  0.00     0.029 A 
ATOM     56  C   UNL A   1      42.195  30.078  34.867  1.00  0.00     0.049 A 
ATOM     57  H   UNL A   1      40.735  30.912  33.590  1.00  0.00     0.167 HD
ATOM     58  C   UNL A   1      42.348  28.722  32.797  1.00  0.00     0.074 A 
ATOM     59  C   UNL A   1      42.908  27.652  31.998  1.00  0.00     0.031 C 
ATOM     60  C   UNL A   1      42.735  29.014  34.062  1.00  0.00     0.037 A 
BRANCH  47  61
ATOM     61  C   UNL A   1      39.712  33.777  36.579  1.00  0.00     0.064 A 
ATOM     62  C   UNL A   1      40.360  35.020  36.627  1.00  0.00     0.173 A 
ATOM     63  C   UNL A   1      38.877  33.431  37.652  1.00  0.00     0.173 A 
ATOM     64  F   UNL A   1      41.180  35.393  35.632  1.00  0.00    -0.203 F 
ATOM     65  C   UNL A   1      40.204  35.869  37.719  1.00  0.00     0.198 A 
ATOM     66  C   UNL A   1      38.701  34.295  38.730  1.00  0.00     0.198 A 
ATOM     67  F   UNL A   1      38.231  32.255  37.654  1.00  0.00    -0.203 F 
ATOM     68  F   UNL A   1      40.876  37.028  37.767  1.00  0.00    -0.200 F 
ATOM     69  C   UNL A   1      39.370  35.509  38.767  1.00  0.00     0.200 A 
ATOM     70  F   UNL A   1      37.886  33.950  39.737  1.00  0.00    -0.200 F 
ATOM     71  F   UNL A   1      39.219  36.328  39.817  1.00  0.00    -0.200 F 
ENDBRANCH  47  61
BRANCH  48  72
ATOM     72  C   UNL A   1      40.696  28.096  28.439  1.00  0.00     0.064 A 
ATOM     73  C   UNL A   1      40.047  26.857  28.338  1.00  0.00     0.173 A 
ATOM     74  C   UNL A   1      41.498  28.504  27.365  1.00  0.00     0.173 A 
ATOM     75  F   UNL A   1      39.285  26.417  29.350  1.00  0.00    -0.203 F 
ATOM     76  C   UNL A   1      40.210  26.049  27.215  1.00  0.00     0.198 A 
ATOM     77  C   UNL A   1      41.641  27.706  26.232  1.00  0.00     0.198 A 
ATOM     78  F   UNL A   1      42.134  29.684  27.412  1.00  0.00    -0.203 F 
ATOM     79  F   UNL A   1      39.612  24.851  27.163  1.00  0.00    -0.200 F 
ATOM     80  C   UNL A   1      41.004  26.475  26.161  1.00  0.00     0.200 A 
ATOM     81  F   UNL A   1      42.398  28.126  25.210  1.00  0.00    -0.200 F 
ATOM     82  F   UNL A   1      41.159  25.699  25.081  1.00  0.00    -0.200 F 
ENDBRANCH  48  72
BRANCH  60  83
ATOM     83  C   UNL A   1      43.792  28.140  34.669  1.00  0.00     0.064 A 
ATOM     84  C   UNL A   1      43.467  26.954  35.342  1.00  0.00     0.173 A 
ATOM     85  C   UNL A   1      45.147  28.487  34.561  1.00  0.00     0.173 A 
ATOM     86  F   UNL A   1      42.185  26.588  35.484  1.00  0.00    -0.203 F 
ATOM     87  C   UNL A   1      44.460  26.161  35.913  1.00  0.00     0.198 A 
ATOM     88  C   UNL A   1      46.139  27.679  35.110  1.00  0.00     0.198 A 
ATOM     89  F   UNL A   1      45.510  29.609  33.922  1.00  0.00    -0.203 F 
ATOM     90  F   UNL A   1      44.123  25.059  36.597  1.00  0.00    -0.200 F 
ATOM     91  C   UNL A   1      45.793  26.522  35.793  1.00  0.00     0.200 A 
ATOM     92  F   UNL A   1      47.427  28.023  34.985  1.00  0.00    -0.200 F 
ATOM     93  F   UNL A   1      46.747  25.759  36.345  1.00  0.00    -0.200 F 
ENDBRANCH  60  83
ENDBRANCH  34  35
ENDBRANCH  26  29
ENDBRANCH  24  25
ENDBRANCH  23  24
ENDBRANCH   1  23
TORSDOF 13
ENDMDL
MODEL 3
REMARK VINA RESULT:     -12.8      0.693      7.376
REMARK SMILES O=C(CC1CC[NH+](C[C@@H]2Cc3ccccc32)CC1)NCCCNC(=O)c1ccc(-c2c3nc(c(-c4c(F)c(F)c(F)c(F)c4F)c4ccc([nH]4)c(-c4c(F)c(F)c(F)c(F)c4F)c4nc(c(-c5c(F)c(F)c(F)c(F)c5F)c5ccc2[nH]5)C=C4)C=C3)cc1
REMARK SMILES IDX 20 1 19 2 1 3 2 4 3 6 4 7 5 8 18 9 6 10 17 11 7 12 8 14 9 15
REMARK SMILES IDX 10 16 16 17 11 18 15 19 12 20 14 21 13 22 21 23 22 24 23 25
REMARK SMILES IDX 24 26 25 28 26 29 27 30 88 31 28 32 87 33 29 34 30 35 31 36
REMARK SMILES IDX 81 37 32 38 86 39 80 40 82 41 33 42 85 43 79 44 78 45 34 47
REMARK SMILES IDX 66 48 46 49 65 50 47 51 50 52 64 53 83 54 48 55 49 56 63 58
REMARK SMILES IDX 84 59 51 60 35 61 36 62 44 63 37 64 38 65 42 66 45 67 39 68
REMARK SMILES IDX 40 69 43 70 41 71 67 72 68 73 76 74 69 75 70 76 74 77 77 78
REMARK SMILES IDX 71 79 72 80 75 81 73 82 52 83 53 84 61 85 54 86 55 87 59 88
REMARK SMILES IDX 62 89 56 90 57 91 60 92 58 93
REMARK H PARENT 19 5 7 13 23 27 82 46 50 57
REMARK Flexibility Score: inf
ROOT
ATOM      1  C   UNL A   1      31.983  30.510  26.401  1.00  0.00     0.117 C 
ENDROOT
BRANCH   1   2
ATOM      2  N   UNL A   1      31.837  30.169  25.000  1.00  0.00    -0.356 N 
ATOM      3  O   UNL A   1      33.488  28.575  24.969  1.00  0.00    -0.275 OA
ATOM      4  C   UNL A   1      32.538  29.127  24.428  1.00  0.00     0.220 C 
ATOM      5  H   UNL A   1      31.221  30.695  24.440  1.00  0.00     0.163 HD
BRANCH   4   6
ATOM      6  C   UNL A   1      32.063  28.742  23.040  1.00  0.00     0.104 C 
BRANCH   6   7
ATOM      7  C   UNL A   1      31.053  27.581  22.888  1.00  0.00     0.009 C 
ATOM      8  C   UNL A   1      30.380  27.073  24.172  1.00  0.00     0.066 C 
ATOM      9  C   UNL A   1      31.591  26.385  22.091  1.00  0.00     0.066 C 
ATOM     10  C   UNL A   1      31.200  26.035  24.955  1.00  0.00     0.262 C 
ATOM     11  C   UNL A   1      32.421  25.425  22.939  1.00  0.00     0.262 C 
ATOM     12  N   UNL A   1      31.682  24.956  24.106  1.00  0.00    -0.334 N 
ATOM     13  H   UNL A   1      30.837  24.538  23.716  1.00  0.00     0.348 HD
BRANCH  12  14
ATOM     14  C   UNL A   1      32.276  23.807  24.821  1.00  0.00     0.270 C 
BRANCH  14  15
ATOM     15  C   UNL A   1      32.899  22.600  24.086  1.00  0.00     0.079 C 
ATOM     16  C   UNL A   1      33.068  21.184  24.741  1.00  0.00     0.050 C 
ATOM     17  C   UNL A   1      34.398  22.581  23.913  1.00  0.00    -0.036 A 
ATOM     18  C   UNL A   1      34.545  21.394  24.590  1.00  0.00    -0.043 A 
ATOM     19  C   UNL A   1      35.476  23.295  23.443  1.00  0.00     0.004 A 
ATOM     20  C   UNL A   1      35.784  20.876  24.887  1.00  0.00     0.004 A 
ATOM     21  C   UNL A   1      36.748  22.798  23.735  1.00  0.00     0.000 A 
ATOM     22  C   UNL A   1      36.900  21.602  24.463  1.00  0.00     0.000 A 
ENDBRANCH  14  15
ENDBRANCH  12  14
ENDBRANCH   6   7
ENDBRANCH   4   6
ENDBRANCH   1   2
BRANCH   1  23
ATOM     23  C   UNL A   1      31.610  31.945  26.732  1.00  0.00     0.042 C 
BRANCH  23  24
ATOM     24  C   UNL A   1      32.737  32.793  27.306  1.00  0.00     0.118 C 
BRANCH  24  25
ATOM     25  N   UNL A   1      32.369  34.156  27.661  1.00  0.00    -0.352 N 
ATOM     26  C   UNL A   1      32.953  35.004  28.575  1.00  0.00     0.251 C 
ATOM     27  H   UNL A   1      31.593  34.524  27.179  1.00  0.00     0.163 HD
ATOM     28  O   UNL A   1      32.473  36.118  28.773  1.00  0.00    -0.269 OA
BRANCH  26  29
ATOM     29  C   UNL A   1      34.126  34.558  29.365  1.00  0.00     0.039 A 
ATOM     30  C   UNL A   1      33.917  34.056  30.653  1.00  0.00     0.014 A 
ATOM     31  C   UNL A   1      35.417  34.592  28.833  1.00  0.00     0.014 A 
ATOM     32  C   UNL A   1      34.985  33.502  31.364  1.00  0.00     0.010 A 
ATOM     33  C   UNL A   1      36.460  33.957  29.502  1.00  0.00     0.010 A 
ATOM     34  C   UNL A   1      36.255  33.400  30.772  1.00  0.00    -0.014 A 
BRANCH  34  35
ATOM     35  C   UNL A   1      37.369  32.699  31.462  1.00  0.00     0.031 A 
ATOM     36  C   UNL A   1      38.078  31.551  30.800  1.00  0.00     0.074 A 
ATOM     37  C   UNL A   1      37.696  33.052  32.721  1.00  0.00     0.049 A 
ATOM     38  N   UNL A   1      39.049  30.801  31.258  1.00  0.00    -0.248 NA
ATOM     39  C   UNL A   1      37.610  31.167  29.459  1.00  0.00     0.031 C 
ATOM     40  C   UNL A   1      37.030  34.091  33.510  1.00  0.00     0.029 A 
ATOM     41  N   UNL A   1      38.671  32.575  33.561  1.00  0.00    -0.354 N 
ATOM     42  C   UNL A   1      39.292  29.852  30.275  1.00  0.00     0.074 A 
ATOM     43  C   UNL A   1      38.329  30.081  29.219  1.00  0.00     0.031 C 
ATOM     44  C   UNL A   1      37.638  34.198  34.702  1.00  0.00     0.029 A 
ATOM     45  C   UNL A   1      38.721  33.221  34.773  1.00  0.00     0.049 A 
ATOM     46  H   UNL A   1      39.277  31.837  33.320  1.00  0.00     0.167 HD
ATOM     47  C   UNL A   1      40.249  28.893  30.240  1.00  0.00     0.037 A 
ATOM     48  C   UNL A   1      39.556  33.056  35.815  1.00  0.00     0.037 A 
ATOM     49  C   UNL A   1      41.233  28.692  31.270  1.00  0.00     0.049 A 
ATOM     50  C   UNL A   1      40.652  32.031  35.723  1.00  0.00     0.074 A 
ATOM     51  C   UNL A   1      42.286  27.794  31.297  1.00  0.00     0.029 A 
ATOM     52  N   UNL A   1      41.289  29.408  32.456  1.00  0.00    -0.354 N 
ATOM     53  N   UNL A   1      40.923  31.193  34.752  1.00  0.00    -0.248 NA
ATOM     54  C   UNL A   1      41.570  31.941  36.867  1.00  0.00     0.031 C 
ATOM     55  C   UNL A   1      42.963  27.948  32.512  1.00  0.00     0.029 A 
ATOM     56  C   UNL A   1      42.354  28.968  33.225  1.00  0.00     0.049 A 
ATOM     57  H   UNL A   1      40.663  30.123  32.714  1.00  0.00     0.167 HD
ATOM     58  C   UNL A   1      42.054  30.497  35.154  1.00  0.00     0.074 A 
ATOM     59  C   UNL A   1      42.429  31.022  36.450  1.00  0.00     0.031 C 
ATOM     60  C   UNL A   1      42.719  29.507  34.509  1.00  0.00     0.037 A 
BRANCH  47  61
ATOM     61  C   UNL A   1      40.287  28.000  29.033  1.00  0.00     0.064 A 
ATOM     62  C   UNL A   1      39.567  26.797  28.991  1.00  0.00     0.173 A 
ATOM     63  C   UNL A   1      41.029  28.361  27.900  1.00  0.00     0.173 A 
ATOM     64  F   UNL A   1      38.853  26.399  30.055  1.00  0.00    -0.203 F 
ATOM     65  C   UNL A   1      39.614  25.973  27.870  1.00  0.00     0.198 A 
ATOM     66  C   UNL A   1      41.050  27.549  26.770  1.00  0.00     0.198 A 
ATOM     67  F   UNL A   1      41.732  29.504  27.887  1.00  0.00    -0.203 F 
ATOM     68  F   UNL A   1      38.961  24.802  27.873  1.00  0.00    -0.200 F 
ATOM     69  C   UNL A   1      40.350  26.352  26.758  1.00  0.00     0.200 A 
ATOM     70  F   UNL A   1      41.754  27.922  25.691  1.00  0.00    -0.200 F 
ATOM     71  F   UNL A   1      40.392  25.559  25.678  1.00  0.00    -0.200 F 
ENDBRANCH  47  61
BRANCH  48  72
ATOM     72  C   UNL A   1      39.427  33.925  37.012  1.00  0.00     0.064 A 
ATOM     73  C   UNL A   1      38.717  33.488  38.140  1.00  0.00     0.173 A 
ATOM     74  C   UNL A   1      40.003  35.202  37.057  1.00  0.00     0.173 A 
ATOM     75  F   UNL A   1      38.132  32.281  38.134  1.00  0.00    -0.203 F 
ATOM     76  C   UNL A   1      38.571  34.303  39.259  1.00  0.00     0.198 A 
ATOM     77  C   UNL A   1      39.877  36.007  38.187  1.00  0.00     0.198 A 
ATOM     78  F   UNL A   1      40.698  35.662  36.006  1.00  0.00    -0.203 F 
ATOM     79  F   UNL A   1      37.851  33.878  40.306  1.00  0.00    -0.200 F 
ATOM     80  C   UNL A   1      39.154  35.561  39.284  1.00  0.00     0.200 A 
ATOM     81  F   UNL A   1      40.453  37.217  38.213  1.00  0.00    -0.200 F 
ATOM     82  F   UNL A   1      39.015  36.345  40.361  1.00  0.00    -0.200 F 
ENDBRANCH  48  72
BRANCH  60  83
ATOM     83  C   UNL A   1      43.940  28.956  35.183  1.00  0.00     0.064 A 
ATOM     84  C   UNL A   1      45.215  29.485  34.939  1.00  0.00     0.173 A 
ATOM     85  C   UNL A   1      43.828  27.898  36.097  1.00  0.00     0.173 A 
ATOM     86  F   UNL A   1      45.374  30.487  34.062  1.00  0.00    -0.203 F 
ATOM     87  C   UNL A   1      46.341  28.952  35.562  1.00  0.00     0.198 A 
ATOM     88  C   UNL A   1      44.953  27.385  36.738  1.00  0.00     0.198 A 
ATOM     89  F   UNL A   1      42.630  27.362  36.369  1.00  0.00    -0.203 F 
ATOM     90  F   UNL A   1      47.556  29.437  35.274  1.00  0.00    -0.200 F 
ATOM     91  C   UNL A   1      46.208  27.906  36.463  1.00  0.00     0.200 A 
ATOM     92  F   UNL A   1      44.822  26.381  37.615  1.00  0.00    -0.200 F 
ATOM     93  F   UNL A   1      47.293  27.393  37.059  1.00  0.00    -0.200 F 
ENDBRANCH  60  83
ENDBRANCH  34  35
ENDBRANCH  26  29
ENDBRANCH  24  25
ENDBRANCH  23  24
ENDBRANCH   1  23
TORSDOF 13
ENDMDL
