MODEL 1
REMARK VINA RESULT:     -11.8      0.000      0.000
REMARK SMILES Cn1cc(/C=C/C(=O)N(CC(=O)NCCCNC(=O)c2ccc(-c3c4nc(c(-c5c(F)c(F)c(F)c(F)c5F)c5ccc([nH]5)c(-c5c(F)c(F)c(F)c(F)c5F)c5nc(c(-c6c(F)c(F)c(F)c(F)c6F)c6ccc3[nH]6)C=C5)C=C4)cc2)C(C)(C)C)cn1
REMARK SMILES IDX 14 1 13 2 11 3 12 4 10 6 9 7 7 8 8 9 6 10 5 11 4 12 1 13
REMARK SMILES IDX 2 14 3 15 88 16 87 17 83 18 84 19 85 20 86 21 15 22 16 23
REMARK SMILES IDX 17 24 18 25 19 27 20 28 21 29 82 30 22 31 81 32 23 33 24 34
REMARK SMILES IDX 25 35 75 36 26 37 80 38 74 39 76 40 27 41 79 42 73 43 72 44
REMARK SMILES IDX 28 46 60 47 40 48 59 49 41 50 44 51 58 52 77 53 42 54 43 55
REMARK SMILES IDX 57 57 78 58 45 59 29 60 30 61 38 62 31 63 32 64 36 65 39 66
REMARK SMILES IDX 33 67 34 68 37 69 35 70 61 71 62 72 70 73 63 74 64 75 68 76
REMARK SMILES IDX 71 77 65 78 66 79 69 80 67 81 46 82 47 83 55 84 48 85 49 86
REMARK SMILES IDX 53 87 56 88 50 89 51 90 54 91 52 92
REMARK H PARENT 13 5 17 26 76 45 44 56
REMARK Flexibility Score: inf
ROOT
ATOM      1  C   UNL A   1      34.054  28.522  22.922  1.00  0.00     0.117 C 
ENDROOT
BRANCH   1   2
ATOM      2  N   UNL A   1      33.622  27.610  21.881  1.00  0.00    -0.354 N 
ATOM      3  C   UNL A   1      33.207  26.315  21.910  1.00  0.00     0.239 C 
ATOM      4  O   UNL A   1      32.600  25.924  20.904  1.00  0.00    -0.273 OA
ATOM      5  H   UNL A   1      33.631  28.004  20.979  1.00  0.00     0.163 HD
BRANCH   3   6
ATOM      6  C   UNL A   1      33.314  25.383  23.135  1.00  0.00     0.220 C 
BRANCH   6   7
ATOM      7  N   UNL A   1      32.183  25.349  24.070  1.00  0.00    -0.325 N 
BRANCH   7   8
ATOM      8  C   UNL A   1      30.848  25.204  23.689  1.00  0.00     0.247 C 
ATOM      9  O   UNL A   1      30.370  24.094  23.427  1.00  0.00    -0.270 OA
BRANCH   8  10
ATOM     10  C   UNL A   1      29.855  26.328  23.528  1.00  0.00     0.072 C 
ATOM     11  C   UNL A   1      29.887  27.491  22.859  1.00  0.00     0.017 C 
BRANCH  11  12
ATOM     12  C   UNL A   1      28.952  28.561  22.938  1.00  0.00     0.013 A 
ATOM     13  C   UNL A   1      28.078  32.035  23.241  1.00  0.00     0.173 C 
ATOM     14  N   UNL A   1      28.182  30.601  23.121  1.00  0.00    -0.275 N 
ATOM     15  C   UNL A   1      29.325  29.887  22.919  1.00  0.00     0.116 A 
ATOM     16  N   UNL A   1      27.088  29.830  23.259  1.00  0.00    -0.181 NA
ATOM     17  C   UNL A   1      27.561  28.583  23.148  1.00  0.00     0.143 A 
ENDBRANCH  11  12
ENDBRANCH   8  10
ENDBRANCH   7   8
BRANCH   7  18
ATOM     18  C   UNL A   1      32.520  25.408  25.561  1.00  0.00     0.035 C 
ATOM     19  C   UNL A   1      32.358  24.034  26.241  1.00  0.00     0.034 C 
ATOM     20  C   UNL A   1      33.964  25.926  25.770  1.00  0.00     0.034 C 
ATOM     21  C   UNL A   1      31.621  26.377  26.385  1.00  0.00     0.034 C 
ENDBRANCH   7  18
ENDBRANCH   6   7
ENDBRANCH   3   6
ENDBRANCH   1   2
BRANCH   1  22
ATOM     22  C   UNL A   1      32.935  29.205  23.687  1.00  0.00     0.042 C 
BRANCH  22  23
ATOM     23  C   UNL A   1      33.197  29.353  25.175  1.00  0.00     0.118 C 
BRANCH  23  24
ATOM     24  N   UNL A   1      32.620  30.575  25.718  1.00  0.00    -0.352 N 
ATOM     25  C   UNL A   1      32.986  31.301  26.824  1.00  0.00     0.251 C 
ATOM     26  H   UNL A   1      31.852  30.933  25.217  1.00  0.00     0.163 HD
ATOM     27  O   UNL A   1      32.253  32.195  27.234  1.00  0.00    -0.269 OA
BRANCH  25  28
ATOM     28  C   UNL A   1      34.250  31.003  27.536  1.00  0.00     0.039 A 
ATOM     29  C   UNL A   1      35.145  32.048  27.785  1.00  0.00     0.014 A 
ATOM     30  C   UNL A   1      34.572  29.701  27.925  1.00  0.00     0.014 A 
ATOM     31  C   UNL A   1      36.335  31.796  28.471  1.00  0.00     0.010 A 
ATOM     32  C   UNL A   1      35.723  29.463  28.674  1.00  0.00     0.010 A 
ATOM     33  C   UNL A   1      36.621  30.506  28.947  1.00  0.00    -0.014 A 
BRANCH  33  34
ATOM     34  C   UNL A   1      37.857  30.224  29.723  1.00  0.00     0.031 A 
ATOM     35  C   UNL A   1      38.906  29.303  29.162  1.00  0.00     0.074 A 
ATOM     36  C   UNL A   1      38.001  30.739  30.960  1.00  0.00     0.049 A 
ATOM     37  N   UNL A   1      40.008  28.867  29.719  1.00  0.00    -0.248 NA
ATOM     38  C   UNL A   1      38.675  28.782  27.806  1.00  0.00     0.031 C 
ATOM     39  C   UNL A   1      37.033  31.607  31.634  1.00  0.00     0.029 A 
ATOM     40  N   UNL A   1      39.012  30.595  31.877  1.00  0.00    -0.354 N 
ATOM     41  C   UNL A   1      40.582  28.003  28.796  1.00  0.00     0.074 A 
ATOM     42  C   UNL A   1      39.693  27.947  27.657  1.00  0.00     0.031 C 
ATOM     43  C   UNL A   1      37.503  31.927  32.851  1.00  0.00     0.029 A 
ATOM     44  C   UNL A   1      38.785  31.261  33.057  1.00  0.00     0.049 A 
ATOM     45  H   UNL A   1      39.823  30.064  31.706  1.00  0.00     0.167 HD
ATOM     46  C   UNL A   1      41.754  27.332  28.885  1.00  0.00     0.037 A 
ATOM     47  C   UNL A   1      39.524  31.318  34.183  1.00  0.00     0.037 A 
ATOM     48  C   UNL A   1      42.663  27.431  29.996  1.00  0.00     0.049 A 
ATOM     49  C   UNL A   1      40.831  30.572  34.243  1.00  0.00     0.074 A 
ATOM     50  C   UNL A   1      43.919  26.865  30.135  1.00  0.00     0.029 A 
ATOM     51  N   UNL A   1      42.415  28.143  31.159  1.00  0.00    -0.354 N 
ATOM     52  N   UNL A   1      41.403  29.829  33.329  1.00  0.00    -0.248 NA
ATOM     53  C   UNL A   1      41.597  30.679  35.493  1.00  0.00     0.031 C 
ATOM     54  C   UNL A   1      44.411  27.197  31.401  1.00  0.00     0.029 A 
ATOM     55  C   UNL A   1      43.483  28.008  32.031  1.00  0.00     0.049 A 
ATOM     56  H   UNL A   1      41.600  28.666  31.338  1.00  0.00     0.167 HD
ATOM     57  C   UNL A   1      42.608  29.411  33.877  1.00  0.00     0.074 A 
ATOM     58  C   UNL A   1      42.692  29.992  35.200  1.00  0.00     0.031 C 
ATOM     59  C   UNL A   1      43.560  28.613  33.335  1.00  0.00     0.037 A 
BRANCH  46  60
ATOM     60  C   UNL A   1      42.139  26.430  27.749  1.00  0.00     0.064 A 
ATOM     61  C   UNL A   1      43.071  26.826  26.779  1.00  0.00     0.173 A 
ATOM     62  C   UNL A   1      41.631  25.124  27.680  1.00  0.00     0.173 A 
ATOM     63  F   UNL A   1      43.579  28.067  26.796  1.00  0.00    -0.203 F 
ATOM     64  C   UNL A   1      43.468  25.951  25.771  1.00  0.00     0.198 A 
ATOM     65  C   UNL A   1      42.050  24.244  26.686  1.00  0.00     0.198 A 
ATOM     66  F   UNL A   1      40.742  24.695  28.588  1.00  0.00    -0.203 F 
ATOM     67  F   UNL A   1      44.337  26.360  24.836  1.00  0.00    -0.200 F 
ATOM     68  C   UNL A   1      42.966  24.659  25.731  1.00  0.00     0.200 A 
ATOM     69  F   UNL A   1      41.574  22.992  26.657  1.00  0.00    -0.200 F 
ATOM     70  F   UNL A   1      43.364  23.812  24.771  1.00  0.00    -0.200 F 
ENDBRANCH  46  60
BRANCH  47  71
ATOM     71  C   UNL A   1      39.058  32.115  35.348  1.00  0.00     0.064 A 
ATOM     72  C   UNL A   1      39.369  33.479  35.455  1.00  0.00     0.173 A 
ATOM     73  C   UNL A   1      38.333  31.527  36.393  1.00  0.00     0.173 A 
ATOM     74  F   UNL A   1      40.082  34.080  34.491  1.00  0.00    -0.203 F 
ATOM     75  C   UNL A   1      39.000  34.215  36.579  1.00  0.00     0.198 A 
ATOM     76  C   UNL A   1      37.938  32.273  37.503  1.00  0.00     0.198 A 
ATOM     77  F   UNL A   1      38.008  30.228  36.339  1.00  0.00    -0.203 F 
ATOM     78  F   UNL A   1      39.365  35.500  36.683  1.00  0.00    -0.200 F 
ATOM     79  C   UNL A   1      38.283  33.612  37.601  1.00  0.00     0.200 A 
ATOM     80  F   UNL A   1      37.237  31.689  38.484  1.00  0.00    -0.200 F 
ATOM     81  F   UNL A   1      37.936  34.318  38.686  1.00  0.00    -0.200 F 
ENDBRANCH  47  71
BRANCH  59  82
ATOM     82  C   UNL A   1      44.795  28.362  34.149  1.00  0.00     0.064 A 
ATOM     83  C   UNL A   1      44.900  27.256  35.004  1.00  0.00     0.173 A 
ATOM     84  C   UNL A   1      45.902  29.218  34.039  1.00  0.00     0.173 A 
ATOM     85  F   UNL A   1      43.864  26.418  35.154  1.00  0.00    -0.203 F 
ATOM     86  C   UNL A   1      46.061  27.030  35.740  1.00  0.00     0.198 A 
ATOM     87  C   UNL A   1      47.071  28.971  34.753  1.00  0.00     0.198 A 
ATOM     88  F   UNL A   1      45.853  30.286  33.229  1.00  0.00    -0.203 F 
ATOM     89  F   UNL A   1      46.123  25.993  36.586  1.00  0.00    -0.200 F 
ATOM     90  C   UNL A   1      47.146  27.883  35.608  1.00  0.00     0.200 A 
ATOM     91  F   UNL A   1      48.123  29.789  34.614  1.00  0.00    -0.200 F 
ATOM     92  F   UNL A   1      48.265  27.658  36.311  1.00  0.00    -0.200 F 
ENDBRANCH  59  82
ENDBRANCH  33  34
ENDBRANCH  25  28
ENDBRANCH  23  24
ENDBRANCH  22  23
ENDBRANCH   1  22
TORSDOF 15
ENDMDL
MODEL 2
REMARK VINA RESULT:     -11.7      1.942      3.569
REMARK SMILES Cn1cc(/C=C/C(=O)N(CC(=O)NCCCNC(=O)c2ccc(-c3c4nc(c(-c5c(F)c(F)c(F)c(F)c5F)c5ccc([nH]5)c(-c5c(F)c(F)c(F)c(F)c5F)c5nc(c(-c6c(F)c(F)c(F)c(F)c6F)c6ccc3[nH]6)C=C5)C=C4)cc2)C(C)(C)C)cn1
REMARK SMILES IDX 14 1 13 2 11 3 12 4 10 6 9 7 7 8 8 9 6 10 5 11 4 12 1 13
REMARK SMILES IDX 2 14 3 15 88 16 87 17 83 18 84 19 85 20 86 21 15 22 16 23
REMARK SMILES IDX 17 24 18 25 19 27 20 28 21 29 82 30 22 31 81 32 23 33 24 34
REMARK SMILES IDX 25 35 75 36 26 37 80 38 74 39 76 40 27 41 79 42 73 43 72 44
REMARK SMILES IDX 28 46 60 47 40 48 59 49 41 50 44 51 58 52 77 53 42 54 43 55
REMARK SMILES IDX 57 57 78 58 45 59 29 60 30 61 38 62 31 63 32 64 36 65 39 66
REMARK SMILES IDX 33 67 34 68 37 69 35 70 61 71 62 72 70 73 63 74 64 75 68 76
REMARK SMILES IDX 71 77 65 78 66 79 69 80 67 81 46 82 47 83 55 84 48 85 49 86
REMARK SMILES IDX 53 87 56 88 50 89 51 90 54 91 52 92
REMARK H PARENT 13 5 17 26 76 45 44 56
REMARK Flexibility Score: inf
ROOT
ATOM      1  C   UNL A   1      31.532  30.712  26.725  1.00  0.00     0.117 C 
ENDROOT
BRANCH   1   2
ATOM      2  N   UNL A   1      32.885  30.204  26.833  1.00  0.00    -0.354 N 
ATOM      3  C   UNL A   1      33.416  28.963  26.664  1.00  0.00     0.239 C 
ATOM      4  O   UNL A   1      34.644  28.922  26.508  1.00  0.00    -0.273 OA
ATOM      5  H   UNL A   1      33.548  30.890  27.075  1.00  0.00     0.163 HD
BRANCH   3   6
ATOM      6  C   UNL A   1      32.593  27.666  26.516  1.00  0.00     0.220 C 
BRANCH   6   7
ATOM      7  N   UNL A   1      32.082  27.330  25.182  1.00  0.00    -0.325 N 
BRANCH   7   8
ATOM      8  C   UNL A   1      32.211  28.147  24.057  1.00  0.00     0.247 C 
ATOM      9  O   UNL A   1      33.166  28.027  23.281  1.00  0.00    -0.270 OA
BRANCH   8  10
ATOM     10  C   UNL A   1      31.265  29.253  23.663  1.00  0.00     0.072 C 
ATOM     11  C   UNL A   1      29.932  29.312  23.513  1.00  0.00     0.017 C 
BRANCH  11  12
ATOM     12  C   UNL A   1      29.169  30.373  22.951  1.00  0.00     0.013 A 
ATOM     13  C   UNL A   1      27.956  32.336  20.195  1.00  0.00     0.173 C 
ATOM     14  N   UNL A   1      28.315  31.710  21.444  1.00  0.00    -0.275 N 
ATOM     15  C   UNL A   1      29.003  30.542  21.595  1.00  0.00     0.116 A 
ATOM     16  N   UNL A   1      28.012  32.305  22.611  1.00  0.00    -0.181 NA
ATOM     17  C   UNL A   1      28.536  31.488  23.532  1.00  0.00     0.143 A 
ENDBRANCH  11  12
ENDBRANCH   8  10
ENDBRANCH   7   8
BRANCH   7  18
ATOM     18  C   UNL A   1      31.427  25.956  25.021  1.00  0.00     0.035 C 
ATOM     19  C   UNL A   1      32.352  24.820  25.502  1.00  0.00     0.034 C 
ATOM     20  C   UNL A   1      30.087  25.902  25.795  1.00  0.00     0.034 C 
ATOM     21  C   UNL A   1      31.060  25.588  23.553  1.00  0.00     0.034 C 
ENDBRANCH   7  18
ENDBRANCH   6   7
ENDBRANCH   3   6
ENDBRANCH   1   2
BRANCH   1  22
ATOM     22  C   UNL A   1      31.402  32.223  26.790  1.00  0.00     0.042 C 
BRANCH  22  23
ATOM     23  C   UNL A   1      32.690  32.945  27.147  1.00  0.00     0.118 C 
BRANCH  23  24
ATOM     24  N   UNL A   1      32.449  34.297  27.631  1.00  0.00    -0.352 N 
ATOM     25  C   UNL A   1      33.009  34.960  28.695  1.00  0.00     0.251 C 
ATOM     26  H   UNL A   1      31.783  34.811  27.120  1.00  0.00     0.163 HD
ATOM     27  O   UNL A   1      32.532  36.028  29.065  1.00  0.00    -0.269 OA
BRANCH  25  28
ATOM     28  C   UNL A   1      34.174  34.390  29.409  1.00  0.00     0.039 A 
ATOM     29  C   UNL A   1      33.966  33.749  30.634  1.00  0.00     0.014 A 
ATOM     30  C   UNL A   1      35.468  34.513  28.897  1.00  0.00     0.014 A 
ATOM     31  C   UNL A   1      35.047  33.186  31.317  1.00  0.00     0.010 A 
ATOM     32  C   UNL A   1      36.534  33.888  29.540  1.00  0.00     0.010 A 
ATOM     33  C   UNL A   1      36.337  33.225  30.761  1.00  0.00    -0.014 A 
BRANCH  33  34
ATOM     34  C   UNL A   1      37.493  32.591  31.445  1.00  0.00     0.031 A 
ATOM     35  C   UNL A   1      38.213  31.439  30.798  1.00  0.00     0.074 A 
ATOM     36  C   UNL A   1      37.849  33.003  32.677  1.00  0.00     0.049 A 
ATOM     37  N   UNL A   1      39.186  30.700  31.270  1.00  0.00    -0.248 NA
ATOM     38  C   UNL A   1      37.765  31.049  29.452  1.00  0.00     0.031 C 
ATOM     39  C   UNL A   1      37.199  34.077  33.432  1.00  0.00     0.029 A 
ATOM     40  N   UNL A   1      38.836  32.557  33.520  1.00  0.00    -0.354 N 
ATOM     41  C   UNL A   1      39.444  29.745  30.295  1.00  0.00     0.074 A 
ATOM     42  C   UNL A   1      38.505  29.974  29.219  1.00  0.00     0.031 C 
ATOM     43  C   UNL A   1      37.813  34.215  34.618  1.00  0.00     0.029 A 
ATOM     44  C   UNL A   1      38.874  33.218  34.725  1.00  0.00     0.049 A 
ATOM     45  H   UNL A   1      39.459  31.831  33.284  1.00  0.00     0.167 HD
ATOM     46  C   UNL A   1      40.390  28.778  30.292  1.00  0.00     0.037 A 
ATOM     47  C   UNL A   1      39.667  33.032  35.797  1.00  0.00     0.037 A 
ATOM     48  C   UNL A   1      41.358  28.587  31.339  1.00  0.00     0.049 A 
ATOM     49  C   UNL A   1      40.722  31.957  35.755  1.00  0.00     0.074 A 
ATOM     50  C   UNL A   1      42.417  27.696  31.381  1.00  0.00     0.029 A 
ATOM     51  N   UNL A   1      41.386  29.298  32.528  1.00  0.00    -0.354 N 
ATOM     52  N   UNL A   1      41.011  31.118  34.790  1.00  0.00    -0.248 NA
ATOM     53  C   UNL A   1      41.564  31.808  36.950  1.00  0.00     0.031 C 
ATOM     54  C   UNL A   1      43.058  27.837  32.616  1.00  0.00     0.029 A 
ATOM     55  C   UNL A   1      42.428  28.848  33.322  1.00  0.00     0.049 A 
ATOM     56  H   UNL A   1      40.759  30.017  32.772  1.00  0.00     0.167 HD
ATOM     57  C   UNL A   1      42.087  30.369  35.247  1.00  0.00     0.074 A 
ATOM     58  C   UNL A   1      42.408  30.859  36.571  1.00  0.00     0.031 C 
ATOM     59  C   UNL A   1      42.748  29.362  34.628  1.00  0.00     0.037 A 
BRANCH  46  60
ATOM     60  C   UNL A   1      40.443  27.846  29.117  1.00  0.00     0.064 A 
ATOM     61  C   UNL A   1      39.665  26.681  29.066  1.00  0.00     0.173 A 
ATOM     62  C   UNL A   1      41.219  28.168  27.993  1.00  0.00     0.173 A 
ATOM     63  F   UNL A   1      38.913  26.324  30.118  1.00  0.00    -0.203 F 
ATOM     64  C   UNL A   1      39.674  25.863  27.939  1.00  0.00     0.198 A 
ATOM     65  C   UNL A   1      41.206  27.362  26.858  1.00  0.00     0.198 A 
ATOM     66  F   UNL A   1      41.976  29.276  27.989  1.00  0.00    -0.203 F 
ATOM     67  F   UNL A   1      38.946  24.738  27.924  1.00  0.00    -0.200 F 
ATOM     68  C   UNL A   1      40.436  26.210  26.833  1.00  0.00     0.200 A 
ATOM     69  F   UNL A   1      41.932  27.705  25.786  1.00  0.00    -0.200 F 
ATOM     70  F   UNL A   1      40.429  25.432  25.741  1.00  0.00    -0.200 F 
ENDBRANCH  46  60
BRANCH  47  71
ATOM     71  C   UNL A   1      39.511  33.885  37.005  1.00  0.00     0.064 A 
ATOM     72  C   UNL A   1      38.760  33.444  38.103  1.00  0.00     0.173 A 
ATOM     73  C   UNL A   1      40.072  35.168  37.070  1.00  0.00     0.173 A 
ATOM     74  F   UNL A   1      38.184  32.233  38.078  1.00  0.00    -0.203 F 
ATOM     75  C   UNL A   1      38.547  34.268  39.208  1.00  0.00     0.198 A 
ATOM     76  C   UNL A   1      39.884  35.979  38.188  1.00  0.00     0.198 A 
ATOM     77  F   UNL A   1      40.801  35.637  36.048  1.00  0.00    -0.203 F 
ATOM     78  F   UNL A   1      37.773  33.844  40.216  1.00  0.00    -0.200 F 
ATOM     79  C   UNL A   1      39.111  35.533  39.250  1.00  0.00     0.200 A 
ATOM     80  F   UNL A   1      40.439  37.197  38.230  1.00  0.00    -0.200 F 
ATOM     81  F   UNL A   1      38.900  36.328  40.308  1.00  0.00    -0.200 F 
ENDBRANCH  47  71
BRANCH  59  82
ATOM     82  C   UNL A   1      43.915  28.756  35.351  1.00  0.00     0.064 A 
ATOM     83  C   UNL A   1      45.213  29.267  35.212  1.00  0.00     0.173 A 
ATOM     84  C   UNL A   1      43.722  27.676  36.227  1.00  0.00     0.173 A 
ATOM     85  F   UNL A   1      45.451  30.288  34.375  1.00  0.00    -0.203 F 
ATOM     86  C   UNL A   1      46.281  28.701  35.904  1.00  0.00     0.198 A 
ATOM     87  C   UNL A   1      44.787  27.134  36.940  1.00  0.00     0.198 A 
ATOM     88  F   UNL A   1      42.497  27.157  36.401  1.00  0.00    -0.203 F 
ATOM     89  F   UNL A   1      47.521  29.175  35.720  1.00  0.00    -0.200 F 
ATOM     90  C   UNL A   1      46.065  27.641  36.772  1.00  0.00     0.200 A 
ATOM     91  F   UNL A   1      44.574  26.119  37.788  1.00  0.00    -0.200 F 
ATOM     92  F   UNL A   1      47.094  27.105  37.443  1.00  0.00    -0.200 F 
ENDBRANCH  59  82
ENDBRANCH  33  34
ENDBRANCH  25  28
ENDBRANCH  23  24
ENDBRANCH  22  23
ENDBRANCH   1  22
TORSDOF 15
ENDMDL
MODEL 3
REMARK VINA RESULT:     -11.6      3.481      8.861
REMARK SMILES Cn1cc(/C=C/C(=O)N(CC(=O)NCCCNC(=O)c2ccc(-c3c4nc(c(-c5c(F)c(F)c(F)c(F)c5F)c5ccc([nH]5)c(-c5c(F)c(F)c(F)c(F)c5F)c5nc(c(-c6c(F)c(F)c(F)c(F)c6F)c6ccc3[nH]6)C=C5)C=C4)cc2)C(C)(C)C)cn1
REMARK SMILES IDX 14 1 13 2 11 3 12 4 10 6 9 7 7 8 8 9 6 10 5 11 4 12 1 13
REMARK SMILES IDX 2 14 3 15 88 16 87 17 83 18 84 19 85 20 86 21 15 22 16 23
REMARK SMILES IDX 17 24 18 25 19 27 20 28 21 29 82 30 22 31 81 32 23 33 24 34
REMARK SMILES IDX 25 35 75 36 26 37 80 38 74 39 76 40 27 41 79 42 73 43 72 44
REMARK SMILES IDX 28 46 60 47 40 48 59 49 41 50 44 51 58 52 77 53 42 54 43 55
REMARK SMILES IDX 57 57 78 58 45 59 29 60 30 61 38 62 31 63 32 64 36 65 39 66
REMARK SMILES IDX 33 67 34 68 37 69 35 70 61 71 62 72 70 73 63 74 64 75 68 76
REMARK SMILES IDX 71 77 65 78 66 79 69 80 67 81 46 82 47 83 55 84 48 85 49 86
REMARK SMILES IDX 53 87 56 88 50 89 51 90 54 91 52 92
REMARK H PARENT 13 5 17 26 76 45 44 56
REMARK Flexibility Score: inf
ROOT
ATOM      1  C   UNL A   1      32.044  26.455  26.072  1.00  0.00     0.117 C 
ENDROOT
BRANCH   1   2
ATOM      2  N   UNL A   1      31.255  25.315  26.492  1.00  0.00    -0.354 N 
ATOM      3  C   UNL A   1      31.578  24.018  26.747  1.00  0.00     0.239 C 
ATOM      4  O   UNL A   1      30.744  23.376  27.399  1.00  0.00    -0.273 OA
ATOM      5  H   UNL A   1      30.300  25.518  26.618  1.00  0.00     0.163 HD
BRANCH   3   6
ATOM      6  C   UNL A   1      32.936  23.367  26.412  1.00  0.00     0.220 C 
BRANCH   6   7
ATOM      7  N   UNL A   1      33.210  23.040  25.008  1.00  0.00    -0.325 N 
BRANCH   7   8
ATOM      8  C   UNL A   1      32.457  22.147  24.243  1.00  0.00     0.247 C 
ATOM      9  O   UNL A   1      31.629  22.546  23.416  1.00  0.00    -0.270 OA
BRANCH   8  10
ATOM     10  C   UNL A   1      32.524  20.642  24.333  1.00  0.00     0.072 C 
ATOM     11  C   UNL A   1      33.458  19.791  24.783  1.00  0.00     0.017 C 
BRANCH  11  12
ATOM     12  C   UNL A   1      33.481  18.375  24.640  1.00  0.00     0.013 A 
ATOM     13  C   UNL A   1      32.442  15.049  25.524  1.00  0.00     0.173 C 
ATOM     14  N   UNL A   1      33.011  16.269  25.007  1.00  0.00    -0.275 N 
ATOM     15  C   UNL A   1      32.617  17.539  25.311  1.00  0.00     0.116 A 
ATOM     16  N   UNL A   1      34.065  16.224  24.173  1.00  0.00    -0.181 NA
ATOM     17  C   UNL A   1      34.353  17.512  23.951  1.00  0.00     0.143 A 
ENDBRANCH  11  12
ENDBRANCH   8  10
ENDBRANCH   7   8
BRANCH   7  18
ATOM     18  C   UNL A   1      34.361  23.792  24.336  1.00  0.00     0.035 C 
ATOM     19  C   UNL A   1      35.189  24.602  25.354  1.00  0.00     0.034 C 
ATOM     20  C   UNL A   1      35.284  22.805  23.580  1.00  0.00     0.034 C 
ATOM     21  C   UNL A   1      33.912  24.827  23.262  1.00  0.00     0.034 C 
ENDBRANCH   7  18
ENDBRANCH   6   7
ENDBRANCH   3   6
ENDBRANCH   1   2
BRANCH   1  22
ATOM     22  C   UNL A   1      32.107  27.599  27.068  1.00  0.00     0.042 C 
BRANCH  22  23
ATOM     23  C   UNL A   1      33.477  28.244  27.192  1.00  0.00     0.118 C 
BRANCH  23  24
ATOM     24  N   UNL A   1      33.394  29.690  27.345  1.00  0.00    -0.352 N 
ATOM     25  C   UNL A   1      34.288  30.563  27.914  1.00  0.00     0.251 C 
ATOM     26  H   UNL A   1      32.574  30.102  26.990  1.00  0.00     0.163 HD
ATOM     27  O   UNL A   1      33.952  31.724  28.127  1.00  0.00    -0.269 OA
BRANCH  25  28
ATOM     28  C   UNL A   1      35.649  30.113  28.285  1.00  0.00     0.039 A 
ATOM     29  C   UNL A   1      36.664  30.176  27.326  1.00  0.00     0.014 A 
ATOM     30  C   UNL A   1      35.920  29.598  29.555  1.00  0.00     0.014 A 
ATOM     31  C   UNL A   1      37.961  29.775  27.658  1.00  0.00     0.010 A 
ATOM     32  C   UNL A   1      37.227  29.269  29.908  1.00  0.00     0.010 A 
ATOM     33  C   UNL A   1      38.259  29.345  28.961  1.00  0.00    -0.014 A 
BRANCH  33  34
ATOM     34  C   UNL A   1      39.640  28.960  29.352  1.00  0.00     0.031 A 
ATOM     35  C   UNL A   1      40.470  29.885  30.201  1.00  0.00     0.074 A 
ATOM     36  C   UNL A   1      40.172  27.814  28.884  1.00  0.00     0.049 A 
ATOM     37  N   UNL A   1      41.720  29.769  30.574  1.00  0.00    -0.248 NA
ATOM     38  C   UNL A   1      39.817  31.117  30.672  1.00  0.00     0.031 C 
ATOM     39  C   UNL A   1      39.487  26.856  28.013  1.00  0.00     0.029 A 
ATOM     40  N   UNL A   1      41.418  27.267  29.062  1.00  0.00    -0.354 N 
ATOM     41  C   UNL A   1      42.008  30.919  31.295  1.00  0.00     0.074 A 
ATOM     42  C   UNL A   1      40.817  31.739  31.280  1.00  0.00     0.031 C 
ATOM     43  C   UNL A   1      40.317  25.834  27.745  1.00  0.00     0.029 A 
ATOM     44  C   UNL A   1      41.601  26.081  28.392  1.00  0.00     0.049 A 
ATOM     45  H   UNL A   1      42.116  27.685  29.617  1.00  0.00     0.167 HD
ATOM     46  C   UNL A   1      43.158  31.253  31.927  1.00  0.00     0.037 A 
ATOM     47  C   UNL A   1      42.687  25.289  28.302  1.00  0.00     0.037 A 
ATOM     48  C   UNL A   1      44.324  30.411  31.986  1.00  0.00     0.049 A 
ATOM     49  C   UNL A   1      43.946  25.680  29.031  1.00  0.00     0.074 A 
ATOM     50  C   UNL A   1      45.502  30.620  32.684  1.00  0.00     0.029 A 
ATOM     51  N   UNL A   1      44.459  29.201  31.324  1.00  0.00    -0.354 N 
ATOM     52  N   UNL A   1      44.176  26.729  29.782  1.00  0.00    -0.248 NA
ATOM     53  C   UNL A   1      45.095  24.772  28.904  1.00  0.00     0.031 C 
ATOM     54  C   UNL A   1      46.367  29.557  32.406  1.00  0.00     0.029 A 
ATOM     55  C   UNL A   1      45.712  28.665  31.575  1.00  0.00     0.049 A 
ATOM     56  H   UNL A   1      43.768  28.786  30.760  1.00  0.00     0.167 HD
ATOM     57  C   UNL A   1      45.478  26.589  30.243  1.00  0.00     0.074 A 
ATOM     58  C   UNL A   1      45.985  25.348  29.698  1.00  0.00     0.031 C 
ATOM     59  C   UNL A   1      46.192  27.417  31.043  1.00  0.00     0.037 A 
BRANCH  46  60
ATOM     60  C   UNL A   1      43.222  32.582  32.621  1.00  0.00     0.064 A 
ATOM     61  C   UNL A   1      42.880  32.724  33.973  1.00  0.00     0.173 A 
ATOM     62  C   UNL A   1      43.713  33.709  31.944  1.00  0.00     0.173 A 
ATOM     63  F   UNL A   1      42.398  31.679  34.661  1.00  0.00    -0.203 F 
ATOM     64  C   UNL A   1      43.012  33.951  34.618  1.00  0.00     0.198 A 
ATOM     65  C   UNL A   1      43.867  34.927  32.600  1.00  0.00     0.198 A 
ATOM     66  F   UNL A   1      44.060  33.623  30.651  1.00  0.00    -0.203 F 
ATOM     67  F   UNL A   1      42.649  34.071  35.903  1.00  0.00    -0.200 F 
ATOM     68  C   UNL A   1      43.515  35.048  33.935  1.00  0.00     0.200 A 
ATOM     69  F   UNL A   1      44.366  35.983  31.941  1.00  0.00    -0.200 F 
ATOM     70  F   UNL A   1      43.659  36.223  34.563  1.00  0.00    -0.200 F 
ENDBRANCH  46  60
BRANCH  47  71
ATOM     71  C   UNL A   1      42.640  24.038  27.501  1.00  0.00     0.064 A 
ATOM     72  C   UNL A   1      42.297  22.815  28.096  1.00  0.00     0.173 A 
ATOM     73  C   UNL A   1      42.975  24.029  26.140  1.00  0.00     0.173 A 
ATOM     74  F   UNL A   1      41.992  22.770  29.402  1.00  0.00    -0.203 F 
ATOM     75  C   UNL A   1      42.323  21.627  27.369  1.00  0.00     0.198 A 
ATOM     76  C   UNL A   1      42.971  22.844  25.406  1.00  0.00     0.198 A 
ATOM     77  F   UNL A   1      43.309  25.171  25.521  1.00  0.00    -0.203 F 
ATOM     78  F   UNL A   1      42.052  20.466  27.979  1.00  0.00    -0.200 F 
ATOM     79  C   UNL A   1      42.658  21.643  26.024  1.00  0.00     0.200 A 
ATOM     80  F   UNL A   1      43.286  22.864  24.104  1.00  0.00    -0.200 F 
ATOM     81  F   UNL A   1      42.692  20.499  25.327  1.00  0.00    -0.200 F 
ENDBRANCH  47  71
BRANCH  59  82
ATOM     82  C   UNL A   1      47.579  26.985  31.419  1.00  0.00     0.064 A 
ATOM     83  C   UNL A   1      48.706  27.443  30.724  1.00  0.00     0.173 A 
ATOM     84  C   UNL A   1      47.783  26.135  32.518  1.00  0.00     0.173 A 
ATOM     85  F   UNL A   1      48.562  28.245  29.658  1.00  0.00    -0.203 F 
ATOM     86  C   UNL A   1      49.987  27.045  31.097  1.00  0.00     0.198 A 
ATOM     87  C   UNL A   1      49.066  25.763  32.907  1.00  0.00     0.198 A 
ATOM     88  F   UNL A   1      46.737  25.675  33.221  1.00  0.00    -0.203 F 
ATOM     89  F   UNL A   1      51.048  27.457  30.390  1.00  0.00    -0.200 F 
ATOM     90  C   UNL A   1      50.166  26.212  32.192  1.00  0.00     0.200 A 
ATOM     91  F   UNL A   1      49.237  24.970  33.973  1.00  0.00    -0.200 F 
ATOM     92  F   UNL A   1      51.400  25.837  32.554  1.00  0.00    -0.200 F 
ENDBRANCH  59  82
ENDBRANCH  33  34
ENDBRANCH  25  28
ENDBRANCH  23  24
ENDBRANCH  22  23
ENDBRANCH   1  22
TORSDOF 15
ENDMDL
