MODEL 1
REMARK VINA RESULT:     -12.2      0.000      0.000
REMARK SMILES C[C@H]1CCCC/C1=C\C(=O)NCCCNC(=O)c1ccc(-c2c3nc(c(-c4c(F)c(F)c(F)c(F)c4F)c4ccc([nH]4)c(-c4c(F)c(F)c(F)c(F)c4F)c4nc(c(-c5c(F)c(F)c(F)c(F)c5F)c5ccc2[nH]5)C=C4)C=C3)cc1
REMARK SMILES IDX 14 1 13 2 12 3 11 4 9 5 10 6 8 8 1 9 2 10 3 11 7 12 4 13
REMARK SMILES IDX 6 14 5 15 15 16 16 17 17 19 18 20 19 21 80 22 20 23 79 24
REMARK SMILES IDX 21 25 22 26 23 27 73 28 24 29 78 30 72 31 74 32 25 33 77 34
REMARK SMILES IDX 71 35 70 36 26 38 58 39 38 40 57 41 39 42 42 43 56 44 75 45
REMARK SMILES IDX 40 46 41 47 55 49 76 50 43 51 27 52 28 53 36 54 29 55 30 56
REMARK SMILES IDX 34 57 37 58 31 59 32 60 35 61 33 62 59 63 60 64 68 65 61 66
REMARK SMILES IDX 62 67 66 68 69 69 63 70 64 71 67 72 65 73 44 74 45 75 53 76
REMARK SMILES IDX 46 77 47 78 51 79 54 80 48 81 49 82 52 83 50 84
REMARK H PARENT 11 7 15 18 74 37 42 48
REMARK Flexibility Score: inf
ROOT
ATOM      1  C   UNL A   1      32.590  32.810  27.241  1.00  0.00     0.118 C 
ENDROOT
BRANCH   1   2
ATOM      2  C   UNL A   1      31.397  32.252  26.501  1.00  0.00     0.042 C 
BRANCH   2   3
ATOM      3  C   UNL A   1      31.404  30.750  26.372  1.00  0.00     0.118 C 
BRANCH   3   4
ATOM      4  N   UNL A   1      32.485  30.147  25.654  1.00  0.00    -0.352 N 
ATOM      5  C   UNL A   1      32.413  29.306  24.586  1.00  0.00     0.243 C 
ATOM      6  O   UNL A   1      33.471  28.949  24.065  1.00  0.00    -0.270 OA
ATOM      7  H   UNL A   1      33.390  30.367  25.971  1.00  0.00     0.163 HD
BRANCH   5   8
ATOM      8  C   UNL A   1      31.140  28.672  24.101  1.00  0.00     0.070 C 
ATOM      9  C   UNL A   1      28.901  26.703  23.882  1.00  0.00     0.012 C 
ATOM     10  C   UNL A   1      28.967  27.951  22.999  1.00  0.00     0.012 C 
ATOM     11  C   UNL A   1      27.732  28.843  23.240  1.00  0.00     0.008 C 
ATOM     12  C   UNL A   1      30.224  28.828  23.115  1.00  0.00    -0.062 C 
ATOM     13  C   UNL A   1      27.675  30.047  22.293  1.00  0.00     0.001 C 
ATOM     14  C   UNL A   1      30.187  29.851  21.998  1.00  0.00     0.031 C 
ATOM     15  C   UNL A   1      29.000  30.804  22.227  1.00  0.00     0.004 C 
ENDBRANCH   5   8
ENDBRANCH   3   4
ENDBRANCH   2   3
ENDBRANCH   1   2
BRANCH   1  16
ATOM     16  N   UNL A   1      32.422  34.203  27.650  1.00  0.00    -0.352 N 
ATOM     17  C   UNL A   1      33.015  34.957  28.636  1.00  0.00     0.251 C 
ATOM     18  H   UNL A   1      31.757  34.696  27.118  1.00  0.00     0.163 HD
ATOM     19  O   UNL A   1      32.574  36.081  28.881  1.00  0.00    -0.269 OA
BRANCH  17  20
ATOM     20  C   UNL A   1      34.147  34.432  29.430  1.00  0.00     0.039 A 
ATOM     21  C   UNL A   1      33.907  33.833  30.672  1.00  0.00     0.014 A 
ATOM     22  C   UNL A   1      35.454  34.536  28.968  1.00  0.00     0.014 A 
ATOM     23  C   UNL A   1      34.966  33.269  31.391  1.00  0.00     0.010 A 
ATOM     24  C   UNL A   1      36.470  33.829  29.590  1.00  0.00     0.010 A 
ATOM     25  C   UNL A   1      36.252  33.217  30.830  1.00  0.00    -0.014 A 
BRANCH  25  26
ATOM     26  C   UNL A   1      37.406  32.596  31.528  1.00  0.00     0.031 A 
ATOM     27  C   UNL A   1      38.144  31.454  30.874  1.00  0.00     0.074 A 
ATOM     28  C   UNL A   1      37.735  32.988  32.774  1.00  0.00     0.049 A 
ATOM     29  N   UNL A   1      39.087  30.685  31.357  1.00  0.00    -0.248 NA
ATOM     30  C   UNL A   1      37.729  31.094  29.506  1.00  0.00     0.031 C 
ATOM     31  C   UNL A   1      37.065  34.041  33.539  1.00  0.00     0.029 A 
ATOM     32  N   UNL A   1      38.717  32.539  33.621  1.00  0.00    -0.354 N 
ATOM     33  C   UNL A   1      39.346  29.742  30.371  1.00  0.00     0.074 A 
ATOM     34  C   UNL A   1      38.405  29.975  29.300  1.00  0.00     0.031 C 
ATOM     35  C   UNL A   1      37.680  34.186  34.723  1.00  0.00     0.029 A 
ATOM     36  C   UNL A   1      38.756  33.204  34.822  1.00  0.00     0.049 A 
ATOM     37  H   UNL A   1      39.335  31.808  33.390  1.00  0.00     0.167 HD
ATOM     38  C   UNL A   1      40.310  28.792  30.337  1.00  0.00     0.037 A 
ATOM     39  C   UNL A   1      39.569  33.037  35.883  1.00  0.00     0.037 A 
ATOM     40  C   UNL A   1      41.274  28.594  31.385  1.00  0.00     0.049 A 
ATOM     41  C   UNL A   1      40.633  31.974  35.823  1.00  0.00     0.074 A 
ATOM     42  C   UNL A   1      42.329  27.703  31.432  1.00  0.00     0.029 A 
ATOM     43  N   UNL A   1      41.298  29.309  32.575  1.00  0.00    -0.354 N 
ATOM     44  N   UNL A   1      40.912  31.131  34.859  1.00  0.00    -0.248 NA
ATOM     45  C   UNL A   1      41.502  31.845  37.001  1.00  0.00     0.031 C 
ATOM     46  C   UNL A   1      42.964  27.845  32.670  1.00  0.00     0.029 A 
ATOM     47  C   UNL A   1      42.341  28.867  33.369  1.00  0.00     0.049 A 
ATOM     48  H   UNL A   1      40.667  30.026  32.816  1.00  0.00     0.167 HD
ATOM     49  C   UNL A   1      42.010  30.401  35.294  1.00  0.00     0.074 A 
ATOM     50  C   UNL A   1      42.352  30.909  36.606  1.00  0.00     0.031 C 
ATOM     51  C   UNL A   1      42.677  29.401  34.665  1.00  0.00     0.037 A 
BRANCH  38  52
ATOM     52  C   UNL A   1      40.373  27.910  29.120  1.00  0.00     0.064 A 
ATOM     53  C   UNL A   1      41.148  28.251  27.999  1.00  0.00     0.173 A 
ATOM     54  C   UNL A   1      39.656  26.705  29.075  1.00  0.00     0.173 A 
ATOM     55  F   UNL A   1      41.842  29.400  27.983  1.00  0.00    -0.203 F 
ATOM     56  C   UNL A   1      41.166  27.445  26.865  1.00  0.00     0.198 A 
ATOM     57  C   UNL A   1      39.709  25.881  27.952  1.00  0.00     0.198 A 
ATOM     58  F   UNL A   1      38.903  26.324  30.117  1.00  0.00    -0.203 F 
ATOM     59  F   UNL A   1      41.857  27.830  25.783  1.00  0.00    -0.200 F 
ATOM     60  C   UNL A   1      40.452  26.257  26.845  1.00  0.00     0.200 A 
ATOM     61  F   UNL A   1      39.030  24.725  27.940  1.00  0.00    -0.200 F 
ATOM     62  F   UNL A   1      40.474  25.479  25.753  1.00  0.00    -0.200 F 
ENDBRANCH  38  52
BRANCH  39  63
ATOM     63  C   UNL A   1      39.440  33.924  37.070  1.00  0.00     0.064 A 
ATOM     64  C   UNL A   1      38.696  33.518  38.188  1.00  0.00     0.173 A 
ATOM     65  C   UNL A   1      40.044  35.188  37.114  1.00  0.00     0.173 A 
ATOM     66  F   UNL A   1      38.085  32.324  38.186  1.00  0.00    -0.203 F 
ATOM     67  C   UNL A   1      38.539  34.352  39.293  1.00  0.00     0.198 A 
ATOM     68  C   UNL A   1      39.913  36.010  38.233  1.00  0.00     0.198 A 
ATOM     69  F   UNL A   1      40.774  35.622  36.077  1.00  0.00    -0.203 F 
ATOM     70  F   UNL A   1      37.780  33.960  40.324  1.00  0.00    -0.200 F 
ATOM     71  C   UNL A   1      39.153  35.596  39.316  1.00  0.00     0.200 A 
ATOM     72  F   UNL A   1      40.521  37.204  38.260  1.00  0.00    -0.200 F 
ATOM     73  F   UNL A   1      39.004  36.398  40.379  1.00  0.00    -0.200 F 
ENDBRANCH  39  63
BRANCH  51  74
ATOM     74  C   UNL A   1      43.878  28.830  35.360  1.00  0.00     0.064 A 
ATOM     75  C   UNL A   1      45.170  29.331  35.141  1.00  0.00     0.173 A 
ATOM     76  C   UNL A   1      43.724  27.794  36.295  1.00  0.00     0.173 A 
ATOM     77  F   UNL A   1      45.372  30.311  34.248  1.00  0.00    -0.203 F 
ATOM     78  C   UNL A   1      46.268  28.793  35.808  1.00  0.00     0.198 A 
ATOM     79  C   UNL A   1      44.820  27.283  36.986  1.00  0.00     0.198 A 
ATOM     80  F   UNL A   1      42.510  27.286  36.550  1.00  0.00    -0.203 F 
ATOM     81  F   UNL A   1      47.499  29.248  35.542  1.00  0.00    -0.200 F 
ATOM     82  C   UNL A   1      46.090  27.777  36.735  1.00  0.00     0.200 A 
ATOM     83  F   UNL A   1      44.643  26.315  37.896  1.00  0.00    -0.200 F 
ATOM     84  F   UNL A   1      47.147  27.268  37.383  1.00  0.00    -0.200 F 
ENDBRANCH  51  74
ENDBRANCH  25  26
ENDBRANCH  17  20
ENDBRANCH   1  16
TORSDOF 10
ENDMDL
MODEL 2
REMARK VINA RESULT:     -12.2      1.961      8.077
REMARK SMILES C[C@H]1CCCC/C1=C\C(=O)NCCCNC(=O)c1ccc(-c2c3nc(c(-c4c(F)c(F)c(F)c(F)c4F)c4ccc([nH]4)c(-c4c(F)c(F)c(F)c(F)c4F)c4nc(c(-c5c(F)c(F)c(F)c(F)c5F)c5ccc2[nH]5)C=C4)C=C3)cc1
REMARK SMILES IDX 14 1 13 2 12 3 11 4 9 5 10 6 8 8 1 9 2 10 3 11 7 12 4 13
REMARK SMILES IDX 6 14 5 15 15 16 16 17 17 19 18 20 19 21 80 22 20 23 79 24
REMARK SMILES IDX 21 25 22 26 23 27 73 28 24 29 78 30 72 31 74 32 25 33 77 34
REMARK SMILES IDX 71 35 70 36 26 38 58 39 38 40 57 41 39 42 42 43 56 44 75 45
REMARK SMILES IDX 40 46 41 47 55 49 76 50 43 51 27 52 28 53 36 54 29 55 30 56
REMARK SMILES IDX 34 57 37 58 31 59 32 60 35 61 33 62 59 63 60 64 68 65 61 66
REMARK SMILES IDX 62 67 66 68 69 69 63 70 64 71 67 72 65 73 44 74 45 75 53 76
REMARK SMILES IDX 46 77 47 78 51 79 54 80 48 81 49 82 52 83 50 84
REMARK H PARENT 11 7 15 18 74 37 42 48
REMARK Flexibility Score: inf
ROOT
ATOM      1  C   UNL A   1      33.336  36.100  29.490  1.00  0.00     0.118 C 
ENDROOT
BRANCH   1   2
ATOM      2  C   UNL A   1      33.426  34.638  29.119  1.00  0.00     0.042 C 
BRANCH   2   3
ATOM      3  C   UNL A   1      34.450  34.338  28.054  1.00  0.00     0.118 C 
BRANCH   3   4
ATOM      4  N   UNL A   1      35.312  33.213  28.255  1.00  0.00    -0.352 N 
ATOM      5  C   UNL A   1      35.122  31.931  27.838  1.00  0.00     0.243 C 
ATOM      6  O   UNL A   1      36.023  31.118  28.054  1.00  0.00    -0.270 OA
ATOM      7  H   UNL A   1      36.141  33.386  28.754  1.00  0.00     0.163 HD
BRANCH   5   8
ATOM      8  C   UNL A   1      33.830  31.416  27.268  1.00  0.00     0.070 C 
ATOM      9  C   UNL A   1      31.063  31.442  26.138  1.00  0.00     0.012 C 
ATOM     10  C   UNL A   1      31.833  30.138  26.356  1.00  0.00     0.012 C 
ATOM     11  C   UNL A   1      32.029  29.402  25.014  1.00  0.00     0.008 C 
ATOM     12  C   UNL A   1      33.199  30.237  27.054  1.00  0.00    -0.062 C 
ATOM     13  C   UNL A   1      32.683  28.025  25.182  1.00  0.00     0.001 C 
ATOM     14  C   UNL A   1      33.663  28.831  27.378  1.00  0.00     0.031 C 
ATOM     15  C   UNL A   1      33.927  28.072  26.066  1.00  0.00     0.004 C 
ENDBRANCH   5   8
ENDBRANCH   3   4
ENDBRANCH   2   3
ENDBRANCH   1   2
BRANCH   1  16
ATOM     16  N   UNL A   1      32.504  36.352  30.666  1.00  0.00    -0.352 N 
ATOM     17  C   UNL A   1      32.590  35.923  31.970  1.00  0.00     0.251 C 
ATOM     18  H   UNL A   1      31.736  36.941  30.490  1.00  0.00     0.163 HD
ATOM     19  O   UNL A   1      31.658  36.154  32.741  1.00  0.00    -0.269 OA
BRANCH  17  20
ATOM     20  C   UNL A   1      33.761  35.161  32.454  1.00  0.00     0.039 A 
ATOM     21  C   UNL A   1      33.601  33.840  32.889  1.00  0.00     0.014 A 
ATOM     22  C   UNL A   1      35.024  35.741  32.498  1.00  0.00     0.014 A 
ATOM     23  C   UNL A   1      34.718  33.093  33.276  1.00  0.00     0.010 A 
ATOM     24  C   UNL A   1      36.144  34.955  32.712  1.00  0.00     0.010 A 
ATOM     25  C   UNL A   1      36.008  33.630  33.141  1.00  0.00    -0.014 A 
BRANCH  25  26
ATOM     26  C   UNL A   1      37.234  32.870  33.499  1.00  0.00     0.031 A 
ATOM     27  C   UNL A   1      37.942  33.170  34.797  1.00  0.00     0.074 A 
ATOM     28  C   UNL A   1      37.759  31.984  32.631  1.00  0.00     0.049 A 
ATOM     29  N   UNL A   1      39.091  32.727  35.241  1.00  0.00    -0.248 NA
ATOM     30  C   UNL A   1      37.295  34.144  35.695  1.00  0.00     0.031 C 
ATOM     31  C   UNL A   1      37.203  31.646  31.320  1.00  0.00     0.029 A 
ATOM     32  N   UNL A   1      38.888  31.210  32.720  1.00  0.00    -0.354 N 
ATOM     33  C   UNL A   1      39.310  33.388  36.443  1.00  0.00     0.074 A 
ATOM     34  C   UNL A   1      38.228  34.329  36.616  1.00  0.00     0.031 C 
ATOM     35  C   UNL A   1      37.967  30.703  30.747  1.00  0.00     0.029 A 
ATOM     36  C   UNL A   1      39.094  30.405  31.626  1.00  0.00     0.049 A 
ATOM     37  H   UNL A   1      39.495  31.229  33.495  1.00  0.00     0.167 HD
ATOM     38  C   UNL A   1      40.302  33.203  37.345  1.00  0.00     0.037 A 
ATOM     39  C   UNL A   1      40.082  29.529  31.364  1.00  0.00     0.037 A 
ATOM     40  C   UNL A   1      41.352  32.234  37.190  1.00  0.00     0.049 A 
ATOM     41  C   UNL A   1      41.175  29.340  32.381  1.00  0.00     0.074 A 
ATOM     42  C   UNL A   1      42.374  31.919  38.066  1.00  0.00     0.029 A 
ATOM     43  N   UNL A   1      41.509  31.416  36.079  1.00  0.00    -0.354 N 
ATOM     44  N   UNL A   1      41.338  29.924  33.543  1.00  0.00    -0.248 NA
ATOM     45  C   UNL A   1      42.219  28.360  32.052  1.00  0.00     0.031 C 
ATOM     46  C   UNL A   1      43.178  30.945  37.464  1.00  0.00     0.029 A 
ATOM     47  C   UNL A   1      42.621  30.609  36.240  1.00  0.00     0.049 A 
ATOM     48  H   UNL A   1      40.915  31.412  35.293  1.00  0.00     0.167 HD
ATOM     49  C   UNL A   1      42.476  29.356  34.102  1.00  0.00     0.074 A 
ATOM     50  C   UNL A   1      42.957  28.373  33.152  1.00  0.00     0.031 C 
ATOM     51  C   UNL A   1      43.070  29.622  35.291  1.00  0.00     0.037 A 
BRANCH  38  52
ATOM     52  C   UNL A   1      40.283  34.057  38.583  1.00  0.00     0.064 A 
ATOM     53  C   UNL A   1      40.969  35.282  38.647  1.00  0.00     0.173 A 
ATOM     54  C   UNL A   1      39.565  33.652  39.718  1.00  0.00     0.173 A 
ATOM     55  F   UNL A   1      41.684  35.711  37.595  1.00  0.00    -0.203 F 
ATOM     56  C   UNL A   1      40.975  36.043  39.812  1.00  0.00     0.198 A 
ATOM     57  C   UNL A   1      39.541  34.438  40.869  1.00  0.00     0.198 A 
ATOM     58  F   UNL A   1      38.887  32.495  39.715  1.00  0.00    -0.203 F 
ATOM     59  F   UNL A   1      41.696  37.172  39.868  1.00  0.00    -0.200 F 
ATOM     60  C   UNL A   1      40.255  35.624  40.920  1.00  0.00     0.200 A 
ATOM     61  F   UNL A   1      38.832  34.039  41.935  1.00  0.00    -0.200 F 
ATOM     62  F   UNL A   1      40.258  36.361  42.040  1.00  0.00    -0.200 F 
ENDBRANCH  38  52
BRANCH  39  63
ATOM     63  C   UNL A   1      40.060  28.732  30.108  1.00  0.00     0.064 A 
ATOM     64  C   UNL A   1      39.439  27.475  30.070  1.00  0.00     0.173 A 
ATOM     65  C   UNL A   1      40.660  29.198  28.930  1.00  0.00     0.173 A 
ATOM     66  F   UNL A   1      38.866  26.978  31.176  1.00  0.00    -0.203 F 
ATOM     67  C   UNL A   1      39.441  26.703  28.910  1.00  0.00     0.198 A 
ATOM     68  C   UNL A   1      40.635  28.439  27.760  1.00  0.00     0.198 A 
ATOM     69  F   UNL A   1      41.260  30.396  28.909  1.00  0.00    -0.203 F 
ATOM     70  F   UNL A   1      38.886  25.485  28.917  1.00  0.00    -0.200 F 
ATOM     71  C   UNL A   1      40.035  27.189  27.754  1.00  0.00     0.200 A 
ATOM     72  F   UNL A   1      41.194  28.918  26.641  1.00  0.00    -0.200 F 
ATOM     73  F   UNL A   1      40.036  26.448  26.637  1.00  0.00    -0.200 F 
ENDBRANCH  39  63
BRANCH  51  74
ATOM     74  C   UNL A   1      44.270  28.800  35.661  1.00  0.00     0.064 A 
ATOM     75  C   UNL A   1      45.571  29.187  35.307  1.00  0.00     0.173 A 
ATOM     76  C   UNL A   1      44.116  27.631  36.422  1.00  0.00     0.173 A 
ATOM     77  F   UNL A   1      45.772  30.289  34.569  1.00  0.00    -0.203 F 
ATOM     78  C   UNL A   1      46.671  28.414  35.674  1.00  0.00     0.198 A 
ATOM     79  C   UNL A   1      45.220  26.881  36.817  1.00  0.00     0.198 A 
ATOM     80  F   UNL A   1      42.895  27.222  36.795  1.00  0.00    -0.203 F 
ATOM     81  F   UNL A   1      47.900  28.772  35.277  1.00  0.00    -0.200 F 
ATOM     82  C   UNL A   1      46.495  27.269  36.434  1.00  0.00     0.200 A 
ATOM     83  F   UNL A   1      45.049  25.785  37.568  1.00  0.00    -0.200 F 
ATOM     84  F   UNL A   1      47.555  26.533  36.795  1.00  0.00    -0.200 F 
ENDBRANCH  51  74
ENDBRANCH  25  26
ENDBRANCH  17  20
ENDBRANCH   1  16
TORSDOF 10
ENDMDL
MODEL 3
REMARK VINA RESULT:     -12.2      0.204      1.692
REMARK SMILES C[C@H]1CCCC/C1=C\C(=O)NCCCNC(=O)c1ccc(-c2c3nc(c(-c4c(F)c(F)c(F)c(F)c4F)c4ccc([nH]4)c(-c4c(F)c(F)c(F)c(F)c4F)c4nc(c(-c5c(F)c(F)c(F)c(F)c5F)c5ccc2[nH]5)C=C4)C=C3)cc1
REMARK SMILES IDX 14 1 13 2 12 3 11 4 9 5 10 6 8 8 1 9 2 10 3 11 7 12 4 13
REMARK SMILES IDX 6 14 5 15 15 16 16 17 17 19 18 20 19 21 80 22 20 23 79 24
REMARK SMILES IDX 21 25 22 26 23 27 73 28 24 29 78 30 72 31 74 32 25 33 77 34
REMARK SMILES IDX 71 35 70 36 26 38 58 39 38 40 57 41 39 42 42 43 56 44 75 45
REMARK SMILES IDX 40 46 41 47 55 49 76 50 43 51 27 52 28 53 36 54 29 55 30 56
REMARK SMILES IDX 34 57 37 58 31 59 32 60 35 61 33 62 59 63 60 64 68 65 61 66
REMARK SMILES IDX 62 67 66 68 69 69 63 70 64 71 67 72 65 73 44 74 45 75 53 76
REMARK SMILES IDX 46 77 47 78 51 79 54 80 48 81 49 82 52 83 50 84
REMARK H PARENT 11 7 15 18 74 37 42 48
REMARK Flexibility Score: inf
ROOT
ATOM      1  C   UNL A   1      32.594  32.842  27.233  1.00  0.00     0.118 C 
ENDROOT
BRANCH   1   2
ATOM      2  C   UNL A   1      31.398  32.276  26.504  1.00  0.00     0.042 C 
BRANCH   2   3
ATOM      3  C   UNL A   1      31.405  30.773  26.389  1.00  0.00     0.118 C 
BRANCH   3   4
ATOM      4  N   UNL A   1      32.501  30.162  25.700  1.00  0.00    -0.352 N 
ATOM      5  C   UNL A   1      32.450  29.298  24.650  1.00  0.00     0.243 C 
ATOM      6  O   UNL A   1      33.519  28.937  24.151  1.00  0.00    -0.270 OA
ATOM      7  H   UNL A   1      33.400  30.395  26.025  1.00  0.00     0.163 HD
BRANCH   5   8
ATOM      8  C   UNL A   1      31.188  28.646  24.159  1.00  0.00     0.070 C 
ATOM      9  C   UNL A   1      28.953  26.671  23.966  1.00  0.00     0.012 C 
ATOM     10  C   UNL A   1      29.043  27.881  23.034  1.00  0.00     0.012 C 
ATOM     11  C   UNL A   1      27.804  28.783  23.207  1.00  0.00     0.008 C 
ATOM     12  C   UNL A   1      30.298  28.761  23.145  1.00  0.00    -0.062 C 
ATOM     13  C   UNL A   1      27.773  29.947  22.209  1.00  0.00     0.001 C 
ATOM     14  C   UNL A   1      30.291  29.737  21.986  1.00  0.00     0.031 C 
ATOM     15  C   UNL A   1      29.100  30.699  22.145  1.00  0.00     0.004 C 
ENDBRANCH   5   8
ENDBRANCH   3   4
ENDBRANCH   2   3
ENDBRANCH   1   2
BRANCH   1  16
ATOM     16  N   UNL A   1      32.413  34.228  27.660  1.00  0.00    -0.352 N 
ATOM     17  C   UNL A   1      33.008  34.979  28.647  1.00  0.00     0.251 C 
ATOM     18  H   UNL A   1      31.735  34.719  27.142  1.00  0.00     0.163 HD
ATOM     19  O   UNL A   1      32.557  36.094  28.910  1.00  0.00    -0.269 OA
BRANCH  17  20
ATOM     20  C   UNL A   1      34.157  34.461  29.421  1.00  0.00     0.039 A 
ATOM     21  C   UNL A   1      33.943  33.865  30.669  1.00  0.00     0.014 A 
ATOM     22  C   UNL A   1      35.455  34.568  28.934  1.00  0.00     0.014 A 
ATOM     23  C   UNL A   1      35.018  33.306  31.369  1.00  0.00     0.010 A 
ATOM     24  C   UNL A   1      36.486  33.866  29.538  1.00  0.00     0.010 A 
ATOM     25  C   UNL A   1      36.293  33.257  30.783  1.00  0.00    -0.014 A 
BRANCH  25  26
ATOM     26  C   UNL A   1      37.463  32.642  31.461  1.00  0.00     0.031 A 
ATOM     27  C   UNL A   1      38.205  31.515  30.786  1.00  0.00     0.074 A 
ATOM     28  C   UNL A   1      37.803  33.025  32.707  1.00  0.00     0.049 A 
ATOM     29  N   UNL A   1      39.162  30.752  31.251  1.00  0.00    -0.248 NA
ATOM     30  C   UNL A   1      37.777  31.164  29.420  1.00  0.00     0.031 C 
ATOM     31  C   UNL A   1      37.130  34.063  33.490  1.00  0.00     0.029 A 
ATOM     32  N   UNL A   1      38.799  32.579  33.537  1.00  0.00    -0.354 N 
ATOM     33  C   UNL A   1      39.420  29.822  30.252  1.00  0.00     0.074 A 
ATOM     34  C   UNL A   1      38.463  30.055  29.195  1.00  0.00     0.031 C 
ATOM     35  C   UNL A   1      37.758  34.203  34.668  1.00  0.00     0.029 A 
ATOM     36  C   UNL A   1      38.846  33.232  34.745  1.00  0.00     0.049 A 
ATOM     37  H   UNL A   1      39.422  31.857  33.292  1.00  0.00     0.167 HD
ATOM     38  C   UNL A   1      40.393  28.883  30.196  1.00  0.00     0.037 A 
ATOM     39  C   UNL A   1      39.673  33.064  35.793  1.00  0.00     0.037 A 
ATOM     40  C   UNL A   1      41.372  28.685  31.231  1.00  0.00     0.049 A 
ATOM     41  C   UNL A   1      40.749  32.013  35.710  1.00  0.00     0.074 A 
ATOM     42  C   UNL A   1      42.438  27.805  31.255  1.00  0.00     0.029 A 
ATOM     43  N   UNL A   1      41.403  29.389  32.427  1.00  0.00    -0.354 N 
ATOM     44  N   UNL A   1      41.025  31.183  34.734  1.00  0.00    -0.248 NA
ATOM     45  C   UNL A   1      41.634  31.883  36.876  1.00  0.00     0.031 C 
ATOM     46  C   UNL A   1      43.086  27.942  32.487  1.00  0.00     0.029 A 
ATOM     47  C   UNL A   1      42.461  28.950  33.204  1.00  0.00     0.049 A 
ATOM     48  H   UNL A   1      40.767  30.095  32.683  1.00  0.00     0.167 HD
ATOM     49  C   UNL A   1      42.137  30.461  35.148  1.00  0.00     0.074 A 
ATOM     50  C   UNL A   1      42.489  30.960  36.461  1.00  0.00     0.031 C 
ATOM     51  C   UNL A   1      42.806  29.475  34.501  1.00  0.00     0.037 A 
BRANCH  38  52
ATOM     52  C   UNL A   1      40.451  28.013  28.970  1.00  0.00     0.064 A 
ATOM     53  C   UNL A   1      39.745  26.801  28.890  1.00  0.00     0.173 A 
ATOM     54  C   UNL A   1      41.214  28.398  27.858  1.00  0.00     0.173 A 
ATOM     55  F   UNL A   1      39.010  26.378  29.930  1.00  0.00    -0.203 F 
ATOM     56  C   UNL A   1      39.838  25.988  27.764  1.00  0.00     0.198 A 
ATOM     57  C   UNL A   1      41.272  27.599  26.717  1.00  0.00     0.198 A 
ATOM     58  F   UNL A   1      41.906  29.547  27.874  1.00  0.00    -0.203 F 
ATOM     59  F   UNL A   1      39.211  24.803  27.744  1.00  0.00    -0.200 F 
ATOM     60  C   UNL A   1      40.596  26.391  26.676  1.00  0.00     0.200 A 
ATOM     61  F   UNL A   1      41.994  27.997  25.660  1.00  0.00    -0.200 F 
ATOM     62  F   UNL A   1      40.681  25.608  25.591  1.00  0.00    -0.200 F 
ENDBRANCH  38  52
BRANCH  39  63
ATOM     63  C   UNL A   1      39.550  33.937  36.990  1.00  0.00     0.064 A 
ATOM     64  C   UNL A   1      38.817  33.516  38.110  1.00  0.00     0.173 A 
ATOM     65  C   UNL A   1      40.147  35.204  37.043  1.00  0.00     0.173 A 
ATOM     66  F   UNL A   1      38.213  32.318  38.101  1.00  0.00    -0.203 F 
ATOM     67  C   UNL A   1      38.665  34.337  39.225  1.00  0.00     0.198 A 
ATOM     68  C   UNL A   1      40.020  36.014  38.172  1.00  0.00     0.198 A 
ATOM     69  F   UNL A   1      40.865  35.653  36.004  1.00  0.00    -0.203 F 
ATOM     70  F   UNL A   1      37.917  33.930  40.258  1.00  0.00    -0.200 F 
ATOM     71  C   UNL A   1      39.271  35.584  39.257  1.00  0.00     0.200 A 
ATOM     72  F   UNL A   1      40.622  37.211  38.207  1.00  0.00    -0.200 F 
ATOM     73  F   UNL A   1      39.127  36.374  40.330  1.00  0.00    -0.200 F 
ENDBRANCH  39  63
BRANCH  51  74
ATOM     74  C   UNL A   1      44.022  28.911  35.176  1.00  0.00     0.064 A 
ATOM     75  C   UNL A   1      43.941  27.830  36.067  1.00  0.00     0.173 A 
ATOM     76  C   UNL A   1      45.293  29.433  34.890  1.00  0.00     0.173 A 
ATOM     77  F   UNL A   1      42.750  27.303  36.384  1.00  0.00    -0.203 F 
ATOM     78  C   UNL A   1      45.086  27.314  36.670  1.00  0.00     0.198 A 
ATOM     79  C   UNL A   1      46.438  28.892  35.467  1.00  0.00     0.198 A 
ATOM     80  F   UNL A   1      45.427  30.460  34.037  1.00  0.00    -0.203 F 
ATOM     81  F   UNL A   1      44.980  26.319  37.561  1.00  0.00    -0.200 F 
ATOM     82  C   UNL A   1      46.332  27.840  36.364  1.00  0.00     0.200 A 
ATOM     83  F   UNL A   1      47.643  29.388  35.155  1.00  0.00    -0.200 F 
ATOM     84  F   UNL A   1      47.433  27.335  36.938  1.00  0.00    -0.200 F 
ENDBRANCH  51  74
ENDBRANCH  25  26
ENDBRANCH  17  20
ENDBRANCH   1  16
TORSDOF 10
ENDMDL
