MODEL 1
REMARK VINA RESULT:     -12.8      0.000      0.000
REMARK SMILES O=C(NCCCNC(=O)c1cc(O)ccc1NC(=O)c1ccc(Br)nc1)c1ccc(-c2c3nc(c(-c4c(F)c(F)c(F)c(F)c4F)c4ccc([nH]4)c(-c4c(F)c(F)c(F)c(F)c4F)c4nc(c(-c5c(F)c(F)c(F)c(F)c5F)c5ccc2[nH]5)C=C4)C=C3)cc1
REMARK SMILES IDX 5 1 4 2 3 3 1 4 2 5 27 7 28 8 89 9 29 10 88 11 30 12 31 13
REMARK SMILES IDX 32 14 82 15 33 16 87 17 81 18 83 19 34 20 86 21 80 22 79 23
REMARK SMILES IDX 35 25 67 26 47 27 66 28 48 29 51 30 65 31 84 32 49 33 50 34
REMARK SMILES IDX 64 36 85 37 52 38 36 39 37 40 45 41 38 42 39 43 43 44 46 45
REMARK SMILES IDX 40 46 41 47 44 48 42 49 68 50 69 51 77 52 70 53 71 54 75 55
REMARK SMILES IDX 78 56 72 57 73 58 76 59 74 60 53 61 54 62 62 63 55 64 56 65
REMARK SMILES IDX 60 66 63 67 57 68 58 69 61 70 59 71 6 72 7 73 8 74 9 76
REMARK SMILES IDX 10 77 11 78 16 79 12 80 15 81 14 82 17 83 18 84 19 86 20 87
REMARK SMILES IDX 21 88 26 89 22 90 25 91 23 92 24 93 13 94
REMARK H PARENT 3 6 83 24 51 35 7 75 17 85 13 95
REMARK Flexibility Score: inf
ROOT
ATOM      1  C   UNL A   1      31.333  32.367  26.981  1.00  0.00     0.042 C 
ENDROOT
BRANCH   1   2
ATOM      2  C   UNL A   1      32.664  33.097  27.086  1.00  0.00     0.118 C 
BRANCH   2   3
ATOM      3  N   UNL A   1      32.529  34.430  27.659  1.00  0.00    -0.352 N 
ATOM      4  O   UNL A   1      32.718  36.083  29.168  1.00  0.00    -0.269 OA
ATOM      5  C   UNL A   1      33.138  35.010  28.745  1.00  0.00     0.251 C 
ATOM      6  H   UNL A   1      31.894  35.015  27.186  1.00  0.00     0.163 HD
BRANCH   5   7
ATOM      7  C   UNL A   1      34.276  34.351  29.422  1.00  0.00     0.039 A 
ATOM      8  C   UNL A   1      35.591  34.570  29.009  1.00  0.00     0.014 A 
ATOM      9  C   UNL A   1      34.025  33.537  30.533  1.00  0.00     0.014 A 
ATOM     10  C   UNL A   1      36.632  33.858  29.594  1.00  0.00     0.010 A 
ATOM     11  C   UNL A   1      35.084  32.897  31.183  1.00  0.00     0.010 A 
ATOM     12  C   UNL A   1      36.393  33.025  30.698  1.00  0.00    -0.014 A 
BRANCH  12  13
ATOM     13  C   UNL A   1      37.533  32.338  31.357  1.00  0.00     0.031 A 
ATOM     14  C   UNL A   1      38.280  31.237  30.662  1.00  0.00     0.074 A 
ATOM     15  C   UNL A   1      37.902  32.730  32.592  1.00  0.00     0.049 A 
ATOM     16  N   UNL A   1      39.290  30.523  31.093  1.00  0.00    -0.248 NA
ATOM     17  C   UNL A   1      37.831  30.883  29.306  1.00  0.00     0.031 C 
ATOM     18  C   UNL A   1      37.247  33.783  33.371  1.00  0.00     0.029 A 
ATOM     19  N   UNL A   1      38.919  32.300  33.405  1.00  0.00    -0.354 N 
ATOM     20  C   UNL A   1      39.584  29.625  30.076  1.00  0.00     0.074 A 
ATOM     21  C   UNL A   1      38.628  29.864  29.014  1.00  0.00     0.031 C 
ATOM     22  C   UNL A   1      37.899  33.943  34.531  1.00  0.00     0.029 A 
ATOM     23  C   UNL A   1      38.979  32.964  34.605  1.00  0.00     0.049 A 
ATOM     24  H   UNL A   1      39.546  31.584  33.152  1.00  0.00     0.167 HD
ATOM     25  C   UNL A   1      40.566  28.693  30.030  1.00  0.00     0.037 A 
ATOM     26  C   UNL A   1      39.796  32.790  35.659  1.00  0.00     0.037 A 
ATOM     27  C   UNL A   1      41.524  28.471  31.084  1.00  0.00     0.049 A 
ATOM     28  C   UNL A   1      40.860  31.733  35.592  1.00  0.00     0.074 A 
ATOM     29  C   UNL A   1      42.581  27.577  31.117  1.00  0.00     0.029 A 
ATOM     30  N   UNL A   1      41.539  29.150  32.295  1.00  0.00    -0.354 N 
ATOM     31  N   UNL A   1      41.148  30.911  34.613  1.00  0.00    -0.248 NA
ATOM     32  C   UNL A   1      41.712  31.577  36.778  1.00  0.00     0.031 C 
ATOM     33  C   UNL A   1      43.204  27.680  32.365  1.00  0.00     0.029 A 
ATOM     34  C   UNL A   1      42.570  28.676  33.091  1.00  0.00     0.049 A 
ATOM     35  H   UNL A   1      40.909  29.861  32.551  1.00  0.00     0.167 HD
ATOM     36  C   UNL A   1      42.223  30.155  35.053  1.00  0.00     0.074 A 
ATOM     37  C   UNL A   1      42.547  30.627  36.385  1.00  0.00     0.031 C 
ATOM     38  C   UNL A   1      42.882  29.158  34.413  1.00  0.00     0.037 A 
BRANCH  25  39
ATOM     39  C   UNL A   1      40.647  27.824  28.808  1.00  0.00     0.064 A 
ATOM     40  C   UNL A   1      39.923  26.627  28.702  1.00  0.00     0.173 A 
ATOM     41  C   UNL A   1      41.430  28.215  27.711  1.00  0.00     0.173 A 
ATOM     42  F   UNL A   1      39.169  26.202  29.726  1.00  0.00    -0.203 F 
ATOM     43  C   UNL A   1      40.002  25.840  27.555  1.00  0.00     0.198 A 
ATOM     44  C   UNL A   1      41.485  27.440  26.554  1.00  0.00     0.198 A 
ATOM     45  F   UNL A   1      42.138  29.354  27.756  1.00  0.00    -0.203 F 
ATOM     46  F   UNL A   1      39.339  24.677  27.495  1.00  0.00    -0.200 F 
ATOM     47  C   UNL A   1      40.777  26.250  26.481  1.00  0.00     0.200 A 
ATOM     48  F   UNL A   1      42.225  27.844  25.513  1.00  0.00    -0.200 F 
ATOM     49  F   UNL A   1      40.849  25.494  25.376  1.00  0.00    -0.200 F 
ENDBRANCH  25  39
BRANCH  26  50
ATOM     50  C   UNL A   1      39.630  33.644  36.862  1.00  0.00     0.064 A 
ATOM     51  C   UNL A   1      40.268  34.887  36.959  1.00  0.00     0.173 A 
ATOM     52  C   UNL A   1      38.809  33.245  37.928  1.00  0.00     0.173 A 
ATOM     53  F   UNL A   1      41.077  35.304  35.973  1.00  0.00    -0.203 F 
ATOM     54  C   UNL A   1      40.098  35.696  38.081  1.00  0.00     0.198 A 
ATOM     55  C   UNL A   1      38.618  34.066  39.035  1.00  0.00     0.198 A 
ATOM     56  F   UNL A   1      38.173  32.065  37.879  1.00  0.00    -0.203 F 
ATOM     57  F   UNL A   1      40.746  36.866  38.164  1.00  0.00    -0.200 F 
ATOM     58  C   UNL A   1      39.267  35.289  39.114  1.00  0.00     0.200 A 
ATOM     59  F   UNL A   1      37.800  33.676  40.023  1.00  0.00    -0.200 F 
ATOM     60  F   UNL A   1      39.095  36.073  40.186  1.00  0.00    -0.200 F 
ENDBRANCH  26  50
BRANCH  38  61
ATOM     61  C   UNL A   1      44.039  28.531  35.133  1.00  0.00     0.064 A 
ATOM     62  C   UNL A   1      45.335  29.060  35.043  1.00  0.00     0.173 A 
ATOM     63  C   UNL A   1      43.842  27.407  35.948  1.00  0.00     0.173 A 
ATOM     64  F   UNL A   1      45.577  30.124  34.261  1.00  0.00    -0.203 F 
ATOM     65  C   UNL A   1      46.397  28.471  35.724  1.00  0.00     0.198 A 
ATOM     66  C   UNL A   1      44.900  26.838  36.651  1.00  0.00     0.198 A 
ATOM     67  F   UNL A   1      42.620  26.866  36.071  1.00  0.00    -0.203 F 
ATOM     68  F   UNL A   1      47.635  28.963  35.587  1.00  0.00    -0.200 F 
ATOM     69  C   UNL A   1      46.177  27.365  36.533  1.00  0.00     0.200 A 
ATOM     70  F   UNL A   1      44.683  25.777  37.440  1.00  0.00    -0.200 F 
ATOM     71  F   UNL A   1      47.198  26.803  37.194  1.00  0.00    -0.200 F 
ENDBRANCH  38  61
ENDBRANCH  12  13
ENDBRANCH   5   7
ENDBRANCH   2   3
ENDBRANCH   1   2
BRANCH   1  72
ATOM     72  C   UNL A   1      31.386  31.110  26.126  1.00  0.00     0.118 C 
BRANCH  72  73
ATOM     73  N   UNL A   1      32.089  30.011  26.781  1.00  0.00    -0.352 N 
ATOM     74  C   UNL A   1      32.164  28.681  26.430  1.00  0.00     0.253 C 
ATOM     75  H   UNL A   1      32.585  30.257  27.594  1.00  0.00     0.163 HD
ATOM     76  O   UNL A   1      32.625  27.861  27.212  1.00  0.00    -0.269 OA
BRANCH  74  77
ATOM     77  C   UNL A   1      31.621  28.241  25.125  1.00  0.00     0.067 A 
ATOM     78  C   UNL A   1      31.862  29.050  24.003  1.00  0.00     0.062 A 
ATOM     79  C   UNL A   1      30.850  27.066  25.024  1.00  0.00     0.054 A 
ATOM     80  C   UNL A   1      31.180  28.795  22.826  1.00  0.00     0.116 A 
ATOM     81  C   UNL A   1      30.107  26.897  23.852  1.00  0.00     0.031 A 
ATOM     82  C   UNL A   1      30.274  27.751  22.758  1.00  0.00     0.048 A 
BRANCH  79  83
ATOM     83  N   UNL A   1      30.855  26.132  26.090  1.00  0.00    -0.321 N 
ATOM     84  C   UNL A   1      31.547  24.958  26.302  1.00  0.00     0.257 C 
ATOM     85  H   UNL A   1      30.244  26.368  26.824  1.00  0.00     0.170 HD
ATOM     86  O   UNL A   1      31.269  24.226  27.249  1.00  0.00    -0.269 OA
BRANCH  84  87
ATOM     87  C   UNL A   1      32.660  24.557  25.433  1.00  0.00     0.058 A 
ATOM     88  C   UNL A   1      32.477  23.770  24.294  1.00  0.00     0.018 A 
ATOM     89  C   UNL A   1      33.947  24.933  25.783  1.00  0.00     0.126 A 
ATOM     90  C   UNL A   1      33.601  23.301  23.613  1.00  0.00     0.037 A 
ATOM     91  N   UNL A   1      35.053  24.490  25.138  1.00  0.00    -0.249 NA
ATOM     92  C   UNL A   1      34.857  23.670  24.079  1.00  0.00     0.106 A 
ATOM     93  Br  UNL A   1      36.393  22.949  23.234  1.00  0.00    -0.029 Br
ENDBRANCH  84  87
ENDBRANCH  79  83
BRANCH  80  94
ATOM     94  O   UNL A   1      31.333  29.582  21.728  1.00  0.00    -0.508 OA
ATOM     95  H   UNL A   1      31.989  30.251  21.718  1.00  0.00     0.293 HD
ENDBRANCH  80  94
ENDBRANCH  74  77
ENDBRANCH  72  73
ENDBRANCH   1  72
TORSDOF 13
ENDMDL
MODEL 2
REMARK VINA RESULT:     -12.8      2.195      3.258
REMARK SMILES O=C(NCCCNC(=O)c1cc(O)ccc1NC(=O)c1ccc(Br)nc1)c1ccc(-c2c3nc(c(-c4c(F)c(F)c(F)c(F)c4F)c4ccc([nH]4)c(-c4c(F)c(F)c(F)c(F)c4F)c4nc(c(-c5c(F)c(F)c(F)c(F)c5F)c5ccc2[nH]5)C=C4)C=C3)cc1
REMARK SMILES IDX 5 1 4 2 3 3 1 4 2 5 27 7 28 8 89 9 29 10 88 11 30 12 31 13
REMARK SMILES IDX 32 14 82 15 33 16 87 17 81 18 83 19 34 20 86 21 80 22 79 23
REMARK SMILES IDX 35 25 67 26 47 27 66 28 48 29 51 30 65 31 84 32 49 33 50 34
REMARK SMILES IDX 64 36 85 37 52 38 36 39 37 40 45 41 38 42 39 43 43 44 46 45
REMARK SMILES IDX 40 46 41 47 44 48 42 49 68 50 69 51 77 52 70 53 71 54 75 55
REMARK SMILES IDX 78 56 72 57 73 58 76 59 74 60 53 61 54 62 62 63 55 64 56 65
REMARK SMILES IDX 60 66 63 67 57 68 58 69 61 70 59 71 6 72 7 73 8 74 9 76
REMARK SMILES IDX 10 77 11 78 16 79 12 80 15 81 14 82 17 83 18 84 19 86 20 87
REMARK SMILES IDX 21 88 26 89 22 90 25 91 23 92 24 93 13 94
REMARK H PARENT 3 6 83 24 51 35 7 75 17 85 13 95
REMARK Flexibility Score: inf
ROOT
ATOM      1  C   UNL A   1      33.813  29.247  23.835  1.00  0.00     0.042 C 
ENDROOT
BRANCH   1   2
ATOM      2  C   UNL A   1      33.217  29.142  25.231  1.00  0.00     0.118 C 
BRANCH   2   3
ATOM      3  N   UNL A   1      32.734  30.423  25.732  1.00  0.00    -0.352 N 
ATOM      4  O   UNL A   1      32.441  32.129  27.162  1.00  0.00    -0.269 OA
ATOM      5  C   UNL A   1      33.130  31.177  26.808  1.00  0.00     0.251 C 
ATOM      6  H   UNL A   1      31.997  30.813  25.208  1.00  0.00     0.163 HD
BRANCH   5   7
ATOM      7  C   UNL A   1      34.362  30.847  27.558  1.00  0.00     0.039 A 
ATOM      8  C   UNL A   1      34.584  29.562  28.058  1.00  0.00     0.014 A 
ATOM      9  C   UNL A   1      35.343  31.832  27.718  1.00  0.00     0.014 A 
ATOM     10  C   UNL A   1      35.700  29.307  28.849  1.00  0.00     0.010 A 
ATOM     11  C   UNL A   1      36.511  31.546  28.430  1.00  0.00     0.010 A 
ATOM     12  C   UNL A   1      36.684  30.291  29.031  1.00  0.00    -0.014 A 
BRANCH  12  13
ATOM     13  C   UNL A   1      37.905  29.969  29.812  1.00  0.00     0.031 A 
ATOM     14  C   UNL A   1      38.963  29.061  29.255  1.00  0.00     0.074 A 
ATOM     15  C   UNL A   1      38.060  30.520  31.031  1.00  0.00     0.049 A 
ATOM     16  N   UNL A   1      40.085  28.665  29.803  1.00  0.00    -0.248 NA
ATOM     17  C   UNL A   1      38.731  28.518  27.907  1.00  0.00     0.031 C 
ATOM     18  C   UNL A   1      37.097  31.410  31.681  1.00  0.00     0.029 A 
ATOM     19  N   UNL A   1      39.086  30.423  31.937  1.00  0.00    -0.354 N 
ATOM     20  C   UNL A   1      40.681  27.815  28.882  1.00  0.00     0.074 A 
ATOM     21  C   UNL A   1      39.784  27.728  27.748  1.00  0.00     0.031 C 
ATOM     22  C   UNL A   1      37.591  31.807  32.862  1.00  0.00     0.029 A 
ATOM     23  C   UNL A   1      38.876  31.152  33.081  1.00  0.00     0.049 A 
ATOM     24  H   UNL A   1      39.894  29.882  31.782  1.00  0.00     0.167 HD
ATOM     25  C   UNL A   1      41.870  27.172  28.972  1.00  0.00     0.037 A 
ATOM     26  C   UNL A   1      39.624  31.266  34.194  1.00  0.00     0.037 A 
ATOM     27  C   UNL A   1      42.766  27.276  30.097  1.00  0.00     0.049 A 
ATOM     28  C   UNL A   1      40.926  30.523  34.277  1.00  0.00     0.074 A 
ATOM     29  C   UNL A   1      44.010  26.694  30.266  1.00  0.00     0.029 A 
ATOM     30  N   UNL A   1      42.508  28.008  31.247  1.00  0.00    -0.354 N 
ATOM     31  N   UNL A   1      41.493  29.746  33.387  1.00  0.00    -0.248 NA
ATOM     32  C   UNL A   1      41.691  30.670  35.522  1.00  0.00     0.031 C 
ATOM     33  C   UNL A   1      44.484  27.034  31.538  1.00  0.00     0.029 A 
ATOM     34  C   UNL A   1      43.559  27.872  32.141  1.00  0.00     0.049 A 
ATOM     35  H   UNL A   1      41.698  28.544  31.406  1.00  0.00     0.167 HD
ATOM     36  C   UNL A   1      42.688  29.327  33.952  1.00  0.00     0.074 A 
ATOM     37  C   UNL A   1      42.772  29.949  35.258  1.00  0.00     0.031 C 
ATOM     38  C   UNL A   1      43.629  28.500  33.436  1.00  0.00     0.037 A 
BRANCH  25  39
ATOM     39  C   UNL A   1      42.269  26.281  27.831  1.00  0.00     0.064 A 
ATOM     40  C   UNL A   1      41.774  24.974  27.704  1.00  0.00     0.173 A 
ATOM     41  C   UNL A   1      43.131  26.754  26.829  1.00  0.00     0.173 A 
ATOM     42  F   UNL A   1      40.957  24.469  28.640  1.00  0.00    -0.203 F 
ATOM     43  C   UNL A   1      42.147  24.166  26.633  1.00  0.00     0.198 A 
ATOM     44  C   UNL A   1      43.479  25.954  25.744  1.00  0.00     0.198 A 
ATOM     45  F   UNL A   1      43.629  27.998  26.897  1.00  0.00    -0.203 F 
ATOM     46  F   UNL A   1      41.698  22.906  26.558  1.00  0.00    -0.200 F 
ATOM     47  C   UNL A   1      42.993  24.659  25.651  1.00  0.00     0.200 A 
ATOM     48  F   UNL A   1      44.288  26.435  24.790  1.00  0.00    -0.200 F 
ATOM     49  F   UNL A   1      43.348  23.882  24.617  1.00  0.00    -0.200 F 
ENDBRANCH  25  39
BRANCH  26  50
ATOM     50  C   UNL A   1      39.148  32.118  35.311  1.00  0.00     0.064 A 
ATOM     51  C   UNL A   1      38.402  31.576  36.366  1.00  0.00     0.173 A 
ATOM     52  C   UNL A   1      39.451  33.487  35.361  1.00  0.00     0.173 A 
ATOM     53  F   UNL A   1      38.072  30.276  36.354  1.00  0.00    -0.203 F 
ATOM     54  C   UNL A   1      37.969  32.372  37.424  1.00  0.00     0.198 A 
ATOM     55  C   UNL A   1      39.043  34.276  36.433  1.00  0.00     0.198 A 
ATOM     56  F   UNL A   1      40.168  34.052  34.378  1.00  0.00    -0.203 F 
ATOM     57  F   UNL A   1      37.229  31.836  38.403  1.00  0.00    -0.200 F 
ATOM     58  C   UNL A   1      38.298  33.720  37.461  1.00  0.00     0.200 A 
ATOM     59  F   UNL A   1      39.377  35.573  36.472  1.00  0.00    -0.200 F 
ATOM     60  F   UNL A   1      37.892  34.482  38.485  1.00  0.00    -0.200 F 
ENDBRANCH  26  50
BRANCH  38  61
ATOM     61  C   UNL A   1      44.848  28.245  34.273  1.00  0.00     0.064 A 
ATOM     62  C   UNL A   1      45.970  29.083  34.215  1.00  0.00     0.173 A 
ATOM     63  C   UNL A   1      44.879  27.166  35.170  1.00  0.00     0.173 A 
ATOM     64  F   UNL A   1      45.995  30.118  33.360  1.00  0.00    -0.203 F 
ATOM     65  C   UNL A   1      47.089  28.837  35.005  1.00  0.00     0.198 A 
ATOM     66  C   UNL A   1      45.988  26.939  35.979  1.00  0.00     0.198 A 
ATOM     67  F   UNL A   1      43.828  26.337  35.267  1.00  0.00    -0.203 F 
ATOM     68  F   UNL A   1      48.169  29.624  34.899  1.00  0.00    -0.200 F 
ATOM     69  C   UNL A   1      47.094  27.771  35.891  1.00  0.00     0.200 A 
ATOM     70  F   UNL A   1      45.986  25.915  36.843  1.00  0.00    -0.200 F 
ATOM     71  F   UNL A   1      48.170  27.538  36.657  1.00  0.00    -0.200 F 
ENDBRANCH  38  61
ENDBRANCH  12  13
ENDBRANCH   5   7
ENDBRANCH   2   3
ENDBRANCH   1   2
BRANCH   1  72
ATOM     72  C   UNL A   1      32.858  28.832  22.725  1.00  0.00     0.118 C 
BRANCH  72  73
ATOM     73  N   UNL A   1      33.308  27.643  22.008  1.00  0.00    -0.352 N 
ATOM     74  C   UNL A   1      33.145  26.312  22.322  1.00  0.00     0.253 C 
ATOM     75  H   UNL A   1      33.799  27.819  21.174  1.00  0.00     0.163 HD
ATOM     76  O   UNL A   1      33.770  25.454  21.715  1.00  0.00    -0.269 OA
BRANCH  74  77
ATOM     77  C   UNL A   1      32.257  25.933  23.443  1.00  0.00     0.067 A 
ATOM     78  C   UNL A   1      30.872  25.925  23.216  1.00  0.00     0.062 A 
ATOM     79  C   UNL A   1      32.789  25.630  24.712  1.00  0.00     0.054 A 
ATOM     80  C   UNL A   1      30.010  25.805  24.291  1.00  0.00     0.116 A 
ATOM     81  C   UNL A   1      31.891  25.608  25.785  1.00  0.00     0.031 A 
ATOM     82  C   UNL A   1      30.511  25.690  25.577  1.00  0.00     0.048 A 
BRANCH  79  83
ATOM     83  N   UNL A   1      34.175  25.371  24.847  1.00  0.00    -0.321 N 
ATOM     84  C   UNL A   1      34.888  24.239  25.182  1.00  0.00     0.257 C 
ATOM     85  H   UNL A   1      34.742  26.155  24.666  1.00  0.00     0.170 HD
ATOM     86  O   UNL A   1      36.098  24.296  25.387  1.00  0.00    -0.269 OA
BRANCH  84  87
ATOM     87  C   UNL A   1      34.241  22.924  25.269  1.00  0.00     0.058 A 
ATOM     88  C   UNL A   1      34.002  22.285  26.488  1.00  0.00     0.018 A 
ATOM     89  C   UNL A   1      33.899  22.271  24.096  1.00  0.00     0.126 A 
ATOM     90  C   UNL A   1      33.529  20.972  26.476  1.00  0.00     0.037 A 
ATOM     91  N   UNL A   1      33.440  20.998  24.060  1.00  0.00    -0.249 NA
ATOM     92  C   UNL A   1      33.282  20.370  25.249  1.00  0.00     0.106 A 
ATOM     93  Br  UNL A   1      32.749  18.551  25.215  1.00  0.00    -0.029 Br
ENDBRANCH  84  87
ENDBRANCH  79  83
BRANCH  80  94
ATOM     94  O   UNL A   1      28.659  25.849  24.133  1.00  0.00    -0.508 OA
ATOM     95  H   UNL A   1      28.191  26.637  24.329  1.00  0.00     0.293 HD
ENDBRANCH  80  94
ENDBRANCH  74  77
ENDBRANCH  72  73
ENDBRANCH   1  72
TORSDOF 13
ENDMDL
MODEL 3
REMARK VINA RESULT:     -12.8      4.206      7.923
REMARK SMILES O=C(NCCCNC(=O)c1cc(O)ccc1NC(=O)c1ccc(Br)nc1)c1ccc(-c2c3nc(c(-c4c(F)c(F)c(F)c(F)c4F)c4ccc([nH]4)c(-c4c(F)c(F)c(F)c(F)c4F)c4nc(c(-c5c(F)c(F)c(F)c(F)c5F)c5ccc2[nH]5)C=C4)C=C3)cc1
REMARK SMILES IDX 5 1 4 2 3 3 1 4 2 5 27 7 28 8 89 9 29 10 88 11 30 12 31 13
REMARK SMILES IDX 32 14 82 15 33 16 87 17 81 18 83 19 34 20 86 21 80 22 79 23
REMARK SMILES IDX 35 25 67 26 47 27 66 28 48 29 51 30 65 31 84 32 49 33 50 34
REMARK SMILES IDX 64 36 85 37 52 38 36 39 37 40 45 41 38 42 39 43 43 44 46 45
REMARK SMILES IDX 40 46 41 47 44 48 42 49 68 50 69 51 77 52 70 53 71 54 75 55
REMARK SMILES IDX 78 56 72 57 73 58 76 59 74 60 53 61 54 62 62 63 55 64 56 65
REMARK SMILES IDX 60 66 63 67 57 68 58 69 61 70 59 71 6 72 7 73 8 74 9 76
REMARK SMILES IDX 10 77 11 78 16 79 12 80 15 81 14 82 17 83 18 84 19 86 20 87
REMARK SMILES IDX 21 88 26 89 22 90 25 91 23 92 24 93 13 94
REMARK H PARENT 3 6 83 24 51 35 7 75 17 85 13 95
REMARK Flexibility Score: inf
ROOT
ATOM      1  C   UNL A   1      35.778  24.142  24.873  1.00  0.00     0.042 C 
ENDROOT
BRANCH   1   2
ATOM      2  C   UNL A   1      36.126  23.401  26.155  1.00  0.00     0.118 C 
BRANCH   2   3
ATOM      3  N   UNL A   1      37.288  22.534  26.005  1.00  0.00    -0.352 N 
ATOM      4  O   UNL A   1      39.446  21.956  25.780  1.00  0.00    -0.269 OA
ATOM      5  C   UNL A   1      38.628  22.790  26.158  1.00  0.00     0.251 C 
ATOM      6  H   UNL A   1      37.075  21.607  25.751  1.00  0.00     0.163 HD
BRANCH   5   7
ATOM      7  C   UNL A   1      39.099  24.060  26.752  1.00  0.00     0.039 A 
ATOM      8  C   UNL A   1      39.766  25.016  25.984  1.00  0.00     0.014 A 
ATOM      9  C   UNL A   1      38.820  24.323  28.097  1.00  0.00     0.014 A 
ATOM     10  C   UNL A   1      40.290  26.153  26.590  1.00  0.00     0.010 A 
ATOM     11  C   UNL A   1      39.262  25.512  28.683  1.00  0.00     0.010 A 
ATOM     12  C   UNL A   1      40.031  26.422  27.943  1.00  0.00    -0.014 A 
BRANCH  12  13
ATOM     13  C   UNL A   1      40.533  27.682  28.547  1.00  0.00     0.031 A 
ATOM     14  C   UNL A   1      41.988  27.858  28.874  1.00  0.00     0.074 A 
ATOM     15  C   UNL A   1      39.661  28.680  28.786  1.00  0.00     0.049 A 
ATOM     16  N   UNL A   1      42.596  28.885  29.413  1.00  0.00    -0.248 NA
ATOM     17  C   UNL A   1      42.881  26.731  28.561  1.00  0.00     0.031 C 
ATOM     18  C   UNL A   1      38.223  28.623  28.519  1.00  0.00     0.029 A 
ATOM     19  N   UNL A   1      39.854  29.939  29.297  1.00  0.00    -0.354 N 
ATOM     20  C   UNL A   1      43.932  28.524  29.524  1.00  0.00     0.074 A 
ATOM     21  C   UNL A   1      44.044  27.170  29.021  1.00  0.00     0.031 C 
ATOM     22  C   UNL A   1      37.670  29.803  28.832  1.00  0.00     0.029 A 
ATOM     23  C   UNL A   1      38.700  30.678  29.379  1.00  0.00     0.049 A 
ATOM     24  H   UNL A   1      40.735  30.279  29.577  1.00  0.00     0.167 HD
ATOM     25  C   UNL A   1      44.969  29.257  29.996  1.00  0.00     0.037 A 
ATOM     26  C   UNL A   1      38.489  31.917  29.861  1.00  0.00     0.037 A 
ATOM     27  C   UNL A   1      44.852  30.610  30.480  1.00  0.00     0.049 A 
ATOM     28  C   UNL A   1      39.652  32.698  30.401  1.00  0.00     0.074 A 
ATOM     29  C   UNL A   1      45.850  31.450  30.943  1.00  0.00     0.029 A 
ATOM     30  N   UNL A   1      43.662  31.318  30.568  1.00  0.00    -0.354 N 
ATOM     31  N   UNL A   1      40.916  32.357  30.472  1.00  0.00    -0.248 NA
ATOM     32  C   UNL A   1      39.360  34.036  30.930  1.00  0.00     0.031 C 
ATOM     33  C   UNL A   1      45.258  32.649  31.356  1.00  0.00     0.029 A 
ATOM     34  C   UNL A   1      43.897  32.577  31.101  1.00  0.00     0.049 A 
ATOM     35  H   UNL A   1      42.780  30.977  30.294  1.00  0.00     0.167 HD
ATOM     36  C   UNL A   1      41.573  33.441  31.034  1.00  0.00     0.074 A 
ATOM     37  C   UNL A   1      40.569  34.459  31.271  1.00  0.00     0.031 C 
ATOM     38  C   UNL A   1      42.888  33.580  31.328  1.00  0.00     0.037 A 
BRANCH  25  39
ATOM     39  C   UNL A   1      46.322  28.608  30.031  1.00  0.00     0.064 A 
ATOM     40  C   UNL A   1      47.214  28.697  28.951  1.00  0.00     0.173 A 
ATOM     41  C   UNL A   1      46.748  27.918  31.176  1.00  0.00     0.173 A 
ATOM     42  F   UNL A   1      46.852  29.334  27.828  1.00  0.00    -0.203 F 
ATOM     43  C   UNL A   1      48.470  28.097  29.007  1.00  0.00     0.198 A 
ATOM     44  C   UNL A   1      48.016  27.344  31.240  1.00  0.00     0.198 A 
ATOM     45  F   UNL A   1      45.939  27.808  32.240  1.00  0.00    -0.203 F 
ATOM     46  F   UNL A   1      49.286  28.156  27.945  1.00  0.00    -0.200 F 
ATOM     47  C   UNL A   1      48.872  27.428  30.152  1.00  0.00     0.200 A 
ATOM     48  F   UNL A   1      48.407  26.707  32.352  1.00  0.00    -0.200 F 
ATOM     49  F   UNL A   1      50.083  26.854  30.206  1.00  0.00    -0.200 F 
ENDBRANCH  25  39
BRANCH  26  50
ATOM     50  C   UNL A   1      37.117  32.482  29.851  1.00  0.00     0.064 A 
ATOM     51  C   UNL A   1      36.243  32.273  30.926  1.00  0.00     0.173 A 
ATOM     52  C   UNL A   1      36.661  33.263  28.779  1.00  0.00     0.173 A 
ATOM     53  F   UNL A   1      36.627  31.518  31.966  1.00  0.00    -0.203 F 
ATOM     54  C   UNL A   1      34.960  32.818  30.925  1.00  0.00     0.198 A 
ATOM     55  C   UNL A   1      35.390  33.831  28.792  1.00  0.00     0.198 A 
ATOM     56  F   UNL A   1      37.463  33.496  27.730  1.00  0.00    -0.203 F 
ATOM     57  F   UNL A   1      34.132  32.575  31.949  1.00  0.00    -0.200 F 
ATOM     58  C   UNL A   1      34.538  33.603  29.861  1.00  0.00     0.200 A 
ATOM     59  F   UNL A   1      34.993  34.603  27.771  1.00  0.00    -0.200 F 
ATOM     60  F   UNL A   1      33.310  34.137  29.867  1.00  0.00    -0.200 F 
ENDBRANCH  26  50
BRANCH  38  61
ATOM     61  C   UNL A   1      43.323  34.892  31.911  1.00  0.00     0.064 A 
ATOM     62  C   UNL A   1      43.701  35.969  31.098  1.00  0.00     0.173 A 
ATOM     63  C   UNL A   1      43.331  35.082  33.301  1.00  0.00     0.173 A 
ATOM     64  F   UNL A   1      43.727  35.831  29.763  1.00  0.00    -0.203 F 
ATOM     65  C   UNL A   1      44.094  37.183  31.655  1.00  0.00     0.198 A 
ATOM     66  C   UNL A   1      43.697  36.306  33.854  1.00  0.00     0.198 A 
ATOM     67  F   UNL A   1      42.974  34.082  34.123  1.00  0.00    -0.203 F 
ATOM     68  F   UNL A   1      44.496  38.185  30.861  1.00  0.00    -0.200 F 
ATOM     69  C   UNL A   1      44.084  37.352  33.032  1.00  0.00     0.200 A 
ATOM     70  F   UNL A   1      43.676  36.470  35.184  1.00  0.00    -0.200 F 
ATOM     71  F   UNL A   1      44.457  38.523  33.567  1.00  0.00    -0.200 F 
ENDBRANCH  38  61
ENDBRANCH  12  13
ENDBRANCH   5   7
ENDBRANCH   2   3
ENDBRANCH   1   2
BRANCH   1  72
ATOM     72  C   UNL A   1      35.648  23.238  23.656  1.00  0.00     0.118 C 
BRANCH  72  73
ATOM     73  N   UNL A   1      34.516  22.321  23.752  1.00  0.00    -0.352 N 
ATOM     74  C   UNL A   1      33.176  22.550  23.530  1.00  0.00     0.253 C 
ATOM     75  H   UNL A   1      34.745  21.400  24.012  1.00  0.00     0.163 HD
ATOM     76  O   UNL A   1      32.344  21.717  23.862  1.00  0.00    -0.269 OA
BRANCH  74  77
ATOM     77  C   UNL A   1      32.746  23.841  22.948  1.00  0.00     0.067 A 
ATOM     78  C   UNL A   1      32.979  24.059  21.581  1.00  0.00     0.062 A 
ATOM     79  C   UNL A   1      32.158  24.835  23.754  1.00  0.00     0.054 A 
ATOM     80  C   UNL A   1      32.806  25.328  21.058  1.00  0.00     0.116 A 
ATOM     81  C   UNL A   1      32.087  26.124  23.216  1.00  0.00     0.031 A 
ATOM     82  C   UNL A   1      32.403  26.370  21.876  1.00  0.00     0.048 A 
BRANCH  79  83
ATOM     83  N   UNL A   1      31.681  24.499  25.045  1.00  0.00    -0.321 N 
ATOM     84  C   UNL A   1      31.776  25.124  26.270  1.00  0.00     0.257 C 
ATOM     85  H   UNL A   1      31.182  23.651  25.072  1.00  0.00     0.170 HD
ATOM     86  O   UNL A   1      31.407  24.557  27.296  1.00  0.00    -0.269 OA
BRANCH  84  87
ATOM     87  C   UNL A   1      32.284  26.496  26.393  1.00  0.00     0.058 A 
ATOM     88  C   UNL A   1      33.628  26.819  26.196  1.00  0.00     0.018 A 
ATOM     89  C   UNL A   1      31.405  27.500  26.767  1.00  0.00     0.126 A 
ATOM     90  C   UNL A   1      34.058  28.114  26.486  1.00  0.00     0.037 A 
ATOM     91  N   UNL A   1      31.799  28.763  27.055  1.00  0.00    -0.249 NA
ATOM     92  C   UNL A   1      33.118  29.039  26.926  1.00  0.00     0.106 A 
ATOM     93  Br  UNL A   1      33.706  30.768  27.432  1.00  0.00    -0.029 Br
ENDBRANCH  84  87
ENDBRANCH  79  83
BRANCH  80  94
ATOM     94  O   UNL A   1      33.073  25.606  19.753  1.00  0.00    -0.508 OA
ATOM     95  H   UNL A   1      32.867  26.451  19.403  1.00  0.00     0.293 HD
ENDBRANCH  80  94
ENDBRANCH  74  77
ENDBRANCH  72  73
ENDBRANCH   1  72
TORSDOF 13
ENDMDL
