MODEL 1
REMARK VINA RESULT:     -12.2      0.000      0.000
REMARK SMILES C[C@@H](C(=O)NCCCNC(=O)c1ccc(-c2c3nc(c(-c4c(F)c(F)c(F)c(F)c4F)c4ccc([nH]4)c(-c4c(F)c(F)c(F)c(F)c4F)c4nc(c(-c5c(F)c(F)c(F)c(F)c5F)c5ccc2[nH]5)C=C4)C=C3)cc1)c1ccc(C[C@H]2CCC[C@@H]2O)cc1Br
REMARK SMILES IDX 6 1 5 2 3 3 4 4 2 6 1 7 75 8 76 9 87 10 77 11 86 12 88 13
REMARK SMILES IDX 78 14 79 15 80 16 81 17 84 18 82 19 83 20 85 21 7 23 8 24
REMARK SMILES IDX 9 25 10 26 11 28 12 29 13 30 74 31 14 32 73 33 15 34 16 35
REMARK SMILES IDX 17 36 67 37 18 38 72 39 66 40 68 41 19 42 71 43 65 44 64 45
REMARK SMILES IDX 20 47 52 48 32 49 51 50 33 51 36 52 50 53 69 54 34 55 35 56
REMARK SMILES IDX 49 58 70 59 37 60 21 61 22 62 30 63 23 64 24 65 28 66 31 67
REMARK SMILES IDX 25 68 26 69 29 70 27 71 53 72 54 73 62 74 55 75 56 76 60 77
REMARK SMILES IDX 63 78 57 79 58 80 61 81 59 82 38 83 39 84 47 85 40 86 41 87
REMARK SMILES IDX 45 88 48 89 42 90 43 91 46 92 44 93
REMARK H PARENT 5 5 85 22 9 27 68 46 36 57
REMARK Flexibility Score: inf
ROOT
ATOM      1  C   UNL A   1      31.369  31.006  25.732  1.00  0.00     0.117 C 
ENDROOT
BRANCH   1   2
ATOM      2  N   UNL A   1      32.698  30.478  25.957  1.00  0.00    -0.356 N 
ATOM      3  C   UNL A   1      33.116  29.206  26.221  1.00  0.00     0.227 C 
ATOM      4  O   UNL A   1      34.320  29.062  26.441  1.00  0.00    -0.274 OA
ATOM      5  H   UNL A   1      33.420  31.146  25.909  1.00  0.00     0.163 HD
BRANCH   3   6
ATOM      6  C   UNL A   1      32.121  28.041  26.157  1.00  0.00     0.106 C 
ATOM      7  C   UNL A   1      31.510  27.650  27.508  1.00  0.00     0.023 C 
BRANCH   6   8
ATOM      8  C   UNL A   1      32.683  26.839  25.401  1.00  0.00    -0.022 A 
ATOM      9  C   UNL A   1      33.080  25.730  26.174  1.00  0.00     0.006 A 
ATOM     10  C   UNL A   1      32.833  26.747  24.006  1.00  0.00     0.022 A 
ATOM     11  C   UNL A   1      33.680  24.614  25.592  1.00  0.00     0.004 A 
ATOM     12  C   UNL A   1      33.473  25.640  23.432  1.00  0.00     0.019 A 
ATOM     13  Br  UNL A   1      32.197  28.054  22.779  1.00  0.00    -0.051 Br
ATOM     14  C   UNL A   1      33.944  24.586  24.223  1.00  0.00    -0.047 A 
BRANCH  14  15
ATOM     15  C   UNL A   1      34.746  23.466  23.609  1.00  0.00     0.041 C 
BRANCH  15  16
ATOM     16  C   UNL A   1      35.538  22.593  24.601  1.00  0.00     0.022 C 
ATOM     17  C   UNL A   1      35.058  21.139  24.762  1.00  0.00     0.007 C 
ATOM     18  C   UNL A   1      37.038  22.462  24.321  1.00  0.00     0.117 C 
ATOM     19  C   UNL A   1      36.320  20.299  24.989  1.00  0.00     0.003 C 
ATOM     20  C   UNL A   1      37.447  21.297  25.208  1.00  0.00     0.032 C 
BRANCH  18  21
ATOM     21  O   UNL A   1      37.745  23.647  24.635  1.00  0.00    -0.393 OA
ATOM     22  H   UNL A   1      38.616  23.626  24.208  1.00  0.00     0.210 HD
ENDBRANCH  18  21
ENDBRANCH  15  16
ENDBRANCH  14  15
ENDBRANCH   6   8
ENDBRANCH   3   6
ENDBRANCH   1   2
BRANCH   1  23
ATOM     23  C   UNL A   1      31.148  32.304  26.507  1.00  0.00     0.042 C 
BRANCH  23  24
ATOM     24  C   UNL A   1      32.387  32.802  27.250  1.00  0.00     0.118 C 
BRANCH  24  25
ATOM     25  N   UNL A   1      32.286  34.204  27.627  1.00  0.00    -0.352 N 
ATOM     26  C   UNL A   1      32.970  34.920  28.573  1.00  0.00     0.251 C 
ATOM     27  H   UNL A   1      31.620  34.722  27.118  1.00  0.00     0.163 HD
ATOM     28  O   UNL A   1      32.594  36.059  28.855  1.00  0.00    -0.269 OA
BRANCH  26  29
ATOM     29  C   UNL A   1      34.136  34.342  29.275  1.00  0.00     0.039 A 
ATOM     30  C   UNL A   1      33.923  33.700  30.498  1.00  0.00     0.014 A 
ATOM     31  C   UNL A   1      35.434  34.466  28.770  1.00  0.00     0.014 A 
ATOM     32  C   UNL A   1      34.998  33.134  31.185  1.00  0.00     0.010 A 
ATOM     33  C   UNL A   1      36.498  33.843  29.422  1.00  0.00     0.010 A 
ATOM     34  C   UNL A   1      36.291  33.170  30.636  1.00  0.00    -0.014 A 
BRANCH  34  35
ATOM     35  C   UNL A   1      37.421  32.490  31.317  1.00  0.00     0.031 A 
ATOM     36  C   UNL A   1      38.129  31.336  30.664  1.00  0.00     0.074 A 
ATOM     37  C   UNL A   1      37.784  32.894  32.551  1.00  0.00     0.049 A 
ATOM     38  N   UNL A   1      39.118  30.608  31.120  1.00  0.00    -0.248 NA
ATOM     39  C   UNL A   1      37.651  30.931  29.334  1.00  0.00     0.031 C 
ATOM     40  C   UNL A   1      37.140  33.966  33.311  1.00  0.00     0.029 A 
ATOM     41  N   UNL A   1      38.778  32.446  33.384  1.00  0.00    -0.354 N 
ATOM     42  C   UNL A   1      39.377  29.662  30.138  1.00  0.00     0.074 A 
ATOM     43  C   UNL A   1      38.409  29.873  29.083  1.00  0.00     0.031 C 
ATOM     44  C   UNL A   1      37.766  34.106  34.489  1.00  0.00     0.029 A 
ATOM     45  C   UNL A   1      38.834  33.115  34.583  1.00  0.00     0.049 A 
ATOM     46  H   UNL A   1      39.391  31.713  33.148  1.00  0.00     0.167 HD
ATOM     47  C   UNL A   1      40.351  28.720  30.107  1.00  0.00     0.037 A 
ATOM     48  C   UNL A   1      39.651  32.947  35.639  1.00  0.00     0.037 A 
ATOM     49  C   UNL A   1      41.324  28.521  31.151  1.00  0.00     0.049 A 
ATOM     50  C   UNL A   1      40.724  31.894  35.576  1.00  0.00     0.074 A 
ATOM     51  C   UNL A   1      42.375  27.622  31.192  1.00  0.00     0.029 A 
ATOM     52  N   UNL A   1      41.362  29.232  32.341  1.00  0.00    -0.354 N 
ATOM     53  N   UNL A   1      41.000  31.050  34.612  1.00  0.00    -0.248 NA
ATOM     54  C   UNL A   1      41.607  31.779  36.745  1.00  0.00     0.031 C 
ATOM     55  C   UNL A   1      43.026  27.763  32.421  1.00  0.00     0.029 A 
ATOM     56  C   UNL A   1      42.408  28.781  33.129  1.00  0.00     0.049 A 
ATOM     57  H   UNL A   1      40.737  29.952  32.589  1.00  0.00     0.167 HD
ATOM     58  C   UNL A   1      42.096  30.319  35.048  1.00  0.00     0.074 A 
ATOM     59  C   UNL A   1      42.451  30.838  36.353  1.00  0.00     0.031 C 
ATOM     60  C   UNL A   1      42.748  29.306  34.426  1.00  0.00     0.037 A 
BRANCH  47  61
ATOM     61  C   UNL A   1      40.425  27.836  28.897  1.00  0.00     0.064 A 
ATOM     62  C   UNL A   1      39.702  26.635  28.823  1.00  0.00     0.173 A 
ATOM     63  C   UNL A   1      41.181  28.215  27.778  1.00  0.00     0.173 A 
ATOM     64  F   UNL A   1      38.972  26.222  29.870  1.00  0.00    -0.203 F 
ATOM     65  C   UNL A   1      39.750  25.838  27.682  1.00  0.00     0.198 A 
ATOM     66  C   UNL A   1      41.204  27.429  26.628  1.00  0.00     0.198 A 
ATOM     67  F   UNL A   1      41.886  29.356  27.793  1.00  0.00    -0.203 F 
ATOM     68  F   UNL A   1      39.081  24.677  27.650  1.00  0.00    -0.200 F 
ATOM     69  C   UNL A   1      40.493  26.239  26.583  1.00  0.00     0.200 A 
ATOM     70  F   UNL A   1      41.913  27.825  25.562  1.00  0.00    -0.200 F 
ATOM     71  F   UNL A   1      40.529  25.477  25.481  1.00  0.00    -0.200 F 
ENDBRANCH  47  61
BRANCH  48  72
ATOM     72  C   UNL A   1      39.498  33.806  36.841  1.00  0.00     0.064 A 
ATOM     73  C   UNL A   1      38.715  33.396  37.927  1.00  0.00     0.173 A 
ATOM     74  C   UNL A   1      40.124  35.060  36.922  1.00  0.00     0.173 A 
ATOM     75  F   UNL A   1      38.081  32.214  37.887  1.00  0.00    -0.203 F 
ATOM     76  C   UNL A   1      38.539  34.217  39.040  1.00  0.00     0.198 A 
ATOM     77  C   UNL A   1      39.972  35.867  38.047  1.00  0.00     0.198 A 
ATOM     78  F   UNL A   1      40.889  35.496  35.912  1.00  0.00    -0.203 F 
ATOM     79  F   UNL A   1      37.744  33.822  40.042  1.00  0.00    -0.200 F 
ATOM     80  C   UNL A   1      39.173  35.450  39.100  1.00  0.00     0.200 A 
ATOM     81  F   UNL A   1      40.597  37.051  38.109  1.00  0.00    -0.200 F 
ATOM     82  F   UNL A   1      39.005  36.238  40.171  1.00  0.00    -0.200 F 
ENDBRANCH  48  72
BRANCH  60  83
ATOM     83  C   UNL A   1      43.921  28.708  35.145  1.00  0.00     0.064 A 
ATOM     84  C   UNL A   1      45.224  29.195  34.959  1.00  0.00     0.173 A 
ATOM     85  C   UNL A   1      43.739  27.645  36.044  1.00  0.00     0.173 A 
ATOM     86  F   UNL A   1      45.452  30.198  34.098  1.00  0.00    -0.203 F 
ATOM     87  C   UNL A   1      46.304  28.619  35.621  1.00  0.00     0.198 A 
ATOM     88  C   UNL A   1      44.818  27.092  36.726  1.00  0.00     0.198 A 
ATOM     89  F   UNL A   1      42.513  27.147  36.262  1.00  0.00    -0.203 F 
ATOM     90  F   UNL A   1      47.546  29.064  35.385  1.00  0.00    -0.200 F 
ATOM     91  C   UNL A   1      46.100  27.572  36.508  1.00  0.00     0.200 A 
ATOM     92  F   UNL A   1      44.619  26.088  37.593  1.00  0.00    -0.200 F 
ATOM     93  F   UNL A   1      47.143  27.020  37.144  1.00  0.00    -0.200 F 
ENDBRANCH  60  83
ENDBRANCH  34  35
ENDBRANCH  26  29
ENDBRANCH  24  25
ENDBRANCH  23  24
ENDBRANCH   1  23
TORSDOF 14
ENDMDL
MODEL 2
REMARK VINA RESULT:     -12.1      2.471      7.900
REMARK SMILES C[C@@H](C(=O)NCCCNC(=O)c1ccc(-c2c3nc(c(-c4c(F)c(F)c(F)c(F)c4F)c4ccc([nH]4)c(-c4c(F)c(F)c(F)c(F)c4F)c4nc(c(-c5c(F)c(F)c(F)c(F)c5F)c5ccc2[nH]5)C=C4)C=C3)cc1)c1ccc(C[C@H]2CCC[C@@H]2O)cc1Br
REMARK SMILES IDX 6 1 5 2 3 3 4 4 2 6 1 7 75 8 76 9 87 10 77 11 86 12 88 13
REMARK SMILES IDX 78 14 79 15 80 16 81 17 84 18 82 19 83 20 85 21 7 23 8 24
REMARK SMILES IDX 9 25 10 26 11 28 12 29 13 30 74 31 14 32 73 33 15 34 16 35
REMARK SMILES IDX 17 36 67 37 18 38 72 39 66 40 68 41 19 42 71 43 65 44 64 45
REMARK SMILES IDX 20 47 52 48 32 49 51 50 33 51 36 52 50 53 69 54 34 55 35 56
REMARK SMILES IDX 49 58 70 59 37 60 21 61 22 62 30 63 23 64 24 65 28 66 31 67
REMARK SMILES IDX 25 68 26 69 29 70 27 71 53 72 54 73 62 74 55 75 56 76 60 77
REMARK SMILES IDX 63 78 57 79 58 80 61 81 59 82 38 83 39 84 47 85 40 86 41 87
REMARK SMILES IDX 45 88 48 89 42 90 43 91 46 92 44 93
REMARK H PARENT 5 5 85 22 9 27 68 46 36 57
REMARK Flexibility Score: inf
ROOT
ATOM      1  C   UNL A   1      31.386  27.539  25.703  1.00  0.00     0.117 C 
ENDROOT
BRANCH   1   2
ATOM      2  N   UNL A   1      31.203  26.328  26.475  1.00  0.00    -0.356 N 
ATOM      3  C   UNL A   1      31.165  25.021  26.085  1.00  0.00     0.227 C 
ATOM      4  O   UNL A   1      30.920  24.195  26.965  1.00  0.00    -0.274 OA
ATOM      5  H   UNL A   1      31.088  26.471  27.443  1.00  0.00     0.163 HD
BRANCH   3   6
ATOM      6  C   UNL A   1      31.496  24.643  24.636  1.00  0.00     0.106 C 
ATOM      7  C   UNL A   1      30.280  24.558  23.705  1.00  0.00     0.023 C 
BRANCH   6   8
ATOM      8  C   UNL A   1      32.384  23.403  24.549  1.00  0.00    -0.022 A 
ATOM      9  C   UNL A   1      31.780  22.219  24.083  1.00  0.00     0.006 A 
ATOM     10  C   UNL A   1      33.748  23.348  24.887  1.00  0.00     0.022 A 
ATOM     11  C   UNL A   1      32.478  21.013  24.041  1.00  0.00     0.004 A 
ATOM     12  C   UNL A   1      34.431  22.124  24.882  1.00  0.00     0.019 A 
ATOM     13  Br  UNL A   1      34.788  24.867  25.363  1.00  0.00    -0.051 Br
ATOM     14  C   UNL A   1      33.791  20.939  24.504  1.00  0.00    -0.047 A 
BRANCH  14  15
ATOM     15  C   UNL A   1      34.499  19.613  24.627  1.00  0.00     0.041 C 
BRANCH  15  16
ATOM     16  C   UNL A   1      33.615  18.366  24.434  1.00  0.00     0.022 C 
ATOM     17  C   UNL A   1      34.071  17.367  23.356  1.00  0.00     0.007 C 
ATOM     18  C   UNL A   1      33.403  17.501  25.680  1.00  0.00     0.117 C 
ATOM     19  C   UNL A   1      33.703  15.976  23.883  1.00  0.00     0.003 C 
ATOM     20  C   UNL A   1      32.829  16.216  25.105  1.00  0.00     0.032 C 
BRANCH  18  21
ATOM     21  O   UNL A   1      32.528  18.108  26.610  1.00  0.00    -0.393 OA
ATOM     22  H   UNL A   1      31.779  18.504  26.139  1.00  0.00     0.210 HD
ENDBRANCH  18  21
ENDBRANCH  15  16
ENDBRANCH  14  15
ENDBRANCH   6   8
ENDBRANCH   3   6
ENDBRANCH   1   2
BRANCH   1  23
ATOM     23  C   UNL A   1      31.806  28.708  26.592  1.00  0.00     0.042 C 
BRANCH  23  24
ATOM     24  C   UNL A   1      32.868  29.612  25.970  1.00  0.00     0.118 C 
BRANCH  24  25
ATOM     25  N   UNL A   1      32.698  31.010  26.339  1.00  0.00    -0.352 N 
ATOM     26  C   UNL A   1      33.372  31.775  27.253  1.00  0.00     0.251 C 
ATOM     27  H   UNL A   1      31.983  31.482  25.852  1.00  0.00     0.163 HD
ATOM     28  O   UNL A   1      32.940  32.892  27.539  1.00  0.00    -0.269 OA
BRANCH  26  29
ATOM     29  C   UNL A   1      34.596  31.275  27.914  1.00  0.00     0.039 A 
ATOM     30  C   UNL A   1      35.684  32.144  28.042  1.00  0.00     0.014 A 
ATOM     31  C   UNL A   1      34.703  29.955  28.364  1.00  0.00     0.014 A 
ATOM     32  C   UNL A   1      36.853  31.710  28.669  1.00  0.00     0.010 A 
ATOM     33  C   UNL A   1      35.845  29.542  29.049  1.00  0.00     0.010 A 
ATOM     34  C   UNL A   1      36.932  30.416  29.209  1.00  0.00    -0.014 A 
BRANCH  34  35
ATOM     35  C   UNL A   1      38.138  29.980  29.957  1.00  0.00     0.031 A 
ATOM     36  C   UNL A   1      38.400  30.479  31.351  1.00  0.00     0.074 A 
ATOM     37  C   UNL A   1      39.024  29.160  29.357  1.00  0.00     0.049 A 
ATOM     38  N   UNL A   1      39.411  30.225  32.144  1.00  0.00    -0.248 NA
ATOM     39  C   UNL A   1      37.406  31.400  31.923  1.00  0.00     0.031 C 
ATOM     40  C   UNL A   1      38.910  28.651  27.989  1.00  0.00     0.029 A 
ATOM     41  N   UNL A   1      40.196  28.616  29.817  1.00  0.00    -0.354 N 
ATOM     42  C   UNL A   1      39.178  30.954  33.302  1.00  0.00     0.074 A 
ATOM     43  C   UNL A   1      37.956  31.702  33.090  1.00  0.00     0.031 C 
ATOM     44  C   UNL A   1      39.956  27.854  27.728  1.00  0.00     0.029 A 
ATOM     45  C   UNL A   1      40.832  27.820  28.896  1.00  0.00     0.049 A 
ATOM     46  H   UNL A   1      40.549  28.781  30.721  1.00  0.00     0.167 HD
ATOM     47  C   UNL A   1      39.902  30.978  34.446  1.00  0.00     0.037 A 
ATOM     48  C   UNL A   1      41.992  27.144  28.980  1.00  0.00     0.037 A 
ATOM     49  C   UNL A   1      41.109  30.222  34.661  1.00  0.00     0.049 A 
ATOM     50  C   UNL A   1      42.775  27.186  30.265  1.00  0.00     0.074 A 
ATOM     51  C   UNL A   1      41.890  30.146  35.801  1.00  0.00     0.029 A 
ATOM     52  N   UNL A   1      41.713  29.411  33.711  1.00  0.00    -0.354 N 
ATOM     53  N   UNL A   1      42.508  27.828  31.375  1.00  0.00    -0.248 NA
ATOM     54  C   UNL A   1      44.016  26.401  30.309  1.00  0.00     0.031 C 
ATOM     55  C   UNL A   1      42.985  29.320  35.529  1.00  0.00     0.029 A 
ATOM     56  C   UNL A   1      42.863  28.844  34.234  1.00  0.00     0.049 A 
ATOM     57  H   UNL A   1      41.372  29.260  32.799  1.00  0.00     0.167 HD
ATOM     58  C   UNL A   1      43.533  27.510  32.255  1.00  0.00     0.074 A 
ATOM     59  C   UNL A   1      44.414  26.596  31.557  1.00  0.00     0.031 C 
ATOM     60  C   UNL A   1      43.731  27.938  33.526  1.00  0.00     0.037 A 
BRANCH  47  61
ATOM     61  C   UNL A   1      39.403  31.841  35.568  1.00  0.00     0.064 A 
ATOM     62  C   UNL A   1      38.515  31.343  36.534  1.00  0.00     0.173 A 
ATOM     63  C   UNL A   1      39.857  33.161  35.713  1.00  0.00     0.173 A 
ATOM     64  F   UNL A   1      38.043  30.092  36.435  1.00  0.00    -0.203 F 
ATOM     65  C   UNL A   1      38.084  32.141  37.591  1.00  0.00     0.198 A 
ATOM     66  C   UNL A   1      39.446  33.947  36.787  1.00  0.00     0.198 A 
ATOM     67  F   UNL A   1      40.711  33.684  34.820  1.00  0.00    -0.203 F 
ATOM     68  F   UNL A   1      37.206  31.656  38.480  1.00  0.00    -0.200 F 
ATOM     69  C   UNL A   1      38.556  33.439  37.722  1.00  0.00     0.200 A 
ATOM     70  F   UNL A   1      39.913  35.196  36.918  1.00  0.00    -0.200 F 
ATOM     71  F   UNL A   1      38.150  34.201  38.746  1.00  0.00    -0.200 F 
ENDBRANCH  47  61
BRANCH  48  72
ATOM     72  C   UNL A   1      42.477  26.352  27.820  1.00  0.00     0.064 A 
ATOM     73  C   UNL A   1      42.028  25.043  27.600  1.00  0.00     0.173 A 
ATOM     74  C   UNL A   1      43.409  26.883  26.916  1.00  0.00     0.173 A 
ATOM     75  F   UNL A   1      41.152  24.485  28.450  1.00  0.00    -0.203 F 
ATOM     76  C   UNL A   1      42.510  24.285  26.535  1.00  0.00     0.198 A 
ATOM     77  C   UNL A   1      43.868  26.136  25.834  1.00  0.00     0.198 A 
ATOM     78  F   UNL A   1      43.866  28.133  27.079  1.00  0.00    -0.203 F 
ATOM     79  F   UNL A   1      42.103  23.019  26.377  1.00  0.00    -0.200 F 
ATOM     80  C   UNL A   1      43.427  24.835  25.650  1.00  0.00     0.200 A 
ATOM     81  F   UNL A   1      44.742  26.674  24.973  1.00  0.00    -0.200 F 
ATOM     82  F   UNL A   1      43.889  24.106  24.625  1.00  0.00    -0.200 F 
ENDBRANCH  48  72
BRANCH  60  83
ATOM     83  C   UNL A   1      44.936  27.408  34.244  1.00  0.00     0.064 A 
ATOM     84  C   UNL A   1      46.156  28.102  34.244  1.00  0.00     0.173 A 
ATOM     85  C   UNL A   1      44.867  26.200  34.956  1.00  0.00     0.173 A 
ATOM     86  F   UNL A   1      46.277  29.253  33.565  1.00  0.00    -0.203 F 
ATOM     87  C   UNL A   1      47.270  27.590  34.903  1.00  0.00     0.198 A 
ATOM     88  C   UNL A   1      45.976  25.707  35.637  1.00  0.00     0.198 A 
ATOM     89  F   UNL A   1      43.723  25.501  34.992  1.00  0.00    -0.203 F 
ATOM     90  F   UNL A   1      48.439  28.242  34.842  1.00  0.00    -0.200 F 
ATOM     91  C   UNL A   1      47.178  26.396  35.603  1.00  0.00     0.200 A 
ATOM     92  F   UNL A   1      45.882  24.559  36.324  1.00  0.00    -0.200 F 
ATOM     93  F   UNL A   1      48.253  25.905  36.236  1.00  0.00    -0.200 F 
ENDBRANCH  60  83
ENDBRANCH  34  35
ENDBRANCH  26  29
ENDBRANCH  24  25
ENDBRANCH  23  24
ENDBRANCH   1  23
TORSDOF 14
ENDMDL
MODEL 3
REMARK VINA RESULT:     -12.1      0.668      7.460
REMARK SMILES C[C@@H](C(=O)NCCCNC(=O)c1ccc(-c2c3nc(c(-c4c(F)c(F)c(F)c(F)c4F)c4ccc([nH]4)c(-c4c(F)c(F)c(F)c(F)c4F)c4nc(c(-c5c(F)c(F)c(F)c(F)c5F)c5ccc2[nH]5)C=C4)C=C3)cc1)c1ccc(C[C@H]2CCC[C@@H]2O)cc1Br
REMARK SMILES IDX 6 1 5 2 3 3 4 4 2 6 1 7 75 8 76 9 87 10 77 11 86 12 88 13
REMARK SMILES IDX 78 14 79 15 80 16 81 17 84 18 82 19 83 20 85 21 7 23 8 24
REMARK SMILES IDX 9 25 10 26 11 28 12 29 13 30 74 31 14 32 73 33 15 34 16 35
REMARK SMILES IDX 17 36 67 37 18 38 72 39 66 40 68 41 19 42 71 43 65 44 64 45
REMARK SMILES IDX 20 47 52 48 32 49 51 50 33 51 36 52 50 53 69 54 34 55 35 56
REMARK SMILES IDX 49 58 70 59 37 60 21 61 22 62 30 63 23 64 24 65 28 66 31 67
REMARK SMILES IDX 25 68 26 69 29 70 27 71 53 72 54 73 62 74 55 75 56 76 60 77
REMARK SMILES IDX 63 78 57 79 58 80 61 81 59 82 38 83 39 84 47 85 40 86 41 87
REMARK SMILES IDX 45 88 48 89 42 90 43 91 46 92 44 93
REMARK H PARENT 5 5 85 22 9 27 68 46 36 57
REMARK Flexibility Score: inf
ROOT
ATOM      1  C   UNL A   1      31.355  30.707  25.468  1.00  0.00     0.117 C 
ENDROOT
BRANCH   1   2
ATOM      2  N   UNL A   1      32.693  30.154  25.472  1.00  0.00    -0.356 N 
ATOM      3  C   UNL A   1      33.129  28.881  25.697  1.00  0.00     0.227 C 
ATOM      4  O   UNL A   1      34.350  28.715  25.707  1.00  0.00    -0.274 OA
ATOM      5  H   UNL A   1      33.408  30.805  25.281  1.00  0.00     0.163 HD
BRANCH   3   6
ATOM      6  C   UNL A   1      32.117  27.737  25.841  1.00  0.00     0.106 C 
ATOM      7  C   UNL A   1      31.591  27.528  27.266  1.00  0.00     0.023 C 
BRANCH   6   8
ATOM      8  C   UNL A   1      32.614  26.440  25.206  1.00  0.00    -0.022 A 
ATOM      9  C   UNL A   1      33.215  25.500  26.067  1.00  0.00     0.006 A 
ATOM     10  C   UNL A   1      32.516  26.105  23.844  1.00  0.00     0.022 A 
ATOM     11  C   UNL A   1      33.774  24.320  25.579  1.00  0.00     0.004 A 
ATOM     12  C   UNL A   1      33.116  24.937  23.355  1.00  0.00     0.019 A 
ATOM     13  Br  UNL A   1      31.586  27.151  22.556  1.00  0.00    -0.051 Br
ATOM     14  C   UNL A   1      33.791  24.057  24.210  1.00  0.00    -0.047 A 
BRANCH  14  15
ATOM     15  C   UNL A   1      34.542  22.874  23.653  1.00  0.00     0.041 C 
BRANCH  15  16
ATOM     16  C   UNL A   1      35.546  22.211  24.616  1.00  0.00     0.022 C 
ATOM     17  C   UNL A   1      35.389  20.695  24.826  1.00  0.00     0.007 C 
ATOM     18  C   UNL A   1      37.025  22.388  24.259  1.00  0.00     0.117 C 
ATOM     19  C   UNL A   1      36.808  20.141  24.999  1.00  0.00     0.003 C 
ATOM     20  C   UNL A   1      37.711  21.357  25.142  1.00  0.00     0.032 C 
BRANCH  18  21
ATOM     21  O   UNL A   1      37.484  23.701  24.515  1.00  0.00    -0.393 OA
ATOM     22  H   UNL A   1      37.776  23.767  25.437  1.00  0.00     0.210 HD
ENDBRANCH  18  21
ENDBRANCH  15  16
ENDBRANCH  14  15
ENDBRANCH   6   8
ENDBRANCH   3   6
ENDBRANCH   1   2
BRANCH   1  23
ATOM     23  C   UNL A   1      31.212  31.824  26.500  1.00  0.00     0.042 C 
BRANCH  23  24
ATOM     24  C   UNL A   1      32.538  32.450  26.927  1.00  0.00     0.118 C 
BRANCH  24  25
ATOM     25  N   UNL A   1      32.387  33.823  27.384  1.00  0.00    -0.352 N 
ATOM     26  C   UNL A   1      33.039  34.505  28.377  1.00  0.00     0.251 C 
ATOM     27  H   UNL A   1      31.708  34.348  26.900  1.00  0.00     0.163 HD
ATOM     28  O   UNL A   1      32.622  35.611  28.722  1.00  0.00    -0.269 OA
BRANCH  26  29
ATOM     29  C   UNL A   1      34.218  33.926  29.056  1.00  0.00     0.039 A 
ATOM     30  C   UNL A   1      34.005  33.005  30.087  1.00  0.00     0.014 A 
ATOM     31  C   UNL A   1      35.520  34.310  28.724  1.00  0.00     0.014 A 
ATOM     32  C   UNL A   1      35.094  32.430  30.744  1.00  0.00     0.010 A 
ATOM     33  C   UNL A   1      36.608  33.687  29.334  1.00  0.00     0.010 A 
ATOM     34  C   UNL A   1      36.406  32.741  30.351  1.00  0.00    -0.014 A 
BRANCH  34  35
ATOM     35  C   UNL A   1      37.566  32.063  30.984  1.00  0.00     0.031 A 
ATOM     36  C   UNL A   1      38.032  32.460  32.357  1.00  0.00     0.074 A 
ATOM     37  C   UNL A   1      38.226  31.111  30.297  1.00  0.00     0.049 A 
ATOM     38  N   UNL A   1      39.038  31.996  33.054  1.00  0.00    -0.248 NA
ATOM     39  C   UNL A   1      37.282  33.533  33.028  1.00  0.00     0.031 C 
ATOM     40  C   UNL A   1      37.905  30.676  28.936  1.00  0.00     0.029 A 
ATOM     41  N   UNL A   1      39.308  30.342  30.644  1.00  0.00    -0.354 N 
ATOM     42  C   UNL A   1      39.044  32.719  34.240  1.00  0.00     0.074 A 
ATOM     43  C   UNL A   1      37.974  33.689  34.147  1.00  0.00     0.031 C 
ATOM     44  C   UNL A   1      38.756  29.705  28.573  1.00  0.00     0.029 A 
ATOM     45  C   UNL A   1      39.704  29.471  29.659  1.00  0.00     0.049 A 
ATOM     46  H   UNL A   1      39.760  30.409  31.516  1.00  0.00     0.167 HD
ATOM     47  C   UNL A   1      39.852  32.571  35.316  1.00  0.00     0.037 A 
ATOM     48  C   UNL A   1      40.717  28.586  29.631  1.00  0.00     0.037 A 
ATOM     49  C   UNL A   1      40.908  31.595  35.413  1.00  0.00     0.049 A 
ATOM     50  C   UNL A   1      41.598  28.440  30.843  1.00  0.00     0.074 A 
ATOM     51  C   UNL A   1      41.752  31.338  36.480  1.00  0.00     0.029 A 
ATOM     52  N   UNL A   1      41.266  30.716  34.402  1.00  0.00    -0.354 N 
ATOM     53  N   UNL A   1      41.550  29.086  31.982  1.00  0.00    -0.248 NA
ATOM     54  C   UNL A   1      42.667  27.435  30.766  1.00  0.00     0.031 C 
ATOM     55  C   UNL A   1      42.644  30.331  36.101  1.00  0.00     0.029 A 
ATOM     56  C   UNL A   1      42.327  29.927  34.814  1.00  0.00     0.049 A 
ATOM     57  H   UNL A   1      40.828  30.660  33.521  1.00  0.00     0.167 HD
ATOM     58  C   UNL A   1      42.565  28.553  32.764  1.00  0.00     0.074 A 
ATOM     59  C   UNL A   1      43.196  27.513  31.978  1.00  0.00     0.031 C 
ATOM     60  C   UNL A   1      42.946  28.897  34.019  1.00  0.00     0.037 A 
BRANCH  47  61
ATOM     61  C   UNL A   1      39.621  33.476  36.491  1.00  0.00     0.064 A 
ATOM     62  C   UNL A   1      38.788  33.096  37.554  1.00  0.00     0.173 A 
ATOM     63  C   UNL A   1      40.279  34.712  36.583  1.00  0.00     0.173 A 
ATOM     64  F   UNL A   1      38.128  31.930  37.510  1.00  0.00    -0.203 F 
ATOM     65  C   UNL A   1      38.607  33.929  38.656  1.00  0.00     0.198 A 
ATOM     66  C   UNL A   1      40.117  35.530  37.699  1.00  0.00     0.198 A 
ATOM     67  F   UNL A   1      41.091  35.121  35.596  1.00  0.00    -0.203 F 
ATOM     68  F   UNL A   1      37.776  33.561  39.642  1.00  0.00    -0.200 F 
ATOM     69  C   UNL A   1      39.277  35.140  38.732  1.00  0.00     0.200 A 
ATOM     70  F   UNL A   1      40.776  36.694  37.776  1.00  0.00    -0.200 F 
ATOM     71  F   UNL A   1      39.110  35.935  39.798  1.00  0.00    -0.200 F 
ENDBRANCH  47  61
BRANCH  48  72
ATOM     72  C   UNL A   1      40.945  27.754  28.421  1.00  0.00     0.064 A 
ATOM     73  C   UNL A   1      41.792  28.191  27.394  1.00  0.00     0.173 A 
ATOM     74  C   UNL A   1      40.312  26.512  28.263  1.00  0.00     0.173 A 
ATOM     75  F   UNL A   1      42.404  29.381  27.492  1.00  0.00    -0.203 F 
ATOM     76  C   UNL A   1      41.978  27.430  26.241  1.00  0.00     0.198 A 
ATOM     77  C   UNL A   1      40.522  25.738  27.124  1.00  0.00     0.198 A 
ATOM     78  F   UNL A   1      39.497  26.047  29.220  1.00  0.00    -0.203 F 
ATOM     79  F   UNL A   1      42.753  27.894  25.253  1.00  0.00    -0.200 F 
ATOM     80  C   UNL A   1      41.346  26.202  26.110  1.00  0.00     0.200 A 
ATOM     81  F   UNL A   1      39.922  24.546  27.006  1.00  0.00    -0.200 F 
ATOM     82  F   UNL A   1      41.527  25.470  25.003  1.00  0.00    -0.200 F 
ENDBRANCH  48  72
BRANCH  60  83
ATOM     83  C   UNL A   1      44.084  28.128  34.622  1.00  0.00     0.064 A 
ATOM     84  C   UNL A   1      43.872  26.931  35.323  1.00  0.00     0.173 A 
ATOM     85  C   UNL A   1      45.404  28.583  34.481  1.00  0.00     0.173 A 
ATOM     86  F   UNL A   1      42.627  26.463  35.499  1.00  0.00    -0.203 F 
ATOM     87  C   UNL A   1      44.937  26.236  35.890  1.00  0.00     0.198 A 
ATOM     88  C   UNL A   1      46.469  27.869  35.024  1.00  0.00     0.198 A 
ATOM     89  F   UNL A   1      45.661  29.718  33.814  1.00  0.00    -0.203 F 
ATOM     90  F   UNL A   1      44.706  25.126  36.603  1.00  0.00    -0.200 F 
ATOM     91  C   UNL A   1      46.234  26.703  35.736  1.00  0.00     0.200 A 
ATOM     92  F   UNL A   1      47.723  28.315  34.864  1.00  0.00    -0.200 F 
ATOM     93  F   UNL A   1      47.258  26.032  36.282  1.00  0.00    -0.200 F 
ENDBRANCH  60  83
ENDBRANCH  34  35
ENDBRANCH  26  29
ENDBRANCH  24  25
ENDBRANCH  23  24
ENDBRANCH   1  23
TORSDOF 14
ENDMDL
