MODEL 1
REMARK VINA RESULT:     -11.2      0.000      0.000
REMARK SMILES C[C@](NC(=O)CSCc1cccs1)(C(=O)NCCCNC(=O)c1ccc(-c2c3nc(c(-c4c(F)c(F)c(F)c(F)c4F)c4ccc([nH]4)c(-c4c(F)c(F)c(F)c(F)c4F)c4nc(c(-c5c(F)c(F)c(F)c(F)c5F)c5ccc2[nH]5)C=C4)C=C3)cc1)C(F)(F)F
REMARK SMILES IDX 14 1 15 2 16 3 2 5 1 6 86 7 87 8 88 9 89 10 3 11 4 12 5 14
REMARK SMILES IDX 6 15 7 16 8 17 9 18 10 19 13 20 11 21 12 22 17 23 18 24
REMARK SMILES IDX 19 25 20 26 21 27 22 29 23 30 24 31 85 32 25 33 84 34 26 35
REMARK SMILES IDX 27 36 28 37 78 38 29 39 83 40 77 41 79 42 30 43 82 44 76 45
REMARK SMILES IDX 75 46 31 48 63 49 43 50 62 51 44 52 47 53 61 54 80 55 45 56
REMARK SMILES IDX 46 57 60 59 81 60 48 61 32 62 33 63 41 64 34 65 35 66 39 67
REMARK SMILES IDX 42 68 36 69 37 70 40 71 38 72 64 73 65 74 73 75 66 76 67 77
REMARK SMILES IDX 71 78 74 79 68 80 69 81 72 82 70 83 49 84 50 85 58 86 51 87
REMARK SMILES IDX 52 88 56 89 59 90 53 91 54 92 57 93 55 94
REMARK H PARENT 16 4 3 13 20 28 79 47 47 58
REMARK Flexibility Score: inf
ROOT
ATOM      1  C   UNL A   1      34.088  19.866  24.952  1.00  0.00     0.254 C 
ATOM      2  O   UNL A   1      33.259  18.967  24.817  1.00  0.00    -0.272 OA
ATOM      3  N   UNL A   1      35.404  19.471  25.003  1.00  0.00    -0.354 N 
ATOM      4  H   UNL A   1      35.538  18.496  25.051  1.00  0.00     0.163 HD
ENDROOT
BRANCH   1   5
ATOM      5  C   UNL A   1      33.718  21.367  24.925  1.00  0.00     0.212 C 
ATOM      6  C   UNL A   1      32.251  21.464  24.488  1.00  0.00     0.056 C 
BRANCH   5   7
ATOM      7  C   UNL A   1      33.836  21.904  26.364  1.00  0.00     0.420 C 
ATOM      8  F   UNL A   1      32.814  22.728  26.686  1.00  0.00    -0.168 F 
ATOM      9  F   UNL A   1      33.787  20.866  27.242  1.00  0.00    -0.168 F 
ATOM     10  F   UNL A   1      34.999  22.549  26.598  1.00  0.00    -0.168 F 
ENDBRANCH   5   7
BRANCH   5  11
ATOM     11  N   UNL A   1      34.726  22.004  24.011  1.00  0.00    -0.334 N 
ATOM     12  C   UNL A   1      34.891  23.206  23.412  1.00  0.00     0.231 C 
ATOM     13  H   UNL A   1      35.458  21.384  23.790  1.00  0.00     0.164 HD
ATOM     14  O   UNL A   1      35.965  23.367  22.821  1.00  0.00    -0.274 OA
BRANCH  12  15
ATOM     15  C   UNL A   1      33.828  24.280  23.376  1.00  0.00     0.169 C 
BRANCH  15  16
ATOM     16  S   UNL A   1      33.826  25.363  24.849  1.00  0.00    -0.146 SA
BRANCH  16  17
ATOM     17  C   UNL A   1      32.293  26.313  24.634  1.00  0.00     0.116 C 
BRANCH  17  18
ATOM     18  C   UNL A   1      32.114  27.583  25.412  1.00  0.00     0.014 A 
ATOM     19  C   UNL A   1      31.946  27.654  26.786  1.00  0.00     0.016 A 
ATOM     20  S   UNL A   1      32.049  29.143  24.711  1.00  0.00    -0.148 S 
ATOM     21  C   UNL A   1      31.778  28.986  27.255  1.00  0.00     0.012 A 
ATOM     22  C   UNL A   1      31.824  29.897  26.226  1.00  0.00     0.065 A 
ENDBRANCH  17  18
ENDBRANCH  16  17
ENDBRANCH  15  16
ENDBRANCH  12  15
ENDBRANCH   5  11
ENDBRANCH   1   5
BRANCH   3  23
ATOM     23  C   UNL A   1      36.631  20.253  24.995  1.00  0.00     0.117 C 
BRANCH  23  24
ATOM     24  C   UNL A   1      37.879  19.380  24.995  1.00  0.00     0.042 C 
BRANCH  24  25
ATOM     25  C   UNL A   1      39.046  20.002  25.749  1.00  0.00     0.118 C 
BRANCH  25  26
ATOM     26  N   UNL A   1      40.142  19.061  25.938  1.00  0.00    -0.352 N 
ATOM     27  C   UNL A   1      41.480  19.282  26.142  1.00  0.00     0.251 C 
ATOM     28  H   UNL A   1      39.880  18.112  25.915  1.00  0.00     0.163 HD
ATOM     29  O   UNL A   1      42.260  18.337  26.082  1.00  0.00    -0.269 OA
BRANCH  27  30
ATOM     30  C   UNL A   1      41.991  20.641  26.419  1.00  0.00     0.039 A 
ATOM     31  C   UNL A   1      42.229  21.498  25.340  1.00  0.00     0.014 A 
ATOM     32  C   UNL A   1      42.275  21.065  27.720  1.00  0.00     0.014 A 
ATOM     33  C   UNL A   1      42.707  22.789  25.570  1.00  0.00     0.010 A 
ATOM     34  C   UNL A   1      42.661  22.380  27.955  1.00  0.00     0.010 A 
ATOM     35  C   UNL A   1      42.899  23.250  26.882  1.00  0.00    -0.014 A 
BRANCH  35  36
ATOM     36  C   UNL A   1      43.372  24.631  27.145  1.00  0.00     0.031 A 
ATOM     37  C   UNL A   1      42.429  25.660  27.708  1.00  0.00     0.074 A 
ATOM     38  C   UNL A   1      44.636  24.972  26.832  1.00  0.00     0.049 A 
ATOM     39  N   UNL A   1      42.642  26.924  27.973  1.00  0.00    -0.248 NA
ATOM     40  C   UNL A   1      41.052  25.218  27.981  1.00  0.00     0.031 C 
ATOM     41  C   UNL A   1      45.627  24.081  26.228  1.00  0.00     0.029 A 
ATOM     42  N   UNL A   1      45.305  26.162  26.976  1.00  0.00    -0.354 N 
ATOM     43  C   UNL A   1      41.430  27.426  28.427  1.00  0.00     0.074 A 
ATOM     44  C   UNL A   1      40.469  26.350  28.344  1.00  0.00     0.031 C 
ATOM     45  C   UNL A   1      46.785  24.744  26.083  1.00  0.00     0.029 A 
ATOM     46  C   UNL A   1      46.609  26.115  26.550  1.00  0.00     0.049 A 
ATOM     47  H   UNL A   1      44.888  26.972  27.349  1.00  0.00     0.167 HD
ATOM     48  C   UNL A   1      41.151  28.664  28.899  1.00  0.00     0.037 A 
ATOM     49  C   UNL A   1      47.556  27.073  26.538  1.00  0.00     0.037 A 
ATOM     50  C   UNL A   1      42.118  29.725  29.007  1.00  0.00     0.049 A 
ATOM     51  C   UNL A   1      47.222  28.436  27.082  1.00  0.00     0.074 A 
ATOM     52  C   UNL A   1      41.951  30.999  29.520  1.00  0.00     0.029 A 
ATOM     53  N   UNL A   1      43.439  29.632  28.589  1.00  0.00    -0.354 N 
ATOM     54  N   UNL A   1      46.092  28.878  27.575  1.00  0.00    -0.248 NA
ATOM     55  C   UNL A   1      48.305  29.428  27.079  1.00  0.00     0.031 C 
ATOM     56  C   UNL A   1      43.158  31.691  29.373  1.00  0.00     0.029 A 
ATOM     57  C   UNL A   1      44.094  30.831  28.820  1.00  0.00     0.049 A 
ATOM     58  H   UNL A   1      43.850  28.832  28.189  1.00  0.00     0.167 HD
ATOM     59  C   UNL A   1      46.334  30.187  27.971  1.00  0.00     0.074 A 
ATOM     60  C   UNL A   1      47.725  30.459  27.676  1.00  0.00     0.031 C 
ATOM     61  C   UNL A   1      45.482  31.083  28.529  1.00  0.00     0.037 A 
BRANCH  48  62
ATOM     62  C   UNL A   1      39.741  28.937  29.343  1.00  0.00     0.064 A 
ATOM     63  C   UNL A   1      39.327  28.706  30.664  1.00  0.00     0.173 A 
ATOM     64  C   UNL A   1      38.799  29.459  28.445  1.00  0.00     0.173 A 
ATOM     65  F   UNL A   1      40.183  28.193  31.561  1.00  0.00    -0.203 F 
ATOM     66  C   UNL A   1      38.016  28.957  31.060  1.00  0.00     0.198 A 
ATOM     67  C   UNL A   1      37.498  29.742  28.853  1.00  0.00     0.198 A 
ATOM     68  F   UNL A   1      39.141  29.703  27.170  1.00  0.00    -0.203 F 
ATOM     69  F   UNL A   1      37.630  28.677  32.313  1.00  0.00    -0.200 F 
ATOM     70  C   UNL A   1      37.104  29.483  30.157  1.00  0.00     0.200 A 
ATOM     71  F   UNL A   1      36.622  30.262  27.982  1.00  0.00    -0.200 F 
ATOM     72  F   UNL A   1      35.845  29.731  30.542  1.00  0.00    -0.200 F 
ENDBRANCH  48  62
BRANCH  49  73
ATOM     73  C   UNL A   1      48.918  26.765  26.032  1.00  0.00     0.064 A 
ATOM     74  C   UNL A   1      49.902  26.245  26.886  1.00  0.00     0.173 A 
ATOM     75  C   UNL A   1      49.269  26.989  24.693  1.00  0.00     0.173 A 
ATOM     76  F   UNL A   1      49.620  26.031  28.179  1.00  0.00    -0.203 F 
ATOM     77  C   UNL A   1      51.192  25.987  26.426  1.00  0.00     0.198 A 
ATOM     78  C   UNL A   1      50.549  26.701  24.227  1.00  0.00     0.198 A 
ATOM     79  F   UNL A   1      48.361  27.476  23.834  1.00  0.00    -0.203 F 
ATOM     80  F   UNL A   1      52.126  25.539  27.275  1.00  0.00    -0.200 F 
ATOM     81  C   UNL A   1      51.513  26.210  25.095  1.00  0.00     0.200 A 
ATOM     82  F   UNL A   1      50.852  26.903  22.937  1.00  0.00    -0.200 F 
ATOM     83  F   UNL A   1      52.752  25.959  24.652  1.00  0.00    -0.200 F 
ENDBRANCH  49  73
BRANCH  61  84
ATOM     84  C   UNL A   1      46.046  32.425  28.898  1.00  0.00     0.064 A 
ATOM     85  C   UNL A   1      46.019  33.509  28.009  1.00  0.00     0.173 A 
ATOM     86  C   UNL A   1      46.608  32.631  30.167  1.00  0.00     0.173 A 
ATOM     87  F   UNL A   1      45.505  33.361  26.778  1.00  0.00    -0.203 F 
ATOM     88  C   UNL A   1      46.568  34.738  28.363  1.00  0.00     0.198 A 
ATOM     89  C   UNL A   1      47.125  33.871  30.530  1.00  0.00     0.198 A 
ATOM     90  F   UNL A   1      46.651  31.630  31.059  1.00  0.00    -0.203 F 
ATOM     91  F   UNL A   1      46.587  35.742  27.474  1.00  0.00    -0.200 F 
ATOM     92  C   UNL A   1      47.115  34.920  29.624  1.00  0.00     0.200 A 
ATOM     93  F   UNL A   1      47.639  34.048  31.755  1.00  0.00    -0.200 F 
ATOM     94  F   UNL A   1      47.642  36.105  29.963  1.00  0.00    -0.200 F 
ENDBRANCH  61  84
ENDBRANCH  35  36
ENDBRANCH  27  30
ENDBRANCH  25  26
ENDBRANCH  24  25
ENDBRANCH  23  24
ENDBRANCH   3  23
TORSDOF 16
ENDMDL
MODEL 2
REMARK VINA RESULT:     -11.2      0.778      7.376
REMARK SMILES C[C@](NC(=O)CSCc1cccs1)(C(=O)NCCCNC(=O)c1ccc(-c2c3nc(c(-c4c(F)c(F)c(F)c(F)c4F)c4ccc([nH]4)c(-c4c(F)c(F)c(F)c(F)c4F)c4nc(c(-c5c(F)c(F)c(F)c(F)c5F)c5ccc2[nH]5)C=C4)C=C3)cc1)C(F)(F)F
REMARK SMILES IDX 14 1 15 2 16 3 2 5 1 6 86 7 87 8 88 9 89 10 3 11 4 12 5 14
REMARK SMILES IDX 6 15 7 16 8 17 9 18 10 19 13 20 11 21 12 22 17 23 18 24
REMARK SMILES IDX 19 25 20 26 21 27 22 29 23 30 24 31 85 32 25 33 84 34 26 35
REMARK SMILES IDX 27 36 28 37 78 38 29 39 83 40 77 41 79 42 30 43 82 44 76 45
REMARK SMILES IDX 75 46 31 48 63 49 43 50 62 51 44 52 47 53 61 54 80 55 45 56
REMARK SMILES IDX 46 57 60 59 81 60 48 61 32 62 33 63 41 64 34 65 35 66 39 67
REMARK SMILES IDX 42 68 36 69 37 70 40 71 38 72 64 73 65 74 73 75 66 76 67 77
REMARK SMILES IDX 71 78 74 79 68 80 69 81 72 82 70 83 49 84 50 85 58 86 51 87
REMARK SMILES IDX 52 88 56 89 59 90 53 91 54 92 57 93 55 94
REMARK H PARENT 16 4 3 13 20 28 79 47 47 58
REMARK Flexibility Score: inf
ROOT
ATOM      1  C   UNL A   1      33.974  20.046  25.101  1.00  0.00     0.254 C 
ATOM      2  O   UNL A   1      33.133  19.154  24.994  1.00  0.00    -0.272 OA
ATOM      3  N   UNL A   1      35.288  19.647  25.027  1.00  0.00    -0.354 N 
ATOM      4  H   UNL A   1      35.422  18.672  25.021  1.00  0.00     0.163 HD
ENDROOT
BRANCH   1   5
ATOM      5  C   UNL A   1      33.609  21.547  25.170  1.00  0.00     0.212 C 
ATOM      6  C   UNL A   1      32.089  21.652  25.009  1.00  0.00     0.056 C 
BRANCH   5   7
ATOM      7  C   UNL A   1      33.989  22.055  26.574  1.00  0.00     0.420 C 
ATOM      8  F   UNL A   1      35.183  22.692  26.579  1.00  0.00    -0.168 F 
ATOM      9  F   UNL A   1      33.066  22.962  26.995  1.00  0.00    -0.168 F 
ATOM     10  F   UNL A   1      34.019  21.078  27.505  1.00  0.00    -0.168 F 
ENDBRANCH   5   7
BRANCH   5  11
ATOM     11  N   UNL A   1      34.436  22.202  24.100  1.00  0.00    -0.334 N 
ATOM     12  C   UNL A   1      34.532  23.432  23.544  1.00  0.00     0.231 C 
ATOM     13  H   UNL A   1      35.077  21.571  23.699  1.00  0.00     0.164 HD
ATOM     14  O   UNL A   1      35.467  23.590  22.751  1.00  0.00    -0.274 OA
BRANCH  12  15
ATOM     15  C   UNL A   1      33.538  24.543  23.787  1.00  0.00     0.169 C 
BRANCH  15  16
ATOM     16  S   UNL A   1      34.008  25.667  25.150  1.00  0.00    -0.146 SA
BRANCH  16  17
ATOM     17  C   UNL A   1      32.395  26.206  25.788  1.00  0.00     0.116 C 
BRANCH  17  18
ATOM     18  C   UNL A   1      31.574  27.155  24.966  1.00  0.00     0.014 A 
ATOM     19  C   UNL A   1      30.482  26.794  24.193  1.00  0.00     0.016 A 
ATOM     20  S   UNL A   1      31.888  28.832  24.826  1.00  0.00    -0.148 S 
ATOM     21  C   UNL A   1      29.904  27.894  23.501  1.00  0.00     0.012 A 
ATOM     22  C   UNL A   1      30.569  29.068  23.767  1.00  0.00     0.065 A 
ENDBRANCH  17  18
ENDBRANCH  16  17
ENDBRANCH  15  16
ENDBRANCH  12  15
ENDBRANCH   5  11
ENDBRANCH   1   5
BRANCH   3  23
ATOM     23  C   UNL A   1      36.514  20.428  24.955  1.00  0.00     0.117 C 
BRANCH  23  24
ATOM     24  C   UNL A   1      37.763  19.558  25.000  1.00  0.00     0.042 C 
BRANCH  24  25
ATOM     25  C   UNL A   1      38.918  20.204  25.752  1.00  0.00     0.118 C 
BRANCH  25  26
ATOM     26  N   UNL A   1      40.047  19.298  25.908  1.00  0.00    -0.352 N 
ATOM     27  C   UNL A   1      41.376  19.560  26.126  1.00  0.00     0.251 C 
ATOM     28  H   UNL A   1      39.821  18.342  25.848  1.00  0.00     0.163 HD
ATOM     29  O   UNL A   1      42.190  18.648  26.031  1.00  0.00    -0.269 OA
BRANCH  27  30
ATOM     30  C   UNL A   1      41.835  20.926  26.456  1.00  0.00     0.039 A 
ATOM     31  C   UNL A   1      41.982  21.851  25.418  1.00  0.00     0.014 A 
ATOM     32  C   UNL A   1      42.161  21.291  27.765  1.00  0.00     0.014 A 
ATOM     33  C   UNL A   1      42.409  23.150  25.700  1.00  0.00     0.010 A 
ATOM     34  C   UNL A   1      42.496  22.609  28.058  1.00  0.00     0.010 A 
ATOM     35  C   UNL A   1      42.642  23.547  27.026  1.00  0.00    -0.014 A 
BRANCH  35  36
ATOM     36  C   UNL A   1      43.062  24.934  27.345  1.00  0.00     0.031 A 
ATOM     37  C   UNL A   1      44.471  25.382  27.064  1.00  0.00     0.074 A 
ATOM     38  C   UNL A   1      42.190  25.774  27.933  1.00  0.00     0.049 A 
ATOM     39  N   UNL A   1      45.038  26.537  27.303  1.00  0.00    -0.248 NA
ATOM     40  C   UNL A   1      45.374  24.388  26.460  1.00  0.00     0.031 C 
ATOM     41  C   UNL A   1      40.815  25.440  28.308  1.00  0.00     0.029 A 
ATOM     42  N   UNL A   1      42.330  27.082  28.321  1.00  0.00    -0.354 N 
ATOM     43  C   UNL A   1      46.358  26.404  26.895  1.00  0.00     0.074 A 
ATOM     44  C   UNL A   1      46.528  25.039  26.452  1.00  0.00     0.031 C 
ATOM     45  C   UNL A   1      40.229  26.522  28.843  1.00  0.00     0.029 A 
ATOM     46  C   UNL A   1      41.195  27.616  28.880  1.00  0.00     0.049 A 
ATOM     47  H   UNL A   1      43.166  27.591  28.210  1.00  0.00     0.167 HD
ATOM     48  C   UNL A   1      47.333  27.343  26.865  1.00  0.00     0.037 A 
ATOM     49  C   UNL A   1      40.961  28.849  29.366  1.00  0.00     0.037 A 
ATOM     50  C   UNL A   1      47.152  28.709  27.283  1.00  0.00     0.049 A 
ATOM     51  C   UNL A   1      42.059  29.877  29.308  1.00  0.00     0.074 A 
ATOM     52  C   UNL A   1      48.059  29.752  27.243  1.00  0.00     0.029 A 
ATOM     53  N   UNL A   1      45.978  29.220  27.819  1.00  0.00    -0.354 N 
ATOM     54  N   UNL A   1      43.282  29.760  28.854  1.00  0.00    -0.248 NA
ATOM     55  C   UNL A   1      41.733  31.216  29.818  1.00  0.00     0.031 C 
ATOM     56  C   UNL A   1      47.450  30.884  27.796  1.00  0.00     0.029 A 
ATOM     57  C   UNL A   1      46.143  30.561  28.128  1.00  0.00     0.049 A 
ATOM     58  H   UNL A   1      45.150  28.706  27.958  1.00  0.00     0.167 HD
ATOM     59  C   UNL A   1      43.863  31.014  28.992  1.00  0.00     0.074 A 
ATOM     60  C   UNL A   1      42.850  31.881  29.556  1.00  0.00     0.031 C 
ATOM     61  C   UNL A   1      45.121  31.412  28.681  1.00  0.00     0.037 A 
BRANCH  48  62
ATOM     62  C   UNL A   1      48.684  26.925  26.357  1.00  0.00     0.064 A 
ATOM     63  C   UNL A   1      49.663  26.397  27.213  1.00  0.00     0.173 A 
ATOM     64  C   UNL A   1      48.997  27.028  24.993  1.00  0.00     0.173 A 
ATOM     65  F   UNL A   1      49.422  26.289  28.529  1.00  0.00    -0.203 F 
ATOM     66  C   UNL A   1      50.912  26.019  26.730  1.00  0.00     0.198 A 
ATOM     67  C   UNL A   1      50.235  26.618  24.508  1.00  0.00     0.198 A 
ATOM     68  F   UNL A   1      48.097  27.522  24.128  1.00  0.00    -0.203 F 
ATOM     69  F   UNL A   1      51.849  25.569  27.577  1.00  0.00    -0.200 F 
ATOM     70  C   UNL A   1      51.195  26.122  25.376  1.00  0.00     0.200 A 
ATOM     71  F   UNL A   1      50.502  26.706  23.197  1.00  0.00    -0.200 F 
ATOM     72  F   UNL A   1      52.396  25.751  24.911  1.00  0.00    -0.200 F 
ENDBRANCH  48  62
BRANCH  49  73
ATOM     73  C   UNL A   1      39.623  29.192  29.913  1.00  0.00     0.064 A 
ATOM     74  C   UNL A   1      39.316  28.959  31.262  1.00  0.00     0.173 A 
ATOM     75  C   UNL A   1      38.623  29.750  29.104  1.00  0.00     0.173 A 
ATOM     76  F   UNL A   1      40.233  28.411  32.072  1.00  0.00    -0.203 F 
ATOM     77  C   UNL A   1      38.052  29.247  31.773  1.00  0.00     0.198 A 
ATOM     78  C   UNL A   1      37.369  30.065  29.622  1.00  0.00     0.198 A 
ATOM     79  F   UNL A   1      38.869  30.000  27.809  1.00  0.00    -0.203 F 
ATOM     80  F   UNL A   1      37.770  28.967  33.052  1.00  0.00    -0.200 F 
ATOM     81  C   UNL A   1      37.081  29.804  30.954  1.00  0.00     0.200 A 
ATOM     82  F   UNL A   1      36.439  30.618  28.833  1.00  0.00    -0.200 F 
ATOM     83  F   UNL A   1      35.867  30.083  31.446  1.00  0.00    -0.200 F 
ENDBRANCH  49  73
BRANCH  61  84
ATOM     84  C   UNL A   1      45.455  32.859  28.901  1.00  0.00     0.064 A 
ATOM     85  C   UNL A   1      46.021  33.314  30.101  1.00  0.00     0.173 A 
ATOM     86  C   UNL A   1      45.218  33.802  27.889  1.00  0.00     0.173 A 
ATOM     87  F   UNL A   1      46.254  32.456  31.106  1.00  0.00    -0.203 F 
ATOM     88  C   UNL A   1      46.301  34.664  30.293  1.00  0.00     0.198 A 
ATOM     89  C   UNL A   1      45.532  35.145  28.071  1.00  0.00     0.198 A 
ATOM     90  F   UNL A   1      44.687  33.418  26.718  1.00  0.00    -0.203 F 
ATOM     91  F   UNL A   1      46.784  35.084  31.471  1.00  0.00    -0.200 F 
ATOM     92  C   UNL A   1      46.062  35.577  29.277  1.00  0.00     0.200 A 
ATOM     93  F   UNL A   1      45.314  36.023  27.082  1.00  0.00    -0.200 F 
ATOM     94  F   UNL A   1      46.334  36.876  29.464  1.00  0.00    -0.200 F 
ENDBRANCH  61  84
ENDBRANCH  35  36
ENDBRANCH  27  30
ENDBRANCH  25  26
ENDBRANCH  24  25
ENDBRANCH  23  24
ENDBRANCH   3  23
TORSDOF 16
ENDMDL
MODEL 3
REMARK VINA RESULT:     -11.1      0.472      2.021
REMARK SMILES C[C@](NC(=O)CSCc1cccs1)(C(=O)NCCCNC(=O)c1ccc(-c2c3nc(c(-c4c(F)c(F)c(F)c(F)c4F)c4ccc([nH]4)c(-c4c(F)c(F)c(F)c(F)c4F)c4nc(c(-c5c(F)c(F)c(F)c(F)c5F)c5ccc2[nH]5)C=C4)C=C3)cc1)C(F)(F)F
REMARK SMILES IDX 14 1 15 2 16 3 2 5 1 6 86 7 87 8 88 9 89 10 3 11 4 12 5 14
REMARK SMILES IDX 6 15 7 16 8 17 9 18 10 19 13 20 11 21 12 22 17 23 18 24
REMARK SMILES IDX 19 25 20 26 21 27 22 29 23 30 24 31 85 32 25 33 84 34 26 35
REMARK SMILES IDX 27 36 28 37 78 38 29 39 83 40 77 41 79 42 30 43 82 44 76 45
REMARK SMILES IDX 75 46 31 48 63 49 43 50 62 51 44 52 47 53 61 54 80 55 45 56
REMARK SMILES IDX 46 57 60 59 81 60 48 61 32 62 33 63 41 64 34 65 35 66 39 67
REMARK SMILES IDX 42 68 36 69 37 70 40 71 38 72 64 73 65 74 73 75 66 76 67 77
REMARK SMILES IDX 71 78 74 79 68 80 69 81 72 82 70 83 49 84 50 85 58 86 51 87
REMARK SMILES IDX 52 88 56 89 59 90 53 91 54 92 57 93 55 94
REMARK H PARENT 16 4 3 13 20 28 79 47 47 58
REMARK Flexibility Score: inf
ROOT
ATOM      1  C   UNL A   1      34.088  19.988  24.976  1.00  0.00     0.254 C 
ATOM      2  O   UNL A   1      33.246  19.098  24.857  1.00  0.00    -0.272 OA
ATOM      3  N   UNL A   1      35.399  19.577  25.012  1.00  0.00    -0.354 N 
ATOM      4  H   UNL A   1      35.522  18.601  25.065  1.00  0.00     0.163 HD
ENDROOT
BRANCH   1   5
ATOM      5  C   UNL A   1      33.735  21.493  24.945  1.00  0.00     0.212 C 
ATOM      6  C   UNL A   1      32.256  21.604  24.558  1.00  0.00     0.056 C 
BRANCH   5   7
ATOM      7  C   UNL A   1      33.909  22.043  26.373  1.00  0.00     0.420 C 
ATOM      8  F   UNL A   1      32.892  22.860  26.732  1.00  0.00    -0.168 F 
ATOM      9  F   UNL A   1      33.909  21.013  27.261  1.00  0.00    -0.168 F 
ATOM     10  F   UNL A   1      35.073  22.703  26.552  1.00  0.00    -0.168 F 
ENDBRANCH   5   7
BRANCH   5  11
ATOM     11  N   UNL A   1      34.719  22.108  23.990  1.00  0.00    -0.334 N 
ATOM     12  C   UNL A   1      34.893  23.310  23.394  1.00  0.00     0.231 C 
ATOM     13  H   UNL A   1      35.421  21.468  23.731  1.00  0.00     0.164 HD
ATOM     14  O   UNL A   1      35.943  23.443  22.755  1.00  0.00    -0.274 OA
BRANCH  12  15
ATOM     15  C   UNL A   1      33.864  24.415  23.416  1.00  0.00     0.169 C 
BRANCH  15  16
ATOM     16  S   UNL A   1      34.042  25.561  24.829  1.00  0.00    -0.146 SA
BRANCH  16  17
ATOM     17  C   UNL A   1      33.252  27.074  24.210  1.00  0.00     0.116 C 
BRANCH  17  18
ATOM     18  C   UNL A   1      32.891  28.153  25.187  1.00  0.00     0.014 A 
ATOM     19  C   UNL A   1      32.051  29.221  24.915  1.00  0.00     0.016 A 
ATOM     20  S   UNL A   1      33.500  28.252  26.784  1.00  0.00    -0.148 S 
ATOM     21  C   UNL A   1      31.902  30.105  26.019  1.00  0.00     0.012 A 
ATOM     22  C   UNL A   1      32.632  29.687  27.107  1.00  0.00     0.065 A 
ENDBRANCH  17  18
ENDBRANCH  16  17
ENDBRANCH  15  16
ENDBRANCH  12  15
ENDBRANCH   5  11
ENDBRANCH   1   5
BRANCH   3  23
ATOM     23  C   UNL A   1      36.635  20.344  24.985  1.00  0.00     0.117 C 
BRANCH  23  24
ATOM     24  C   UNL A   1      37.873  19.457  24.967  1.00  0.00     0.042 C 
BRANCH  24  25
ATOM     25  C   UNL A   1      39.052  20.056  25.720  1.00  0.00     0.118 C 
BRANCH  25  26
ATOM     26  N   UNL A   1      40.146  19.108  25.871  1.00  0.00    -0.352 N 
ATOM     27  C   UNL A   1      41.486  19.319  26.079  1.00  0.00     0.251 C 
ATOM     28  H   UNL A   1      39.884  18.160  25.815  1.00  0.00     0.163 HD
ATOM     29  O   UNL A   1      42.264  18.375  25.981  1.00  0.00    -0.269 OA
BRANCH  27  30
ATOM     30  C   UNL A   1      42.000  20.667  26.402  1.00  0.00     0.039 A 
ATOM     31  C   UNL A   1      42.253  21.554  25.352  1.00  0.00     0.014 A 
ATOM     32  C   UNL A   1      42.272  21.049  27.718  1.00  0.00     0.014 A 
ATOM     33  C   UNL A   1      42.735  22.836  25.626  1.00  0.00     0.010 A 
ATOM     34  C   UNL A   1      42.661  22.355  27.997  1.00  0.00     0.010 A 
ATOM     35  C   UNL A   1      42.915  23.256  26.953  1.00  0.00    -0.014 A 
BRANCH  35  36
ATOM     36  C   UNL A   1      43.391  24.626  27.263  1.00  0.00     0.031 A 
ATOM     37  C   UNL A   1      42.444  25.646  27.835  1.00  0.00     0.074 A 
ATOM     38  C   UNL A   1      44.664  24.967  26.985  1.00  0.00     0.049 A 
ATOM     39  N   UNL A   1      42.660  26.901  28.139  1.00  0.00    -0.248 NA
ATOM     40  C   UNL A   1      41.059  25.206  28.069  1.00  0.00     0.031 C 
ATOM     41  C   UNL A   1      45.661  24.085  26.377  1.00  0.00     0.029 A 
ATOM     42  N   UNL A   1      45.337  26.147  27.174  1.00  0.00    -0.354 N 
ATOM     43  C   UNL A   1      41.442  27.399  28.582  1.00  0.00     0.074 A 
ATOM     44  C   UNL A   1      40.476  26.332  28.450  1.00  0.00     0.031 C 
ATOM     45  C   UNL A   1      46.826  24.744  26.273  1.00  0.00     0.029 A 
ATOM     46  C   UNL A   1      46.649  26.103  26.773  1.00  0.00     0.049 A 
ATOM     47  H   UNL A   1      44.918  26.950  27.561  1.00  0.00     0.167 HD
ATOM     48  C   UNL A   1      41.161  28.625  29.082  1.00  0.00     0.037 A 
ATOM     49  C   UNL A   1      47.602  27.054  26.807  1.00  0.00     0.037 A 
ATOM     50  C   UNL A   1      42.133  29.676  29.238  1.00  0.00     0.049 A 
ATOM     51  C   UNL A   1      47.266  28.404  27.380  1.00  0.00     0.074 A 
ATOM     52  C   UNL A   1      41.964  30.937  29.782  1.00  0.00     0.029 A 
ATOM     53  N   UNL A   1      43.461  29.585  28.844  1.00  0.00    -0.354 N 
ATOM     54  N   UNL A   1      46.129  28.841  27.863  1.00  0.00    -0.248 NA
ATOM     55  C   UNL A   1      48.355  29.389  27.426  1.00  0.00     0.031 C 
ATOM     56  C   UNL A   1      43.178  31.625  29.678  1.00  0.00     0.029 A 
ATOM     57  C   UNL A   1      44.119  30.773  29.121  1.00  0.00     0.049 A 
ATOM     58  H   UNL A   1      43.875  28.794  28.430  1.00  0.00     0.167 HD
ATOM     59  C   UNL A   1      46.371  30.137  28.300  1.00  0.00     0.074 A 
ATOM     60  C   UNL A   1      47.770  30.407  28.040  1.00  0.00     0.031 C 
ATOM     61  C   UNL A   1      45.515  31.023  28.864  1.00  0.00     0.037 A 
BRANCH  48  62
ATOM     62  C   UNL A   1      39.745  28.895  29.505  1.00  0.00     0.064 A 
ATOM     63  C   UNL A   1      38.791  29.399  28.607  1.00  0.00     0.173 A 
ATOM     64  C   UNL A   1      39.327  28.623  30.816  1.00  0.00     0.173 A 
ATOM     65  F   UNL A   1      39.140  29.690  27.345  1.00  0.00    -0.203 F 
ATOM     66  C   UNL A   1      37.483  29.649  29.014  1.00  0.00     0.198 A 
ATOM     67  C   UNL A   1      38.010  28.843  31.211  1.00  0.00     0.198 A 
ATOM     68  F   UNL A   1      40.196  28.136  31.716  1.00  0.00    -0.203 F 
ATOM     69  F   UNL A   1      36.605  30.182  28.152  1.00  0.00    -0.200 F 
ATOM     70  C   UNL A   1      37.091  29.364  30.313  1.00  0.00     0.200 A 
ATOM     71  F   UNL A   1      37.630  28.553  32.463  1.00  0.00    -0.200 F 
ATOM     72  F   UNL A   1      35.830  29.599  30.701  1.00  0.00    -0.200 F 
ENDBRANCH  48  62
BRANCH  49  73
ATOM     73  C   UNL A   1      48.972  26.751  26.320  1.00  0.00     0.064 A 
ATOM     74  C   UNL A   1      49.327  26.979  24.982  1.00  0.00     0.173 A 
ATOM     75  C   UNL A   1      49.952  26.224  27.173  1.00  0.00     0.173 A 
ATOM     76  F   UNL A   1      48.420  27.466  24.123  1.00  0.00    -0.203 F 
ATOM     77  C   UNL A   1      50.601  26.666  24.511  1.00  0.00     0.198 A 
ATOM     78  C   UNL A   1      51.234  25.939  26.709  1.00  0.00     0.198 A 
ATOM     79  F   UNL A   1      49.666  25.996  28.464  1.00  0.00    -0.203 F 
ATOM     80  F   UNL A   1      50.896  26.845  23.217  1.00  0.00    -0.200 F 
ATOM     81  C   UNL A   1      51.555  26.151  25.376  1.00  0.00     0.200 A 
ATOM     82  F   UNL A   1      52.158  25.457  27.551  1.00  0.00    -0.200 F 
ATOM     83  F   UNL A   1      52.779  25.852  24.924  1.00  0.00    -0.200 F 
ENDBRANCH  49  73
BRANCH  61  84
ATOM     84  C   UNL A   1      46.079  32.351  29.281  1.00  0.00     0.064 A 
ATOM     85  C   UNL A   1      46.621  32.557  30.557  1.00  0.00     0.173 A 
ATOM     86  C   UNL A   1      46.089  33.428  28.381  1.00  0.00     0.173 A 
ATOM     87  F   UNL A   1      46.622  31.564  31.460  1.00  0.00    -0.203 F 
ATOM     88  C   UNL A   1      47.117  33.803  30.931  1.00  0.00     0.198 A 
ATOM     89  C   UNL A   1      46.618  34.662  28.747  1.00  0.00     0.198 A 
ATOM     90  F   UNL A   1      45.591  33.282  27.144  1.00  0.00    -0.203 F 
ATOM     91  F   UNL A   1      47.573  33.994  32.177  1.00  0.00    -0.200 F 
ATOM     92  C   UNL A   1      47.121  34.852  30.024  1.00  0.00     0.200 A 
ATOM     93  F   UNL A   1      46.634  35.670  27.863  1.00  0.00    -0.200 F 
ATOM     94  F   UNL A   1      47.600  36.051  30.386  1.00  0.00    -0.200 F 
ENDBRANCH  61  84
ENDBRANCH  35  36
ENDBRANCH  27  30
ENDBRANCH  25  26
ENDBRANCH  24  25
ENDBRANCH  23  24
ENDBRANCH   3  23
TORSDOF 16
ENDMDL
