MODEL 1
REMARK VINA RESULT:     -11.8      0.000      0.000
REMARK SMILES C[C@@H]1CC([NH2+][C@@](C)(C(=O)NCCCNC(=O)c2ccc(-c3c4nc(c(-c5c(F)c(F)c(F)c(F)c5F)c5ccc([nH]5)c(-c5c(F)c(F)c(F)c(F)c5F)c5nc(c(-c6c(F)c(F)c(F)c(F)c6F)c6ccc3[nH]6)C=C5)C=C4)cc2)C(F)(F)F)C[C@@H](C)C1
REMARK SMILES IDX 12 1 11 2 10 3 8 4 9 5 6 7 7 8 5 9 4 12 1 13 2 14 3 15 87 16
REMARK SMILES IDX 85 17 84 18 86 19 80 20 81 21 82 22 83 23 13 24 14 25 15 26
REMARK SMILES IDX 16 28 17 29 18 30 79 31 19 32 78 33 20 34 21 35 22 36 72 37
REMARK SMILES IDX 23 38 77 39 71 40 73 41 24 42 76 43 70 44 69 45 25 47 57 48
REMARK SMILES IDX 37 49 56 50 38 51 41 52 55 53 74 54 39 55 40 56 54 58 75 59
REMARK SMILES IDX 42 60 26 61 27 62 35 63 28 64 29 65 33 66 36 67 30 68 31 69
REMARK SMILES IDX 34 70 32 71 58 72 59 73 67 74 60 75 61 76 65 77 68 78 62 79
REMARK SMILES IDX 63 80 66 81 64 82 43 83 44 84 52 85 45 86 46 87 50 88 53 89
REMARK SMILES IDX 47 90 48 91 51 92 49 93
REMARK H PARENT 10 6 5 10 5 11 14 27 73 46 41 57
REMARK Flexibility Score: inf
ROOT
ATOM      1  C   UNL A   1      31.916  28.081  25.920  1.00  0.00     0.042 C 
ENDROOT
BRANCH   1   2
ATOM      2  C   UNL A   1      32.517  26.698  26.145  1.00  0.00     0.118 C 
BRANCH   2   3
ATOM      3  N   UNL A   1      31.555  25.798  26.759  1.00  0.00    -0.350 N 
ATOM      4  C   UNL A   1      31.184  24.504  26.505  1.00  0.00     0.290 C 
ATOM      5  O   UNL A   1      30.256  24.090  27.205  1.00  0.00    -0.267 OA
ATOM      6  H   UNL A   1      31.069  26.202  27.512  1.00  0.00     0.163 HD
BRANCH   4   7
ATOM      7  C   UNL A   1      31.898  23.627  25.435  1.00  0.00     0.268 C 
ATOM      8  C   UNL A   1      31.366  22.185  25.584  1.00  0.00     0.101 C 
BRANCH   7   9
ATOM      9  N   UNL A   1      33.381  23.774  25.661  1.00  0.00    -0.324 N 
ATOM     10  H   UNL A   1      33.757  24.275  24.856  1.00  0.00     0.347 HD
ATOM     11  H   UNL A   1      33.443  24.245  26.563  1.00  0.00     0.347 HD
BRANCH   9  12
ATOM     12  C   UNL A   1      34.200  22.570  25.836  1.00  0.00     0.184 C 
ATOM     13  C   UNL A   1      34.872  23.706  22.710  1.00  0.00     0.008 C 
ATOM     14  C   UNL A   1      35.461  22.557  23.526  1.00  0.00    -0.008 C 
ATOM     15  C   UNL A   1      34.430  21.892  24.464  1.00  0.00     0.068 C 
ATOM     16  C   UNL A   1      36.741  23.001  24.260  1.00  0.00     0.007 C 
ATOM     17  C   UNL A   1      36.462  23.709  25.593  1.00  0.00    -0.008 C 
ATOM     18  C   UNL A   1      35.578  22.814  26.472  1.00  0.00     0.068 C 
ATOM     19  C   UNL A   1      37.755  24.078  26.316  1.00  0.00     0.008 C 
ENDBRANCH   9  12
ENDBRANCH   7   9
BRANCH   7  20
ATOM     20  C   UNL A   1      31.371  24.155  24.062  1.00  0.00     0.453 C 
ATOM     21  F   UNL A   1      31.226  23.186  23.132  1.00  0.00    -0.164 F 
ATOM     22  F   UNL A   1      30.144  24.729  24.214  1.00  0.00    -0.164 F 
ATOM     23  F   UNL A   1      32.163  25.128  23.549  1.00  0.00    -0.164 F 
ENDBRANCH   7  20
ENDBRANCH   4   7
ENDBRANCH   2   3
ENDBRANCH   1   2
BRANCH   1  24
ATOM     24  C   UNL A   1      32.930  29.130  25.487  1.00  0.00     0.118 C 
BRANCH  24  25
ATOM     25  N   UNL A   1      32.542  30.472  25.895  1.00  0.00    -0.352 N 
ATOM     26  C   UNL A   1      33.030  31.282  26.891  1.00  0.00     0.251 C 
ATOM     27  H   UNL A   1      31.807  30.864  25.371  1.00  0.00     0.163 HD
ATOM     28  O   UNL A   1      32.405  32.293  27.200  1.00  0.00    -0.269 OA
BRANCH  26  29
ATOM     29  C   UNL A   1      34.285  30.950  27.607  1.00  0.00     0.039 A 
ATOM     30  C   UNL A   1      35.216  31.969  27.837  1.00  0.00     0.014 A 
ATOM     31  C   UNL A   1      34.578  29.645  28.007  1.00  0.00     0.014 A 
ATOM     32  C   UNL A   1      36.403  31.691  28.519  1.00  0.00     0.010 A 
ATOM     33  C   UNL A   1      35.717  29.386  28.767  1.00  0.00     0.010 A 
ATOM     34  C   UNL A   1      36.648  30.403  29.021  1.00  0.00    -0.014 A 
BRANCH  34  35
ATOM     35  C   UNL A   1      37.875  30.094  29.800  1.00  0.00     0.031 A 
ATOM     36  C   UNL A   1      38.909  29.154  29.242  1.00  0.00     0.074 A 
ATOM     37  C   UNL A   1      38.029  30.603  31.037  1.00  0.00     0.049 A 
ATOM     38  N   UNL A   1      40.000  28.693  29.800  1.00  0.00    -0.248 NA
ATOM     39  C   UNL A   1      38.668  28.639  27.885  1.00  0.00     0.031 C 
ATOM     40  C   UNL A   1      37.081  31.493  31.708  1.00  0.00     0.029 A 
ATOM     41  N   UNL A   1      39.036  30.437  31.955  1.00  0.00    -0.354 N 
ATOM     42  C   UNL A   1      40.562  27.824  28.874  1.00  0.00     0.074 A 
ATOM     43  C   UNL A   1      39.663  27.776  27.741  1.00  0.00     0.031 C 
ATOM     44  C   UNL A   1      37.564  31.818  32.917  1.00  0.00     0.029 A 
ATOM     45  C   UNL A   1      38.833  31.126  33.124  1.00  0.00     0.049 A 
ATOM     46  H   UNL A   1      39.829  29.878  31.789  1.00  0.00     0.167 HD
ATOM     47  C   UNL A   1      41.732  27.145  28.948  1.00  0.00     0.037 A 
ATOM     48  C   UNL A   1      39.583  31.189  34.241  1.00  0.00     0.037 A 
ATOM     49  C   UNL A   1      42.638  27.214  30.066  1.00  0.00     0.049 A 
ATOM     50  C   UNL A   1      40.871  30.416  34.307  1.00  0.00     0.074 A 
ATOM     51  C   UNL A   1      43.875  26.612  30.213  1.00  0.00     0.029 A 
ATOM     52  N   UNL A   1      42.399  27.928  31.231  1.00  0.00    -0.354 N 
ATOM     53  N   UNL A   1      41.422  29.646  33.400  1.00  0.00    -0.248 NA
ATOM     54  C   UNL A   1      41.643  30.525  35.552  1.00  0.00     0.031 C 
ATOM     55  C   UNL A   1      44.366  26.927  31.485  1.00  0.00     0.029 A 
ATOM     56  C   UNL A   1      43.456  27.765  32.112  1.00  0.00     0.049 A 
ATOM     57  H   UNL A   1      41.597  28.472  31.406  1.00  0.00     0.167 HD
ATOM     58  C   UNL A   1      42.614  29.199  33.953  1.00  0.00     0.074 A 
ATOM     59  C   UNL A   1      42.715  29.797  35.269  1.00  0.00     0.031 C 
ATOM     60  C   UNL A   1      43.543  28.369  33.417  1.00  0.00     0.037 A 
BRANCH  47  61
ATOM     61  C   UNL A   1      42.096  26.269  27.784  1.00  0.00     0.064 A 
ATOM     62  C   UNL A   1      41.521  25.001  27.609  1.00  0.00     0.173 A 
ATOM     63  C   UNL A   1      43.021  26.706  26.823  1.00  0.00     0.173 A 
ATOM     64  F   UNL A   1      40.640  24.529  28.505  1.00  0.00    -0.203 F 
ATOM     65  C   UNL A   1      41.888  24.187  26.539  1.00  0.00     0.198 A 
ATOM     66  C   UNL A   1      43.361  25.903  25.738  1.00  0.00     0.198 A 
ATOM     67  F   UNL A   1      43.596  27.912  26.937  1.00  0.00    -0.203 F 
ATOM     68  F   UNL A   1      41.371  22.955  26.429  1.00  0.00    -0.200 F 
ATOM     69  C   UNL A   1      42.803  24.641  25.602  1.00  0.00     0.200 A 
ATOM     70  F   UNL A   1      44.235  26.348  24.825  1.00  0.00    -0.200 F 
ATOM     71  F   UNL A   1      43.155  23.857  24.574  1.00  0.00    -0.200 F 
ENDBRANCH  47  61
BRANCH  48  72
ATOM     72  C   UNL A   1      39.148  32.045  35.375  1.00  0.00     0.064 A 
ATOM     73  C   UNL A   1      38.396  31.507  36.428  1.00  0.00     0.173 A 
ATOM     74  C   UNL A   1      39.481  33.406  35.438  1.00  0.00     0.173 A 
ATOM     75  F   UNL A   1      38.037  30.215  36.402  1.00  0.00    -0.203 F 
ATOM     76  C   UNL A   1      37.983  32.300  37.496  1.00  0.00     0.198 A 
ATOM     77  C   UNL A   1      39.089  34.193  36.519  1.00  0.00     0.198 A 
ATOM     78  F   UNL A   1      40.204  33.967  34.457  1.00  0.00    -0.203 F 
ATOM     79  F   UNL A   1      37.234  31.768  38.472  1.00  0.00    -0.200 F 
ATOM     80  C   UNL A   1      38.335  33.640  37.545  1.00  0.00     0.200 A 
ATOM     81  F   UNL A   1      39.444  35.483  36.569  1.00  0.00    -0.200 F 
ATOM     82  F   UNL A   1      37.944  34.401  38.576  1.00  0.00    -0.200 F 
ENDBRANCH  48  72
BRANCH  60  83
ATOM     83  C   UNL A   1      44.764  28.082  34.241  1.00  0.00     0.064 A 
ATOM     84  C   UNL A   1      45.893  28.913  34.196  1.00  0.00     0.173 A 
ATOM     85  C   UNL A   1      44.790  26.982  35.112  1.00  0.00     0.173 A 
ATOM     86  F   UNL A   1      45.923  29.967  33.367  1.00  0.00    -0.203 F 
ATOM     87  C   UNL A   1      47.014  28.638  34.976  1.00  0.00     0.198 A 
ATOM     88  C   UNL A   1      45.902  26.727  35.911  1.00  0.00     0.198 A 
ATOM     89  F   UNL A   1      43.734  26.160  35.196  1.00  0.00    -0.203 F 
ATOM     90  F   UNL A   1      48.100  29.418  34.882  1.00  0.00    -0.200 F 
ATOM     91  C   UNL A   1      47.015  27.552  35.837  1.00  0.00     0.200 A 
ATOM     92  F   UNL A   1      45.895  25.684  36.752  1.00  0.00    -0.200 F 
ATOM     93  F   UNL A   1      48.091  27.293  36.591  1.00  0.00    -0.200 F 
ENDBRANCH  60  83
ENDBRANCH  34  35
ENDBRANCH  26  29
ENDBRANCH  24  25
ENDBRANCH   1  24
TORSDOF 13
ENDMDL
MODEL 2
REMARK VINA RESULT:     -11.7      3.925      6.889
REMARK SMILES C[C@@H]1CC([NH2+][C@@](C)(C(=O)NCCCNC(=O)c2ccc(-c3c4nc(c(-c5c(F)c(F)c(F)c(F)c5F)c5ccc([nH]5)c(-c5c(F)c(F)c(F)c(F)c5F)c5nc(c(-c6c(F)c(F)c(F)c(F)c6F)c6ccc3[nH]6)C=C5)C=C4)cc2)C(F)(F)F)C[C@@H](C)C1
REMARK SMILES IDX 12 1 11 2 10 3 8 4 9 5 6 7 7 8 5 9 4 12 1 13 2 14 3 15 87 16
REMARK SMILES IDX 85 17 84 18 86 19 80 20 81 21 82 22 83 23 13 24 14 25 15 26
REMARK SMILES IDX 16 28 17 29 18 30 79 31 19 32 78 33 20 34 21 35 22 36 72 37
REMARK SMILES IDX 23 38 77 39 71 40 73 41 24 42 76 43 70 44 69 45 25 47 57 48
REMARK SMILES IDX 37 49 56 50 38 51 41 52 55 53 74 54 39 55 40 56 54 58 75 59
REMARK SMILES IDX 42 60 26 61 27 62 35 63 28 64 29 65 33 66 36 67 30 68 31 69
REMARK SMILES IDX 34 70 32 71 58 72 59 73 67 74 60 75 61 76 65 77 68 78 62 79
REMARK SMILES IDX 63 80 66 81 64 82 43 83 44 84 52 85 45 86 46 87 50 88 53 89
REMARK SMILES IDX 47 90 48 91 51 92 49 93
REMARK H PARENT 10 6 5 10 5 11 14 27 73 46 41 57
REMARK Flexibility Score: inf
ROOT
ATOM      1  C   UNL A   1      35.180  23.335  26.511  1.00  0.00     0.042 C 
ENDROOT
BRANCH   1   2
ATOM      2  C   UNL A   1      33.950  23.220  25.616  1.00  0.00     0.118 C 
BRANCH   2   3
ATOM      3  N   UNL A   1      34.323  23.144  24.214  1.00  0.00    -0.350 N 
ATOM      4  C   UNL A   1      33.825  23.724  23.077  1.00  0.00     0.290 C 
ATOM      5  O   UNL A   1      34.367  23.351  22.033  1.00  0.00    -0.267 OA
ATOM      6  H   UNL A   1      35.092  22.553  24.047  1.00  0.00     0.163 HD
BRANCH   4   7
ATOM      7  C   UNL A   1      32.684  24.782  23.111  1.00  0.00     0.268 C 
ATOM      8  C   UNL A   1      32.562  25.381  21.693  1.00  0.00     0.101 C 
BRANCH   7   9
ATOM      9  N   UNL A   1      33.040  25.780  24.183  1.00  0.00    -0.324 N 
ATOM     10  H   UNL A   1      32.510  25.524  25.017  1.00  0.00     0.347 HD
ATOM     11  H   UNL A   1      34.056  25.714  24.249  1.00  0.00     0.347 HD
BRANCH   9  12
ATOM     12  C   UNL A   1      32.796  27.206  23.943  1.00  0.00     0.184 C 
ATOM     13  C   UNL A   1      30.797  26.346  26.546  1.00  0.00     0.008 C 
ATOM     14  C   UNL A   1      31.079  27.690  25.877  1.00  0.00    -0.008 C 
ATOM     15  C   UNL A   1      31.351  27.565  24.362  1.00  0.00     0.068 C 
ATOM     16  C   UNL A   1      32.187  28.456  26.625  1.00  0.00     0.007 C 
ATOM     17  C   UNL A   1      33.603  28.035  26.209  1.00  0.00    -0.008 C 
ATOM     18  C   UNL A   1      33.747  28.158  24.687  1.00  0.00     0.068 C 
ATOM     19  C   UNL A   1      34.669  28.859  26.926  1.00  0.00     0.008 C 
ENDBRANCH   9  12
ENDBRANCH   7   9
BRANCH   7  20
ATOM     20  C   UNL A   1      31.378  23.963  23.362  1.00  0.00     0.453 C 
ATOM     21  F   UNL A   1      31.421  22.712  22.853  1.00  0.00    -0.164 F 
ATOM     22  F   UNL A   1      31.154  23.826  24.699  1.00  0.00    -0.164 F 
ATOM     23  F   UNL A   1      30.279  24.588  22.875  1.00  0.00    -0.164 F 
ENDBRANCH   7  20
ENDBRANCH   4   7
ENDBRANCH   2   3
ENDBRANCH   1   2
BRANCH   1  24
ATOM     24  C   UNL A   1      36.455  23.692  25.762  1.00  0.00     0.118 C 
BRANCH  24  25
ATOM     25  N   UNL A   1      37.502  22.698  25.953  1.00  0.00    -0.352 N 
ATOM     26  C   UNL A   1      38.805  22.836  26.363  1.00  0.00     0.251 C 
ATOM     27  H   UNL A   1      37.229  21.773  25.755  1.00  0.00     0.163 HD
ATOM     28  O   UNL A   1      39.574  21.886  26.243  1.00  0.00    -0.269 OA
BRANCH  26  29
ATOM     29  C   UNL A   1      39.302  24.112  26.931  1.00  0.00     0.039 A 
ATOM     30  C   UNL A   1      39.971  25.006  26.088  1.00  0.00     0.014 A 
ATOM     31  C   UNL A   1      39.165  24.415  28.287  1.00  0.00     0.014 A 
ATOM     32  C   UNL A   1      40.443  26.222  26.590  1.00  0.00     0.010 A 
ATOM     33  C   UNL A   1      39.553  25.664  28.767  1.00  0.00     0.010 A 
ATOM     34  C   UNL A   1      40.206  26.577  27.927  1.00  0.00    -0.014 A 
BRANCH  34  35
ATOM     35  C   UNL A   1      40.645  27.888  28.471  1.00  0.00     0.031 A 
ATOM     36  C   UNL A   1      42.091  28.118  28.814  1.00  0.00     0.074 A 
ATOM     37  C   UNL A   1      39.734  28.847  28.722  1.00  0.00     0.049 A 
ATOM     38  N   UNL A   1      42.656  29.158  29.377  1.00  0.00    -0.248 NA
ATOM     39  C   UNL A   1      43.024  27.022  28.512  1.00  0.00     0.031 C 
ATOM     40  C   UNL A   1      38.296  28.734  28.473  1.00  0.00     0.029 A 
ATOM     41  N   UNL A   1      39.881  30.105  29.252  1.00  0.00    -0.354 N 
ATOM     42  C   UNL A   1      43.999  28.832  29.512  1.00  0.00     0.074 A 
ATOM     43  C   UNL A   1      44.156  27.478  29.026  1.00  0.00     0.031 C 
ATOM     44  C   UNL A   1      37.698  29.883  28.822  1.00  0.00     0.029 A 
ATOM     45  C   UNL A   1      38.701  30.798  29.358  1.00  0.00     0.049 A 
ATOM     46  H   UNL A   1      40.751  30.475  29.527  1.00  0.00     0.167 HD
ATOM     47  C   UNL A   1      45.015  29.599  29.976  1.00  0.00     0.037 A 
ATOM     48  C   UNL A   1      38.454  32.032  29.840  1.00  0.00     0.037 A 
ATOM     49  C   UNL A   1      44.862  30.955  30.435  1.00  0.00     0.049 A 
ATOM     50  C   UNL A   1      39.595  32.859  30.363  1.00  0.00     0.074 A 
ATOM     51  C   UNL A   1      45.837  31.836  30.868  1.00  0.00     0.029 A 
ATOM     52  N   UNL A   1      43.649  31.625  30.523  1.00  0.00    -0.354 N 
ATOM     53  N   UNL A   1      40.871  32.563  30.429  1.00  0.00    -0.248 NA
ATOM     54  C   UNL A   1      39.261  34.195  30.876  1.00  0.00     0.031 C 
ATOM     55  C   UNL A   1      45.210  33.025  31.259  1.00  0.00     0.029 A 
ATOM     56  C   UNL A   1      43.849  32.901  31.024  1.00  0.00     0.049 A 
ATOM     57  H   UNL A   1      42.777  31.249  30.266  1.00  0.00     0.167 HD
ATOM     58  C   UNL A   1      41.495  33.681  30.965  1.00  0.00     0.074 A 
ATOM     59  C   UNL A   1      40.459  34.668  31.193  1.00  0.00     0.031 C 
ATOM     60  C   UNL A   1      42.808  33.873  31.242  1.00  0.00     0.037 A 
BRANCH  47  61
ATOM     61  C   UNL A   1      46.385  28.983  30.007  1.00  0.00     0.064 A 
ATOM     62  C   UNL A   1      46.865  28.313  31.143  1.00  0.00     0.173 A 
ATOM     63  C   UNL A   1      47.225  29.052  28.885  1.00  0.00     0.173 A 
ATOM     64  F   UNL A   1      46.107  28.228  32.248  1.00  0.00    -0.203 F 
ATOM     65  C   UNL A   1      48.147  27.769  31.169  1.00  0.00     0.198 A 
ATOM     66  C   UNL A   1      48.494  28.479  28.903  1.00  0.00     0.198 A 
ATOM     67  F   UNL A   1      46.815  29.674  27.770  1.00  0.00    -0.203 F 
ATOM     68  F   UNL A   1      48.605  27.189  32.287  1.00  0.00    -0.200 F 
ATOM     69  C   UNL A   1      48.958  27.848  30.047  1.00  0.00     0.200 A 
ATOM     70  F   UNL A   1      49.272  28.544  27.814  1.00  0.00    -0.200 F 
ATOM     71  F   UNL A   1      50.192  27.325  30.074  1.00  0.00    -0.200 F 
ENDBRANCH  47  61
BRANCH  48  72
ATOM     72  C   UNL A   1      37.070  32.570  29.816  1.00  0.00     0.064 A 
ATOM     73  C   UNL A   1      36.211  32.379  30.908  1.00  0.00     0.173 A 
ATOM     74  C   UNL A   1      36.581  33.291  28.718  1.00  0.00     0.173 A 
ATOM     75  F   UNL A   1      36.628  31.678  31.973  1.00  0.00    -0.203 F 
ATOM     76  C   UNL A   1      34.911  32.878  30.896  1.00  0.00     0.198 A 
ATOM     77  C   UNL A   1      35.288  33.813  28.718  1.00  0.00     0.198 A 
ATOM     78  F   UNL A   1      37.365  33.505  27.652  1.00  0.00    -0.203 F 
ATOM     79  F   UNL A   1      34.099  32.650  31.938  1.00  0.00    -0.200 F 
ATOM     80  C   UNL A   1      34.453  33.601  29.806  1.00  0.00     0.200 A 
ATOM     81  F   UNL A   1      34.854  34.522  27.669  1.00  0.00    -0.200 F 
ATOM     82  F   UNL A   1      33.205  34.088  29.798  1.00  0.00    -0.200 F 
ENDBRANCH  48  72
BRANCH  60  83
ATOM     83  C   UNL A   1      43.205  35.211  31.794  1.00  0.00     0.064 A 
ATOM     84  C   UNL A   1      43.177  35.477  33.171  1.00  0.00     0.173 A 
ATOM     85  C   UNL A   1      43.650  36.229  30.937  1.00  0.00     0.173 A 
ATOM     86  F   UNL A   1      42.743  34.542  34.030  1.00  0.00    -0.203 F 
ATOM     87  C   UNL A   1      43.560  36.721  33.667  1.00  0.00     0.198 A 
ATOM     88  C   UNL A   1      44.058  37.462  31.439  1.00  0.00     0.198 A 
ATOM     89  F   UNL A   1      43.700  36.024  29.612  1.00  0.00    -0.203 F 
ATOM     90  F   UNL A   1      43.481  36.968  34.981  1.00  0.00    -0.200 F 
ATOM     91  C   UNL A   1      44.006  37.708  32.803  1.00  0.00     0.200 A 
ATOM     92  F   UNL A   1      44.502  38.410  30.603  1.00  0.00    -0.200 F 
ATOM     93  F   UNL A   1      44.380  38.903  33.282  1.00  0.00    -0.200 F 
ENDBRANCH  60  83
ENDBRANCH  34  35
ENDBRANCH  26  29
ENDBRANCH  24  25
ENDBRANCH   1  24
TORSDOF 13
ENDMDL
MODEL 3
REMARK VINA RESULT:     -11.7      2.483      7.762
REMARK SMILES C[C@@H]1CC([NH2+][C@@](C)(C(=O)NCCCNC(=O)c2ccc(-c3c4nc(c(-c5c(F)c(F)c(F)c(F)c5F)c5ccc([nH]5)c(-c5c(F)c(F)c(F)c(F)c5F)c5nc(c(-c6c(F)c(F)c(F)c(F)c6F)c6ccc3[nH]6)C=C5)C=C4)cc2)C(F)(F)F)C[C@@H](C)C1
REMARK SMILES IDX 12 1 11 2 10 3 8 4 9 5 6 7 7 8 5 9 4 12 1 13 2 14 3 15 87 16
REMARK SMILES IDX 85 17 84 18 86 19 80 20 81 21 82 22 83 23 13 24 14 25 15 26
REMARK SMILES IDX 16 28 17 29 18 30 79 31 19 32 78 33 20 34 21 35 22 36 72 37
REMARK SMILES IDX 23 38 77 39 71 40 73 41 24 42 76 43 70 44 69 45 25 47 57 48
REMARK SMILES IDX 37 49 56 50 38 51 41 52 55 53 74 54 39 55 40 56 54 58 75 59
REMARK SMILES IDX 42 60 26 61 27 62 35 63 28 64 29 65 33 66 36 67 30 68 31 69
REMARK SMILES IDX 34 70 32 71 58 72 59 73 67 74 60 75 61 76 65 77 68 78 62 79
REMARK SMILES IDX 63 80 66 81 64 82 43 83 44 84 52 85 45 86 46 87 50 88 53 89
REMARK SMILES IDX 47 90 48 91 51 92 49 93
REMARK H PARENT 10 6 5 10 5 11 14 27 73 46 41 57
REMARK Flexibility Score: inf
ROOT
ATOM      1  C   UNL A   1      33.911  27.691  26.002  1.00  0.00     0.042 C 
ENDROOT
BRANCH   1   2
ATOM      2  C   UNL A   1      32.798  27.203  25.082  1.00  0.00     0.118 C 
BRANCH   2   3
ATOM      3  N   UNL A   1      31.622  26.807  25.839  1.00  0.00    -0.350 N 
ATOM      4  C   UNL A   1      30.933  25.630  25.958  1.00  0.00     0.290 C 
ATOM      5  O   UNL A   1      29.914  25.700  26.651  1.00  0.00    -0.267 OA
ATOM      6  H   UNL A   1      31.242  27.538  26.377  1.00  0.00     0.163 HD
BRANCH   4   7
ATOM      7  C   UNL A   1      31.417  24.310  25.289  1.00  0.00     0.268 C 
ATOM      8  C   UNL A   1      30.644  23.145  25.946  1.00  0.00     0.101 C 
BRANCH   7   9
ATOM      9  N   UNL A   1      32.912  24.248  25.466  1.00  0.00    -0.324 N 
ATOM     10  H   UNL A   1      33.329  24.483  24.566  1.00  0.00     0.347 HD
ATOM     11  H   UNL A   1      33.093  24.891  26.237  1.00  0.00     0.347 HD
BRANCH   9  12
ATOM     12  C   UNL A   1      33.529  22.992  25.907  1.00  0.00     0.184 C 
ATOM     13  C   UNL A   1      34.338  23.327  22.629  1.00  0.00     0.008 C 
ATOM     14  C   UNL A   1      34.744  22.294  23.679  1.00  0.00    -0.008 C 
ATOM     15  C   UNL A   1      33.630  22.014  24.711  1.00  0.00     0.068 C 
ATOM     16  C   UNL A   1      36.087  22.671  24.332  1.00  0.00     0.007 C 
ATOM     17  C   UNL A   1      35.942  23.677  25.482  1.00  0.00    -0.008 C 
ATOM     18  C   UNL A   1      34.936  23.139  26.508  1.00  0.00     0.068 C 
ATOM     19  C   UNL A   1      37.286  23.977  26.142  1.00  0.00     0.008 C 
ENDBRANCH   9  12
ENDBRANCH   7   9
BRANCH   7  20
ATOM     20  C   UNL A   1      30.917  24.398  23.812  1.00  0.00     0.453 C 
ATOM     21  F   UNL A   1      30.698  23.192  23.244  1.00  0.00    -0.164 F 
ATOM     22  F   UNL A   1      29.735  25.073  23.750  1.00  0.00    -0.164 F 
ATOM     23  F   UNL A   1      31.771  25.095  23.023  1.00  0.00    -0.164 F 
ENDBRANCH   7  20
ENDBRANCH   4   7
ENDBRANCH   2   3
ENDBRANCH   1   2
BRANCH   1  24
ATOM     24  C   UNL A   1      33.415  28.252  27.327  1.00  0.00     0.118 C 
BRANCH  24  25
ATOM     25  N   UNL A   1      33.442  29.707  27.353  1.00  0.00    -0.352 N 
ATOM     26  C   UNL A   1      34.380  30.576  27.854  1.00  0.00     0.251 C 
ATOM     27  H   UNL A   1      32.658  30.139  26.945  1.00  0.00     0.163 HD
ATOM     28  O   UNL A   1      34.095  31.765  27.964  1.00  0.00    -0.269 OA
BRANCH  26  29
ATOM     29  C   UNL A   1      35.720  30.104  28.276  1.00  0.00     0.039 A 
ATOM     30  C   UNL A   1      36.770  30.148  27.353  1.00  0.00     0.014 A 
ATOM     31  C   UNL A   1      35.942  29.570  29.547  1.00  0.00     0.014 A 
ATOM     32  C   UNL A   1      38.047  29.720  27.723  1.00  0.00     0.010 A 
ATOM     33  C   UNL A   1      37.233  29.230  29.946  1.00  0.00     0.010 A 
ATOM     34  C   UNL A   1      38.298  29.289  29.036  1.00  0.00    -0.014 A 
BRANCH  34  35
ATOM     35  C   UNL A   1      39.658  28.884  29.473  1.00  0.00     0.031 A 
ATOM     36  C   UNL A   1      40.447  29.762  30.407  1.00  0.00     0.074 A 
ATOM     37  C   UNL A   1      40.213  27.761  28.979  1.00  0.00     0.049 A 
ATOM     38  N   UNL A   1      41.677  29.626  30.835  1.00  0.00    -0.248 NA
ATOM     39  C   UNL A   1      39.772  30.971  30.902  1.00  0.00     0.031 C 
ATOM     40  C   UNL A   1      39.570  26.845  28.036  1.00  0.00     0.029 A 
ATOM     41  N   UNL A   1      41.449  27.203  29.194  1.00  0.00    -0.354 N 
ATOM     42  C   UNL A   1      41.927  30.737  31.629  1.00  0.00     0.074 A 
ATOM     43  C   UNL A   1      40.742  31.567  31.579  1.00  0.00     0.031 C 
ATOM     44  C   UNL A   1      40.404  25.825  27.776  1.00  0.00     0.029 A 
ATOM     45  C   UNL A   1      41.654  26.037  28.499  1.00  0.00     0.049 A 
ATOM     46  H   UNL A   1      42.123  27.601  29.791  1.00  0.00     0.167 HD
ATOM     47  C   UNL A   1      43.033  31.030  32.355  1.00  0.00     0.037 A 
ATOM     48  C   UNL A   1      42.733  25.232  28.445  1.00  0.00     0.037 A 
ATOM     49  C   UNL A   1      44.201  30.190  32.424  1.00  0.00     0.049 A 
ATOM     50  C   UNL A   1      43.954  25.584  29.248  1.00  0.00     0.074 A 
ATOM     51  C   UNL A   1      45.349  30.368  33.176  1.00  0.00     0.029 A 
ATOM     52  N   UNL A   1      44.369  29.014  31.708  1.00  0.00    -0.354 N 
ATOM     53  N   UNL A   1      44.156  26.607  30.044  1.00  0.00    -0.248 NA
ATOM     54  C   UNL A   1      45.098  24.667  29.146  1.00  0.00     0.031 C 
ATOM     55  C   UNL A   1      46.230  29.320  32.883  1.00  0.00     0.029 A 
ATOM     56  C   UNL A   1      45.611  28.465  31.985  1.00  0.00     0.049 A 
ATOM     57  H   UNL A   1      43.704  28.625  31.096  1.00  0.00     0.167 HD
ATOM     58  C   UNL A   1      45.436  26.444  30.557  1.00  0.00     0.074 A 
ATOM     59  C   UNL A   1      45.958  25.215  29.994  1.00  0.00     0.031 C 
ATOM     60  C   UNL A   1      46.116  27.240  31.418  1.00  0.00     0.037 A 
BRANCH  47  61
ATOM     61  C   UNL A   1      43.028  32.315  33.133  1.00  0.00     0.064 A 
ATOM     62  C   UNL A   1      42.555  32.373  34.453  1.00  0.00     0.173 A 
ATOM     63  C   UNL A   1      43.513  33.499  32.559  1.00  0.00     0.173 A 
ATOM     64  F   UNL A   1      42.069  31.272  35.047  1.00  0.00    -0.203 F 
ATOM     65  C   UNL A   1      42.531  33.576  35.155  1.00  0.00     0.198 A 
ATOM     66  C   UNL A   1      43.517  34.694  33.274  1.00  0.00     0.198 A 
ATOM     67  F   UNL A   1      43.983  33.500  31.303  1.00  0.00    -0.203 F 
ATOM     68  F   UNL A   1      42.017  33.618  36.392  1.00  0.00    -0.200 F 
ATOM     69  C   UNL A   1      43.017  34.734  34.567  1.00  0.00     0.200 A 
ATOM     70  F   UNL A   1      44.000  35.809  32.710  1.00  0.00    -0.200 F 
ATOM     71  F   UNL A   1      42.993  35.891  35.243  1.00  0.00    -0.200 F 
ENDBRANCH  47  61
BRANCH  48  72
ATOM     72  C   UNL A   1      42.689  23.994  27.625  1.00  0.00     0.064 A 
ATOM     73  C   UNL A   1      43.007  24.030  26.261  1.00  0.00     0.173 A 
ATOM     74  C   UNL A   1      42.344  22.755  28.184  1.00  0.00     0.173 A 
ATOM     75  F   UNL A   1      43.324  25.196  25.678  1.00  0.00    -0.203 F 
ATOM     76  C   UNL A   1      42.969  22.876  25.482  1.00  0.00     0.198 A 
ATOM     77  C   UNL A   1      42.332  21.596  27.410  1.00  0.00     0.198 A 
ATOM     78  F   UNL A   1      42.037  22.667  29.486  1.00  0.00    -0.203 F 
ATOM     79  F   UNL A   1      43.242  22.944  24.172  1.00  0.00    -0.200 F 
ATOM     80  C   UNL A   1      42.639  21.659  26.058  1.00  0.00     0.200 A 
ATOM     81  F   UNL A   1      42.026  20.420  27.974  1.00  0.00    -0.200 F 
ATOM     82  F   UNL A   1      42.610  20.547  25.311  1.00  0.00    -0.200 F 
ENDBRANCH  48  72
BRANCH  60  83
ATOM     83  C   UNL A   1      47.488  26.792  31.829  1.00  0.00     0.064 A 
ATOM     84  C   UNL A   1      47.681  25.887  32.883  1.00  0.00     0.173 A 
ATOM     85  C   UNL A   1      48.620  27.247  31.137  1.00  0.00     0.173 A 
ATOM     86  F   UNL A   1      46.632  25.436  33.587  1.00  0.00    -0.203 F 
ATOM     87  C   UNL A   1      48.961  25.473  33.245  1.00  0.00     0.198 A 
ATOM     88  C   UNL A   1      49.896  26.809  31.483  1.00  0.00     0.198 A 
ATOM     89  F   UNL A   1      48.489  28.110  30.118  1.00  0.00    -0.203 F 
ATOM     90  F   UNL A   1      49.126  24.645  34.285  1.00  0.00    -0.200 F 
ATOM     91  C   UNL A   1      50.065  25.928  32.540  1.00  0.00     0.200 A 
ATOM     92  F   UNL A   1      50.961  27.240  30.792  1.00  0.00    -0.200 F 
ATOM     93  F   UNL A   1      51.295  25.524  32.885  1.00  0.00    -0.200 F 
ENDBRANCH  60  83
ENDBRANCH  34  35
ENDBRANCH  26  29
ENDBRANCH  24  25
ENDBRANCH   1  24
TORSDOF 13
ENDMDL
