MODEL 1
REMARK VINA RESULT:     -12.4      0.000      0.000
REMARK SMILES Cc1cc(C)cc(CSCc2cc(C(=O)NCCCNC(=O)c3ccc(-c4c5nc(c(-c6c(F)c(F)c(F)c(F)c6F)c6ccc([nH]6)c(-c6c(F)c(F)c(F)c(F)c6F)c6nc(c(-c7c(F)c(F)c(F)c(F)c7F)c7ccc4[nH]7)C=C6)C=C5)cc3)c(C)o2)c1
REMARK SMILES IDX 17 1 16 2 14 3 15 4 13 6 11 7 12 8 88 9 86 10 87 11 10 12
REMARK SMILES IDX 9 13 8 14 7 15 1 16 2 17 3 18 89 19 4 20 5 21 6 22 18 23
REMARK SMILES IDX 19 24 20 25 21 26 22 28 23 29 24 30 85 31 25 32 84 33 26 34
REMARK SMILES IDX 27 35 28 36 78 37 29 38 83 39 77 40 79 41 30 42 82 43 76 44
REMARK SMILES IDX 75 45 31 47 63 48 43 49 62 50 44 51 47 52 61 53 80 54 45 55
REMARK SMILES IDX 46 56 60 58 81 59 48 60 32 61 33 62 41 63 34 64 35 65 39 66
REMARK SMILES IDX 42 67 36 68 37 69 40 70 38 71 64 72 65 73 73 74 66 75 67 76
REMARK SMILES IDX 71 77 74 78 68 79 69 80 72 81 70 82 49 83 50 84 58 85 51 86
REMARK SMILES IDX 52 87 56 88 59 89 53 90 54 91 57 92 55 93
REMARK H PARENT 16 5 20 27 79 46 47 57
REMARK Flexibility Score: inf
ROOT
ATOM      1  C   UNL A   1      31.085  27.104  25.931  1.00  0.00     0.118 C 
ENDROOT
BRANCH   1   2
ATOM      2  N   UNL A   1      30.531  27.657  24.711  1.00  0.00    -0.352 N 
ATOM      3  C   UNL A   1      30.786  27.333  23.397  1.00  0.00     0.254 C 
ATOM      4  O   UNL A   1      30.134  27.943  22.548  1.00  0.00    -0.269 OA
ATOM      5  H   UNL A   1      29.871  28.375  24.843  1.00  0.00     0.163 HD
BRANCH   3   6
ATOM      6  C   UNL A   1      31.771  26.317  23.041  1.00  0.00     0.081 A 
ATOM      7  C   UNL A   1      32.831  24.388  22.492  1.00  0.00     0.114 A 
ATOM      8  C   UNL A   1      31.648  24.907  22.957  1.00  0.00     0.060 A 
ATOM      9  O   UNL A   1      33.728  25.398  22.337  1.00  0.00    -0.465 OA
ATOM     10  C   UNL A   1      33.088  26.561  22.665  1.00  0.00     0.113 A 
ATOM     11  C   UNL A   1      33.923  27.779  22.556  1.00  0.00     0.088 C 
BRANCH   7  12
ATOM     12  C   UNL A   1      33.270  23.013  22.139  1.00  0.00     0.145 C 
BRANCH  12  13
ATOM     13  S   UNL A   1      32.911  21.794  23.462  1.00  0.00    -0.149 SA
BRANCH  13  14
ATOM     14  C   UNL A   1      33.674  22.596  24.907  1.00  0.00     0.105 C 
BRANCH  14  15
ATOM     15  C   UNL A   1      35.149  22.362  25.112  1.00  0.00    -0.038 A 
ATOM     16  C   UNL A   1      38.211  24.305  26.326  1.00  0.00     0.044 C 
ATOM     17  C   UNL A   1      37.333  23.201  25.820  1.00  0.00    -0.051 A 
ATOM     18  C   UNL A   1      37.896  21.959  25.535  1.00  0.00     0.006 A 
ATOM     19  C   UNL A   1      35.966  23.400  25.591  1.00  0.00     0.008 A 
ATOM     20  C   UNL A   1      37.101  20.907  25.074  1.00  0.00    -0.051 A 
ATOM     21  C   UNL A   1      37.762  19.601  24.774  1.00  0.00     0.044 C 
ATOM     22  C   UNL A   1      35.731  21.109  24.864  1.00  0.00     0.008 A 
ENDBRANCH  14  15
ENDBRANCH  13  14
ENDBRANCH  12  13
ENDBRANCH   7  12
ENDBRANCH   3   6
ENDBRANCH   1   2
BRANCH   1  23
ATOM     23  C   UNL A   1      31.795  28.082  26.854  1.00  0.00     0.042 C 
BRANCH  23  24
ATOM     24  C   UNL A   1      32.769  29.059  26.210  1.00  0.00     0.118 C 
BRANCH  24  25
ATOM     25  N   UNL A   1      32.497  30.473  26.456  1.00  0.00    -0.352 N 
ATOM     26  C   UNL A   1      33.169  31.434  27.176  1.00  0.00     0.251 C 
ATOM     27  H   UNL A   1      31.676  30.801  26.024  1.00  0.00     0.163 HD
ATOM     28  O   UNL A   1      32.645  32.525  27.387  1.00  0.00    -0.269 OA
BRANCH  26  29
ATOM     29  C   UNL A   1      34.519  31.159  27.696  1.00  0.00     0.039 A 
ATOM     30  C   UNL A   1      35.462  32.184  27.813  1.00  0.00     0.014 A 
ATOM     31  C   UNL A   1      34.852  29.862  28.072  1.00  0.00     0.014 A 
ATOM     32  C   UNL A   1      36.688  31.921  28.431  1.00  0.00     0.010 A 
ATOM     33  C   UNL A   1      35.990  29.639  28.824  1.00  0.00     0.010 A 
ATOM     34  C   UNL A   1      36.928  30.662  29.003  1.00  0.00    -0.014 A 
BRANCH  34  35
ATOM     35  C   UNL A   1      38.142  30.352  29.796  1.00  0.00     0.031 A 
ATOM     36  C   UNL A   1      39.153  29.381  29.247  1.00  0.00     0.074 A 
ATOM     37  C   UNL A   1      38.252  30.825  31.052  1.00  0.00     0.049 A 
ATOM     38  N   UNL A   1      40.166  28.809  29.845  1.00  0.00    -0.248 NA
ATOM     39  C   UNL A   1      38.959  28.943  27.854  1.00  0.00     0.031 C 
ATOM     40  C   UNL A   1      37.291  31.709  31.715  1.00  0.00     0.029 A 
ATOM     41  N   UNL A   1      39.210  30.604  32.008  1.00  0.00    -0.354 N 
ATOM     42  C   UNL A   1      40.698  27.924  28.916  1.00  0.00     0.074 A 
ATOM     43  C   UNL A   1      39.852  27.973  27.746  1.00  0.00     0.031 C 
ATOM     44  C   UNL A   1      37.723  31.981  32.957  1.00  0.00     0.029 A 
ATOM     45  C   UNL A   1      38.962  31.251  33.195  1.00  0.00     0.049 A 
ATOM     46  H   UNL A   1      39.999  30.036  31.859  1.00  0.00     0.167 HD
ATOM     47  C   UNL A   1      41.816  27.166  29.017  1.00  0.00     0.037 A 
ATOM     48  C   UNL A   1      39.657  31.244  34.348  1.00  0.00     0.037 A 
ATOM     49  C   UNL A   1      42.673  27.167  30.171  1.00  0.00     0.049 A 
ATOM     50  C   UNL A   1      40.914  30.421  34.424  1.00  0.00     0.074 A 
ATOM     51  C   UNL A   1      43.867  26.497  30.364  1.00  0.00     0.029 A 
ATOM     52  N   UNL A   1      42.425  27.891  31.330  1.00  0.00    -0.354 N 
ATOM     53  N   UNL A   1      41.448  29.640  33.515  1.00  0.00    -0.248 NA
ATOM     54  C   UNL A   1      41.669  30.484  35.682  1.00  0.00     0.031 C 
ATOM     55  C   UNL A   1      44.323  26.786  31.653  1.00  0.00     0.029 A 
ATOM     56  C   UNL A   1      43.440  27.675  32.247  1.00  0.00     0.049 A 
ATOM     57  H   UNL A   1      41.645  28.471  31.478  1.00  0.00     0.167 HD
ATOM     58  C   UNL A   1      42.616  29.144  34.077  1.00  0.00     0.074 A 
ATOM     59  C   UNL A   1      42.720  29.726  35.399  1.00  0.00     0.031 C 
ATOM     60  C   UNL A   1      43.521  28.283  33.551  1.00  0.00     0.037 A 
BRANCH  47  61
ATOM     61  C   UNL A   1      42.177  26.300  27.844  1.00  0.00     0.064 A 
ATOM     62  C   UNL A   1      41.599  25.033  27.658  1.00  0.00     0.173 A 
ATOM     63  C   UNL A   1      43.101  26.741  26.885  1.00  0.00     0.173 A 
ATOM     64  F   UNL A   1      40.719  24.554  28.552  1.00  0.00    -0.203 F 
ATOM     65  C   UNL A   1      41.963  24.227  26.582  1.00  0.00     0.198 A 
ATOM     66  C   UNL A   1      43.435  25.947  25.789  1.00  0.00     0.198 A 
ATOM     67  F   UNL A   1      43.683  27.944  27.008  1.00  0.00    -0.203 F 
ATOM     68  F   UNL A   1      41.444  22.996  26.465  1.00  0.00    -0.200 F 
ATOM     69  C   UNL A   1      42.874  24.687  25.645  1.00  0.00     0.200 A 
ATOM     70  F   UNL A   1      44.306  26.399  24.877  1.00  0.00    -0.200 F 
ATOM     71  F   UNL A   1      43.219  23.913  24.608  1.00  0.00    -0.200 F 
ENDBRANCH  47  61
BRANCH  48  72
ATOM     72  C   UNL A   1      39.205  32.070  35.498  1.00  0.00     0.064 A 
ATOM     73  C   UNL A   1      39.550  33.427  35.584  1.00  0.00     0.173 A 
ATOM     74  C   UNL A   1      38.424  31.532  36.532  1.00  0.00     0.173 A 
ATOM     75  F   UNL A   1      40.307  33.986  34.628  1.00  0.00    -0.203 F 
ATOM     76  C   UNL A   1      39.154  34.206  36.669  1.00  0.00     0.198 A 
ATOM     77  C   UNL A   1      38.003  32.320  37.602  1.00  0.00     0.198 A 
ATOM     78  F   UNL A   1      38.056  30.243  36.495  1.00  0.00    -0.203 F 
ATOM     79  F   UNL A   1      39.540  35.487  36.747  1.00  0.00    -0.200 F 
ATOM     80  C   UNL A   1      38.377  33.653  37.675  1.00  0.00     0.200 A 
ATOM     81  F   UNL A   1      37.236  31.787  38.562  1.00  0.00    -0.200 F 
ATOM     82  F   UNL A   1      37.993  34.404  38.717  1.00  0.00    -0.200 F 
ENDBRANCH  48  72
BRANCH  60  83
ATOM     83  C   UNL A   1      44.720  27.955  34.391  1.00  0.00     0.064 A 
ATOM     84  C   UNL A   1      44.734  26.851  35.254  1.00  0.00     0.173 A 
ATOM     85  C   UNL A   1      45.883  28.734  34.295  1.00  0.00     0.173 A 
ATOM     86  F   UNL A   1      43.641  26.086  35.391  1.00  0.00    -0.203 F 
ATOM     87  C   UNL A   1      45.862  26.554  36.014  1.00  0.00     0.198 A 
ATOM     88  C   UNL A   1      47.020  28.415  35.030  1.00  0.00     0.198 A 
ATOM     89  F   UNL A   1      45.921  29.797  33.476  1.00  0.00    -0.203 F 
ATOM     90  F   UNL A   1      45.837  25.524  36.870  1.00  0.00    -0.200 F 
ATOM     91  C   UNL A   1      47.006  27.330  35.895  1.00  0.00     0.200 A 
ATOM     92  F   UNL A   1      48.129  29.156  34.902  1.00  0.00    -0.200 F 
ATOM     93  F   UNL A   1      48.094  27.037  36.619  1.00  0.00    -0.200 F 
ENDBRANCH  60  83
ENDBRANCH  34  35
ENDBRANCH  26  29
ENDBRANCH  24  25
ENDBRANCH  23  24
ENDBRANCH   1  23
TORSDOF 14
ENDMDL
MODEL 2
REMARK VINA RESULT:     -12.4      0.652      7.452
REMARK SMILES Cc1cc(C)cc(CSCc2cc(C(=O)NCCCNC(=O)c3ccc(-c4c5nc(c(-c6c(F)c(F)c(F)c(F)c6F)c6ccc([nH]6)c(-c6c(F)c(F)c(F)c(F)c6F)c6nc(c(-c7c(F)c(F)c(F)c(F)c7F)c7ccc4[nH]7)C=C6)C=C5)cc3)c(C)o2)c1
REMARK SMILES IDX 17 1 16 2 14 3 15 4 13 6 11 7 12 8 88 9 86 10 87 11 10 12
REMARK SMILES IDX 9 13 8 14 7 15 1 16 2 17 3 18 89 19 4 20 5 21 6 22 18 23
REMARK SMILES IDX 19 24 20 25 21 26 22 28 23 29 24 30 85 31 25 32 84 33 26 34
REMARK SMILES IDX 27 35 28 36 78 37 29 38 83 39 77 40 79 41 30 42 82 43 76 44
REMARK SMILES IDX 75 45 31 47 63 48 43 49 62 50 44 51 47 52 61 53 80 54 45 55
REMARK SMILES IDX 46 56 60 58 81 59 48 60 32 61 33 62 41 63 34 64 35 65 39 66
REMARK SMILES IDX 42 67 36 68 37 69 40 70 38 71 64 72 65 73 73 74 66 75 67 76
REMARK SMILES IDX 71 77 74 78 68 79 69 80 72 81 70 82 49 83 50 84 58 85 51 86
REMARK SMILES IDX 52 87 56 88 59 89 53 90 54 91 57 92 55 93
REMARK H PARENT 16 5 20 27 79 46 47 57
REMARK Flexibility Score: inf
ROOT
ATOM      1  C   UNL A   1      31.498  28.358  25.301  1.00  0.00     0.118 C 
ENDROOT
BRANCH   1   2
ATOM      2  N   UNL A   1      30.781  28.441  24.045  1.00  0.00    -0.352 N 
ATOM      3  C   UNL A   1      30.959  27.735  22.876  1.00  0.00     0.254 C 
ATOM      4  O   UNL A   1      30.169  27.983  21.963  1.00  0.00    -0.269 OA
ATOM      5  H   UNL A   1      30.055  29.105  24.024  1.00  0.00     0.163 HD
BRANCH   3   6
ATOM      6  C   UNL A   1      32.022  26.746  22.739  1.00  0.00     0.081 A 
ATOM      7  C   UNL A   1      33.229  24.831  22.571  1.00  0.00     0.114 A 
ATOM      8  C   UNL A   1      31.993  25.336  22.892  1.00  0.00     0.060 A 
ATOM      9  O   UNL A   1      34.067  25.862  22.281  1.00  0.00    -0.465 OA
ATOM     10  C   UNL A   1      33.339  27.016  22.380  1.00  0.00     0.113 A 
ATOM     11  C   UNL A   1      34.101  28.254  22.096  1.00  0.00     0.088 C 
BRANCH   7  12
ATOM     12  C   UNL A   1      33.770  23.451  22.476  1.00  0.00     0.145 C 
BRANCH  12  13
ATOM     13  S   UNL A   1      32.924  22.280  23.606  1.00  0.00    -0.149 SA
BRANCH  13  14
ATOM     14  C   UNL A   1      33.715  22.678  25.196  1.00  0.00     0.105 C 
BRANCH  14  15
ATOM     15  C   UNL A   1      35.198  22.425  25.299  1.00  0.00    -0.038 A 
ATOM     16  C   UNL A   1      38.359  24.318  26.323  1.00  0.00     0.044 C 
ATOM     17  C   UNL A   1      37.435  23.230  25.866  1.00  0.00    -0.051 A 
ATOM     18  C   UNL A   1      37.962  21.984  25.529  1.00  0.00     0.006 A 
ATOM     19  C   UNL A   1      36.059  23.447  25.732  1.00  0.00     0.008 A 
ATOM     20  C   UNL A   1      37.124  20.947  25.113  1.00  0.00    -0.051 A 
ATOM     21  C   UNL A   1      37.747  19.637  24.754  1.00  0.00     0.044 C 
ATOM     22  C   UNL A   1      35.746  21.168  24.998  1.00  0.00     0.008 A 
ENDBRANCH  14  15
ENDBRANCH  13  14
ENDBRANCH  12  13
ENDBRANCH   7  12
ENDBRANCH   3   6
ENDBRANCH   1   2
BRANCH   1  23
ATOM     23  C   UNL A   1      32.486  29.478  25.590  1.00  0.00     0.042 C 
BRANCH  23  24
ATOM     24  C   UNL A   1      32.427  30.115  26.971  1.00  0.00     0.118 C 
BRANCH  24  25
ATOM     25  N   UNL A   1      32.603  31.565  27.004  1.00  0.00    -0.352 N 
ATOM     26  C   UNL A   1      33.592  32.367  27.524  1.00  0.00     0.251 C 
ATOM     27  H   UNL A   1      31.872  32.063  26.572  1.00  0.00     0.163 HD
ATOM     28  O   UNL A   1      33.430  33.582  27.589  1.00  0.00    -0.269 OA
BRANCH  26  29
ATOM     29  C   UNL A   1      34.850  31.770  28.006  1.00  0.00     0.039 A 
ATOM     30  C   UNL A   1      35.998  32.553  28.159  1.00  0.00     0.014 A 
ATOM     31  C   UNL A   1      34.887  30.414  28.308  1.00  0.00     0.014 A 
ATOM     32  C   UNL A   1      37.138  31.991  28.740  1.00  0.00     0.010 A 
ATOM     33  C   UNL A   1      35.951  29.903  29.027  1.00  0.00     0.010 A 
ATOM     34  C   UNL A   1      37.095  30.680  29.243  1.00  0.00    -0.014 A 
BRANCH  34  35
ATOM     35  C   UNL A   1      38.214  30.066  29.996  1.00  0.00     0.031 A 
ATOM     36  C   UNL A   1      38.484  30.512  31.409  1.00  0.00     0.074 A 
ATOM     37  C   UNL A   1      39.061  29.233  29.362  1.00  0.00     0.049 A 
ATOM     38  N   UNL A   1      39.518  30.271  32.173  1.00  0.00    -0.248 NA
ATOM     39  C   UNL A   1      37.485  31.404  32.022  1.00  0.00     0.031 C 
ATOM     40  C   UNL A   1      38.942  28.796  27.970  1.00  0.00     0.029 A 
ATOM     41  N   UNL A   1      40.209  28.624  29.801  1.00  0.00    -0.354 N 
ATOM     42  C   UNL A   1      39.308  31.009  33.331  1.00  0.00     0.074 A 
ATOM     43  C   UNL A   1      38.094  31.767  33.139  1.00  0.00     0.031 C 
ATOM     44  C   UNL A   1      39.956  27.966  27.677  1.00  0.00     0.029 A 
ATOM     45  C   UNL A   1      40.823  27.852  28.843  1.00  0.00     0.049 A 
ATOM     46  H   UNL A   1      40.561  28.730  30.713  1.00  0.00     0.167 HD
ATOM     47  C   UNL A   1      40.044  31.022  34.468  1.00  0.00     0.037 A 
ATOM     48  C   UNL A   1      41.965  27.143  28.903  1.00  0.00     0.037 A 
ATOM     49  C   UNL A   1      41.223  30.223  34.658  1.00  0.00     0.049 A 
ATOM     50  C   UNL A   1      42.747  27.146  30.189  1.00  0.00     0.074 A 
ATOM     51  C   UNL A   1      42.012  30.099  35.787  1.00  0.00     0.029 A 
ATOM     52  N   UNL A   1      41.776  29.399  33.687  1.00  0.00    -0.354 N 
ATOM     53  N   UNL A   1      42.503  27.792  31.304  1.00  0.00    -0.248 NA
ATOM     54  C   UNL A   1      43.957  26.316  30.228  1.00  0.00     0.031 C 
ATOM     55  C   UNL A   1      43.064  29.228  35.488  1.00  0.00     0.029 A 
ATOM     56  C   UNL A   1      42.904  28.770  34.188  1.00  0.00     0.049 A 
ATOM     57  H   UNL A   1      41.420  29.279  32.778  1.00  0.00     0.167 HD
ATOM     58  C   UNL A   1      43.508  27.425  32.186  1.00  0.00     0.074 A 
ATOM     59  C   UNL A   1      44.356  26.485  31.481  1.00  0.00     0.031 C 
ATOM     60  C   UNL A   1      43.717  27.827  33.463  1.00  0.00     0.037 A 
BRANCH  47  61
ATOM     61  C   UNL A   1      39.577  31.908  35.588  1.00  0.00     0.064 A 
ATOM     62  C   UNL A   1      38.606  31.480  36.510  1.00  0.00     0.173 A 
ATOM     63  C   UNL A   1      40.111  33.194  35.755  1.00  0.00     0.173 A 
ATOM     64  F   UNL A   1      38.050  30.264  36.389  1.00  0.00    -0.203 F 
ATOM     65  C   UNL A   1      38.161  32.319  37.527  1.00  0.00     0.198 A 
ATOM     66  C   UNL A   1      39.690  34.018  36.797  1.00  0.00     0.198 A 
ATOM     67  F   UNL A   1      41.044  33.655  34.909  1.00  0.00    -0.203 F 
ATOM     68  F   UNL A   1      37.186  31.909  38.352  1.00  0.00    -0.200 F 
ATOM     69  C   UNL A   1      38.708  33.584  37.675  1.00  0.00     0.200 A 
ATOM     70  F   UNL A   1      40.229  35.235  36.948  1.00  0.00    -0.200 F 
ATOM     71  F   UNL A   1      38.282  34.388  38.658  1.00  0.00    -0.200 F 
ENDBRANCH  47  61
BRANCH  48  72
ATOM     72  C   UNL A   1      42.409  26.341  27.733  1.00  0.00     0.064 A 
ATOM     73  C   UNL A   1      41.888  25.060  27.503  1.00  0.00     0.173 A 
ATOM     74  C   UNL A   1      43.356  26.830  26.820  1.00  0.00     0.173 A 
ATOM     75  F   UNL A   1      40.989  24.542  28.354  1.00  0.00    -0.203 F 
ATOM     76  C   UNL A   1      42.314  24.288  26.424  1.00  0.00     0.198 A 
ATOM     77  C   UNL A   1      43.760  26.069  25.724  1.00  0.00     0.198 A 
ATOM     78  F   UNL A   1      43.880  28.054  26.986  1.00  0.00    -0.203 F 
ATOM     79  F   UNL A   1      41.834  23.049  26.258  1.00  0.00    -0.200 F 
ATOM     80  C   UNL A   1      43.246  24.796  25.532  1.00  0.00     0.200 A 
ATOM     81  F   UNL A   1      44.647  26.571  24.854  1.00  0.00    -0.200 F 
ATOM     82  F   UNL A   1      43.654  24.056  24.492  1.00  0.00    -0.200 F 
ENDBRANCH  48  72
BRANCH  60  83
ATOM     83  C   UNL A   1      44.881  27.219  34.189  1.00  0.00     0.064 A 
ATOM     84  C   UNL A   1      46.140  27.834  34.205  1.00  0.00     0.173 A 
ATOM     85  C   UNL A   1      44.718  26.029  34.913  1.00  0.00     0.173 A 
ATOM     86  F   UNL A   1      46.349  28.965  33.515  1.00  0.00    -0.203 F 
ATOM     87  C   UNL A   1      47.204  27.264  34.898  1.00  0.00     0.198 A 
ATOM     88  C   UNL A   1      45.773  25.479  35.632  1.00  0.00     0.198 A 
ATOM     89  F   UNL A   1      43.528  25.407  34.936  1.00  0.00    -0.203 F 
ATOM     90  F   UNL A   1      48.412  27.841  34.858  1.00  0.00    -0.200 F 
ATOM     91  C   UNL A   1      47.018  26.092  35.618  1.00  0.00     0.200 A 
ATOM     92  F   UNL A   1      45.588  24.356  36.340  1.00  0.00    -0.200 F 
ATOM     93  F   UNL A   1      48.040  25.549  36.292  1.00  0.00    -0.200 F 
ENDBRANCH  60  83
ENDBRANCH  34  35
ENDBRANCH  26  29
ENDBRANCH  24  25
ENDBRANCH  23  24
ENDBRANCH   1  23
TORSDOF 14
ENDMDL
MODEL 3
REMARK VINA RESULT:     -12.3      4.446      9.835
REMARK SMILES Cc1cc(C)cc(CSCc2cc(C(=O)NCCCNC(=O)c3ccc(-c4c5nc(c(-c6c(F)c(F)c(F)c(F)c6F)c6ccc([nH]6)c(-c6c(F)c(F)c(F)c(F)c6F)c6nc(c(-c7c(F)c(F)c(F)c(F)c7F)c7ccc4[nH]7)C=C6)C=C5)cc3)c(C)o2)c1
REMARK SMILES IDX 17 1 16 2 14 3 15 4 13 6 11 7 12 8 88 9 86 10 87 11 10 12
REMARK SMILES IDX 9 13 8 14 7 15 1 16 2 17 3 18 89 19 4 20 5 21 6 22 18 23
REMARK SMILES IDX 19 24 20 25 21 26 22 28 23 29 24 30 85 31 25 32 84 33 26 34
REMARK SMILES IDX 27 35 28 36 78 37 29 38 83 39 77 40 79 41 30 42 82 43 76 44
REMARK SMILES IDX 75 45 31 47 63 48 43 49 62 50 44 51 47 52 61 53 80 54 45 55
REMARK SMILES IDX 46 56 60 58 81 59 48 60 32 61 33 62 41 63 34 64 35 65 39 66
REMARK SMILES IDX 42 67 36 68 37 69 40 70 38 71 64 72 65 73 73 74 66 75 67 76
REMARK SMILES IDX 71 77 74 78 68 79 69 80 72 81 70 82 49 83 50 84 58 85 51 86
REMARK SMILES IDX 52 87 56 88 59 89 53 90 54 91 57 92 55 93
REMARK H PARENT 16 5 20 27 79 46 47 57
REMARK Flexibility Score: inf
ROOT
ATOM      1  C   UNL A   1      34.804  22.375  24.227  1.00  0.00     0.118 C 
ENDROOT
BRANCH   1   2
ATOM      2  N   UNL A   1      33.807  21.342  24.427  1.00  0.00    -0.352 N 
ATOM      3  C   UNL A   1      32.565  21.412  25.018  1.00  0.00     0.254 C 
ATOM      4  O   UNL A   1      31.900  20.375  25.015  1.00  0.00    -0.269 OA
ATOM      5  H   UNL A   1      34.058  20.452  24.088  1.00  0.00     0.163 HD
BRANCH   3   6
ATOM      6  C   UNL A   1      32.072  22.653  25.605  1.00  0.00     0.081 A 
ATOM      7  C   UNL A   1      31.009  24.617  26.012  1.00  0.00     0.114 A 
ATOM      8  C   UNL A   1      31.305  23.700  25.032  1.00  0.00     0.060 A 
ATOM      9  O   UNL A   1      31.607  24.235  27.171  1.00  0.00    -0.465 OA
ATOM     10  C   UNL A   1      32.246  23.050  26.927  1.00  0.00     0.113 A 
ATOM     11  C   UNL A   1      32.962  22.481  28.092  1.00  0.00     0.088 C 
BRANCH   7  12
ATOM     12  C   UNL A   1      30.195  25.859  26.029  1.00  0.00     0.145 C 
BRANCH  12  13
ATOM     13  S   UNL A   1      30.240  26.758  24.431  1.00  0.00    -0.149 SA
BRANCH  13  14
ATOM     14  C   UNL A   1      31.994  27.233  24.334  1.00  0.00     0.105 C 
BRANCH  14  15
ATOM     15  C   UNL A   1      32.448  28.340  25.252  1.00  0.00    -0.038 A 
ATOM     16  C   UNL A   1      31.202  31.748  26.459  1.00  0.00     0.044 C 
ATOM     17  C   UNL A   1      32.040  30.518  26.284  1.00  0.00    -0.051 A 
ATOM     18  C   UNL A   1      33.247  30.411  26.973  1.00  0.00     0.006 A 
ATOM     19  C   UNL A   1      31.656  29.490  25.415  1.00  0.00     0.008 A 
ATOM     20  C   UNL A   1      34.043  29.271  26.840  1.00  0.00    -0.051 A 
ATOM     21  C   UNL A   1      35.331  29.217  27.594  1.00  0.00     0.044 C 
ATOM     22  C   UNL A   1      33.643  28.239  25.982  1.00  0.00     0.008 A 
ENDBRANCH  14  15
ENDBRANCH  13  14
ENDBRANCH  12  13
ENDBRANCH   7  12
ENDBRANCH   3   6
ENDBRANCH   1   2
BRANCH   1  23
ATOM     23  C   UNL A   1      36.251  21.911  24.151  1.00  0.00     0.042 C 
BRANCH  23  24
ATOM     24  C   UNL A   1      37.113  22.125  25.387  1.00  0.00     0.118 C 
BRANCH  24  25
ATOM     25  N   UNL A   1      38.075  21.065  25.676  1.00  0.00    -0.352 N 
ATOM     26  C   UNL A   1      39.352  21.087  26.188  1.00  0.00     0.251 C 
ATOM     27  H   UNL A   1      37.747  20.162  25.463  1.00  0.00     0.163 HD
ATOM     28  O   UNL A   1      40.039  20.070  26.173  1.00  0.00    -0.269 OA
BRANCH  26  29
ATOM     29  C   UNL A   1      39.899  22.331  26.757  1.00  0.00     0.039 A 
ATOM     30  C   UNL A   1      40.851  22.290  27.779  1.00  0.00     0.014 A 
ATOM     31  C   UNL A   1      39.458  23.554  26.266  1.00  0.00     0.014 A 
ATOM     32  C   UNL A   1      41.448  23.478  28.208  1.00  0.00     0.010 A 
ATOM     33  C   UNL A   1      40.159  24.706  26.571  1.00  0.00     0.010 A 
ATOM     34  C   UNL A   1      41.155  24.686  27.554  1.00  0.00    -0.014 A 
BRANCH  34  35
ATOM     35  C   UNL A   1      41.851  25.959  27.856  1.00  0.00     0.031 A 
ATOM     36  C   UNL A   1      41.108  27.052  28.579  1.00  0.00     0.074 A 
ATOM     37  C   UNL A   1      43.081  26.178  27.353  1.00  0.00     0.049 A 
ATOM     38  N   UNL A   1      41.441  28.303  28.760  1.00  0.00    -0.248 NA
ATOM     39  C   UNL A   1      39.780  26.705  29.113  1.00  0.00     0.031 C 
ATOM     40  C   UNL A   1      43.862  25.219  26.569  1.00  0.00     0.029 A 
ATOM     41  N   UNL A   1      43.881  27.290  27.403  1.00  0.00    -0.354 N 
ATOM     42  C   UNL A   1      40.353  28.893  29.390  1.00  0.00     0.074 A 
ATOM     43  C   UNL A   1      39.320  27.888  29.489  1.00  0.00     0.031 C 
ATOM     44  C   UNL A   1      45.040  25.772  26.239  1.00  0.00     0.029 A 
ATOM     45  C   UNL A   1      45.076  27.139  26.743  1.00  0.00     0.049 A 
ATOM     46  H   UNL A   1      43.623  28.119  27.867  1.00  0.00     0.167 HD
ATOM     47  C   UNL A   1      40.240  30.151  29.878  1.00  0.00     0.037 A 
ATOM     48  C   UNL A   1      46.082  28.014  26.559  1.00  0.00     0.037 A 
ATOM     49  C   UNL A   1      41.298  31.124  29.815  1.00  0.00     0.049 A 
ATOM     50  C   UNL A   1      45.948  29.396  27.141  1.00  0.00     0.074 A 
ATOM     51  C   UNL A   1      41.327  32.404  30.334  1.00  0.00     0.029 A 
ATOM     52  N   UNL A   1      42.523  30.909  29.198  1.00  0.00    -0.354 N 
ATOM     53  N   UNL A   1      44.943  29.923  27.797  1.00  0.00    -0.248 NA
ATOM     54  C   UNL A   1      47.091  30.301  26.963  1.00  0.00     0.031 C 
ATOM     55  C   UNL A   1      42.557  32.979  29.999  1.00  0.00     0.029 A 
ATOM     56  C   UNL A   1      43.314  32.040  29.314  1.00  0.00     0.049 A 
ATOM     57  H   UNL A   1      42.790  30.078  28.745  1.00  0.00     0.167 HD
ATOM     58  C   UNL A   1      45.340  31.207  28.138  1.00  0.00     0.074 A 
ATOM     59  C   UNL A   1      46.687  31.373  27.630  1.00  0.00     0.031 C 
ATOM     60  C   UNL A   1      44.657  32.166  28.809  1.00  0.00     0.037 A 
BRANCH  47  61
ATOM     61  C   UNL A   1      38.944  30.528  30.537  1.00  0.00     0.064 A 
ATOM     62  C   UNL A   1      37.857  31.022  29.796  1.00  0.00     0.173 A 
ATOM     63  C   UNL A   1      38.776  30.384  31.922  1.00  0.00     0.173 A 
ATOM     64  F   UNL A   1      37.967  31.193  28.469  1.00  0.00    -0.203 F 
ATOM     65  C   UNL A   1      36.670  31.395  30.421  1.00  0.00     0.198 A 
ATOM     66  C   UNL A   1      37.573  30.724  32.540  1.00  0.00     0.198 A 
ATOM     67  F   UNL A   1      39.777  29.914  32.681  1.00  0.00    -0.203 F 
ATOM     68  F   UNL A   1      35.673  31.925  29.697  1.00  0.00    -0.200 F 
ATOM     69  C   UNL A   1      36.526  31.239  31.790  1.00  0.00     0.200 A 
ATOM     70  F   UNL A   1      37.430  30.560  33.862  1.00  0.00    -0.200 F 
ATOM     71  F   UNL A   1      35.381  31.593  32.389  1.00  0.00    -0.200 F 
ENDBRANCH  47  61
BRANCH  48  72
ATOM     72  C   UNL A   1      47.312  27.599  25.835  1.00  0.00     0.064 A 
ATOM     73  C   UNL A   1      48.412  27.079  26.532  1.00  0.00     0.173 A 
ATOM     74  C   UNL A   1      47.419  27.707  24.440  1.00  0.00     0.173 A 
ATOM     75  F   UNL A   1      48.365  26.967  27.868  1.00  0.00    -0.203 F 
ATOM     76  C   UNL A   1      49.580  26.709  25.868  1.00  0.00     0.198 A 
ATOM     77  C   UNL A   1      48.577  27.309  23.774  1.00  0.00     0.198 A 
ATOM     78  F   UNL A   1      46.393  28.187  23.723  1.00  0.00    -0.203 F 
ATOM     79  F   UNL A   1      50.632  26.261  26.567  1.00  0.00    -0.200 F 
ATOM     80  C   UNL A   1      49.660  26.820  24.489  1.00  0.00     0.200 A 
ATOM     81  F   UNL A   1      48.643  27.399  22.438  1.00  0.00    -0.200 F 
ATOM     82  F   UNL A   1      50.781  26.461  23.850  1.00  0.00    -0.200 F 
ENDBRANCH  48  72
BRANCH  60  83
ATOM     83  C   UNL A   1      45.371  33.461  29.066  1.00  0.00     0.064 A 
ATOM     84  C   UNL A   1      45.280  34.540  28.177  1.00  0.00     0.173 A 
ATOM     85  C   UNL A   1      46.120  33.633  30.240  1.00  0.00     0.173 A 
ATOM     86  F   UNL A   1      44.589  34.418  27.034  1.00  0.00    -0.203 F 
ATOM     87  C   UNL A   1      45.937  35.739  28.441  1.00  0.00     0.198 A 
ATOM     88  C   UNL A   1      46.747  34.842  30.517  1.00  0.00     0.198 A 
ATOM     89  F   UNL A   1      46.229  32.631  31.126  1.00  0.00    -0.203 F 
ATOM     90  F   UNL A   1      45.878  36.741  27.554  1.00  0.00    -0.200 F 
ATOM     91  C   UNL A   1      46.662  35.892  29.614  1.00  0.00     0.200 A 
ATOM     92  F   UNL A   1      47.433  34.994  31.658  1.00  0.00    -0.200 F 
ATOM     93  F   UNL A   1      47.285  37.049  29.871  1.00  0.00    -0.200 F 
ENDBRANCH  60  83
ENDBRANCH  34  35
ENDBRANCH  26  29
ENDBRANCH  24  25
ENDBRANCH  23  24
ENDBRANCH   1  23
TORSDOF 14
ENDMDL
